REMARK SMILES Cn1cc(SCC[C@H]2CCC[C@]2([NH2+]C2CC2)C(=O)OCCOCCOCCOC(=O)c2ccc(-c3c4nc(c(-c5c(F)cc(S(=O)(=O)[O-])cc5F)c5ccc([nH]5)c(-c5c(F)cc(S(=O)(=O)[O-])cc5F)c5nc(c(-c6c(F)cc(S(=O)(=O)[O-])cc6F)c6ccc3[nH]6)C=C5)C=C4)cc2)cn1
REMARK SMILES IDX 23 1 22 2 21 3 20 4 19 5 17 6 18 7 12 8 8 9 9 10 10 11 11 12
REMARK SMILES IDX 7 13 6 14 5 15 4 16 1 17 2 18 3 19 98 20 97 21 13 22 14 25
REMARK SMILES IDX 15 26 16 27 24 28 25 29 26 30 27 31 28 32 29 33 30 34 31 35
REMARK SMILES IDX 32 36 96 37 33 38 95 39 34 40 35 41 36 42 89 43 37 44 94 45
REMARK SMILES IDX 88 46 90 47 38 48 93 49 87 50 86 51 39 53 73 54 52 55 72 56
REMARK SMILES IDX 53 57 56 58 71 59 91 60 54 61 55 62 70 64 92 65 57 66 40 67
REMARK SMILES IDX 41 68 50 69 42 70 43 71 49 72 51 73 44 74 45 75 46 76 47 77
REMARK SMILES IDX 48 78 74 79 75 80 84 81 76 82 77 83 83 84 85 85 78 86 79 87
REMARK SMILES IDX 80 88 81 89 82 90 58 91 59 92 68 93 60 94 61 95 67 96 69 97
REMARK SMILES IDX 62 98 63 99 64 100 65 101 66 102
REMARK H PARENT 13 23 13 24 90 52 56 63
REMARK Flexibility Score: inf
ROOT
ATOM      1  C   UNL     1       2.221  -2.678  -2.602  1.00  0.00     0.188 C 
ENDROOT
BRANCH   1   2
ATOM      2  O   UNL     1       2.994  -1.582  -3.079  1.00  0.00    -0.376 OA
BRANCH   2   3
ATOM      3  C   UNL     1       3.977  -1.061  -2.196  1.00  0.00     0.202 C 
BRANCH   3   4
ATOM      4  C   UNL     1       3.519  -0.264  -0.963  1.00  0.00     0.261 C 
BRANCH   4   5
ATOM      5  O   UNL     1       2.550  -0.864  -0.084  1.00  0.00    -0.459 OA
BRANCH   5   6
ATOM      6  C   UNL     1       1.280  -0.350  -0.218  1.00  0.00     0.368 C 
ATOM      7  O   UNL     1       0.872   0.151  -1.260  1.00  0.00    -0.245 OA
BRANCH   6   8
ATOM      8  C   UNL     1       0.446  -0.430   1.114  1.00  0.00     0.197 C 
ATOM      9  C   UNL     1       0.205  -1.952   1.471  1.00  0.00     0.063 C 
ATOM     10  C   UNL     1      -0.987  -2.261   0.556  1.00  0.00     0.011 C 
ATOM     11  C   UNL     1      -1.924  -1.093   0.737  1.00  0.00     0.008 C 
ATOM     12  C   UNL     1      -1.004   0.108   0.922  1.00  0.00     0.081 C 
BRANCH   9  13
ATOM     13  C   UNL     1      -0.073  -2.248   2.977  1.00  0.00     0.022 C 
BRANCH  13  14
ATOM     14  C   UNL     1      -0.810  -3.545   3.386  1.00  0.00     0.075 C 
BRANCH  14  15
ATOM     15  S   UNL     1       0.190  -5.079   3.519  1.00  0.00    -0.123 SA
BRANCH  15  16
ATOM     16  C   UNL     1      -0.042  -5.703   1.924  1.00  0.00     0.045 A 
ATOM     17  C   UNL     1      -0.308  -4.805  -1.386  1.00  0.00     0.173 C 
ATOM     18  N   UNL     1      -0.146  -5.621  -0.216  1.00  0.00    -0.275 N 
ATOM     19  C   UNL     1       0.664  -5.294   0.827  1.00  0.00     0.123 A 
ATOM     20  N   UNL     1      -1.074  -6.543   0.090  1.00  0.00    -0.181 NA
ATOM     21  C   UNL     1      -1.033  -6.571   1.429  1.00  0.00     0.150 A 
ENDBRANCH  15  16
ENDBRANCH  14  15
ENDBRANCH  13  14
ENDBRANCH   9  13
BRANCH   8  22
ATOM     22  N   UNL     1       1.156   0.332   2.168  1.00  0.00    -0.329 N 
ATOM     23  H   UNL     1       2.000  -0.194   2.396  1.00  0.00     0.347 HD
ATOM     24  H   UNL     1       0.455   0.430   2.903  1.00  0.00     0.347 HD
BRANCH  22  25
ATOM     25  C   UNL     1       1.577   1.724   1.909  1.00  0.00     0.183 C 
ATOM     26  C   UNL     1       1.173   2.598   0.755  1.00  0.00     0.071 C 
ATOM     27  C   UNL     1       0.585   2.847   2.107  1.00  0.00     0.071 C 
ENDBRANCH  22  25
ENDBRANCH   8  22
ENDBRANCH   6   8
ENDBRANCH   5   6
ENDBRANCH   4   5
ENDBRANCH   3   4
ENDBRANCH   2   3
ENDBRANCH   1   2
BRANCH   1  28
ATOM     28  C   UNL     1       3.008  -3.915  -2.144  1.00  0.00     0.188 C 
BRANCH  28  29
ATOM     29  O   UNL     1       3.311  -4.740  -3.267  1.00  0.00    -0.376 OA
BRANCH  29  30
ATOM     30  C   UNL     1       2.731  -6.050  -3.226  1.00  0.00     0.202 C 
BRANCH  30  31
ATOM     31  C   UNL     1       1.979  -6.332  -4.532  1.00  0.00     0.261 C 
BRANCH  31  32
ATOM     32  O   UNL     1       0.681  -5.692  -4.559  1.00  0.00    -0.460 OA
BRANCH  32  33
ATOM     33  C   UNL     1      -0.406  -6.511  -4.543  1.00  0.00     0.338 C 
ATOM     34  O   UNL     1      -0.404  -7.726  -4.446  1.00  0.00    -0.246 OA
BRANCH  33  35
ATOM     35  C   UNL     1      -1.632  -5.680  -4.510  1.00  0.00     0.060 A 
ATOM     36  C   UNL     1      -2.454  -5.728  -3.380  1.00  0.00     0.016 A 
ATOM     37  C   UNL     1      -1.968  -4.844  -5.576  1.00  0.00     0.016 A 
ATOM     38  C   UNL     1      -3.545  -4.861  -3.263  1.00  0.00     0.010 A 
ATOM     39  C   UNL     1      -3.131  -4.062  -5.506  1.00  0.00     0.010 A 
ATOM     40  C   UNL     1      -3.929  -4.061  -4.349  1.00  0.00    -0.014 A 
BRANCH  40  41
ATOM     41  C   UNL     1      -5.279  -3.429  -4.359  1.00  0.00     0.031 A 
ATOM     42  C   UNL     1      -6.484  -4.336  -4.436  1.00  0.00     0.074 A 
ATOM     43  C   UNL     1      -5.457  -2.093  -4.307  1.00  0.00     0.049 A 
ATOM     44  N   UNL     1      -7.753  -4.027  -4.511  1.00  0.00    -0.248 NA
ATOM     45  C   UNL     1      -6.223  -5.785  -4.396  1.00  0.00     0.031 C 
ATOM     46  C   UNL     1      -4.402  -1.097  -4.126  1.00  0.00     0.029 A 
ATOM     47  N   UNL     1      -6.607  -1.343  -4.408  1.00  0.00    -0.354 N 
ATOM     48  C   UNL     1      -8.435  -5.238  -4.494  1.00  0.00     0.074 A 
ATOM     49  C   UNL     1      -7.447  -6.286  -4.388  1.00  0.00     0.031 C 
ATOM     50  C   UNL     1      -4.951   0.133  -4.152  1.00  0.00     0.029 A 
ATOM     51  C   UNL     1      -6.389   0.017  -4.395  1.00  0.00     0.049 A 
ATOM     52  H   UNL     1      -7.503  -1.742  -4.482  1.00  0.00     0.167 HD
ATOM     53  C   UNL     1      -9.763  -5.473  -4.596  1.00  0.00     0.037 A 
ATOM     54  C   UNL     1      -7.247   1.042  -4.594  1.00  0.00     0.037 A 
ATOM     55  C   UNL     1     -10.745  -4.456  -4.835  1.00  0.00     0.049 A 
ATOM     56  C   UNL     1      -8.701   0.747  -4.889  1.00  0.00     0.074 A 
ATOM     57  C   UNL     1     -12.098  -4.607  -5.077  1.00  0.00     0.029 A 
ATOM     58  N   UNL     1     -10.470  -3.100  -4.902  1.00  0.00    -0.354 N 
ATOM     59  N   UNL     1      -9.327  -0.406  -4.897  1.00  0.00    -0.248 NA
ATOM     60  C   UNL     1      -9.562   1.893  -5.225  1.00  0.00     0.031 C 
ATOM     61  C   UNL     1     -12.634  -3.341  -5.339  1.00  0.00     0.029 A 
ATOM     62  C   UNL     1     -11.624  -2.401  -5.207  1.00  0.00     0.049 A 
ATOM     63  H   UNL     1      -9.585  -2.694  -4.755  1.00  0.00     0.167 HD
ATOM     64  C   UNL     1     -10.654  -0.121  -5.214  1.00  0.00     0.074 A 
ATOM     65  C   UNL     1     -10.745   1.313  -5.382  1.00  0.00     0.031 C 
ATOM     66  C   UNL     1     -11.702  -0.970  -5.355  1.00  0.00     0.037 A 
BRANCH  53  67
ATOM     67  C   UNL     1     -10.193  -6.908  -4.544  1.00  0.00     0.058 A 
ATOM     68  C   UNL     1     -10.232  -7.617  -3.334  1.00  0.00     0.135 A 
ATOM     69  C   UNL     1     -10.513  -7.595  -5.725  1.00  0.00     0.135 A 
ATOM     70  F   UNL     1      -9.898  -7.010  -2.183  1.00  0.00    -0.206 F 
ATOM     71  C   UNL     1     -10.550  -8.970  -3.299  1.00  0.00     0.059 A 
ATOM     72  C   UNL     1     -10.852  -8.944  -5.711  1.00  0.00     0.059 A 
ATOM     73  F   UNL     1     -10.469  -6.963  -6.908  1.00  0.00    -0.206 F 
ATOM     74  C   UNL     1     -10.850  -9.626  -4.495  1.00  0.00     0.060 A 
BRANCH  74  75
ATOM     75  S   UNL     1     -11.229 -11.390  -4.441  1.00  0.00     0.124 S 
ATOM     76  O   UNL     1      -9.906 -11.964  -4.216  1.00  0.00    -0.237 OA
ATOM     77  O   UNL     1     -12.157 -11.477  -3.318  1.00  0.00    -0.237 OA
ATOM     78  O   UNL     1     -11.811 -11.652  -5.753  1.00  0.00    -0.744 OA
ENDBRANCH  74  75
ENDBRANCH  53  67
BRANCH  54  79
ATOM     79  C   UNL     1      -6.767   2.456  -4.587  1.00  0.00     0.058 A 
ATOM     80  C   UNL     1      -7.200   3.366  -3.609  1.00  0.00     0.135 A 
ATOM     81  C   UNL     1      -5.923   2.945  -5.596  1.00  0.00     0.135 A 
ATOM     82  F   UNL     1      -8.029   2.959  -2.635  1.00  0.00    -0.206 F 
ATOM     83  C   UNL     1      -6.831   4.709  -3.642  1.00  0.00     0.059 A 
ATOM     84  C   UNL     1      -5.518   4.277  -5.636  1.00  0.00     0.059 A 
ATOM     85  F   UNL     1      -5.483   2.123  -6.562  1.00  0.00    -0.206 F 
ATOM     86  C   UNL     1      -5.990   5.156  -4.663  1.00  0.00     0.060 A 
BRANCH  86  87
ATOM     87  S   UNL     1      -5.497   6.894  -4.686  1.00  0.00     0.124 S 
ATOM     88  O   UNL     1      -6.718   7.540  -5.153  1.00  0.00    -0.237 OA
ATOM     89  O   UNL     1      -5.142   7.133  -3.291  1.00  0.00    -0.237 OA
ATOM     90  O   UNL     1      -4.376   6.912  -5.622  1.00  0.00    -0.744 OA
ENDBRANCH  86  87
ENDBRANCH  54  79
BRANCH  66  91
ATOM     91  C   UNL     1     -13.051  -0.385  -5.671  1.00  0.00     0.058 A 
ATOM     92  C   UNL     1     -13.370   0.087  -6.953  1.00  0.00     0.135 A 
ATOM     93  C   UNL     1     -14.067  -0.390  -4.701  1.00  0.00     0.135 A 
ATOM     94  F   UNL     1     -12.434   0.114  -7.915  1.00  0.00    -0.206 F 
ATOM     95  C   UNL     1     -14.648   0.543  -7.261  1.00  0.00     0.059 A 
ATOM     96  C   UNL     1     -15.358   0.039  -4.994  1.00  0.00     0.059 A 
ATOM     97  F   UNL     1     -13.817  -0.844  -3.463  1.00  0.00    -0.206 F 
ATOM     98  C   UNL     1     -15.637   0.510  -6.276  1.00  0.00     0.060 A 
BRANCH  98  99
ATOM     99  S   UNL     1     -17.308   1.047  -6.702  1.00  0.00     0.124 S 
ATOM    100  O   UNL     1     -17.155   2.498  -6.720  1.00  0.00    -0.237 OA
ATOM    101  O   UNL     1     -17.520   0.415  -8.001  1.00  0.00    -0.237 OA
ATOM    102  O   UNL     1     -18.123   0.514  -5.614  1.00  0.00    -0.744 OA
ENDBRANCH  98  99
ENDBRANCH  66  91
ENDBRANCH  40  41
ENDBRANCH  33  35
ENDBRANCH  32  33
ENDBRANCH  31  32
ENDBRANCH  30  31
ENDBRANCH  29  30
ENDBRANCH  28  29
ENDBRANCH   1  28
TORSDOF 26
