REMARK SMILES Cc1c(CC(=O)OCCOCCOCCOC(=O)c2ccc(-c3c4nc(c(-c5c(F)cc(S(=O)(=O)[O-])cc5F)c5ccc([nH]5)c(-c5c(F)cc(S(=O)(=O)[O-])cc5F)c5nc(c(-c6c(F)cc(S(=O)(=O)[O-])cc6F)c6ccc3[nH]6)C=C5)C=C4)cc2)cccc1-c1ccn(C(F)F)c(=O)c1
REMARK SMILES IDX 11 1 10 2 9 3 8 4 7 5 5 6 6 7 4 8 3 9 1 10 2 11 88 12 85 13
REMARK SMILES IDX 87 14 86 15 89 16 90 17 98 18 91 19 96 20 92 21 97 22 93 23
REMARK SMILES IDX 94 24 95 25 12 26 13 27 14 28 15 29 16 30 17 31 18 32 19 33
REMARK SMILES IDX 20 34 84 35 21 36 83 37 22 38 23 39 24 40 77 41 25 42 82 43
REMARK SMILES IDX 76 44 78 45 26 46 81 47 75 48 74 49 27 51 61 52 40 53 60 54
REMARK SMILES IDX 41 55 44 56 59 57 79 58 42 59 43 60 58 62 80 63 45 64 28 65
REMARK SMILES IDX 29 66 38 67 30 68 31 69 37 70 39 71 32 72 33 73 34 74 35 75
REMARK SMILES IDX 36 76 62 77 63 78 72 79 64 80 65 81 71 82 73 83 66 84 67 85
REMARK SMILES IDX 68 86 69 87 70 88 46 89 47 90 56 91 48 92 49 93 55 94 57 95
REMARK SMILES IDX 50 96 51 97 52 98 53 99 54 100
REMARK H PARENT 78 50 44 61
REMARK Flexibility Score: inf
ROOT
ATOM      1  C   UNL     1      -1.997  -3.825   4.377  1.00  0.00     0.188 C 
ENDROOT
BRANCH   1   2
ATOM      2  O   UNL     1      -0.738  -3.224   4.769  1.00  0.00    -0.376 OA
BRANCH   2   3
ATOM      3  C   UNL     1      -0.421  -1.818   4.756  1.00  0.00     0.202 C 
BRANCH   3   4
ATOM      4  C   UNL     1       0.702  -1.003   3.720  1.00  0.00     0.261 C 
BRANCH   4   5
ATOM      5  O   UNL     1       0.713  -0.814   2.010  1.00  0.00    -0.463 OA
BRANCH   5   6
ATOM      6  C   UNL     1       1.224  -1.436   0.815  1.00  0.00     0.310 C 
ATOM      7  O   UNL     1       2.029  -2.365   0.684  1.00  0.00    -0.252 OA
BRANCH   6   8
ATOM      8  C   UNL     1       0.752  -1.050  -0.536  1.00  0.00     0.158 C 
BRANCH   8   9
ATOM      9  C   UNL     1       0.196   0.297  -0.650  1.00  0.00    -0.033 A 
ATOM     10  C   UNL     1       2.499   1.291  -0.189  1.00  0.00     0.045 C 
ATOM     11  C   UNL     1       1.000   1.418  -0.414  1.00  0.00    -0.039 A 
ATOM     12  C   UNL     1       0.364   2.659  -0.488  1.00  0.00    -0.015 A 
ATOM     13  C   UNL     1      -1.154   0.387  -1.003  1.00  0.00     0.004 A 
ATOM     14  C   UNL     1      -1.008   2.754  -0.786  1.00  0.00     0.009 A 
ATOM     15  C   UNL     1      -1.763   1.619  -1.058  1.00  0.00     0.001 A 
BRANCH  12  16
ATOM     16  C   UNL     1       1.157   3.866  -0.274  1.00  0.00    -0.011 A 
ATOM     17  C   UNL     1       2.082   4.345  -1.275  1.00  0.00     0.027 A 
ATOM     18  C   UNL     1       1.148   4.396   0.958  1.00  0.00     0.080 A 
ATOM     19  C   UNL     1       2.978   5.281  -0.955  1.00  0.00     0.095 A 
ATOM     20  C   UNL     1       2.076   5.503   1.294  1.00  0.00     0.255 A 
ATOM     21  N   UNL     1       2.990   5.843   0.308  1.00  0.00    -0.258 N 
ATOM     22  O   UNL     1       1.984   6.027   2.399  1.00  0.00    -0.269 OA
BRANCH  21  23
ATOM     23  C   UNL     1       3.946   6.863   0.633  1.00  0.00     0.451 C 
ATOM     24  F   UNL     1       3.328   8.059   0.796  1.00  0.00    -0.185 F 
ATOM     25  F   UNL     1       4.618   6.575   1.771  1.00  0.00    -0.185 F 
ENDBRANCH  21  23
ENDBRANCH  12  16
ENDBRANCH   8   9
ENDBRANCH   6   8
ENDBRANCH   5   6
ENDBRANCH   4   5
ENDBRANCH   3   4
ENDBRANCH   2   3
ENDBRANCH   1   2
BRANCH   1  26
ATOM     26  C   UNL     1      -3.375  -3.159   4.525  1.00  0.00     0.188 C 
BRANCH  26  27
ATOM     27  O   UNL     1      -3.360  -1.815   4.073  1.00  0.00    -0.376 OA
BRANCH  27  28
ATOM     28  C   UNL     1      -4.631  -1.193   3.935  1.00  0.00     0.202 C 
BRANCH  28  29
ATOM     29  C   UNL     1      -5.436  -1.609   2.679  1.00  0.00     0.261 C 
BRANCH  29  30
ATOM     30  O   UNL     1      -4.850  -1.157   1.430  1.00  0.00    -0.460 OA
BRANCH  30  31
ATOM     31  C   UNL     1      -4.489  -2.109   0.477  1.00  0.00     0.338 C 
ATOM     32  O   UNL     1      -5.174  -2.355  -0.471  1.00  0.00    -0.246 OA
BRANCH  31  33
ATOM     33  C   UNL     1      -3.051  -2.536   0.666  1.00  0.00     0.060 A 
ATOM     34  C   UNL     1      -2.343  -3.647   0.185  1.00  0.00     0.016 A 
ATOM     35  C   UNL     1      -2.330  -1.730   1.462  1.00  0.00     0.016 A 
ATOM     36  C   UNL     1      -1.000  -4.023   0.682  1.00  0.00     0.010 A 
ATOM     37  C   UNL     1      -1.164  -2.233   2.023  1.00  0.00     0.010 A 
ATOM     38  C   UNL     1      -0.345  -3.342   1.715  1.00  0.00    -0.014 A 
BRANCH  38  39
ATOM     39  C   UNL     1       1.024  -3.783   2.576  1.00  0.00     0.031 A 
ATOM     40  C   UNL     1       2.590  -3.096   2.889  1.00  0.00     0.074 A 
ATOM     41  C   UNL     1       0.908  -4.996   3.165  1.00  0.00     0.049 A 
ATOM     42  N   UNL     1       3.621  -3.776   3.371  1.00  0.00    -0.248 NA
ATOM     43  C   UNL     1       3.154  -1.704   2.619  1.00  0.00     0.031 C 
ATOM     44  C   UNL     1       1.746  -5.580   4.205  1.00  0.00     0.029 A 
ATOM     45  N   UNL     1       0.047  -6.035   2.804  1.00  0.00    -0.354 N 
ATOM     46  C   UNL     1       4.698  -2.903   3.574  1.00  0.00     0.074 A 
ATOM     47  C   UNL     1       4.453  -1.748   2.825  1.00  0.00     0.031 C 
ATOM     48  C   UNL     1       1.592  -6.910   4.184  1.00  0.00     0.029 A 
ATOM     49  C   UNL     1       0.730  -7.234   3.066  1.00  0.00     0.049 A 
ATOM     50  H   UNL     1      -0.862  -5.944   2.437  1.00  0.00     0.167 HD
ATOM     51  C   UNL     1       5.714  -3.077   4.458  1.00  0.00     0.037 A 
ATOM     52  C   UNL     1       1.013  -8.078   2.034  1.00  0.00     0.037 A 
ATOM     53  C   UNL     1       5.907  -4.488   4.659  1.00  0.00     0.049 A 
ATOM     54  C   UNL     1       2.501  -8.195   1.763  1.00  0.00     0.074 A 
ATOM     55  C   UNL     1       5.497  -5.410   5.597  1.00  0.00     0.029 A 
ATOM     56  N   UNL     1       6.276  -5.210   3.535  1.00  0.00    -0.354 N 
ATOM     57  N   UNL     1       3.443  -7.761   2.562  1.00  0.00    -0.248 NA
ATOM     58  C   UNL     1       3.047  -8.759   0.526  1.00  0.00     0.031 C 
ATOM     59  C   UNL     1       5.391  -6.669   4.917  1.00  0.00     0.029 A 
ATOM     60  C   UNL     1       5.808  -6.508   3.603  1.00  0.00     0.049 A 
ATOM     61  H   UNL     1       6.803  -4.846   2.787  1.00  0.00     0.167 HD
ATOM     62  C   UNL     1       4.650  -7.841   1.920  1.00  0.00     0.074 A 
ATOM     63  C   UNL     1       4.361  -8.526   0.672  1.00  0.00     0.031 C 
ATOM     64  C   UNL     1       5.812  -7.299   2.381  1.00  0.00     0.037 A 
BRANCH  51  65
ATOM     65  C   UNL     1       6.491  -1.906   5.085  1.00  0.00     0.058 A 
ATOM     66  C   UNL     1       7.660  -2.125   5.837  1.00  0.00     0.135 A 
ATOM     67  C   UNL     1       6.060  -0.543   5.092  1.00  0.00     0.135 A 
ATOM     68  F   UNL     1       8.149  -3.365   5.982  1.00  0.00    -0.206 F 
ATOM     69  C   UNL     1       8.345  -1.092   6.511  1.00  0.00     0.059 A 
ATOM     70  C   UNL     1       6.768   0.509   5.681  1.00  0.00     0.059 A 
ATOM     71  F   UNL     1       4.873  -0.159   4.602  1.00  0.00    -0.206 F 
ATOM     72  C   UNL     1       7.894   0.223   6.424  1.00  0.00     0.060 A 
BRANCH  72  73
ATOM     73  S   UNL     1       8.716   1.544   7.345  1.00  0.00     0.124 S 
ATOM     74  O   UNL     1       8.289   1.263   8.712  1.00  0.00    -0.237 OA
ATOM     75  O   UNL     1      10.125   1.307   7.055  1.00  0.00    -0.237 OA
ATOM     76  O   UNL     1       8.162   2.764   6.761  1.00  0.00    -0.744 OA
ENDBRANCH  72  73
ENDBRANCH  51  65
BRANCH  52  77
ATOM     77  C   UNL     1      -0.134  -8.173   1.075  1.00  0.00     0.058 A 
ATOM     78  C   UNL     1      -1.367  -8.614   1.611  1.00  0.00     0.135 A 
ATOM     79  C   UNL     1      -0.187  -7.510  -0.159  1.00  0.00     0.135 A 
ATOM     80  F   UNL     1      -1.392  -9.264   2.787  1.00  0.00    -0.206 F 
ATOM     81  C   UNL     1      -2.592  -8.270   1.050  1.00  0.00     0.059 A 
ATOM     82  C   UNL     1      -1.413  -7.184  -0.763  1.00  0.00     0.059 A 
ATOM     83  F   UNL     1       0.933  -7.038  -0.725  1.00  0.00    -0.206 F 
ATOM     84  C   UNL     1      -2.606  -7.509  -0.112  1.00  0.00     0.060 A 
BRANCH  84  85
ATOM     85  S   UNL     1      -4.197  -6.815  -0.631  1.00  0.00     0.124 S 
ATOM     86  O   UNL     1      -5.009  -8.012  -0.817  1.00  0.00    -0.237 OA
ATOM     87  O   UNL     1      -4.544  -5.990   0.525  1.00  0.00    -0.237 OA
ATOM     88  O   UNL     1      -3.860  -6.086  -1.848  1.00  0.00    -0.744 OA
ENDBRANCH  84  85
ENDBRANCH  52  77
BRANCH  64  89
ATOM     89  C   UNL     1       7.086  -7.505   1.627  1.00  0.00     0.058 A 
ATOM     90  C   UNL     1       7.622  -8.795   1.515  1.00  0.00     0.135 A 
ATOM     91  C   UNL     1       7.860  -6.439   1.133  1.00  0.00     0.135 A 
ATOM     92  F   UNL     1       6.931  -9.857   1.961  1.00  0.00    -0.206 F 
ATOM     93  C   UNL     1       8.878  -9.020   0.962  1.00  0.00     0.059 A 
ATOM     94  C   UNL     1       9.134  -6.636   0.607  1.00  0.00     0.059 A 
ATOM     95  F   UNL     1       7.397  -5.179   1.170  1.00  0.00    -0.206 F 
ATOM     96  C   UNL     1       9.633  -7.934   0.524  1.00  0.00     0.060 A 
BRANCH  96  97
ATOM     97  S   UNL     1      11.301  -8.209  -0.104  1.00  0.00     0.124 S 
ATOM     98  O   UNL     1      11.715  -9.426   0.590  1.00  0.00    -0.237 OA
ATOM     99  O   UNL     1      11.053  -8.354  -1.534  1.00  0.00    -0.237 OA
ATOM    100  O   UNL     1      12.009  -6.998   0.298  1.00  0.00    -0.744 OA
ENDBRANCH  96  97
ENDBRANCH  64  89
ENDBRANCH  38  39
ENDBRANCH  31  33
ENDBRANCH  30  31
ENDBRANCH  29  30
ENDBRANCH  28  29
ENDBRANCH  27  28
ENDBRANCH  26  27
ENDBRANCH   1  26
TORSDOF 23
