REMARK SMILES O=C(OCCOCCOCCOC(=O)[C@@]1(CCc2ccccc2)CCC[N@@H+](Cc2cccnc2)C1)c1ccc(-c2c3nc(c(-c4c(F)cc(S(=O)(=O)[O-])cc4F)c4ccc([nH]4)c(-c4c(F)cc(S(=O)(=O)[O-])cc4F)c4nc(c(-c5c(F)cc(S(=O)(=O)[O-])cc5F)c5ccc2[nH]5)C=C4)C=C3)cc1
REMARK SMILES IDX 7 1 6 2 5 3 4 4 3 5 2 6 1 7 36 8 37 9 101 10 38 11 100 12
REMARK SMILES IDX 39 13 40 14 41 15 94 16 42 17 99 18 93 19 95 20 43 21 98 22
REMARK SMILES IDX 92 23 91 24 44 26 78 27 57 28 77 29 58 30 61 31 76 32 96 33
REMARK SMILES IDX 59 34 60 35 75 37 97 38 62 39 45 40 46 41 55 42 47 43 48 44
REMARK SMILES IDX 54 45 56 46 49 47 50 48 51 49 52 50 53 51 79 52 80 53 89 54
REMARK SMILES IDX 81 55 82 56 88 57 90 58 83 59 84 60 85 61 86 62 87 63 63 64
REMARK SMILES IDX 64 65 73 66 65 67 66 68 72 69 74 70 67 71 68 72 69 73 70 74
REMARK SMILES IDX 71 75 8 76 9 77 10 78 11 79 12 80 13 81 14 82 15 83 24 84
REMARK SMILES IDX 35 85 25 86 27 87 26 88 16 90 17 91 18 92 19 93 23 94 20 95
REMARK SMILES IDX 22 96 21 97 28 98 29 99 30 100 34 101 31 102 33 103 32 104
REMARK H PARENT 95 25 61 36 27 89
REMARK Flexibility Score: inf
ROOT
ATOM      1  C   UNL     1       2.995  -0.869   8.569  1.00  0.00     0.188 C 
ENDROOT
BRANCH   1   2
ATOM      2  O   UNL     1       1.624  -0.632   8.251  1.00  0.00    -0.376 OA
BRANCH   2   3
ATOM      3  C   UNL     1       0.729  -1.121   9.253  1.00  0.00     0.202 C 
BRANCH   3   4
ATOM      4  C   UNL     1       0.603  -2.660   9.413  1.00  0.00     0.261 C 
BRANCH   4   5
ATOM      5  O   UNL     1       1.827  -3.441   9.237  1.00  0.00    -0.460 OA
BRANCH   5   6
ATOM      6  C   UNL     1       2.047  -4.367   8.236  1.00  0.00     0.338 C 
ATOM      7  O   UNL     1       2.821  -5.302   8.379  1.00  0.00    -0.246 OA
BRANCH   6   8
ATOM      8  C   UNL     1       1.383  -4.126   6.939  1.00  0.00     0.060 A 
ATOM      9  C   UNL     1       1.324  -2.841   6.575  1.00  0.00     0.016 A 
ATOM     10  C   UNL     1       0.914  -4.989   5.977  1.00  0.00     0.016 A 
ATOM     11  C   UNL     1       0.127  -2.469   6.016  1.00  0.00     0.010 A 
ATOM     12  C   UNL     1       0.006  -4.489   4.954  1.00  0.00     0.010 A 
ATOM     13  C   UNL     1      -0.715  -3.114   4.914  1.00  0.00    -0.014 A 
BRANCH  13  14
ATOM     14  C   UNL     1      -2.405  -2.360   3.848  1.00  0.00     0.031 A 
ATOM     15  C   UNL     1      -4.027  -3.048   3.666  1.00  0.00     0.074 A 
ATOM     16  C   UNL     1      -2.841  -1.132   3.120  1.00  0.00     0.049 A 
ATOM     17  N   UNL     1      -4.726  -3.442   2.614  1.00  0.00    -0.248 NA
ATOM     18  C   UNL     1      -4.851  -3.215   4.908  1.00  0.00     0.031 C 
ATOM     19  C   UNL     1      -2.342   0.271   3.221  1.00  0.00     0.029 A 
ATOM     20  N   UNL     1      -3.643  -0.962   1.956  1.00  0.00    -0.354 N 
ATOM     21  C   UNL     1      -5.778  -4.203   3.154  1.00  0.00     0.074 A 
ATOM     22  C   UNL     1      -5.510  -4.311   4.565  1.00  0.00     0.031 C 
ATOM     23  C   UNL     1      -2.517   0.956   2.104  1.00  0.00     0.029 A 
ATOM     24  C   UNL     1      -3.347   0.202   1.229  1.00  0.00     0.049 A 
ATOM     25  H   UNL     1      -4.341  -1.602   1.686  1.00  0.00     0.167 HD
ATOM     26  C   UNL     1      -7.016  -4.557   2.711  1.00  0.00     0.037 A 
ATOM     27  C   UNL     1      -3.720   0.840   0.095  1.00  0.00     0.037 A 
ATOM     28  C   UNL     1      -7.704  -3.894   1.638  1.00  0.00     0.049 A 
ATOM     29  C   UNL     1      -5.065   0.504  -0.408  1.00  0.00     0.074 A 
ATOM     30  C   UNL     1      -8.978  -4.142   1.153  1.00  0.00     0.029 A 
ATOM     31  N   UNL     1      -7.264  -2.730   1.031  1.00  0.00    -0.354 N 
ATOM     32  N   UNL     1      -5.832  -0.472  -0.009  1.00  0.00    -0.248 NA
ATOM     33  C   UNL     1      -5.680   1.434  -1.361  1.00  0.00     0.031 C 
ATOM     34  C   UNL     1      -9.312  -3.127   0.251  1.00  0.00     0.029 A 
ATOM     35  C   UNL     1      -8.247  -2.248   0.180  1.00  0.00     0.049 A 
ATOM     36  H   UNL     1      -6.387  -2.309   1.180  1.00  0.00     0.167 HD
ATOM     37  C   UNL     1      -7.037  -0.261  -0.636  1.00  0.00     0.074 A 
ATOM     38  C   UNL     1      -6.919   0.968  -1.396  1.00  0.00     0.031 C 
ATOM     39  C   UNL     1      -8.134  -1.045  -0.592  1.00  0.00     0.037 A 
BRANCH  26  40
ATOM     40  C   UNL     1      -7.762  -5.654   3.460  1.00  0.00     0.058 A 
ATOM     41  C   UNL     1      -8.315  -5.509   4.746  1.00  0.00     0.135 A 
ATOM     42  C   UNL     1      -7.903  -6.911   2.846  1.00  0.00     0.135 A 
ATOM     43  F   UNL     1      -8.245  -4.332   5.390  1.00  0.00    -0.206 F 
ATOM     44  C   UNL     1      -8.870  -6.587   5.434  1.00  0.00     0.059 A 
ATOM     45  C   UNL     1      -8.510  -7.988   3.491  1.00  0.00     0.059 A 
ATOM     46  F   UNL     1      -7.450  -7.106   1.597  1.00  0.00    -0.206 F 
ATOM     47  C   UNL     1      -8.956  -7.826   4.801  1.00  0.00     0.060 A 
BRANCH  47  48
ATOM     48  S   UNL     1      -9.671  -9.218   5.704  1.00  0.00     0.124 S 
ATOM     49  O   UNL     1      -8.581  -9.572   6.608  1.00  0.00    -0.237 OA
ATOM     50  O   UNL     1     -10.842  -8.616   6.333  1.00  0.00    -0.237 OA
ATOM     51  O   UNL     1      -9.959 -10.191   4.655  1.00  0.00    -0.744 OA
ENDBRANCH  47  48
ENDBRANCH  26  40
BRANCH  27  52
ATOM     52  C   UNL     1      -2.964   2.058  -0.399  1.00  0.00     0.058 A 
ATOM     53  C   UNL     1      -3.416   3.376  -0.192  1.00  0.00     0.135 A 
ATOM     54  C   UNL     1      -1.694   1.916  -0.989  1.00  0.00     0.135 A 
ATOM     55  F   UNL     1      -4.582   3.591   0.434  1.00  0.00    -0.206 F 
ATOM     56  C   UNL     1      -2.677   4.491  -0.598  1.00  0.00     0.059 A 
ATOM     57  C   UNL     1      -0.928   3.016  -1.389  1.00  0.00     0.059 A 
ATOM     58  F   UNL     1      -1.166   0.692  -1.152  1.00  0.00    -0.206 F 
ATOM     59  C   UNL     1      -1.437   4.301  -1.208  1.00  0.00     0.060 A 
BRANCH  59  60
ATOM     60  S   UNL     1      -0.492   5.753  -1.741  1.00  0.00     0.124 S 
ATOM     61  O   UNL     1      -1.263   6.195  -2.898  1.00  0.00    -0.237 OA
ATOM     62  O   UNL     1      -0.556   6.619  -0.568  1.00  0.00    -0.237 OA
ATOM     63  O   UNL     1       0.828   5.205  -2.039  1.00  0.00    -0.744 OA
ENDBRANCH  59  60
ENDBRANCH  27  52
BRANCH  39  64
ATOM     64  C   UNL     1      -9.251  -0.631  -1.481  1.00  0.00     0.058 A 
ATOM     65  C   UNL     1      -9.105  -0.743  -2.873  1.00  0.00     0.135 A 
ATOM     66  C   UNL     1     -10.436  -0.093  -0.968  1.00  0.00     0.135 A 
ATOM     67  F   UNL     1      -7.971  -1.233  -3.398  1.00  0.00    -0.206 F 
ATOM     68  C   UNL     1     -10.089  -0.293  -3.734  1.00  0.00     0.059 A 
ATOM     69  C   UNL     1     -11.450   0.335  -1.814  1.00  0.00     0.059 A 
ATOM     70  F   UNL     1     -10.608   0.036   0.358  1.00  0.00    -0.206 F 
ATOM     71  C   UNL     1     -11.257   0.246  -3.195  1.00  0.00     0.060 A 
BRANCH  71  72
ATOM     72  S   UNL     1     -12.529   0.814  -4.334  1.00  0.00     0.124 S 
ATOM     73  O   UNL     1     -11.950   2.063  -4.817  1.00  0.00    -0.237 OA
ATOM     74  O   UNL     1     -12.586  -0.276  -5.304  1.00  0.00    -0.237 OA
ATOM     75  O   UNL     1     -13.707   0.952  -3.483  1.00  0.00    -0.744 OA
ENDBRANCH  71  72
ENDBRANCH  39  64
ENDBRANCH  13  14
ENDBRANCH   6   8
ENDBRANCH   5   6
ENDBRANCH   4   5
ENDBRANCH   3   4
ENDBRANCH   2   3
ENDBRANCH   1   2
BRANCH   1  76
ATOM     76  C   UNL     1       3.904   0.352   8.431  1.00  0.00     0.188 C 
BRANCH  76  77
ATOM     77  O   UNL     1       3.556   1.510   9.176  1.00  0.00    -0.376 OA
BRANCH  77  78
ATOM     78  C   UNL     1       2.315   2.143   8.873  1.00  0.00     0.202 C 
BRANCH  78  79
ATOM     79  C   UNL     1       2.095   2.720   7.464  1.00  0.00     0.261 C 
BRANCH  79  80
ATOM     80  O   UNL     1       2.143   1.770   6.381  1.00  0.00    -0.463 OA
BRANCH  80  81
ATOM     81  C   UNL     1       3.216   1.897   5.551  1.00  0.00     0.317 C 
ATOM     82  O   UNL     1       4.184   2.611   5.806  1.00  0.00    -0.251 OA
BRANCH  81  83
ATOM     83  C   UNL     1       3.166   1.004   4.302  1.00  0.00     0.117 C 
ATOM     84  C   UNL     1       4.228  -0.122   4.495  1.00  0.00     0.030 C 
ATOM     85  C   UNL     1       1.827   0.268   4.137  1.00  0.00     0.281 C 
ATOM     86  C   UNL     1       4.203  -1.171   3.371  1.00  0.00     0.063 C 
ATOM     87  N   UNL     1       1.846  -0.585   2.950  1.00  0.00    -0.330 N 
ATOM     88  C   UNL     1       2.795  -1.685   3.048  1.00  0.00     0.262 C 
ATOM     89  H   UNL     1       2.209   0.015   2.209  1.00  0.00     0.348 HD
BRANCH  83  90
ATOM     90  C   UNL     1       3.569   1.928   3.099  1.00  0.00     0.029 C 
BRANCH  90  91
ATOM     91  C   UNL     1       2.479   2.655   2.296  1.00  0.00     0.037 C 
BRANCH  91  92
ATOM     92  C   UNL     1       1.442   3.449   3.047  1.00  0.00    -0.048 A 
ATOM     93  C   UNL     1       0.110   3.028   2.996  1.00  0.00     0.004 A 
ATOM     94  C   UNL     1       1.728   4.631   3.730  1.00  0.00     0.004 A 
ATOM     95  C   UNL     1      -0.906   3.718   3.655  1.00  0.00     0.000 A 
ATOM     96  C   UNL     1       0.702   5.351   4.357  1.00  0.00     0.000 A 
ATOM     97  C   UNL     1      -0.612   4.888   4.333  1.00  0.00     0.000 A 
ENDBRANCH  91  92
ENDBRANCH  90  91
ENDBRANCH  83  90
BRANCH  87  98
ATOM     98  C   UNL     1       0.528  -0.968   2.450  1.00  0.00     0.300 C 
BRANCH  98  99
ATOM     99  C   UNL     1      -0.400  -1.723   3.366  1.00  0.00     0.025 A 
ATOM    100  C   UNL     1      -1.153  -1.045   4.905  1.00  0.00     0.013 A 
ATOM    101  C   UNL     1      -0.912  -3.354   2.825  1.00  0.00     0.120 A 
ATOM    102  C   UNL     1      -2.272  -2.089   5.929  1.00  0.00     0.021 A 
ATOM    103  N   UNL     1      -1.984  -4.379   3.816  1.00  0.00    -0.264 NA
ATOM    104  C   UNL     1      -2.541  -3.797   5.410  1.00  0.00     0.111 A 
ENDBRANCH  98  99
ENDBRANCH  87  98
ENDBRANCH  81  83
ENDBRANCH  80  81
ENDBRANCH  79  80
ENDBRANCH  78  79
ENDBRANCH  77  78
ENDBRANCH  76  77
ENDBRANCH   1  76
TORSDOF 25
