REMARK SMILES O=C(C[N@H+]1CCCC[C@H]1C(=O)OCCOCCOCCOC(=O)c1ccc(-c2c3nc(c(-c4c(F)cc(S(=O)(=O)[O-])cc4F)c4ccc([nH]4)c(-c4c(F)cc(S(=O)(=O)[O-])cc4F)c4nc(c(-c5c(F)cc(S(=O)(=O)[O-])cc5F)c5ccc2[nH]5)C=C4)C=C3)cc1)NC1CCCCC1
REMARK SMILES IDX 16 1 15 2 14 3 13 4 12 5 10 6 11 7 9 8 4 9 5 10 6 12 8 13
REMARK SMILES IDX 7 14 3 15 2 16 1 17 90 18 91 20 92 21 96 22 93 23 95 24
REMARK SMILES IDX 94 25 17 26 18 27 19 28 20 29 21 30 22 31 23 32 24 33 25 34
REMARK SMILES IDX 89 35 26 36 88 37 27 38 28 39 29 40 82 41 30 42 87 43 81 44
REMARK SMILES IDX 83 45 31 46 86 47 80 48 79 49 32 51 66 52 45 53 65 54 46 55
REMARK SMILES IDX 49 56 64 57 84 58 47 59 48 60 63 62 85 63 50 64 33 65 34 66
REMARK SMILES IDX 43 67 35 68 36 69 42 70 44 71 37 72 38 73 39 74 40 75 41 76
REMARK SMILES IDX 67 77 68 78 77 79 69 80 70 81 76 82 78 83 71 84 72 85 73 86
REMARK SMILES IDX 74 87 75 88 51 89 52 90 61 91 53 92 54 93 60 94 62 95 55 96
REMARK SMILES IDX 56 97 57 98 58 99 59 100
REMARK H PARENT 4 11 90 19 83 50 49 61
REMARK Flexibility Score: inf
ROOT
ATOM      1  C   UNL     1       1.565  -1.220  -4.565  1.00  0.00     0.188 C 
ENDROOT
BRANCH   1   2
ATOM      2  O   UNL     1       0.211  -0.809  -4.540  1.00  0.00    -0.376 OA
BRANCH   2   3
ATOM      3  C   UNL     1      -0.499  -1.026  -3.333  1.00  0.00     0.202 C 
BRANCH   3   4
ATOM      4  C   UNL     1       0.020  -0.277  -2.108  1.00  0.00     0.261 C 
BRANCH   4   5
ATOM      5  O   UNL     1       1.434  -0.355  -1.880  1.00  0.00    -0.459 OA
BRANCH   5   6
ATOM      6  C   UNL     1       1.950  -1.512  -1.377  1.00  0.00     0.365 C 
ATOM      7  O   UNL     1       1.300  -2.532  -1.206  1.00  0.00    -0.245 OA
BRANCH   6   8
ATOM      8  C   UNL     1       3.471  -1.314  -1.116  1.00  0.00     0.295 C 
ATOM      9  N   UNL     1       3.890  -1.715   0.244  1.00  0.00    -0.315 N 
ATOM     10  C   UNL     1       3.790  -3.178   0.433  1.00  0.00     0.263 C 
ATOM     11  H   UNL     1       4.868  -1.427   0.275  1.00  0.00     0.349 HD
ATOM     12  C   UNL     1       4.530  -3.996  -0.638  1.00  0.00     0.062 C 
ATOM     13  C   UNL     1       4.369  -2.020  -2.145  1.00  0.00     0.078 C 
ATOM     14  C   UNL     1       4.265  -3.531  -2.062  1.00  0.00     0.013 C 
BRANCH   9  15
ATOM     15  C   UNL     1       3.288  -0.977   1.388  1.00  0.00     0.364 C 
BRANCH  15  16
ATOM     16  C   UNL     1       2.331   0.175   1.035  1.00  0.00     0.275 C 
ATOM     17  O   UNL     1       1.119   0.046   1.193  1.00  0.00    -0.268 OA
ATOM     18  N   UNL     1       2.928   1.311   0.515  1.00  0.00    -0.348 N 
ATOM     19  H   UNL     1       3.887   1.438   0.694  1.00  0.00     0.163 HD
BRANCH  18  20
ATOM     20  C   UNL     1       2.246   2.346  -0.284  1.00  0.00     0.082 C 
ATOM     21  C   UNL     1       0.761   2.577   0.042  1.00  0.00     0.025 C 
ATOM     22  C   UNL     1       3.020   3.673  -0.197  1.00  0.00     0.025 C 
ATOM     23  C   UNL     1       0.146   3.659  -0.843  1.00  0.00     0.002 C 
ATOM     24  C   UNL     1       2.377   4.791  -1.022  1.00  0.00     0.002 C 
ATOM     25  C   UNL     1       0.898   4.972  -0.698  1.00  0.00     0.000 C 
ENDBRANCH  18  20
ENDBRANCH  15  16
ENDBRANCH   9  15
ENDBRANCH   6   8
ENDBRANCH   5   6
ENDBRANCH   4   5
ENDBRANCH   3   4
ENDBRANCH   2   3
ENDBRANCH   1   2
BRANCH   1  26
ATOM     26  C   UNL     1       2.560  -0.034  -4.571  1.00  0.00     0.188 C 
BRANCH  26  27
ATOM     27  O   UNL     1       2.121   1.268  -4.936  1.00  0.00    -0.376 OA
BRANCH  27  28
ATOM     28  C   UNL     1       1.172   1.402  -5.981  1.00  0.00     0.202 C 
BRANCH  28  29
ATOM     29  C   UNL     1       1.542   0.856  -7.368  1.00  0.00     0.261 C 
BRANCH  29  30
ATOM     30  O   UNL     1       1.905  -0.538  -7.407  1.00  0.00    -0.460 OA
BRANCH  30  31
ATOM     31  C   UNL     1       3.217  -0.810  -7.628  1.00  0.00     0.338 C 
ATOM     32  O   UNL     1       4.102   0.005  -7.838  1.00  0.00    -0.246 OA
BRANCH  31  33
ATOM     33  C   UNL     1       3.502  -2.247  -7.377  1.00  0.00     0.060 A 
ATOM     34  C   UNL     1       4.545  -2.574  -6.496  1.00  0.00     0.016 A 
ATOM     35  C   UNL     1       2.785  -3.264  -8.010  1.00  0.00     0.016 A 
ATOM     36  C   UNL     1       4.898  -3.909  -6.276  1.00  0.00     0.010 A 
ATOM     37  C   UNL     1       3.158  -4.602  -7.809  1.00  0.00     0.010 A 
ATOM     38  C   UNL     1       4.237  -4.932  -6.967  1.00  0.00    -0.014 A 
BRANCH  38  39
ATOM     39  C   UNL     1       4.804  -6.309  -6.981  1.00  0.00     0.031 A 
ATOM     40  C   UNL     1       5.723  -6.689  -8.114  1.00  0.00     0.074 A 
ATOM     41  C   UNL     1       4.530  -7.208  -6.017  1.00  0.00     0.049 A 
ATOM     42  N   UNL     1       6.277  -7.842  -8.387  1.00  0.00    -0.248 NA
ATOM     43  C   UNL     1       6.064  -5.618  -9.066  1.00  0.00     0.031 C 
ATOM     44  C   UNL     1       3.707  -6.962  -4.835  1.00  0.00     0.029 A 
ATOM     45  N   UNL     1       4.913  -8.523  -5.892  1.00  0.00    -0.354 N 
ATOM     46  C   UNL     1       7.026  -7.639  -9.541  1.00  0.00     0.074 A 
ATOM     47  C   UNL     1       6.837  -6.259  -9.930  1.00  0.00     0.031 C 
ATOM     48  C   UNL     1       3.626  -8.098  -4.117  1.00  0.00     0.029 A 
ATOM     49  C   UNL     1       4.364  -9.160  -4.803  1.00  0.00     0.049 A 
ATOM     50  H   UNL     1       5.523  -8.968  -6.523  1.00  0.00     0.167 HD
ATOM     51  C   UNL     1       7.804  -8.519 -10.216  1.00  0.00     0.037 A 
ATOM     52  C   UNL     1       4.425 -10.453  -4.421  1.00  0.00     0.037 A 
ATOM     53  C   UNL     1       7.985  -9.896  -9.842  1.00  0.00     0.049 A 
ATOM     54  C   UNL     1       5.223 -11.440  -5.243  1.00  0.00     0.074 A 
ATOM     55  C   UNL     1       8.754 -10.863 -10.468  1.00  0.00     0.029 A 
ATOM     56  N   UNL     1       7.386 -10.508  -8.752  1.00  0.00    -0.354 N 
ATOM     57  N   UNL     1       5.936 -11.232  -6.324  1.00  0.00    -0.248 NA
ATOM     58  C   UNL     1       5.223 -12.841  -4.791  1.00  0.00     0.031 C 
ATOM     59  C   UNL     1       8.579 -12.071  -9.787  1.00  0.00     0.029 A 
ATOM     60  C   UNL     1       7.748 -11.845  -8.702  1.00  0.00     0.049 A 
ATOM     61  H   UNL     1       6.790 -10.060  -8.109  1.00  0.00     0.167 HD
ATOM     62  C   UNL     1       6.495 -12.464  -6.658  1.00  0.00     0.074 A 
ATOM     63  C   UNL     1       6.044 -13.411  -5.662  1.00  0.00     0.031 C 
ATOM     64  C   UNL     1       7.310 -12.780  -7.696  1.00  0.00     0.037 A 
BRANCH  51  65
ATOM     65  C   UNL     1       8.498  -8.023 -11.454  1.00  0.00     0.058 A 
ATOM     66  C   UNL     1       9.589  -7.143 -11.387  1.00  0.00     0.135 A 
ATOM     67  C   UNL     1       8.089  -8.465 -12.723  1.00  0.00     0.135 A 
ATOM     68  F   UNL     1      10.007  -6.674 -10.200  1.00  0.00    -0.206 F 
ATOM     69  C   UNL     1      10.238  -6.701 -12.535  1.00  0.00     0.059 A 
ATOM     70  C   UNL     1       8.740  -8.058 -13.883  1.00  0.00     0.059 A 
ATOM     71  F   UNL     1       7.048  -9.304 -12.844  1.00  0.00    -0.206 F 
ATOM     72  C   UNL     1       9.806  -7.166 -13.779  1.00  0.00     0.060 A 
BRANCH  72  73
ATOM     73  S   UNL     1      10.666  -6.591 -15.259  1.00  0.00     0.124 S 
ATOM     74  O   UNL     1      10.218  -5.204 -15.335  1.00  0.00    -0.237 OA
ATOM     75  O   UNL     1      12.067  -6.785 -14.900  1.00  0.00    -0.237 OA
ATOM     76  O   UNL     1      10.163  -7.471 -16.309  1.00  0.00    -0.744 OA
ENDBRANCH  72  73
ENDBRANCH  51  65
BRANCH  52  77
ATOM     77  C   UNL     1       3.686 -10.917  -3.212  1.00  0.00     0.058 A 
ATOM     78  C   UNL     1       4.368 -11.365  -2.071  1.00  0.00     0.135 A 
ATOM     79  C   UNL     1       2.283 -10.962  -3.191  1.00  0.00     0.135 A 
ATOM     80  F   UNL     1       5.710 -11.362  -2.047  1.00  0.00    -0.206 F 
ATOM     81  C   UNL     1       3.689 -11.860  -0.961  1.00  0.00     0.059 A 
ATOM     82  C   UNL     1       1.581 -11.425  -2.082  1.00  0.00     0.059 A 
ATOM     83  F   UNL     1       1.581 -10.544  -4.255  1.00  0.00    -0.206 F 
ATOM     84  C   UNL     1       2.294 -11.885  -0.976  1.00  0.00     0.060 A 
BRANCH  84  85
ATOM     85  S   UNL     1       1.422 -12.500   0.481  1.00  0.00     0.124 S 
ATOM     86  O   UNL     1       1.679 -13.933   0.396  1.00  0.00    -0.237 OA
ATOM     87  O   UNL     1       2.099 -11.793   1.564  1.00  0.00    -0.237 OA
ATOM     88  O   UNL     1       0.041 -12.092   0.243  1.00  0.00    -0.744 OA
ENDBRANCH  84  85
ENDBRANCH  52  77
BRANCH  64  89
ATOM     89  C   UNL     1       7.818 -14.195  -7.790  1.00  0.00     0.058 A 
ATOM     90  C   UNL     1       6.985 -15.261  -8.165  1.00  0.00     0.135 A 
ATOM     91  C   UNL     1       9.177 -14.477  -7.566  1.00  0.00     0.135 A 
ATOM     92  F   UNL     1       5.678 -15.051  -8.389  1.00  0.00    -0.206 F 
ATOM     93  C   UNL     1       7.476 -16.558  -8.295  1.00  0.00     0.059 A 
ATOM     94  C   UNL     1       9.695 -15.760  -7.718  1.00  0.00     0.059 A 
ATOM     95  F   UNL     1      10.022 -13.494  -7.217  1.00  0.00    -0.206 F 
ATOM     96  C   UNL     1       8.834 -16.797  -8.072  1.00  0.00     0.060 A 
BRANCH  96  97
ATOM     97  S   UNL     1       9.465 -18.476  -8.281  1.00  0.00     0.124 S 
ATOM     98  O   UNL     1       8.930 -19.142  -7.098  1.00  0.00    -0.237 OA
ATOM     99  O   UNL     1       8.875 -18.876  -9.555  1.00  0.00    -0.237 OA
ATOM    100  O   UNL     1      10.914 -18.296  -8.299  1.00  0.00    -0.744 OA
ENDBRANCH  96  97
ENDBRANCH  64  89
ENDBRANCH  38  39
ENDBRANCH  31  33
ENDBRANCH  30  31
ENDBRANCH  29  30
ENDBRANCH  28  29
ENDBRANCH  27  28
ENDBRANCH  26  27
ENDBRANCH   1  26
TORSDOF 23
