REMARK SMILES CCOc1cccc(-c2ccc([C@@H](C)C(=O)OCCOCCOCCOC(=O)c3ccc(-c4c5nc(c(-c6c(F)cc(S(=O)(=O)[O-])cc6F)c6ccc([nH]6)c(-c6c(F)cc(S(=O)(=O)[O-])cc6F)c6nc(c(-c7c(F)cc(S(=O)(=O)[O-])cc7F)c7ccc4[nH]7)C=C6)C=C5)cc3)cc2F)c1
REMARK SMILES IDX 21 1 20 2 19 3 18 4 17 5 15 6 16 7 13 8 14 9 12 10 9 11
REMARK SMILES IDX 10 12 96 13 11 14 95 15 97 16 8 17 4 18 5 19 98 20 6 21 7 22
REMARK SMILES IDX 3 23 2 24 1 25 22 26 23 27 24 28 25 29 26 30 27 31 28 32
REMARK SMILES IDX 29 33 30 34 94 35 31 36 93 37 32 38 33 39 34 40 87 41 35 42
REMARK SMILES IDX 92 43 86 44 88 45 36 46 91 47 85 48 84 49 37 51 71 52 50 53
REMARK SMILES IDX 70 54 51 55 54 56 69 57 89 58 52 59 53 60 68 62 90 63 55 64
REMARK SMILES IDX 38 65 39 66 48 67 40 68 41 69 47 70 49 71 42 72 43 73 44 74
REMARK SMILES IDX 45 75 46 76 72 77 73 78 82 79 74 80 75 81 81 82 83 83 76 84
REMARK SMILES IDX 77 85 78 86 79 87 80 88 56 89 57 90 66 91 58 92 59 93 65 94
REMARK SMILES IDX 67 95 60 96 61 97 62 98 63 99 64 100
REMARK H PARENT 88 50 54 61
REMARK Flexibility Score: inf
ROOT
ATOM      1  C   UNL     1       6.343   0.712   4.936  1.00  0.00     0.188 C 
ENDROOT
BRANCH   1   2
ATOM      2  O   UNL     1       7.029   1.820   5.508  1.00  0.00    -0.376 OA
BRANCH   2   3
ATOM      3  C   UNL     1       8.077   2.439   4.773  1.00  0.00     0.202 C 
BRANCH   3   4
ATOM      4  C   UNL     1       9.222   1.563   4.234  1.00  0.00     0.261 C 
BRANCH   4   5
ATOM      5  O   UNL     1       8.823   0.441   3.412  1.00  0.00    -0.463 OA
BRANCH   5   6
ATOM      6  C   UNL     1       9.227  -0.786   3.829  1.00  0.00     0.313 C 
ATOM      7  O   UNL     1       9.957  -0.953   4.806  1.00  0.00    -0.252 OA
BRANCH   6   8
ATOM      8  C   UNL     1       8.702  -1.989   3.036  1.00  0.00     0.126 C 
ATOM      9  C   UNL     1       9.896  -2.833   2.594  1.00  0.00     0.025 C 
BRANCH   8  10
ATOM     10  C   UNL     1       7.723  -1.827   1.873  1.00  0.00    -0.031 A 
ATOM     11  C   UNL     1       5.798  -1.625  -0.257  1.00  0.00     0.018 A 
ATOM     12  C   UNL     1       6.984  -0.866  -0.251  1.00  0.00     0.012 A 
ATOM     13  C   UNL     1       5.607  -2.490   0.827  1.00  0.00     0.131 A 
ATOM     14  C   UNL     1       7.934  -0.968   0.788  1.00  0.00     0.005 A 
ATOM     15  C   UNL     1       6.545  -2.600   1.862  1.00  0.00     0.044 A 
ATOM     16  F   UNL     1       4.507  -3.256   0.898  1.00  0.00    -0.206 F 
BRANCH  11  17
ATOM     17  C   UNL     1       4.820  -1.526  -1.365  1.00  0.00    -0.012 A 
ATOM     18  C   UNL     1       2.530  -1.255  -2.185  1.00  0.00     0.119 A 
ATOM     19  C   UNL     1       2.961  -1.407  -3.499  1.00  0.00     0.046 A 
ATOM     20  C   UNL     1       3.445  -1.331  -1.128  1.00  0.00     0.055 A 
ATOM     21  C   UNL     1       4.314  -1.609  -3.759  1.00  0.00     0.004 A 
ATOM     22  C   UNL     1       5.232  -1.665  -2.703  1.00  0.00     0.009 A 
BRANCH  18  23
ATOM     23  O   UNL     1       1.180  -1.204  -1.970  1.00  0.00    -0.494 OA
BRANCH  23  24
ATOM     24  C   UNL     1       0.705   0.072  -1.528  1.00  0.00     0.226 C 
ATOM     25  C   UNL     1       0.701   0.163  -0.016  1.00  0.00     0.049 C 
ENDBRANCH  23  24
ENDBRANCH  18  23
ENDBRANCH  11  17
ENDBRANCH   8  10
ENDBRANCH   6   8
ENDBRANCH   5   6
ENDBRANCH   4   5
ENDBRANCH   3   4
ENDBRANCH   2   3
ENDBRANCH   1   2
BRANCH   1  26
ATOM     26  C   UNL     1       6.016   0.729   3.435  1.00  0.00     0.188 C 
BRANCH  26  27
ATOM     27  O   UNL     1       6.358   1.923   2.763  1.00  0.00    -0.376 OA
BRANCH  27  28
ATOM     28  C   UNL     1       5.300   2.629   2.145  1.00  0.00     0.202 C 
BRANCH  28  29
ATOM     29  C   UNL     1       4.199   3.164   3.077  1.00  0.00     0.261 C 
BRANCH  29  30
ATOM     30  O   UNL     1       3.661   2.227   4.030  1.00  0.00    -0.460 OA
BRANCH  30  31
ATOM     31  C   UNL     1       2.872   1.256   3.523  1.00  0.00     0.338 C 
ATOM     32  O   UNL     1       2.570   1.123   2.344  1.00  0.00    -0.246 OA
BRANCH  31  33
ATOM     33  C   UNL     1       2.602   0.239   4.559  1.00  0.00     0.060 A 
ATOM     34  C   UNL     1       2.971  -1.094   4.319  1.00  0.00     0.016 A 
ATOM     35  C   UNL     1       1.942   0.588   5.737  1.00  0.00     0.016 A 
ATOM     36  C   UNL     1       2.632  -2.090   5.235  1.00  0.00     0.010 A 
ATOM     37  C   UNL     1       1.583  -0.414   6.643  1.00  0.00     0.010 A 
ATOM     38  C   UNL     1       1.883  -1.763   6.372  1.00  0.00    -0.014 A 
BRANCH  38  39
ATOM     39  C   UNL     1       1.198  -2.839   7.133  1.00  0.00     0.031 A 
ATOM     40  C   UNL     1      -0.255  -3.102   6.829  1.00  0.00     0.074 A 
ATOM     41  C   UNL     1       1.843  -3.586   8.048  1.00  0.00     0.049 A 
ATOM     42  N   UNL     1      -1.087  -3.938   7.392  1.00  0.00    -0.248 NA
ATOM     43  C   UNL     1      -0.850  -2.303   5.743  1.00  0.00     0.031 C 
ATOM     44  C   UNL     1       3.256  -3.463   8.400  1.00  0.00     0.029 A 
ATOM     45  N   UNL     1       1.381  -4.595   8.857  1.00  0.00    -0.354 N 
ATOM     46  C   UNL     1      -2.302  -3.759   6.739  1.00  0.00     0.074 A 
ATOM     47  C   UNL     1      -2.109  -2.709   5.764  1.00  0.00     0.031 C 
ATOM     48  C   UNL     1       3.544  -4.356   9.364  1.00  0.00     0.029 A 
ATOM     49  C   UNL     1       2.330  -5.090   9.720  1.00  0.00     0.049 A 
ATOM     50  H   UNL     1       0.457  -4.933   8.821  1.00  0.00     0.167 HD
ATOM     51  C   UNL     1      -3.470  -4.417   6.926  1.00  0.00     0.037 A 
ATOM     52  C   UNL     1       2.222  -6.014  10.697  1.00  0.00     0.037 A 
ATOM     53  C   UNL     1      -3.656  -5.465   7.895  1.00  0.00     0.049 A 
ATOM     54  C   UNL     1       0.893  -6.692  10.930  1.00  0.00     0.074 A 
ATOM     55  C   UNL     1      -4.799  -6.199   8.160  1.00  0.00     0.029 A 
ATOM     56  N   UNL     1      -2.675  -5.927   8.760  1.00  0.00    -0.354 N 
ATOM     57  N   UNL     1      -0.247  -6.518  10.303  1.00  0.00    -0.248 NA
ATOM     58  C   UNL     1       0.839  -7.700  11.999  1.00  0.00     0.031 C 
ATOM     59  C   UNL     1      -4.524  -7.067   9.221  1.00  0.00     0.029 A 
ATOM     60  C   UNL     1      -3.191  -6.924   9.571  1.00  0.00     0.049 A 
ATOM     61  H   UNL     1      -1.748  -5.595   8.793  1.00  0.00     0.167 HD
ATOM     62  C   UNL     1      -1.138  -7.427  10.868  1.00  0.00     0.074 A 
ATOM     63  C   UNL     1      -0.404  -8.149  11.886  1.00  0.00     0.031 C 
ATOM     64  C   UNL     1      -2.442  -7.651  10.567  1.00  0.00     0.037 A 
BRANCH  51  65
ATOM     65  C   UNL     1      -4.647  -4.003   6.083  1.00  0.00     0.058 A 
ATOM     66  C   UNL     1      -4.701  -4.263   4.704  1.00  0.00     0.135 A 
ATOM     67  C   UNL     1      -5.750  -3.363   6.670  1.00  0.00     0.135 A 
ATOM     68  F   UNL     1      -3.666  -4.852   4.085  1.00  0.00    -0.206 F 
ATOM     69  C   UNL     1      -5.795  -3.879   3.933  1.00  0.00     0.059 A 
ATOM     70  C   UNL     1      -6.868  -3.000   5.926  1.00  0.00     0.059 A 
ATOM     71  F   UNL     1      -5.750  -3.085   7.984  1.00  0.00    -0.206 F 
ATOM     72  C   UNL     1      -6.875  -3.250   4.555  1.00  0.00     0.060 A 
BRANCH  72  73
ATOM     73  S   UNL     1      -8.291  -2.770   3.543  1.00  0.00     0.124 S 
ATOM     74  O   UNL     1      -7.737  -1.658   2.776  1.00  0.00    -0.237 OA
ATOM     75  O   UNL     1      -8.562  -3.989   2.788  1.00  0.00    -0.237 OA
ATOM     76  O   UNL     1      -9.305  -2.407   4.528  1.00  0.00    -0.744 OA
ENDBRANCH  72  73
ENDBRANCH  51  65
BRANCH  52  77
ATOM     77  C   UNL     1       3.403  -6.358  11.537  1.00  0.00     0.058 A 
ATOM     78  C   UNL     1       4.001  -7.626  11.468  1.00  0.00     0.135 A 
ATOM     79  C   UNL     1       3.946  -5.432  12.443  1.00  0.00     0.135 A 
ATOM     80  F   UNL     1       3.512  -8.552  10.629  1.00  0.00    -0.206 F 
ATOM     81  C   UNL     1       5.077  -7.972  12.280  1.00  0.00     0.059 A 
ATOM     82  C   UNL     1       5.041  -5.744  13.243  1.00  0.00     0.059 A 
ATOM     83  F   UNL     1       3.418  -4.202  12.544  1.00  0.00    -0.206 F 
ATOM     84  C   UNL     1       5.592  -7.022  13.163  1.00  0.00     0.060 A 
BRANCH  84  85
ATOM     85  S   UNL     1       7.012  -7.471  14.184  1.00  0.00     0.124 S 
ATOM     86  O   UNL     1       6.412  -8.403  15.131  1.00  0.00    -0.237 OA
ATOM     87  O   UNL     1       7.921  -8.053  13.203  1.00  0.00    -0.237 OA
ATOM     88  O   UNL     1       7.441  -6.192  14.744  1.00  0.00    -0.744 OA
ENDBRANCH  84  85
ENDBRANCH  52  77
BRANCH  64  89
ATOM     89  C   UNL     1      -3.147  -8.770  11.289  1.00  0.00     0.058 A 
ATOM     90  C   UNL     1      -3.478  -8.694  12.651  1.00  0.00     0.135 A 
ATOM     91  C   UNL     1      -3.535  -9.924  10.587  1.00  0.00     0.135 A 
ATOM     92  F   UNL     1      -3.132  -7.615  13.372  1.00  0.00    -0.206 F 
ATOM     93  C   UNL     1      -4.135  -9.736  13.299  1.00  0.00     0.059 A 
ATOM     94  C   UNL     1      -4.223 -10.963  11.206  1.00  0.00     0.059 A 
ATOM     95  F   UNL     1      -3.260 -10.045   9.278  1.00  0.00    -0.206 F 
ATOM     96  C   UNL     1      -4.502 -10.868  12.568  1.00  0.00     0.060 A 
BRANCH  96  97
ATOM     97  S   UNL     1      -5.364 -12.208  13.417  1.00  0.00     0.124 S 
ATOM     98  O   UNL     1      -4.290 -12.788  14.217  1.00  0.00    -0.237 OA
ATOM     99  O   UNL     1      -6.395 -11.492  14.163  1.00  0.00    -0.237 OA
ATOM    100  O   UNL     1      -5.855 -13.043  12.325  1.00  0.00    -0.744 OA
ENDBRANCH  96  97
ENDBRANCH  64  89
ENDBRANCH  38  39
ENDBRANCH  31  33
ENDBRANCH  30  31
ENDBRANCH  29  30
ENDBRANCH  28  29
ENDBRANCH  27  28
ENDBRANCH  26  27
ENDBRANCH   1  26
TORSDOF 24
