REMARK SMILES [NH3+][C@@H](Cc1cn(-c2nc(Cl)nc(N3CCOCC3)n2)c2ccccc12)C(=O)OCCOCCOCCOC(=O)c1ccc(-c2c3nc(c(-c4c(F)cc(S(=O)(=O)[O-])cc4F)c4ccc([nH]4)c(-c4c(F)cc(S(=O)(=O)[O-])cc4F)c4nc(c(-c5c(F)cc(S(=O)(=O)[O-])cc5F)c5ccc2[nH]5)C=C4)C=C3)cc1
REMARK SMILES IDX 32 1 31 2 30 3 29 4 28 5 26 6 27 7 2 8 1 9 3 13 4 14 5 15
REMARK SMILES IDX 25 16 6 17 20 18 24 19 21 20 23 21 22 22 7 23 8 24 19 25
REMARK SMILES IDX 9 26 12 27 10 28 11 29 13 30 14 31 18 32 15 33 17 34 16 35
REMARK SMILES IDX 33 36 34 37 35 38 36 39 37 40 38 41 39 42 40 43 41 44 105 45
REMARK SMILES IDX 42 46 104 47 43 48 44 49 45 50 98 51 46 52 103 53 97 54
REMARK SMILES IDX 99 55 47 56 102 57 96 58 95 59 48 61 82 62 61 63 81 64 62 65
REMARK SMILES IDX 65 66 80 67 100 68 63 69 64 70 79 72 101 73 66 74 49 75
REMARK SMILES IDX 50 76 59 77 51 78 52 79 58 80 60 81 53 82 54 83 55 84 56 85
REMARK SMILES IDX 57 86 83 87 84 88 93 89 85 90 86 91 92 92 94 93 87 94 88 95
REMARK SMILES IDX 89 96 90 97 91 98 67 99 68 100 77 101 69 102 70 103 76 104
REMARK SMILES IDX 78 105 71 106 72 107 73 108 74 109 75 110
REMARK H PARENT 1 10 1 11 1 12 99 60 65 71
REMARK Flexibility Score: inf
ROOT
ATOM      1  C   UNL     1      -2.966   0.421   1.365  1.00  0.00     0.188 C 
ENDROOT
BRANCH   1   2
ATOM      2  O   UNL     1      -4.248   0.625   0.795  1.00  0.00    -0.376 OA
BRANCH   2   3
ATOM      3  C   UNL     1      -4.385   0.556  -0.620  1.00  0.00     0.202 C 
BRANCH   3   4
ATOM      4  C   UNL     1      -3.430   1.385  -1.486  1.00  0.00     0.261 C 
BRANCH   4   5
ATOM      5  O   UNL     1      -2.121   0.788  -1.573  1.00  0.00    -0.459 OA
BRANCH   5   6
ATOM      6  C   UNL     1      -1.088   1.604  -1.235  1.00  0.00     0.365 C 
ATOM      7  O   UNL     1      -1.212   2.803  -1.000  1.00  0.00    -0.245 OA
BRANCH   6   8
ATOM      8  C   UNL     1       0.279   0.915  -1.134  1.00  0.00     0.296 C 
BRANCH   8   9
ATOM      9  N   UNL     1       0.353  -0.566  -1.024  1.00  0.00    -0.346 N 
ATOM     10  H   UNL     1       1.330  -0.854  -0.967  1.00  0.00     0.345 HD
ATOM     11  H   UNL     1      -0.079  -0.989  -1.846  1.00  0.00     0.345 HD
ATOM     12  H   UNL     1      -0.141  -0.870  -0.186  1.00  0.00     0.345 HD
ENDBRANCH   8   9
BRANCH   8  13
ATOM     13  C   UNL     1       1.185   1.514  -2.217  1.00  0.00     0.115 C 
BRANCH  13  14
ATOM     14  C   UNL     1       0.765   1.026  -3.557  1.00  0.00    -0.015 A 
ATOM     15  C   UNL     1       0.895  -0.272  -3.982  1.00  0.00     0.099 A 
ATOM     16  C   UNL     1       0.070   1.731  -4.578  1.00  0.00     0.004 A 
ATOM     17  N   UNL     1       0.179  -0.431  -5.138  1.00  0.00    -0.285 N 
ATOM     18  C   UNL     1      -0.241   0.807  -5.590  1.00  0.00     0.056 A 
ATOM     19  C   UNL     1      -0.351   3.069  -4.709  1.00  0.00     0.010 A 
ATOM     20  C   UNL     1      -0.937   1.194  -6.745  1.00  0.00     0.027 A 
ATOM     21  C   UNL     1      -1.033   3.462  -5.861  1.00  0.00     0.001 A 
ATOM     22  C   UNL     1      -1.313   2.538  -6.864  1.00  0.00     0.002 A 
BRANCH  17  23
ATOM     23  C   UNL     1      -0.076  -1.722  -5.661  1.00  0.00     0.240 A 
ATOM     24  N   UNL     1       0.576  -2.061  -6.762  1.00  0.00    -0.181 NA
ATOM     25  N   UNL     1      -0.601  -2.593  -4.787  1.00  0.00    -0.176 NA
ATOM     26  C   UNL     1       0.756  -3.371  -6.842  1.00  0.00     0.228 A 
ATOM     27  C   UNL     1      -0.396  -3.884  -5.007  1.00  0.00     0.231 A 
ATOM     28  Cl  UNL     1       1.735  -3.897  -8.143  1.00  0.00    -0.041 Cl
ATOM     29  N   UNL     1       0.337  -4.326  -6.013  1.00  0.00    -0.182 NA
BRANCH  27  30
ATOM     30  N   UNL     1      -0.917  -4.756  -4.086  1.00  0.00    -0.336 N 
ATOM     31  C   UNL     1      -2.362  -4.707  -3.857  1.00  0.00     0.148 C 
ATOM     32  C   UNL     1      -0.276  -6.037  -3.818  1.00  0.00     0.148 C 
ATOM     33  C   UNL     1      -2.692  -5.269  -2.466  1.00  0.00     0.181 C 
ATOM     34  C   UNL     1      -0.685  -6.504  -2.408  1.00  0.00     0.181 C 
ATOM     35  O   UNL     1      -2.116  -6.575  -2.274  1.00  0.00    -0.378 OA
ENDBRANCH  27  30
ENDBRANCH  17  23
ENDBRANCH  13  14
ENDBRANCH   8  13
ENDBRANCH   6   8
ENDBRANCH   5   6
ENDBRANCH   4   5
ENDBRANCH   3   4
ENDBRANCH   2   3
ENDBRANCH   1   2
BRANCH   1  36
ATOM     36  C   UNL     1      -2.140  -0.781   0.889  1.00  0.00     0.188 C 
BRANCH  36  37
ATOM     37  O   UNL     1      -2.751  -1.945   0.367  1.00  0.00    -0.376 OA
BRANCH  37  38
ATOM     38  C   UNL     1      -3.730  -2.555   1.183  1.00  0.00     0.202 C 
BRANCH  38  39
ATOM     39  C   UNL     1      -3.273  -3.021   2.577  1.00  0.00     0.261 C 
BRANCH  39  40
ATOM     40  O   UNL     1      -2.660  -1.965   3.343  1.00  0.00    -0.460 OA
BRANCH  40  41
ATOM     41  C   UNL     1      -1.464  -2.284   3.929  1.00  0.00     0.338 C 
ATOM     42  O   UNL     1      -1.080  -3.390   4.216  1.00  0.00    -0.246 OA
BRANCH  41  43
ATOM     43  C   UNL     1      -0.580  -1.078   3.866  1.00  0.00     0.060 A 
ATOM     44  C   UNL     1      -1.022   0.199   4.220  1.00  0.00     0.016 A 
ATOM     45  C   UNL     1       0.659  -1.229   3.223  1.00  0.00     0.016 A 
ATOM     46  C   UNL     1      -0.239   1.319   3.903  1.00  0.00     0.010 A 
ATOM     47  C   UNL     1       1.428  -0.105   2.890  1.00  0.00     0.010 A 
ATOM     48  C   UNL     1       0.986   1.182   3.225  1.00  0.00    -0.014 A 
BRANCH  48  49
ATOM     49  C   UNL     1       1.919   2.328   3.162  1.00  0.00     0.031 A 
ATOM     50  C   UNL     1       2.319   2.864   4.471  1.00  0.00     0.074 A 
ATOM     51  C   UNL     1       2.528   2.905   2.103  1.00  0.00     0.049 A 
ATOM     52  N   UNL     1       2.004   4.041   4.900  1.00  0.00    -0.248 NA
ATOM     53  C   UNL     1       3.046   2.029   5.424  1.00  0.00     0.031 C 
ATOM     54  C   UNL     1       2.222   2.698   0.712  1.00  0.00     0.029 A 
ATOM     55  N   UNL     1       3.573   3.792   2.022  1.00  0.00    -0.354 N 
ATOM     56  C   UNL     1       2.708   4.201   6.073  1.00  0.00     0.074 A 
ATOM     57  C   UNL     1       3.211   2.893   6.429  1.00  0.00     0.031 C 
ATOM     58  C   UNL     1       3.224   3.114  -0.086  1.00  0.00     0.029 A 
ATOM     59  C   UNL     1       4.144   3.857   0.755  1.00  0.00     0.049 A 
ATOM     60  H   UNL     1       3.888   4.329   2.785  1.00  0.00     0.167 HD
ATOM     61  C   UNL     1       3.032   5.440   6.521  1.00  0.00     0.037 A 
ATOM     62  C   UNL     1       5.049   4.703   0.213  1.00  0.00     0.037 A 
ATOM     63  C   UNL     1       2.262   6.486   5.894  1.00  0.00     0.049 A 
ATOM     64  C   UNL     1       4.913   5.984   0.926  1.00  0.00     0.074 A 
ATOM     65  C   UNL     1       0.914   6.768   5.773  1.00  0.00     0.029 A 
ATOM     66  N   UNL     1       2.891   7.290   4.976  1.00  0.00    -0.354 N 
ATOM     67  N   UNL     1       3.874   6.769   0.811  1.00  0.00    -0.248 NA
ATOM     68  C   UNL     1       5.745   6.210   2.093  1.00  0.00     0.031 C 
ATOM     69  C   UNL     1       0.764   7.414   4.511  1.00  0.00     0.029 A 
ATOM     70  C   UNL     1       2.028   7.508   3.929  1.00  0.00     0.049 A 
ATOM     71  H   UNL     1       3.805   7.649   5.054  1.00  0.00     0.167 HD
ATOM     72  C   UNL     1       3.679   7.270   2.088  1.00  0.00     0.074 A 
ATOM     73  C   UNL     1       4.925   6.995   2.794  1.00  0.00     0.031 C 
ATOM     74  C   UNL     1       2.438   7.616   2.540  1.00  0.00     0.037 A 
BRANCH  61  75
ATOM     75  C   UNL     1       4.298   5.698   7.279  1.00  0.00     0.058 A 
ATOM     76  C   UNL     1       4.417   6.842   8.083  1.00  0.00     0.135 A 
ATOM     77  C   UNL     1       5.485   4.968   7.045  1.00  0.00     0.135 A 
ATOM     78  F   UNL     1       3.352   7.625   8.315  1.00  0.00    -0.206 F 
ATOM     79  C   UNL     1       5.641   7.242   8.615  1.00  0.00     0.059 A 
ATOM     80  C   UNL     1       6.703   5.314   7.610  1.00  0.00     0.059 A 
ATOM     81  F   UNL     1       5.521   3.941   6.183  1.00  0.00    -0.206 F 
ATOM     82  C   UNL     1       6.778   6.472   8.368  1.00  0.00     0.060 A 
BRANCH  82  83
ATOM     83  S   UNL     1       8.372   7.035   8.986  1.00  0.00     0.124 S 
ATOM     84  O   UNL     1       8.620   8.189   8.130  1.00  0.00    -0.237 OA
ATOM     85  O   UNL     1       8.070   7.326  10.384  1.00  0.00    -0.237 OA
ATOM     86  O   UNL     1       9.242   5.884   8.766  1.00  0.00    -0.744 OA
ENDBRANCH  82  83
ENDBRANCH  61  75
BRANCH  62  87
ATOM     87  C   UNL     1       6.155   4.303  -0.696  1.00  0.00     0.058 A 
ATOM     88  C   UNL     1       7.007   5.247  -1.293  1.00  0.00     0.135 A 
ATOM     89  C   UNL     1       6.540   2.950  -0.826  1.00  0.00     0.135 A 
ATOM     90  F   UNL     1       6.714   6.554  -1.232  1.00  0.00    -0.206 F 
ATOM     91  C   UNL     1       8.210   4.878  -1.909  1.00  0.00     0.059 A 
ATOM     92  C   UNL     1       7.729   2.559  -1.438  1.00  0.00     0.059 A 
ATOM     93  F   UNL     1       5.805   1.964  -0.287  1.00  0.00    -0.206 F 
ATOM     94  C   UNL     1       8.577   3.533  -1.948  1.00  0.00     0.060 A 
BRANCH  94  95
ATOM     95  S   UNL     1      10.225   3.074  -2.537  1.00  0.00     0.124 S 
ATOM     96  O   UNL     1      10.125   3.348  -3.966  1.00  0.00    -0.237 OA
ATOM     97  O   UNL     1      11.084   3.973  -1.773  1.00  0.00    -0.237 OA
ATOM     98  O   UNL     1      10.333   1.662  -2.177  1.00  0.00    -0.744 OA
ENDBRANCH  94  95
ENDBRANCH  62  87
BRANCH  74  99
ATOM     99  C   UNL     1       1.352   7.897   1.529  1.00  0.00     0.058 A 
ATOM    100  C   UNL     1       0.746   6.928   0.711  1.00  0.00     0.135 A 
ATOM    101  C   UNL     1       0.798   9.188   1.506  1.00  0.00     0.135 A 
ATOM    102  F   UNL     1       1.165   5.654   0.729  1.00  0.00    -0.206 F 
ATOM    103  C   UNL     1      -0.353   7.233  -0.102  1.00  0.00     0.059 A 
ATOM    104  C   UNL     1      -0.307   9.510   0.719  1.00  0.00     0.059 A 
ATOM    105  F   UNL     1       1.301  10.148   2.300  1.00  0.00    -0.206 F 
ATOM    106  C   UNL     1      -0.877   8.528  -0.087  1.00  0.00     0.060 A 
BRANCH 106 107
ATOM    107  S   UNL     1      -2.348   8.904  -1.071  1.00  0.00     0.124 S 
ATOM    108  O   UNL     1      -1.834   8.840  -2.435  1.00  0.00    -0.237 OA
ATOM    109  O   UNL     1      -3.270   7.838  -0.690  1.00  0.00    -0.237 OA
ATOM    110  O   UNL     1      -2.734  10.238  -0.615  1.00  0.00    -0.744 OA
ENDBRANCH 106 107
ENDBRANCH  74  99
ENDBRANCH  48  49
ENDBRANCH  41  43
ENDBRANCH  40  41
ENDBRANCH  39  40
ENDBRANCH  38  39
ENDBRANCH  37  38
ENDBRANCH  36  37
ENDBRANCH   1  36
TORSDOF 25
