REMARK SMILES O=C(OCCOCCOCCOC(=O)c1ccc(C[N@H+]2CC[N@H+]3CCCC[C@@H]3C2)c(F)c1)c1ccc(-c2c3nc(c(-c4c(F)cc(S(=O)(=O)[O-])cc4F)c4ccc([nH]4)c(-c4c(F)cc(S(=O)(=O)[O-])cc4F)c4nc(c(-c5c(F)cc(S(=O)(=O)[O-])cc5F)c5ccc2[nH]5)C=C4)C=C3)cc1
REMARK SMILES IDX 7 1 6 2 5 3 4 4 3 5 2 6 1 7 33 8 34 9 98 10 35 11 97 12
REMARK SMILES IDX 36 13 37 14 38 15 91 16 39 17 96 18 90 19 92 20 40 21 95 22
REMARK SMILES IDX 89 23 88 24 41 26 75 27 54 28 74 29 55 30 58 31 73 32 93 33
REMARK SMILES IDX 56 34 57 35 72 37 94 38 59 39 42 40 43 41 52 42 44 43 45 44
REMARK SMILES IDX 51 45 53 46 46 47 47 48 48 49 49 50 50 51 76 52 77 53 86 54
REMARK SMILES IDX 78 55 79 56 85 57 87 58 80 59 81 60 82 61 83 62 84 63 60 64
REMARK SMILES IDX 61 65 70 66 62 67 63 68 69 69 71 70 64 71 65 72 66 73 67 74
REMARK SMILES IDX 68 75 8 76 9 77 10 78 11 79 12 80 13 81 14 82 15 83 16 84
REMARK SMILES IDX 32 85 17 86 30 87 18 88 31 89 19 90 20 91 21 92 29 93 22 95
REMARK SMILES IDX 28 96 23 97 27 98 24 99 26 101 25 102
REMARK H PARENT 92 25 58 36 20 94 23 100
REMARK Flexibility Score: inf
ROOT
ATOM      1  C   UNL     1       2.532   0.426  -1.774  1.00  0.00     0.188 C 
ENDROOT
BRANCH   1   2
ATOM      2  O   UNL     1       3.896   0.723  -1.472  1.00  0.00    -0.376 OA
BRANCH   2   3
ATOM      3  C   UNL     1       4.743  -0.435  -1.466  1.00  0.00     0.202 C 
BRANCH   3   4
ATOM      4  C   UNL     1       4.466  -1.500  -0.377  1.00  0.00     0.261 C 
BRANCH   4   5
ATOM      5  O   UNL     1       3.129  -1.496   0.161  1.00  0.00    -0.460 OA
BRANCH   5   6
ATOM      6  C   UNL     1       2.575  -0.730   1.135  1.00  0.00     0.338 C 
ATOM      7  O   UNL     1       1.380  -0.887   1.385  1.00  0.00    -0.246 OA
BRANCH   6   8
ATOM      8  C   UNL     1       3.331   0.294   1.920  1.00  0.00     0.060 A 
ATOM      9  C   UNL     1       4.597   0.768   1.593  1.00  0.00     0.016 A 
ATOM     10  C   UNL     1       2.725   0.815   3.075  1.00  0.00     0.016 A 
ATOM     11  C   UNL     1       5.320   1.585   2.446  1.00  0.00     0.010 A 
ATOM     12  C   UNL     1       3.413   1.718   3.897  1.00  0.00     0.010 A 
ATOM     13  C   UNL     1       4.746   2.061   3.613  1.00  0.00    -0.014 A 
BRANCH  13  14
ATOM     14  C   UNL     1       5.597   2.747   4.609  1.00  0.00     0.031 A 
ATOM     15  C   UNL     1       5.921   2.014   5.864  1.00  0.00     0.074 A 
ATOM     16  C   UNL     1       6.237   3.906   4.360  1.00  0.00     0.049 A 
ATOM     17  N   UNL     1       6.681   2.405   6.843  1.00  0.00    -0.248 NA
ATOM     18  C   UNL     1       5.442   0.624   5.977  1.00  0.00     0.031 C 
ATOM     19  C   UNL     1       6.385   4.509   3.051  1.00  0.00     0.029 A 
ATOM     20  N   UNL     1       6.855   4.814   5.181  1.00  0.00    -0.354 N 
ATOM     21  C   UNL     1       6.860   1.286   7.632  1.00  0.00     0.074 A 
ATOM     22  C   UNL     1       6.030   0.232   7.095  1.00  0.00     0.031 C 
ATOM     23  C   UNL     1       6.822   5.768   3.167  1.00  0.00     0.029 A 
ATOM     24  C   UNL     1       7.069   6.029   4.559  1.00  0.00     0.049 A 
ATOM     25  H   UNL     1       7.117   4.620   6.110  1.00  0.00     0.167 HD
ATOM     26  C   UNL     1       7.718   1.149   8.662  1.00  0.00     0.037 A 
ATOM     27  C   UNL     1       7.457   7.222   5.037  1.00  0.00     0.037 A 
ATOM     28  C   UNL     1       8.506   2.238   9.172  1.00  0.00     0.049 A 
ATOM     29  C   UNL     1       8.126   7.161   6.358  1.00  0.00     0.074 A 
ATOM     30  C   UNL     1       9.329   2.256  10.279  1.00  0.00     0.029 A 
ATOM     31  N   UNL     1       8.553   3.513   8.611  1.00  0.00    -0.354 N 
ATOM     32  N   UNL     1       8.236   6.120   7.146  1.00  0.00    -0.248 NA
ATOM     33  C   UNL     1       8.863   8.349   6.783  1.00  0.00     0.031 C 
ATOM     34  C   UNL     1       9.815   3.559  10.432  1.00  0.00     0.029 A 
ATOM     35  C   UNL     1       9.348   4.341   9.386  1.00  0.00     0.049 A 
ATOM     36  H   UNL     1       8.091   3.785   7.786  1.00  0.00     0.167 HD
ATOM     37  C   UNL     1       9.133   6.489   8.121  1.00  0.00     0.074 A 
ATOM     38  C   UNL     1       9.503   7.870   7.842  1.00  0.00     0.031 C 
ATOM     39  C   UNL     1       9.638   5.731   9.122  1.00  0.00     0.037 A 
BRANCH  26  40
ATOM     40  C   UNL     1       7.776  -0.202   9.301  1.00  0.00     0.058 A 
ATOM     41  C   UNL     1       7.167  -0.415  10.544  1.00  0.00     0.135 A 
ATOM     42  C   UNL     1       8.371  -1.304   8.659  1.00  0.00     0.135 A 
ATOM     43  F   UNL     1       6.553   0.596  11.177  1.00  0.00    -0.206 F 
ATOM     44  C   UNL     1       7.154  -1.670  11.138  1.00  0.00     0.059 A 
ATOM     45  C   UNL     1       8.349  -2.575   9.226  1.00  0.00     0.059 A 
ATOM     46  F   UNL     1       8.918  -1.163   7.440  1.00  0.00    -0.206 F 
ATOM     47  C   UNL     1       7.745  -2.744  10.471  1.00  0.00     0.060 A 
BRANCH  47  48
ATOM     48  S   UNL     1       7.666  -4.374  11.241  1.00  0.00     0.124 S 
ATOM     49  O   UNL     1       8.550  -4.204  12.389  1.00  0.00    -0.237 OA
ATOM     50  O   UNL     1       6.244  -4.499  11.543  1.00  0.00    -0.237 OA
ATOM     51  O   UNL     1       8.156  -5.267  10.195  1.00  0.00    -0.744 OA
ENDBRANCH  47  48
ENDBRANCH  26  40
BRANCH  27  52
ATOM     52  C   UNL     1       7.391   8.455   4.211  1.00  0.00     0.058 A 
ATOM     53  C   UNL     1       6.218   9.230   4.182  1.00  0.00     0.135 A 
ATOM     54  C   UNL     1       8.447   8.849   3.379  1.00  0.00     0.135 A 
ATOM     55  F   UNL     1       5.170   8.893   4.949  1.00  0.00    -0.206 F 
ATOM     56  C   UNL     1       6.088  10.334   3.339  1.00  0.00     0.059 A 
ATOM     57  C   UNL     1       8.340   9.947   2.525  1.00  0.00     0.059 A 
ATOM     58  F   UNL     1       9.588   8.145   3.373  1.00  0.00    -0.206 F 
ATOM     59  C   UNL     1       7.146  10.669   2.494  1.00  0.00     0.060 A 
BRANCH  59  60
ATOM     60  S   UNL     1       6.933  12.035   1.328  1.00  0.00     0.124 S 
ATOM     61  O   UNL     1       6.053  11.434   0.330  1.00  0.00    -0.237 OA
ATOM     62  O   UNL     1       6.329  13.068   2.163  1.00  0.00    -0.237 OA
ATOM     63  O   UNL     1       8.294  12.311   0.879  1.00  0.00    -0.744 OA
ENDBRANCH  59  60
ENDBRANCH  27  52
BRANCH  39  64
ATOM     64  C   UNL     1      10.604   6.423  10.023  1.00  0.00     0.058 A 
ATOM     65  C   UNL     1      11.961   6.073  10.015  1.00  0.00     0.135 A 
ATOM     66  C   UNL     1      10.170   7.419  10.910  1.00  0.00     0.135 A 
ATOM     67  F   UNL     1      12.417   5.130   9.175  1.00  0.00    -0.206 F 
ATOM     68  C   UNL     1      12.859   6.680  10.878  1.00  0.00     0.059 A 
ATOM     69  C   UNL     1      11.057   8.064  11.755  1.00  0.00     0.059 A 
ATOM     70  F   UNL     1       8.881   7.798  10.924  1.00  0.00    -0.206 F 
ATOM     71  C   UNL     1      12.396   7.673  11.744  1.00  0.00     0.060 A 
BRANCH  71  72
ATOM     72  S   UNL     1      13.578   8.466  12.847  1.00  0.00     0.124 S 
ATOM     73  O   UNL     1      13.844   7.401  13.807  1.00  0.00    -0.237 OA
ATOM     74  O   UNL     1      14.673   8.795  11.939  1.00  0.00    -0.237 OA
ATOM     75  O   UNL     1      12.838   9.612  13.366  1.00  0.00    -0.744 OA
ENDBRANCH  71  72
ENDBRANCH  39  64
ENDBRANCH  13  14
ENDBRANCH   6   8
ENDBRANCH   5   6
ENDBRANCH   4   5
ENDBRANCH   3   4
ENDBRANCH   2   3
ENDBRANCH   1   2
BRANCH   1  76
ATOM     76  C   UNL     1       1.887   1.200  -2.923  1.00  0.00     0.188 C 
BRANCH  76  77
ATOM     77  O   UNL     1       2.568   1.264  -4.165  1.00  0.00    -0.376 OA
BRANCH  77  78
ATOM     78  C   UNL     1       3.897   1.765  -4.156  1.00  0.00     0.202 C 
BRANCH  78  79
ATOM     79  C   UNL     1       4.194   3.166  -3.584  1.00  0.00     0.261 C 
BRANCH  79  80
ATOM     80  O   UNL     1       3.318   3.650  -2.551  1.00  0.00    -0.460 OA
BRANCH  80  81
ATOM     81  C   UNL     1       2.396   4.564  -2.965  1.00  0.00     0.338 C 
ATOM     82  O   UNL     1       2.217   4.943  -4.106  1.00  0.00    -0.246 OA
BRANCH  81  83
ATOM     83  C   UNL     1       1.678   5.162  -1.808  1.00  0.00     0.063 A 
ATOM     84  C   UNL     1       1.558   6.556  -1.794  1.00  0.00     0.016 A 
ATOM     85  C   UNL     1       1.171   4.418  -0.737  1.00  0.00     0.055 A 
ATOM     86  C   UNL     1       1.018   7.208  -0.679  1.00  0.00     0.013 A 
ATOM     87  C   UNL     1       0.655   5.085   0.383  1.00  0.00     0.132 A 
ATOM     88  C   UNL     1       0.640   6.482   0.465  1.00  0.00     0.042 A 
ATOM     89  F   UNL     1       0.238   4.350   1.425  1.00  0.00    -0.206 F 
BRANCH  88  90
ATOM     90  C   UNL     1       0.328   7.212   1.759  1.00  0.00     0.302 C 
BRANCH  90  91
ATOM     91  N   UNL     1       1.397   7.487   2.739  1.00  0.00    -0.322 N 
ATOM     92  C   UNL     1       1.840   6.332   3.524  1.00  0.00     0.324 C 
ATOM     93  C   UNL     1       2.591   8.232   2.286  1.00  0.00     0.328 C 
ATOM     94  H   UNL     1       0.871   8.129   3.332  1.00  0.00     0.348 HD
ATOM     95  C   UNL     1       2.951   5.452   2.902  1.00  0.00     0.324 C 
ATOM     96  C   UNL     1       3.531   7.373   1.423  1.00  0.00     0.239 C 
ATOM     97  N   UNL     1       3.899   6.062   1.959  1.00  0.00    -0.323 N 
ATOM     98  C   UNL     1       4.807   8.043   0.924  1.00  0.00     0.071 C 
ATOM     99  C   UNL     1       4.257   5.182   0.844  1.00  0.00     0.262 C 
ATOM    100  H   UNL     1       4.708   6.210   2.562  1.00  0.00     0.348 HD
ATOM    101  C   UNL     1       5.362   7.237  -0.260  1.00  0.00     0.012 C 
ATOM    102  C   UNL     1       5.417   5.727  -0.003  1.00  0.00     0.062 C 
ENDBRANCH  90  91
ENDBRANCH  88  90
ENDBRANCH  81  83
ENDBRANCH  80  81
ENDBRANCH  79  80
ENDBRANCH  78  79
ENDBRANCH  77  78
ENDBRANCH  76  77
ENDBRANCH   1  76
TORSDOF 22
