REMARK SMILES CC(=O)Oc1c(Cl)cc(-c2ccccc2)cc1C(=O)OCCOCCOCCOC(=O)c1ccc(-c2c3nc(c(-c4c(F)cc(S(=O)(=O)[O-])cc4F)c4ccc([nH]4)c(-c4c(F)cc(S(=O)(=O)[O-])cc4F)c4nc(c(-c5c(F)cc(S(=O)(=O)[O-])cc5F)c5ccc2[nH]5)C=C4)C=C3)cc1
REMARK SMILES IDX 25 1 24 2 23 3 22 4 21 5 20 6 18 7 19 8 17 9 5 10 6 11 7 12
REMARK SMILES IDX 8 13 16 14 9 15 4 16 2 17 1 18 3 19 10 20 11 21 15 22 12 23
REMARK SMILES IDX 14 24 13 25 26 26 27 27 28 28 29 29 30 30 31 31 32 32 33 33
REMARK SMILES IDX 97 34 34 35 96 36 35 37 36 38 37 39 90 40 38 41 95 42 89 43
REMARK SMILES IDX 91 44 39 45 94 46 88 47 87 48 40 50 74 51 53 52 73 53 54 54
REMARK SMILES IDX 57 55 72 56 92 57 55 58 56 59 71 61 93 62 58 63 41 64 42 65
REMARK SMILES IDX 51 66 43 67 44 68 50 69 52 70 45 71 46 72 47 73 48 74 49 75
REMARK SMILES IDX 75 76 76 77 85 78 77 79 78 80 84 81 86 82 79 83 80 84 81 85
REMARK SMILES IDX 82 86 83 87 59 88 60 89 69 90 61 91 62 92 68 93 70 94 63 95
REMARK SMILES IDX 64 96 65 97 66 98 67 99
REMARK H PARENT 91 49 57 60
REMARK Flexibility Score: inf
ROOT
ATOM      1  C   UNL     1       3.395   4.320  -0.270  1.00  0.00     0.188 C 
ENDROOT
BRANCH   1   2
ATOM      2  C   UNL     1       4.043   5.203   0.818  1.00  0.00     0.188 C 
BRANCH   2   3
ATOM      3  O   UNL     1       5.218   4.750   1.479  1.00  0.00    -0.376 OA
BRANCH   3   4
ATOM      4  C   UNL     1       5.242   3.448   2.052  1.00  0.00     0.202 C 
BRANCH   4   5
ATOM      5  C   UNL     1       4.082   2.983   2.945  1.00  0.00     0.261 C 
BRANCH   5   6
ATOM      6  O   UNL     1       2.783   3.107   2.338  1.00  0.00    -0.460 OA
BRANCH   6   7
ATOM      7  C   UNL     1       1.882   3.833   3.045  1.00  0.00     0.342 C 
ATOM      8  O   UNL     1       2.040   4.295   4.163  1.00  0.00    -0.246 OA
BRANCH   7   9
ATOM      9  C   UNL     1       0.692   4.165   2.233  1.00  0.00     0.105 A 
ATOM     10  C   UNL     1      -0.078   3.211   1.563  1.00  0.00     0.164 A 
ATOM     11  C   UNL     1      -1.298   3.593   0.986  1.00  0.00     0.085 A 
ATOM     12  Cl  UNL     1      -2.405   2.431   0.340  1.00  0.00    -0.080 Cl
ATOM     13  C   UNL     1      -1.674   4.938   0.960  1.00  0.00     0.033 A 
ATOM     14  C   UNL     1       0.305   5.518   2.205  1.00  0.00     0.028 A 
ATOM     15  C   UNL     1      -0.862   5.921   1.540  1.00  0.00    -0.016 A 
BRANCH  10  16
ATOM     16  O   UNL     1       0.349   1.880   1.511  1.00  0.00    -0.424 OA
BRANCH  16  17
ATOM     17  C   UNL     1       0.703   1.493   0.218  1.00  0.00     0.308 C 
ATOM     18  C   UNL     1       1.103   0.049   0.211  1.00  0.00     0.139 C 
ATOM     19  O   UNL     1       0.706   2.202  -0.782  1.00  0.00    -0.252 OA
ENDBRANCH  16  17
ENDBRANCH  10  16
BRANCH  15  20
ATOM     20  C   UNL     1      -1.252   7.332   1.471  1.00  0.00    -0.018 A 
ATOM     21  C   UNL     1      -2.275   7.831   2.291  1.00  0.00     0.009 A 
ATOM     22  C   UNL     1      -0.640   8.205   0.559  1.00  0.00     0.009 A 
ATOM     23  C   UNL     1      -2.679   9.164   2.197  1.00  0.00     0.001 A 
ATOM     24  C   UNL     1      -1.043   9.540   0.465  1.00  0.00     0.001 A 
ATOM     25  C   UNL     1      -2.065  10.017   1.283  1.00  0.00     0.000 A 
ENDBRANCH  15  20
ENDBRANCH   7   9
ENDBRANCH   6   7
ENDBRANCH   5   6
ENDBRANCH   4   5
ENDBRANCH   3   4
ENDBRANCH   2   3
ENDBRANCH   1   2
BRANCH   1  26
ATOM     26  O   UNL     1       3.994   3.057  -0.438  1.00  0.00    -0.376 OA
BRANCH  26  27
ATOM     27  C   UNL     1       4.991   2.870  -1.425  1.00  0.00     0.202 C 
BRANCH  27  28
ATOM     28  C   UNL     1       5.832   3.982  -2.087  1.00  0.00     0.261 C 
BRANCH  28  29
ATOM     29  O   UNL     1       5.513   5.345  -1.803  1.00  0.00    -0.460 OA
BRANCH  29  30
ATOM     30  C   UNL     1       4.789   5.998  -2.738  1.00  0.00     0.338 C 
ATOM     31  O   UNL     1       4.323   5.531  -3.773  1.00  0.00    -0.246 OA
BRANCH  30  32
ATOM     32  C   UNL     1       4.504   7.356  -2.248  1.00  0.00     0.060 A 
ATOM     33  C   UNL     1       3.188   7.691  -1.908  1.00  0.00     0.016 A 
ATOM     34  C   UNL     1       5.528   8.301  -2.151  1.00  0.00     0.016 A 
ATOM     35  C   UNL     1       2.890   8.985  -1.483  1.00  0.00     0.010 A 
ATOM     36  C   UNL     1       5.222   9.602  -1.739  1.00  0.00     0.010 A 
ATOM     37  C   UNL     1       3.898   9.957  -1.425  1.00  0.00    -0.014 A 
BRANCH  37  38
ATOM     38  C   UNL     1       3.541  11.376  -1.186  1.00  0.00     0.031 A 
ATOM     39  C   UNL     1       3.401  12.293  -2.370  1.00  0.00     0.074 A 
ATOM     40  C   UNL     1       3.325  11.839   0.059  1.00  0.00     0.049 A 
ATOM     41  N   UNL     1       3.151  13.576  -2.401  1.00  0.00    -0.248 NA
ATOM     42  C   UNL     1       3.562  11.678  -3.697  1.00  0.00     0.031 C 
ATOM     43  C   UNL     1       3.381  11.039   1.281  1.00  0.00     0.029 A 
ATOM     44  N   UNL     1       3.023  13.104   0.499  1.00  0.00    -0.354 N 
ATOM     45  C   UNL     1       3.133  13.925  -3.746  1.00  0.00     0.074 A 
ATOM     46  C   UNL     1       3.419  12.723  -4.499  1.00  0.00     0.031 C 
ATOM     47  C   UNL     1       3.139  11.837   2.336  1.00  0.00     0.029 A 
ATOM     48  C   UNL     1       2.946  13.208   1.867  1.00  0.00     0.049 A 
ATOM     49  H   UNL     1       2.876  13.865  -0.109  1.00  0.00     0.167 HD
ATOM     50  C   UNL     1       2.894  15.136  -4.302  1.00  0.00     0.037 A 
ATOM     51  C   UNL     1       2.767  14.291   2.651  1.00  0.00     0.037 A 
ATOM     52  C   UNL     1       2.615  16.330  -3.548  1.00  0.00     0.049 A 
ATOM     53  C   UNL     1       2.585  15.645   2.011  1.00  0.00     0.074 A 
ATOM     54  C   UNL     1       2.346  17.602  -4.021  1.00  0.00     0.029 A 
ATOM     55  N   UNL     1       2.578  16.402  -2.164  1.00  0.00    -0.354 N 
ATOM     56  N   UNL     1       2.550  15.959   0.737  1.00  0.00    -0.248 NA
ATOM     57  C   UNL     1       2.417  16.793   2.914  1.00  0.00     0.031 C 
ATOM     58  C   UNL     1       2.198  18.455  -2.922  1.00  0.00     0.029 A 
ATOM     59  C   UNL     1       2.317  17.703  -1.764  1.00  0.00     0.049 A 
ATOM     60  H   UNL     1       2.717  15.642  -1.554  1.00  0.00     0.167 HD
ATOM     61  C   UNL     1       2.324  17.332   0.688  1.00  0.00     0.074 A 
ATOM     62  C   UNL     1       2.224  17.787   2.058  1.00  0.00     0.031 C 
ATOM     63  C   UNL     1       2.207  18.141  -0.395  1.00  0.00     0.037 A 
BRANCH  50  64
ATOM     64  C   UNL     1       2.958  15.237  -5.801  1.00  0.00     0.058 A 
ATOM     65  C   UNL     1       1.964  14.682  -6.623  1.00  0.00     0.135 A 
ATOM     66  C   UNL     1       4.012  15.925  -6.422  1.00  0.00     0.135 A 
ATOM     67  F   UNL     1       0.944  13.996  -6.083  1.00  0.00    -0.206 F 
ATOM     68  C   UNL     1       2.026  14.786  -8.009  1.00  0.00     0.059 A 
ATOM     69  C   UNL     1       4.081  16.065  -7.804  1.00  0.00     0.059 A 
ATOM     70  F   UNL     1       4.991  16.471  -5.682  1.00  0.00    -0.206 F 
ATOM     71  C   UNL     1       3.089  15.480  -8.590  1.00  0.00     0.060 A 
BRANCH  71  72
ATOM     72  S   UNL     1       3.153  15.612 -10.389  1.00  0.00     0.124 S 
ATOM     73  O   UNL     1       3.519  14.250 -10.768  1.00  0.00    -0.237 OA
ATOM     74  O   UNL     1       1.791  16.017 -10.721  1.00  0.00    -0.237 OA
ATOM     75  O   UNL     1       4.179  16.624 -10.621  1.00  0.00    -0.744 OA
ENDBRANCH  71  72
ENDBRANCH  50  64
BRANCH  51  76
ATOM     76  C   UNL     1       2.771  14.151   4.133  1.00  0.00     0.058 A 
ATOM     77  C   UNL     1       1.606  14.357   4.885  1.00  0.00     0.135 A 
ATOM     78  C   UNL     1       3.947  13.825   4.828  1.00  0.00     0.135 A 
ATOM     79  F   UNL     1       0.460  14.687   4.269  1.00  0.00    -0.206 F 
ATOM     80  C   UNL     1       1.607  14.263   6.274  1.00  0.00     0.059 A 
ATOM     81  C   UNL     1       3.967  13.697   6.213  1.00  0.00     0.059 A 
ATOM     82  F   UNL     1       5.089  13.612   4.156  1.00  0.00    -0.206 F 
ATOM     83  C   UNL     1       2.794  13.931   6.929  1.00  0.00     0.060 A 
BRANCH  83  84
ATOM     84  S   UNL     1       2.776  13.775   8.729  1.00  0.00     0.124 S 
ATOM     85  O   UNL     1       2.677  15.169   9.143  1.00  0.00    -0.237 OA
ATOM     86  O   UNL     1       1.590  12.956   8.954  1.00  0.00    -0.237 OA
ATOM     87  O   UNL     1       4.047  13.118   9.021  1.00  0.00    -0.744 OA
ENDBRANCH  83  84
ENDBRANCH  51  76
BRANCH  63  88
ATOM     88  C   UNL     1       1.911  19.597  -0.151  1.00  0.00     0.058 A 
ATOM     89  C   UNL     1       2.881  20.477   0.354  1.00  0.00     0.135 A 
ATOM     90  C   UNL     1       0.656  20.131  -0.488  1.00  0.00     0.135 A 
ATOM     91  F   UNL     1       4.096  20.019   0.697  1.00  0.00    -0.206 F 
ATOM     92  C   UNL     1       2.610  21.830   0.537  1.00  0.00     0.059 A 
ATOM     93  C   UNL     1       0.372  21.485  -0.340  1.00  0.00     0.059 A 
ATOM     94  F   UNL     1      -0.305  19.336  -0.987  1.00  0.00    -0.206 F 
ATOM     95  C   UNL     1       1.353  22.325   0.185  1.00  0.00     0.060 A 
BRANCH  95  96
ATOM     96  S   UNL     1       1.027  24.089   0.392  1.00  0.00     0.124 S 
ATOM     97  O   UNL     1       0.891  24.195   1.841  1.00  0.00    -0.237 OA
ATOM     98  O   UNL     1       2.224  24.698  -0.179  1.00  0.00    -0.237 OA
ATOM     99  O   UNL     1      -0.201  24.300  -0.370  1.00  0.00    -0.744 OA
ENDBRANCH  95  96
ENDBRANCH  63  88
ENDBRANCH  37  38
ENDBRANCH  30  32
ENDBRANCH  29  30
ENDBRANCH  28  29
ENDBRANCH  27  28
ENDBRANCH  26  27
ENDBRANCH   1  26
TORSDOF 23
