REMARK SMILES O=C(C[C@@H]1C[N@@H+](CCSc2ccccc2F)CCO1)OCCOCCOCCOC(=O)c1ccc(-c2c3nc(c(-c4c(F)cc(S(=O)(=O)[O-])cc4F)c4ccc([nH]4)c(-c4c(F)cc(S(=O)(=O)[O-])cc4F)c4nc(c(-c5c(F)cc(S(=O)(=O)[O-])cc5F)c5ccc2[nH]5)C=C4)C=C3)cc1
REMARK SMILES IDX 24 1 23 2 22 3 21 4 20 5 2 6 1 7 3 8 4 9 5 10 19 11 6 12
REMARK SMILES IDX 18 13 17 14 7 16 8 17 9 18 10 19 11 20 15 21 12 22 14 23
REMARK SMILES IDX 16 24 13 25 25 26 26 27 27 28 28 29 29 30 30 31 31 32 32 33
REMARK SMILES IDX 33 34 97 35 34 36 96 37 35 38 36 39 37 40 90 41 38 42 95 43
REMARK SMILES IDX 89 44 91 45 39 46 94 47 88 48 87 49 40 51 74 52 53 53 73 54
REMARK SMILES IDX 54 55 57 56 72 57 92 58 55 59 56 60 71 62 93 63 58 64 41 65
REMARK SMILES IDX 42 66 51 67 43 68 44 69 50 70 52 71 45 72 46 73 47 74 48 75
REMARK SMILES IDX 49 76 75 77 76 78 85 79 77 80 78 81 84 82 86 83 79 84 80 85
REMARK SMILES IDX 81 86 82 87 83 88 59 89 60 90 69 91 61 92 62 93 68 94 70 95
REMARK SMILES IDX 63 96 64 97 65 98 66 99 67 100
REMARK H PARENT 6 15 91 50 57 61
REMARK Flexibility Score: inf
ROOT
ATOM      1  C   UNL     1       3.456   1.921  -0.405  1.00  0.00     0.188 C 
ENDROOT
BRANCH   1   2
ATOM      2  O   UNL     1       4.752   1.521  -0.835  1.00  0.00    -0.376 OA
BRANCH   2   3
ATOM      3  C   UNL     1       5.064   0.139  -0.811  1.00  0.00     0.202 C 
BRANCH   3   4
ATOM      4  C   UNL     1       4.181  -0.804  -1.654  1.00  0.00     0.261 C 
BRANCH   4   5
ATOM      5  O   UNL     1       2.786  -0.488  -1.563  1.00  0.00    -0.463 OA
BRANCH   5   6
ATOM      6  C   UNL     1       1.898  -1.425  -1.168  1.00  0.00     0.308 C 
ATOM      7  O   UNL     1       1.277  -2.129  -1.951  1.00  0.00    -0.252 OA
BRANCH   6   8
ATOM      8  C   UNL     1       1.563  -1.309   0.287  1.00  0.00     0.160 C 
BRANCH   8   9
ATOM      9  C   UNL     1       2.747  -1.558   1.199  1.00  0.00     0.184 C 
ATOM     10  C   UNL     1       3.208  -3.046   1.234  1.00  0.00     0.295 C 
ATOM     11  O   UNL     1       2.354  -1.024   2.469  1.00  0.00    -0.366 OA
ATOM     12  N   UNL     1       4.104  -3.384   2.359  1.00  0.00    -0.330 N 
ATOM     13  C   UNL     1       3.353  -1.286   3.448  1.00  0.00     0.222 C 
ATOM     14  C   UNL     1       3.510  -2.800   3.554  1.00  0.00     0.291 C 
ATOM     15  H   UNL     1       4.146  -4.399   2.450  1.00  0.00     0.348 HD
BRANCH  12  16
ATOM     16  C   UNL     1       5.553  -3.171   2.170  1.00  0.00     0.273 C 
BRANCH  16  17
ATOM     17  C   UNL     1       6.508  -2.418   3.170  1.00  0.00     0.136 C 
BRANCH  17  18
ATOM     18  S   UNL     1       6.892  -3.096   4.854  1.00  0.00    -0.117 SA
BRANCH  18  19
ATOM     19  C   UNL     1       5.676  -2.314   5.930  1.00  0.00     0.043 A 
ATOM     20  C   UNL     1       4.786  -3.169   6.605  1.00  0.00     0.018 A 
ATOM     21  C   UNL     1       5.465  -0.933   6.026  1.00  0.00     0.136 A 
ATOM     22  C   UNL     1       3.625  -2.663   7.201  1.00  0.00     0.001 A 
ATOM     23  C   UNL     1       4.336  -0.420   6.677  1.00  0.00     0.040 A 
ATOM     24  F   UNL     1       6.294  -0.072   5.415  1.00  0.00    -0.206 F 
ATOM     25  C   UNL     1       3.392  -1.290   7.224  1.00  0.00     0.003 A 
ENDBRANCH  18  19
ENDBRANCH  17  18
ENDBRANCH  16  17
ENDBRANCH  12  16
ENDBRANCH   8   9
ENDBRANCH   6   8
ENDBRANCH   5   6
ENDBRANCH   4   5
ENDBRANCH   3   4
ENDBRANCH   2   3
ENDBRANCH   1   2
BRANCH   1  26
ATOM     26  C   UNL     1       2.495   2.303  -1.556  1.00  0.00     0.188 C 
BRANCH  26  27
ATOM     27  O   UNL     1       3.002   2.449  -2.878  1.00  0.00    -0.376 OA
BRANCH  27  28
ATOM     28  C   UNL     1       4.253   3.091  -3.073  1.00  0.00     0.202 C 
BRANCH  28  29
ATOM     29  C   UNL     1       4.436   4.529  -2.568  1.00  0.00     0.261 C 
BRANCH  29  30
ATOM     30  O   UNL     1       4.065   4.754  -1.195  1.00  0.00    -0.460 OA
BRANCH  30  31
ATOM     31  C   UNL     1       2.933   5.486  -1.023  1.00  0.00     0.338 C 
ATOM     32  O   UNL     1       2.238   5.971  -1.896  1.00  0.00    -0.246 OA
BRANCH  31  33
ATOM     33  C   UNL     1       2.524   5.499   0.401  1.00  0.00     0.060 A 
ATOM     34  C   UNL     1       1.239   5.036   0.716  1.00  0.00     0.016 A 
ATOM     35  C   UNL     1       3.325   6.073   1.389  1.00  0.00     0.016 A 
ATOM     36  C   UNL     1       0.729   5.198   2.004  1.00  0.00     0.010 A 
ATOM     37  C   UNL     1       2.803   6.254   2.679  1.00  0.00     0.010 A 
ATOM     38  C   UNL     1       1.486   5.859   2.980  1.00  0.00    -0.014 A 
BRANCH  38  39
ATOM     39  C   UNL     1       0.813   6.310   4.227  1.00  0.00     0.031 A 
ATOM     40  C   UNL     1       0.288   7.723   4.296  1.00  0.00     0.074 A 
ATOM     41  C   UNL     1       0.594   5.466   5.253  1.00  0.00     0.049 A 
ATOM     42  N   UNL     1      -0.352   8.323   5.266  1.00  0.00    -0.248 NA
ATOM     43  C   UNL     1       0.506   8.567   3.109  1.00  0.00     0.031 C 
ATOM     44  C   UNL     1       0.994   4.061   5.294  1.00  0.00     0.029 A 
ATOM     45  N   UNL     1      -0.034   5.672   6.458  1.00  0.00    -0.354 N 
ATOM     46  C   UNL     1      -0.620   9.608   4.806  1.00  0.00     0.074 A 
ATOM     47  C   UNL     1      -0.042   9.714   3.484  1.00  0.00     0.031 C 
ATOM     48  C   UNL     1       0.597   3.529   6.464  1.00  0.00     0.029 A 
ATOM     49  C   UNL     1      -0.063   4.560   7.266  1.00  0.00     0.049 A 
ATOM     50  H   UNL     1      -0.428   6.536   6.718  1.00  0.00     0.167 HD
ATOM     51  C   UNL     1      -1.301  10.605   5.419  1.00  0.00     0.037 A 
ATOM     52  C   UNL     1      -0.558   4.395   8.510  1.00  0.00     0.037 A 
ATOM     53  C   UNL     1      -1.885  10.506   6.731  1.00  0.00     0.049 A 
ATOM     54  C   UNL     1      -1.236   5.548   9.206  1.00  0.00     0.074 A 
ATOM     55  C   UNL     1      -2.594  11.469   7.429  1.00  0.00     0.029 A 
ATOM     56  N   UNL     1      -1.835   9.383   7.540  1.00  0.00    -0.354 N 
ATOM     57  N   UNL     1      -1.480   6.756   8.756  1.00  0.00    -0.248 NA
ATOM     58  C   UNL     1      -1.710   5.314  10.579  1.00  0.00     0.031 C 
ATOM     59  C   UNL     1      -2.935  10.944   8.678  1.00  0.00     0.029 A 
ATOM     60  C   UNL     1      -2.481   9.636   8.739  1.00  0.00     0.049 A 
ATOM     61  H   UNL     1      -1.404   8.531   7.300  1.00  0.00     0.167 HD
ATOM     62  C   UNL     1      -2.158   7.414   9.780  1.00  0.00     0.074 A 
ATOM     63  C   UNL     1      -2.297   6.468  10.866  1.00  0.00     0.031 C 
ATOM     64  C   UNL     1      -2.622   8.688   9.815  1.00  0.00     0.037 A 
BRANCH  51  65
ATOM     65  C   UNL     1      -1.460  11.905   4.683  1.00  0.00     0.058 A 
ATOM     66  C   UNL     1      -0.770  13.052   5.104  1.00  0.00     0.135 A 
ATOM     67  C   UNL     1      -2.368  12.037   3.620  1.00  0.00     0.135 A 
ATOM     68  F   UNL     1       0.117  12.977   6.109  1.00  0.00    -0.206 F 
ATOM     69  C   UNL     1      -0.996  14.292   4.517  1.00  0.00     0.059 A 
ATOM     70  C   UNL     1      -2.593  13.264   3.003  1.00  0.00     0.059 A 
ATOM     71  F   UNL     1      -3.034  10.965   3.164  1.00  0.00    -0.206 F 
ATOM     72  C   UNL     1      -1.916  14.390   3.473  1.00  0.00     0.060 A 
BRANCH  72  73
ATOM     73  S   UNL     1      -2.204  16.010   2.729  1.00  0.00     0.124 S 
ATOM     74  O   UNL     1      -2.886  16.717   3.806  1.00  0.00    -0.237 OA
ATOM     75  O   UNL     1      -0.845  16.456   2.435  1.00  0.00    -0.237 OA
ATOM     76  O   UNL     1      -3.021  15.705   1.558  1.00  0.00    -0.744 OA
ENDBRANCH  72  73
ENDBRANCH  51  65
BRANCH  52  77
ATOM     77  C   UNL     1      -0.435   3.078   9.193  1.00  0.00     0.058 A 
ATOM     78  C   UNL     1       0.813   2.593   9.614  1.00  0.00     0.135 A 
ATOM     79  C   UNL     1      -1.565   2.288   9.454  1.00  0.00     0.135 A 
ATOM     80  F   UNL     1       1.926   3.307   9.389  1.00  0.00    -0.206 F 
ATOM     81  C   UNL     1       0.938   1.363  10.250  1.00  0.00     0.059 A 
ATOM     82  C   UNL     1      -1.468   1.066  10.112  1.00  0.00     0.059 A 
ATOM     83  F   UNL     1      -2.782   2.720   9.088  1.00  0.00    -0.206 F 
ATOM     84  C   UNL     1      -0.208   0.605  10.491  1.00  0.00     0.060 A 
BRANCH  84  85
ATOM     85  S   UNL     1      -0.018  -0.996  11.301  1.00  0.00     0.124 S 
ATOM     86  O   UNL     1       0.606  -1.780  10.239  1.00  0.00    -0.237 OA
ATOM     87  O   UNL     1       0.839  -0.667  12.435  1.00  0.00    -0.237 OA
ATOM     88  O   UNL     1      -1.388  -1.369  11.639  1.00  0.00    -0.744 OA
ENDBRANCH  84  85
ENDBRANCH  52  77
BRANCH  64  89
ATOM     89  C   UNL     1      -3.347   9.138  11.055  1.00  0.00     0.058 A 
ATOM     90  C   UNL     1      -4.730   9.380  11.024  1.00  0.00     0.135 A 
ATOM     91  C   UNL     1      -2.666   9.390  12.256  1.00  0.00     0.135 A 
ATOM     92  F   UNL     1      -5.431   9.164   9.899  1.00  0.00    -0.206 F 
ATOM     93  C   UNL     1      -5.411   9.861  12.138  1.00  0.00     0.059 A 
ATOM     94  C   UNL     1      -3.331   9.846  13.391  1.00  0.00     0.059 A 
ATOM     95  F   UNL     1      -1.345   9.168  12.341  1.00  0.00    -0.206 F 
ATOM     96  C   UNL     1      -4.702  10.091  13.318  1.00  0.00     0.060 A 
BRANCH  96  97
ATOM     97  S   UNL     1      -5.606  10.680  14.767  1.00  0.00     0.124 S 
ATOM     98  O   UNL     1      -5.882  12.066  14.405  1.00  0.00    -0.237 OA
ATOM     99  O   UNL     1      -6.762   9.789  14.794  1.00  0.00    -0.237 OA
ATOM    100  O   UNL     1      -4.654  10.493  15.858  1.00  0.00    -0.744 OA
ENDBRANCH  96  97
ENDBRANCH  64  89
ENDBRANCH  38  39
ENDBRANCH  31  33
ENDBRANCH  30  31
ENDBRANCH  29  30
ENDBRANCH  28  29
ENDBRANCH  27  28
ENDBRANCH  26  27
ENDBRANCH   1  26
TORSDOF 25
