REMARK SMILES O=C(CSC(=S)N1CCCCC1)OCCOCCOCCOC(=O)c1ccc(-c2c3nc(c(-c4c(F)cc(S(=O)(=O)[O-])cc4F)c4ccc([nH]4)c(-c4c(F)cc(S(=O)(=O)[O-])cc4F)c4nc(c(-c5c(F)cc(S(=O)(=O)[O-])cc5F)c5ccc2[nH]5)C=C4)C=C3)cc1
REMARK SMILES IDX 17 1 16 2 15 3 14 4 13 5 2 6 1 7 3 8 4 9 5 10 6 11 7 12 8 13
REMARK SMILES IDX 12 14 9 15 11 16 10 17 18 18 19 19 20 20 21 21 22 22 23 23
REMARK SMILES IDX 24 24 25 25 26 26 90 27 27 28 89 29 28 30 29 31 30 32 83 33
REMARK SMILES IDX 31 34 88 35 82 36 84 37 32 38 87 39 81 40 80 41 33 43 67 44
REMARK SMILES IDX 46 45 66 46 47 47 50 48 65 49 85 50 48 51 49 52 64 54 86 55
REMARK SMILES IDX 51 56 34 57 35 58 44 59 36 60 37 61 43 62 45 63 38 64 39 65
REMARK SMILES IDX 40 66 41 67 42 68 68 69 69 70 78 71 70 72 71 73 77 74 79 75
REMARK SMILES IDX 72 76 73 77 74 78 75 79 76 80 52 81 53 82 62 83 54 84 55 85
REMARK SMILES IDX 61 86 63 87 56 88 57 89 58 90 59 91 60 92
REMARK H PARENT 84 42 50 53
REMARK Flexibility Score: inf
ROOT
ATOM      1  C   UNL     1       2.973   1.732   0.845  1.00  0.00     0.188 C 
ENDROOT
BRANCH   1   2
ATOM      2  O   UNL     1       4.349   1.650   0.503  1.00  0.00    -0.376 OA
BRANCH   2   3
ATOM      3  C   UNL     1       4.888   0.339   0.394  1.00  0.00     0.202 C 
BRANCH   3   4
ATOM      4  C   UNL     1       4.620  -0.303  -0.968  1.00  0.00     0.261 C 
BRANCH   4   5
ATOM      5  O   UNL     1       3.240  -0.497  -1.354  1.00  0.00    -0.463 OA
BRANCH   5   6
ATOM      6  C   UNL     1       2.228  -1.093  -0.691  1.00  0.00     0.316 C 
ATOM      7  O   UNL     1       1.078  -0.914  -1.094  1.00  0.00    -0.251 OA
BRANCH   6   8
ATOM      8  C   UNL     1       2.483  -1.873   0.573  1.00  0.00     0.199 C 
BRANCH   8   9
ATOM      9  S   UNL     1       3.615  -3.261   0.379  1.00  0.00    -0.085 SA
BRANCH   9  10
ATOM     10  C   UNL     1       2.837  -4.220  -0.886  1.00  0.00     0.136 C 
ATOM     11  S   UNL     1       1.172  -4.417  -0.999  1.00  0.00    -0.053 S 
BRANCH  10  12
ATOM     12  N   UNL     1       3.757  -4.810  -1.762  1.00  0.00    -0.358 N 
ATOM     13  C   UNL     1       3.392  -5.189  -3.129  1.00  0.00     0.118 C 
ATOM     14  C   UNL     1       4.912  -5.561  -1.254  1.00  0.00     0.118 C 
ATOM     15  C   UNL     1       3.007  -6.666  -3.195  1.00  0.00     0.021 C 
ATOM     16  C   UNL     1       4.536  -7.043  -1.192  1.00  0.00     0.021 C 
ATOM     17  C   UNL     1       4.080  -7.557  -2.562  1.00  0.00     0.004 C 
ENDBRANCH  10  12
ENDBRANCH   9  10
ENDBRANCH   8   9
ENDBRANCH   6   8
ENDBRANCH   5   6
ENDBRANCH   4   5
ENDBRANCH   3   4
ENDBRANCH   2   3
ENDBRANCH   1   2
BRANCH   1  18
ATOM     18  C   UNL     1       2.428   3.168   0.933  1.00  0.00     0.188 C 
BRANCH  18  19
ATOM     19  O   UNL     1       3.238   4.227   0.444  1.00  0.00    -0.376 OA
BRANCH  19  20
ATOM     20  C   UNL     1       4.524   4.406   1.035  1.00  0.00     0.202 C 
BRANCH  20  21
ATOM     21  C   UNL     1       4.589   4.581   2.557  1.00  0.00     0.261 C 
BRANCH  21  22
ATOM     22  O   UNL     1       4.178   3.414   3.304  1.00  0.00    -0.460 OA
BRANCH  22  23
ATOM     23  C   UNL     1       3.178   3.644   4.191  1.00  0.00     0.338 C 
ATOM     24  O   UNL     1       2.598   4.699   4.385  1.00  0.00    -0.246 OA
BRANCH  23  25
ATOM     25  C   UNL     1       2.755   2.408   4.875  1.00  0.00     0.060 A 
ATOM     26  C   UNL     1       1.440   1.968   4.680  1.00  0.00     0.016 A 
ATOM     27  C   UNL     1       3.548   1.849   5.879  1.00  0.00     0.016 A 
ATOM     28  C   UNL     1       0.886   1.021   5.544  1.00  0.00     0.010 A 
ATOM     29  C   UNL     1       2.987   0.903   6.749  1.00  0.00     0.010 A 
ATOM     30  C   UNL     1       1.636   0.531   6.622  1.00  0.00    -0.014 A 
BRANCH  30  31
ATOM     31  C   UNL     1       0.939  -0.178   7.729  1.00  0.00     0.031 A 
ATOM     32  C   UNL     1       0.502   0.616   8.936  1.00  0.00     0.074 A 
ATOM     33  C   UNL     1       0.653  -1.490   7.655  1.00  0.00     0.049 A 
ATOM     34  N   UNL     1      -0.141   0.218  10.005  1.00  0.00    -0.248 NA
ATOM     35  C   UNL     1       0.834   2.050   8.936  1.00  0.00     0.031 C 
ATOM     36  C   UNL     1       0.989  -2.368   6.537  1.00  0.00     0.029 A 
ATOM     37  N   UNL     1       0.009  -2.311   8.548  1.00  0.00    -0.354 N 
ATOM     38  C   UNL     1      -0.286   1.347  10.804  1.00  0.00     0.074 A 
ATOM     39  C   UNL     1       0.360   2.440  10.110  1.00  0.00     0.031 C 
ATOM     40  C   UNL     1       0.550  -3.610   6.812  1.00  0.00     0.029 A 
ATOM     41  C   UNL     1      -0.083  -3.617   8.131  1.00  0.00     0.049 A 
ATOM     42  H   UNL     1      -0.353  -1.993   9.406  1.00  0.00     0.167 HD
ATOM     43  C   UNL     1      -0.909   1.470  12.001  1.00  0.00     0.037 A 
ATOM     44  C   UNL     1      -0.612  -4.694   8.745  1.00  0.00     0.037 A 
ATOM     45  C   UNL     1      -1.561   0.391  12.694  1.00  0.00     0.049 A 
ATOM     46  C   UNL     1      -1.264  -4.543  10.095  1.00  0.00     0.074 A 
ATOM     47  C   UNL     1      -2.239   0.427  13.901  1.00  0.00     0.029 A 
ATOM     48  N   UNL     1      -1.613  -0.920  12.247  1.00  0.00    -0.354 N 
ATOM     49  N   UNL     1      -1.421  -3.462  10.822  1.00  0.00    -0.248 NA
ATOM     50  C   UNL     1      -1.820  -5.760  10.706  1.00  0.00     0.031 C 
ATOM     51  C   UNL     1      -2.670  -0.871  14.201  1.00  0.00     0.029 A 
ATOM     52  C   UNL     1      -2.296  -1.706  13.161  1.00  0.00     0.049 A 
ATOM     53  H   UNL     1      -1.223  -1.244  11.403  1.00  0.00     0.167 HD
ATOM     54  C   UNL     1      -2.124  -3.862  11.955  1.00  0.00     0.074 A 
ATOM     55  C   UNL     1      -2.362  -5.284  11.818  1.00  0.00     0.031 C 
ATOM     56  C   UNL     1      -2.540  -3.118  13.009  1.00  0.00     0.037 A 
BRANCH  43  57
ATOM     57  C   UNL     1      -0.894   2.826  12.649  1.00  0.00     0.058 A 
ATOM     58  C   UNL     1      -1.694   3.878  12.177  1.00  0.00     0.135 A 
ATOM     59  C   UNL     1      -0.081   3.070  13.767  1.00  0.00     0.135 A 
ATOM     60  F   UNL     1      -2.476   3.701  11.100  1.00  0.00    -0.206 F 
ATOM     61  C   UNL     1      -1.666   5.135  12.772  1.00  0.00     0.059 A 
ATOM     62  C   UNL     1      -0.054   4.312  14.393  1.00  0.00     0.059 A 
ATOM     63  F   UNL     1       0.704   2.097  14.258  1.00  0.00    -0.206 F 
ATOM     64  C   UNL     1      -0.838   5.344  13.877  1.00  0.00     0.060 A 
BRANCH  64  65
ATOM     65  S   UNL     1      -0.801   6.981  14.637  1.00  0.00     0.124 S 
ATOM     66  O   UNL     1       0.018   7.724  13.684  1.00  0.00    -0.237 OA
ATOM     67  O   UNL     1      -2.214   7.344  14.674  1.00  0.00    -0.237 OA
ATOM     68  O   UNL     1      -0.186   6.737  15.938  1.00  0.00    -0.744 OA
ENDBRANCH  64  65
ENDBRANCH  43  57
BRANCH  44  69
ATOM     69  C   UNL     1      -0.560  -6.025   8.084  1.00  0.00     0.058 A 
ATOM     70  C   UNL     1      -1.719  -6.622   7.567  1.00  0.00     0.135 A 
ATOM     71  C   UNL     1       0.647  -6.731   7.971  1.00  0.00     0.135 A 
ATOM     72  F   UNL     1      -2.899  -5.990   7.665  1.00  0.00    -0.206 F 
ATOM     73  C   UNL     1      -1.688  -7.880   6.974  1.00  0.00     0.059 A 
ATOM     74  C   UNL     1       0.707  -7.981   7.364  1.00  0.00     0.059 A 
ATOM     75  F   UNL     1       1.785  -6.198   8.443  1.00  0.00    -0.206 F 
ATOM     76  C   UNL     1      -0.468  -8.552   6.878  1.00  0.00     0.060 A 
BRANCH  76  77
ATOM     77  S   UNL     1      -0.425 -10.167   6.069  1.00  0.00     0.124 S 
ATOM     78  O   UNL     1      -0.976 -11.030   7.108  1.00  0.00    -0.237 OA
ATOM     79  O   UNL     1      -1.272  -9.952   4.901  1.00  0.00    -0.237 OA
ATOM     80  O   UNL     1       0.994 -10.355   5.778  1.00  0.00    -0.744 OA
ENDBRANCH  76  77
ENDBRANCH  44  69
BRANCH  56  81
ATOM     81  C   UNL     1      -3.337  -3.812  14.079  1.00  0.00     0.058 A 
ATOM     82  C   UNL     1      -2.737  -4.679  15.005  1.00  0.00     0.135 A 
ATOM     83  C   UNL     1      -4.716  -3.575  14.202  1.00  0.00     0.135 A 
ATOM     84  F   UNL     1      -1.423  -4.943  14.930  1.00  0.00    -0.206 F 
ATOM     85  C   UNL     1      -3.481  -5.310  15.998  1.00  0.00     0.059 A 
ATOM     86  C   UNL     1      -5.475  -4.177  15.201  1.00  0.00     0.059 A 
ATOM     87  F   UNL     1      -5.338  -2.744  13.350  1.00  0.00    -0.206 F 
ATOM     88  C   UNL     1      -4.851  -5.055  16.085  1.00  0.00     0.060 A 
BRANCH  88  89
ATOM     89  S   UNL     1      -5.807  -5.863  17.388  1.00  0.00     0.124 S 
ATOM     90  O   UNL     1      -5.978  -7.203  16.838  1.00  0.00    -0.237 OA
ATOM     91  O   UNL     1      -4.919  -5.761  18.542  1.00  0.00    -0.237 OA
ATOM     92  O   UNL     1      -7.021  -5.055  17.467  1.00  0.00    -0.744 OA
ENDBRANCH  88  89
ENDBRANCH  56  81
ENDBRANCH  30  31
ENDBRANCH  23  25
ENDBRANCH  22  23
ENDBRANCH  21  22
ENDBRANCH  20  21
ENDBRANCH  19  20
ENDBRANCH  18  19
ENDBRANCH   1  18
TORSDOF 23
