REMARK SMILES Cc1c(Br)c(C)c2c(c1Br)O[C@H](C(F)(F)F)C(C(=O)OCCOCCOCCOC(=O)c1ccc(-c3c4nc(c(-c5c(F)cc(S(=O)(=O)[O-])cc5F)c5ccc([nH]5)c(-c5c(F)cc(S(=O)(=O)[O-])cc5F)c5nc(c(-c6c(F)cc(S(=O)(=O)[O-])cc6F)c6ccc3[nH]6)C=C5)C=C4)cc1)=C2
REMARK SMILES IDX 25 1 24 2 23 3 22 4 21 5 20 6 18 7 19 8 17 9 1 10 2 11 3 12
REMARK SMILES IDX 9 13 4 14 5 15 8 16 10 17 6 18 7 19 11 20 98 21 12 22 13 23
REMARK SMILES IDX 14 24 15 25 16 26 26 27 27 28 28 29 29 30 30 31 31 32 32 33
REMARK SMILES IDX 33 34 97 35 34 36 96 37 35 38 36 39 37 40 90 41 38 42 95 43
REMARK SMILES IDX 89 44 91 45 39 46 94 47 88 48 87 49 40 51 74 52 53 53 73 54
REMARK SMILES IDX 54 55 57 56 72 57 92 58 55 59 56 60 71 62 93 63 58 64 41 65
REMARK SMILES IDX 42 66 51 67 43 68 44 69 50 70 52 71 45 72 46 73 47 74 48 75
REMARK SMILES IDX 49 76 75 77 76 78 85 79 77 80 78 81 84 82 86 83 79 84 80 85
REMARK SMILES IDX 81 86 82 87 83 88 59 89 60 90 69 91 61 92 62 93 68 94 70 95
REMARK SMILES IDX 63 96 64 97 65 98 66 99 67 100
REMARK H PARENT 91 50 57 61
REMARK Flexibility Score: inf
ROOT
ATOM      1  C   UNL     1       0.576   1.809   8.451  1.00  0.00     0.188 C 
ENDROOT
BRANCH   1   2
ATOM      2  C   UNL     1       0.093   3.274   8.381  1.00  0.00     0.188 C 
BRANCH   2   3
ATOM      3  O   UNL     1      -0.725   3.801   9.422  1.00  0.00    -0.376 OA
BRANCH   3   4
ATOM      4  C   UNL     1      -1.774   3.016   9.973  1.00  0.00     0.202 C 
BRANCH   4   5
ATOM      5  C   UNL     1      -2.855   2.471   9.033  1.00  0.00     0.261 C 
BRANCH   5   6
ATOM      6  O   UNL     1      -2.338   1.750   7.903  1.00  0.00    -0.460 OA
BRANCH   6   7
ATOM      7  C   UNL     1      -2.619   2.285   6.692  1.00  0.00     0.338 C 
ATOM      8  O   UNL     1      -3.330   3.253   6.467  1.00  0.00    -0.246 OA
BRANCH   7   9
ATOM      9  C   UNL     1      -1.838   1.594   5.647  1.00  0.00     0.087 C 
ATOM     10  C   UNL     1       1.099  -0.183   0.091  1.00  0.00     0.047 C 
ATOM     11  C   UNL     1       0.600   0.471   1.359  1.00  0.00    -0.019 A 
ATOM     12  C   UNL     1       0.711   1.875   1.527  1.00  0.00     0.025 A 
ATOM     13  C   UNL     1       0.038  -0.279   2.411  1.00  0.00     0.064 A 
ATOM     14  Br  UNL     1       1.580   2.899   0.153  1.00  0.00    -0.050 Br
ATOM     15  C   UNL     1       0.194   2.529   2.674  1.00  0.00    -0.026 A 
ATOM     16  C   UNL     1      -0.508   0.356   3.543  1.00  0.00     0.142 A 
ATOM     17  Br  UNL     1      -0.019  -2.195   2.345  1.00  0.00    -0.046 Br
ATOM     18  C   UNL     1       0.323   4.024   2.879  1.00  0.00     0.046 C 
ATOM     19  C   UNL     1      -0.477   1.753   3.653  1.00  0.00     0.022 A 
ATOM     20  O   UNL     1      -1.045  -0.455   4.510  1.00  0.00    -0.474 OA
ATOM     21  C   UNL     1      -1.196   2.373   4.767  1.00  0.00     0.027 C 
ATOM     22  C   UNL     1      -1.810   0.100   5.605  1.00  0.00     0.316 C 
BRANCH  22  23
ATOM     23  C   UNL     1      -3.213  -0.523   5.582  1.00  0.00     0.430 C 
ATOM     24  F   UNL     1      -3.150  -1.875   5.517  1.00  0.00    -0.167 F 
ATOM     25  F   UNL     1      -3.914  -0.227   6.703  1.00  0.00    -0.167 F 
ATOM     26  F   UNL     1      -3.942  -0.100   4.525  1.00  0.00    -0.167 F 
ENDBRANCH  22  23
ENDBRANCH   7   9
ENDBRANCH   6   7
ENDBRANCH   5   6
ENDBRANCH   4   5
ENDBRANCH   3   4
ENDBRANCH   2   3
ENDBRANCH   1   2
BRANCH   1  27
ATOM     27  O   UNL     1       0.267   1.170   9.670  1.00  0.00    -0.376 OA
BRANCH  27  28
ATOM     28  C   UNL     1       1.312   0.958  10.603  1.00  0.00     0.202 C 
BRANCH  28  29
ATOM     29  C   UNL     1       2.248   2.107  11.021  1.00  0.00     0.261 C 
BRANCH  29  30
ATOM     30  O   UNL     1       2.631   3.045  10.008  1.00  0.00    -0.460 OA
BRANCH  30  31
ATOM     31  C   UNL     1       3.649   2.693   9.190  1.00  0.00     0.338 C 
ATOM     32  O   UNL     1       4.261   1.641   9.198  1.00  0.00    -0.246 OA
BRANCH  31  33
ATOM     33  C   UNL     1       3.764   3.731   8.140  1.00  0.00     0.060 A 
ATOM     34  C   UNL     1       3.570   3.360   6.803  1.00  0.00     0.016 A 
ATOM     35  C   UNL     1       4.058   5.057   8.470  1.00  0.00     0.016 A 
ATOM     36  C   UNL     1       3.712   4.307   5.787  1.00  0.00     0.010 A 
ATOM     37  C   UNL     1       4.228   5.998   7.449  1.00  0.00     0.010 A 
ATOM     38  C   UNL     1       4.092   5.618   6.103  1.00  0.00    -0.014 A 
BRANCH  38  39
ATOM     39  C   UNL     1       4.592   6.516   5.032  1.00  0.00     0.031 A 
ATOM     40  C   UNL     1       6.069   6.496   4.734  1.00  0.00     0.074 A 
ATOM     41  C   UNL     1       3.769   7.310   4.324  1.00  0.00     0.049 A 
ATOM     42  N   UNL     1       6.761   7.236   3.909  1.00  0.00    -0.248 NA
ATOM     43  C   UNL     1       6.869   5.501   5.468  1.00  0.00     0.031 C 
ATOM     44  C   UNL     1       2.317   7.373   4.469  1.00  0.00     0.029 A 
ATOM     45  N   UNL     1       4.050   8.225   3.339  1.00  0.00    -0.354 N 
ATOM     46  C   UNL     1       8.074   6.793   4.020  1.00  0.00     0.074 A 
ATOM     47  C   UNL     1       8.088   5.739   5.009  1.00  0.00     0.031 C 
ATOM     48  C   UNL     1       1.834   8.290   3.610  1.00  0.00     0.029 A 
ATOM     49  C   UNL     1       2.945   8.904   2.884  1.00  0.00     0.049 A 
ATOM     50  H   UNL     1       4.958   8.380   2.992  1.00  0.00     0.167 HD
ATOM     51  C   UNL     1       9.172   7.223   3.355  1.00  0.00     0.037 A 
ATOM     52  C   UNL     1       2.852   9.923   2.005  1.00  0.00     0.037 A 
ATOM     53  C   UNL     1       9.164   8.289   2.391  1.00  0.00     0.049 A 
ATOM     54  C   UNL     1       4.105  10.463   1.360  1.00  0.00     0.074 A 
ATOM     55  C   UNL     1      10.228   8.817   1.681  1.00  0.00     0.029 A 
ATOM     56  N   UNL     1       8.036   8.997   2.006  1.00  0.00    -0.354 N 
ATOM     57  N   UNL     1       5.345  10.054   1.491  1.00  0.00    -0.248 NA
ATOM     58  C   UNL     1       3.945  11.611   0.456  1.00  0.00     0.031 C 
ATOM     59  C   UNL     1       9.749   9.874   0.899  1.00  0.00     0.029 A 
ATOM     60  C   UNL     1       8.380   9.973   1.086  1.00  0.00     0.049 A 
ATOM     61  H   UNL     1       7.124   8.830   2.338  1.00  0.00     0.167 HD
ATOM     62  C   UNL     1       6.110  10.885   0.677  1.00  0.00     0.074 A 
ATOM     63  C   UNL     1       5.189  11.806   0.042  1.00  0.00     0.031 C 
ATOM     64  C   UNL     1       7.452  10.891   0.475  1.00  0.00     0.037 A 
BRANCH  51  65
ATOM     65  C   UNL     1      10.478   6.553   3.676  1.00  0.00     0.058 A 
ATOM     66  C   UNL     1      10.763   5.251   3.237  1.00  0.00     0.135 A 
ATOM     67  C   UNL     1      11.462   7.228   4.416  1.00  0.00     0.135 A 
ATOM     68  F   UNL     1       9.844   4.552   2.551  1.00  0.00    -0.206 F 
ATOM     69  C   UNL     1      11.974   4.634   3.533  1.00  0.00     0.059 A 
ATOM     70  C   UNL     1      12.690   6.639   4.703  1.00  0.00     0.059 A 
ATOM     71  F   UNL     1      11.233   8.470   4.870  1.00  0.00    -0.206 F 
ATOM     72  C   UNL     1      12.932   5.338   4.265  1.00  0.00     0.060 A 
BRANCH  72  73
ATOM     73  S   UNL     1      14.502   4.526   4.630  1.00  0.00     0.124 S 
ATOM     74  O   UNL     1      14.091   3.518   5.602  1.00  0.00    -0.237 OA
ATOM     75  O   UNL     1      14.901   4.019   3.321  1.00  0.00    -0.237 OA
ATOM     76  O   UNL     1      15.329   5.606   5.160  1.00  0.00    -0.744 OA
ENDBRANCH  72  73
ENDBRANCH  51  65
BRANCH  52  77
ATOM     77  C   UNL     1       1.527  10.526   1.697  1.00  0.00     0.058 A 
ATOM     78  C   UNL     1       0.938  10.371   0.433  1.00  0.00     0.135 A 
ATOM     79  C   UNL     1       0.830  11.282   2.653  1.00  0.00     0.135 A 
ATOM     80  F   UNL     1       1.573   9.675  -0.521  1.00  0.00    -0.206 F 
ATOM     81  C   UNL     1      -0.291  10.947   0.126  1.00  0.00     0.059 A 
ATOM     82  C   UNL     1      -0.411  11.848   2.377  1.00  0.00     0.059 A 
ATOM     83  F   UNL     1       1.351  11.461   3.877  1.00  0.00    -0.206 F 
ATOM     84  C   UNL     1      -0.961  11.680   1.108  1.00  0.00     0.060 A 
BRANCH  84  85
ATOM     85  S   UNL     1      -2.581  12.374   0.714  1.00  0.00     0.124 S 
ATOM     86  O   UNL     1      -2.227  13.443  -0.213  1.00  0.00    -0.237 OA
ATOM     87  O   UNL     1      -3.270  11.226   0.133  1.00  0.00    -0.237 OA
ATOM     88  O   UNL     1      -3.086  12.807   2.013  1.00  0.00    -0.744 OA
ENDBRANCH  84  85
ENDBRANCH  52  77
BRANCH  64  89
ATOM     89  C   UNL     1       8.004  11.918  -0.476  1.00  0.00     0.058 A 
ATOM     90  C   UNL     1       8.067  13.278  -0.132  1.00  0.00     0.135 A 
ATOM     91  C   UNL     1       8.507  11.536  -1.730  1.00  0.00     0.135 A 
ATOM     92  F   UNL     1       7.599  13.697   1.055  1.00  0.00    -0.206 F 
ATOM     93  C   UNL     1       8.577  14.227  -1.012  1.00  0.00     0.059 A 
ATOM     94  C   UNL     1       9.047  12.465  -2.615  1.00  0.00     0.059 A 
ATOM     95  F   UNL     1       8.485  10.247  -2.104  1.00  0.00    -0.206 F 
ATOM     96  C   UNL     1       9.062  13.811  -2.253  1.00  0.00     0.060 A 
BRANCH  96  97
ATOM     97  S   UNL     1       9.724  15.053  -3.384  1.00  0.00     0.124 S 
ATOM     98  O   UNL     1       8.505  15.715  -3.838  1.00  0.00    -0.237 OA
ATOM     99  O   UNL     1      10.587  15.843  -2.511  1.00  0.00    -0.237 OA
ATOM    100  O   UNL     1      10.420  14.259  -4.392  1.00  0.00    -0.744 OA
ENDBRANCH  96  97
ENDBRANCH  64  89
ENDBRANCH  38  39
ENDBRANCH  31  33
ENDBRANCH  30  31
ENDBRANCH  29  30
ENDBRANCH  28  29
ENDBRANCH  27  28
ENDBRANCH   1  27
TORSDOF 21
