REMARK SMILES Cc1ccc(S(=O)(=O)N2c3ccc(C(=O)OCCOCCOCCOC(=O)c4ccc(-c5c6nc(c(-c7c(F)cc(S(=O)(=O)[O-])cc7F)c7ccc([nH]7)c(-c7c(F)cc(S(=O)(=O)[O-])cc7F)c7nc(c(-c8c(F)cc(S(=O)(=O)[O-])cc8F)c8ccc5[nH]8)C=C7)C=C6)cc4)cc3C[C@H]2C)cc1
REMARK SMILES IDX 21 1 20 2 19 3 18 4 17 5 16 6 14 7 15 8 13 9 9 10 10 11
REMARK SMILES IDX 97 12 11 13 95 14 96 15 98 16 12 17 94 18 6 19 7 20 8 21
REMARK SMILES IDX 5 22 1 23 2 24 3 25 100 26 4 27 99 28 22 29 23 30 24 31
REMARK SMILES IDX 25 32 26 33 27 34 28 35 29 36 93 37 30 38 92 39 31 40 32 41
REMARK SMILES IDX 33 42 86 43 34 44 91 45 85 46 87 47 35 48 90 49 84 50 83 51
REMARK SMILES IDX 36 53 70 54 49 55 69 56 50 57 53 58 68 59 88 60 51 61 52 62
REMARK SMILES IDX 67 64 89 65 54 66 37 67 38 68 47 69 39 70 40 71 46 72 48 73
REMARK SMILES IDX 41 74 42 75 43 76 44 77 45 78 71 79 72 80 81 81 73 82 74 83
REMARK SMILES IDX 80 84 82 85 75 86 76 87 77 88 78 89 79 90 55 91 56 92 65 93
REMARK SMILES IDX 57 94 58 95 64 96 66 97 59 98 60 99 61 100 62 101 63 102
REMARK H PARENT 87 52 53 63
REMARK Flexibility Score: inf
ROOT
ATOM      1  C   UNL     1     -12.863   5.912   1.923  1.00  0.00     0.188 C 
ENDROOT
BRANCH   1   2
ATOM      2  C   UNL     1     -12.936   4.953   0.734  1.00  0.00     0.188 C 
BRANCH   2   3
ATOM      3  O   UNL     1     -13.021   3.520   0.912  1.00  0.00    -0.376 OA
BRANCH   3   4
ATOM      4  C   UNL     1     -12.991   2.851   2.184  1.00  0.00     0.202 C 
BRANCH   4   5
ATOM      5  C   UNL     1     -11.926   1.604   2.535  1.00  0.00     0.261 C 
BRANCH   5   6
ATOM      6  O   UNL     1     -10.198   1.576   2.622  1.00  0.00    -0.460 OA
BRANCH   6   7
ATOM      7  C   UNL     1      -9.070   1.199   1.816  1.00  0.00     0.338 C 
ATOM      8  O   UNL     1      -9.037   0.486   0.816  1.00  0.00    -0.246 OA
BRANCH   7   9
ATOM      9  C   UNL     1      -7.649   1.649   1.925  1.00  0.00     0.060 A 
ATOM     10  N   UNL     1      -3.501   1.583   0.888  1.00  0.00    -0.263 N 
ATOM     11  C   UNL     1      -4.879   1.532   1.342  1.00  0.00     0.055 A 
ATOM     12  C   UNL     1      -3.476   2.812  -0.030  1.00  0.00     0.101 C 
ATOM     13  C   UNL     1      -5.407   0.763   2.372  1.00  0.00     0.028 A 
ATOM     14  C   UNL     1      -5.697   2.333   0.565  1.00  0.00    -0.021 A 
ATOM     15  C   UNL     1      -4.923   2.949  -0.567  1.00  0.00     0.063 C 
ATOM     16  C   UNL     1      -3.088   4.036   0.816  1.00  0.00     0.032 C 
ATOM     17  C   UNL     1      -6.790   0.819   2.657  1.00  0.00     0.018 A 
ATOM     18  C   UNL     1      -7.069   2.349   0.813  1.00  0.00     0.021 A 
BRANCH  10  19
ATOM     19  S   UNL     1      -3.023   0.117   0.078  1.00  0.00     0.264 S 
ATOM     20  O   UNL     1      -3.401   0.205  -1.317  1.00  0.00    -0.201 OA
ATOM     21  O   UNL     1      -3.402  -1.013   0.904  1.00  0.00    -0.201 OA
BRANCH  19  22
ATOM     22  C   UNL     1      -1.234   0.095   0.086  1.00  0.00     0.088 A 
ATOM     23  C   UNL     1       3.060  -0.239   0.040  1.00  0.00     0.044 C 
ATOM     24  C   UNL     1       1.565  -0.117   0.058  1.00  0.00    -0.051 A 
ATOM     25  C   UNL     1       0.772  -1.244  -0.181  1.00  0.00     0.005 A 
ATOM     26  C   UNL     1       0.943   1.107   0.342  1.00  0.00     0.005 A 
ATOM     27  C   UNL     1      -0.619  -1.139  -0.173  1.00  0.00     0.022 A 
ATOM     28  C   UNL     1      -0.453   1.214   0.362  1.00  0.00     0.022 A 
ENDBRANCH  19  22
ENDBRANCH  10  19
ENDBRANCH   7   9
ENDBRANCH   6   7
ENDBRANCH   5   6
ENDBRANCH   4   5
ENDBRANCH   3   4
ENDBRANCH   2   3
ENDBRANCH   1   2
BRANCH   1  29
ATOM     29  O   UNL     1     -12.033   5.350   2.921  1.00  0.00    -0.376 OA
BRANCH  29  30
ATOM     30  C   UNL     1     -11.861   6.092   4.107  1.00  0.00     0.202 C 
BRANCH  30  31
ATOM     31  C   UNL     1     -10.796   7.187   3.950  1.00  0.00     0.261 C 
BRANCH  31  32
ATOM     32  O   UNL     1      -9.494   6.620   3.651  1.00  0.00    -0.460 OA
BRANCH  32  33
ATOM     33  C   UNL     1      -8.955   6.867   2.402  1.00  0.00     0.338 C 
ATOM     34  O   UNL     1      -8.430   7.934   2.124  1.00  0.00    -0.246 OA
BRANCH  33  35
ATOM     35  C   UNL     1      -9.056   5.644   1.520  1.00  0.00     0.060 A 
ATOM     36  C   UNL     1      -9.024   5.526   0.122  1.00  0.00     0.016 A 
ATOM     37  C   UNL     1      -9.458   4.524   2.149  1.00  0.00     0.016 A 
ATOM     38  C   UNL     1      -9.540   4.331  -0.600  1.00  0.00     0.010 A 
ATOM     39  C   UNL     1     -10.175   3.603   1.379  1.00  0.00     0.010 A 
ATOM     40  C   UNL     1     -10.191   3.260   0.033  1.00  0.00    -0.014 A 
BRANCH  40  41
ATOM     41  C   UNL     1     -11.068   2.020  -0.577  1.00  0.00     0.031 A 
ATOM     42  C   UNL     1     -11.093   0.342  -0.357  1.00  0.00     0.074 A 
ATOM     43  C   UNL     1     -11.941   2.357  -1.558  1.00  0.00     0.049 A 
ATOM     44  N   UNL     1     -11.071  -0.534  -1.353  1.00  0.00    -0.248 NA
ATOM     45  C   UNL     1     -11.128  -0.489   0.904  1.00  0.00     0.031 C 
ATOM     46  C   UNL     1     -12.971   1.508  -2.154  1.00  0.00     0.029 A 
ATOM     47  N   UNL     1     -11.993   3.534  -2.309  1.00  0.00    -0.354 N 
ATOM     48  C   UNL     1     -11.104  -1.843  -0.824  1.00  0.00     0.074 A 
ATOM     49  C   UNL     1     -10.967  -1.751   0.568  1.00  0.00     0.031 C 
ATOM     50  C   UNL     1     -13.364   2.055  -3.313  1.00  0.00     0.029 A 
ATOM     51  C   UNL     1     -12.523   3.209  -3.563  1.00  0.00     0.049 A 
ATOM     52  H   UNL     1     -11.708   4.428  -2.011  1.00  0.00     0.167 HD
ATOM     53  C   UNL     1     -11.464  -2.994  -1.450  1.00  0.00     0.037 A 
ATOM     54  C   UNL     1     -11.857   3.483  -4.718  1.00  0.00     0.037 A 
ATOM     55  C   UNL     1     -12.042  -2.672  -2.712  1.00  0.00     0.049 A 
ATOM     56  C   UNL     1     -11.606   2.260  -5.567  1.00  0.00     0.074 A 
ATOM     57  C   UNL     1     -13.340  -2.355  -3.065  1.00  0.00     0.029 A 
ATOM     58  N   UNL     1     -11.212  -2.208  -3.705  1.00  0.00    -0.354 N 
ATOM     59  N   UNL     1     -11.739   1.033  -5.143  1.00  0.00    -0.248 NA
ATOM     60  C   UNL     1     -11.187   2.315  -6.964  1.00  0.00     0.031 C 
ATOM     61  C   UNL     1     -13.285  -1.666  -4.297  1.00  0.00     0.029 A 
ATOM     62  C   UNL     1     -11.962  -1.625  -4.699  1.00  0.00     0.049 A 
ATOM     63  H   UNL     1     -10.230  -2.281  -3.704  1.00  0.00     0.167 HD
ATOM     64  C   UNL     1     -11.363   0.155  -6.131  1.00  0.00     0.074 A 
ATOM     65  C   UNL     1     -11.073   1.008  -7.264  1.00  0.00     0.031 C 
ATOM     66  C   UNL     1     -11.300  -1.192  -5.909  1.00  0.00     0.037 A 
BRANCH  53  67
ATOM     67  C   UNL     1     -11.629  -4.297  -0.671  1.00  0.00     0.058 A 
ATOM     68  C   UNL     1     -12.822  -5.037  -0.711  1.00  0.00     0.135 A 
ATOM     69  C   UNL     1     -10.653  -4.783   0.236  1.00  0.00     0.135 A 
ATOM     70  F   UNL     1     -13.811  -4.709  -1.554  1.00  0.00    -0.206 F 
ATOM     71  C   UNL     1     -13.076  -6.111   0.152  1.00  0.00     0.059 A 
ATOM     72  C   UNL     1     -10.902  -5.824   1.145  1.00  0.00     0.059 A 
ATOM     73  F   UNL     1      -9.449  -4.191   0.320  1.00  0.00    -0.206 F 
ATOM     74  C   UNL     1     -12.127  -6.478   1.102  1.00  0.00     0.060 A 
BRANCH  74  75
ATOM     75  S   UNL     1     -12.552  -7.753   2.315  1.00  0.00     0.124 S 
ATOM     76  O   UNL     1     -13.908  -7.377   2.709  1.00  0.00    -0.237 OA
ATOM     77  O   UNL     1     -12.441  -8.975   1.526  1.00  0.00    -0.237 OA
ATOM     78  O   UNL     1     -11.545  -7.584   3.359  1.00  0.00    -0.744 OA
ENDBRANCH  74  75
ENDBRANCH  53  67
BRANCH  54  79
ATOM     79  C   UNL     1     -11.033   4.724  -4.652  1.00  0.00     0.058 A 
ATOM     80  C   UNL     1     -11.716   5.944  -4.467  1.00  0.00     0.135 A 
ATOM     81  C   UNL     1      -9.659   4.714  -4.371  1.00  0.00     0.135 A 
ATOM     82  F   UNL     1     -13.033   6.021  -4.726  1.00  0.00    -0.206 F 
ATOM     83  C   UNL     1     -11.108   7.056  -3.895  1.00  0.00     0.059 A 
ATOM     84  C   UNL     1      -9.020   5.830  -3.808  1.00  0.00     0.059 A 
ATOM     85  F   UNL     1      -8.952   3.583  -4.501  1.00  0.00    -0.206 F 
ATOM     86  C   UNL     1      -9.770   6.973  -3.521  1.00  0.00     0.060 A 
BRANCH  86  87
ATOM     87  S   UNL     1      -9.116   8.309  -2.485  1.00  0.00     0.124 S 
ATOM     88  O   UNL     1      -9.214   9.462  -3.372  1.00  0.00    -0.237 OA
ATOM     89  O   UNL     1     -10.057   8.290  -1.367  1.00  0.00    -0.237 OA
ATOM     90  O   UNL     1      -7.763   7.860  -2.177  1.00  0.00    -0.744 OA
ENDBRANCH  86  87
ENDBRANCH  54  79
BRANCH  66  91
ATOM     91  C   UNL     1     -10.657  -2.274  -6.762  1.00  0.00     0.058 A 
ATOM     92  C   UNL     1      -9.688  -2.042  -7.747  1.00  0.00     0.135 A 
ATOM     93  C   UNL     1     -10.903  -3.651  -6.480  1.00  0.00     0.135 A 
ATOM     94  F   UNL     1      -9.280  -0.804  -8.052  1.00  0.00    -0.206 F 
ATOM     95  C   UNL     1      -9.059  -3.081  -8.440  1.00  0.00     0.059 A 
ATOM     96  C   UNL     1     -10.230  -4.697  -7.100  1.00  0.00     0.059 A 
ATOM     97  F   UNL     1     -11.811  -4.042  -5.573  1.00  0.00    -0.206 F 
ATOM     98  C   UNL     1      -9.334  -4.404  -8.109  1.00  0.00     0.060 A 
BRANCH  98  99
ATOM     99  S   UNL     1      -8.514  -5.747  -8.979  1.00  0.00     0.124 S 
ATOM    100  O   UNL     1      -9.462  -6.012 -10.057  1.00  0.00    -0.237 OA
ATOM    101  O   UNL     1      -7.248  -5.147  -9.389  1.00  0.00    -0.237 OA
ATOM    102  O   UNL     1      -8.405  -6.789  -7.963  1.00  0.00    -0.744 OA
ENDBRANCH  98  99
ENDBRANCH  66  91
ENDBRANCH  40  41
ENDBRANCH  33  35
ENDBRANCH  32  33
ENDBRANCH  31  32
ENDBRANCH  30  31
ENDBRANCH  29  30
ENDBRANCH   1  29
TORSDOF 22
