REMARK SMILES Cn1cc(S(=O)(=O)N[C@@H]2C=C[C@@H](C(=O)OCCOCCOCCOC(=O)c3ccc(-c4c5nc(c(-c6c(F)cc(S(=O)(=O)[O-])cc6F)c6ccc([nH]6)c(-c6c(F)cc(S(=O)(=O)[O-])cc6F)c6nc(c(-c7c(F)cc(S(=O)(=O)[O-])cc7F)c7ccc4[nH]7)C=C6)C=C5)cc3)C2)cc1C(N)=O
REMARK SMILES IDX 19 1 18 2 17 3 16 4 15 5 13 6 14 7 12 8 9 9 10 10 93 11
REMARK SMILES IDX 11 12 8 13 5 15 6 16 7 17 4 18 1 19 2 20 3 21 95 22 94 23
REMARK SMILES IDX 96 24 97 25 98 26 20 29 21 30 22 31 23 32 24 33 25 34 26 35
REMARK SMILES IDX 27 36 28 37 92 38 29 39 91 40 30 41 31 42 32 43 85 44 33 45
REMARK SMILES IDX 90 46 84 47 86 48 34 49 89 50 83 51 82 52 35 54 69 55 48 56
REMARK SMILES IDX 68 57 49 58 52 59 67 60 87 61 50 62 51 63 66 65 88 66 53 67
REMARK SMILES IDX 36 68 37 69 46 70 38 71 39 72 45 73 47 74 40 75 41 76 42 77
REMARK SMILES IDX 43 78 44 79 70 80 71 81 80 82 72 83 73 84 79 85 81 86 74 87
REMARK SMILES IDX 75 88 76 89 77 90 78 91 54 92 55 93 64 94 56 95 57 96 63 97
REMARK SMILES IDX 65 98 58 99 59 100 60 101 61 102 62 103
REMARK H PARENT 8 14 97 27 97 28 86 53 52 64
REMARK Flexibility Score: inf
ROOT
ATOM      1  C   UNL     1      -0.972  -4.694   0.642  1.00  0.00     0.188 C 
ENDROOT
BRANCH   1   2
ATOM      2  O   UNL     1      -1.064  -5.757  -0.299  1.00  0.00    -0.376 OA
BRANCH   2   3
ATOM      3  C   UNL     1      -1.997  -5.649  -1.371  1.00  0.00     0.202 C 
BRANCH   3   4
ATOM      4  C   UNL     1      -3.456  -5.404  -0.985  1.00  0.00     0.261 C 
BRANCH   4   5
ATOM      5  O   UNL     1      -3.680  -4.066  -0.494  1.00  0.00    -0.463 OA
BRANCH   5   6
ATOM      6  C   UNL     1      -4.580  -3.959   0.514  1.00  0.00     0.312 C 
ATOM      7  O   UNL     1      -5.196  -4.908   0.993  1.00  0.00    -0.252 OA
BRANCH   6   8
ATOM      8  C   UNL     1      -4.837  -2.534   0.987  1.00  0.00     0.123 C 
ATOM      9  C   UNL     1      -4.835  -0.130   0.548  1.00  0.00     0.093 C 
ATOM     10  C   UNL     1      -6.140  -0.760   0.190  1.00  0.00    -0.011 C 
ATOM     11  C   UNL     1      -3.927  -1.375   0.556  1.00  0.00     0.043 C 
ATOM     12  C   UNL     1      -6.158  -2.074   0.445  1.00  0.00    -0.015 C 
BRANCH   9  13
ATOM     13  N   UNL     1      -4.845   0.448   1.903  1.00  0.00    -0.204 NA
ATOM     14  H   UNL     1      -4.932  -0.331   2.557  1.00  0.00     0.142 HD
BRANCH  13  15
ATOM     15  S   UNL     1      -6.032   1.572   2.319  1.00  0.00     0.242 S 
ATOM     16  O   UNL     1      -6.307   2.393   1.160  1.00  0.00    -0.207 OA
ATOM     17  O   UNL     1      -5.651   2.135   3.593  1.00  0.00    -0.207 OA
BRANCH  15  18
ATOM     18  C   UNL     1      -7.495   0.718   2.643  1.00  0.00     0.100 A 
ATOM     19  C   UNL     1     -11.056   0.188   2.481  1.00  0.00     0.150 C 
ATOM     20  N   UNL     1      -9.622   0.076   2.641  1.00  0.00    -0.345 N 
ATOM     21  C   UNL     1      -8.780   1.140   2.400  1.00  0.00     0.107 A 
ATOM     22  C   UNL     1      -8.886  -1.051   2.980  1.00  0.00     0.107 A 
ATOM     23  C   UNL     1      -7.573  -0.609   3.126  1.00  0.00     0.055 A 
BRANCH  22  24
ATOM     24  C   UNL     1      -9.400  -2.404   3.114  1.00  0.00     0.265 C 
ATOM     25  N   UNL     1      -8.462  -3.387   3.245  1.00  0.00    -0.364 N 
ATOM     26  O   UNL     1     -10.585  -2.718   3.067  1.00  0.00    -0.268 OA
ATOM     27  H   UNL     1      -7.506  -3.154   3.284  1.00  0.00     0.160 HD
ATOM     28  H   UNL     1      -8.741  -4.330   3.300  1.00  0.00     0.160 HD
ENDBRANCH  22  24
ENDBRANCH  15  18
ENDBRANCH  13  15
ENDBRANCH   9  13
ENDBRANCH   6   8
ENDBRANCH   5   6
ENDBRANCH   4   5
ENDBRANCH   3   4
ENDBRANCH   2   3
ENDBRANCH   1   2
BRANCH   1  29
ATOM     29  C   UNL     1      -0.892  -3.256   0.110  1.00  0.00     0.188 C 
BRANCH  29  30
ATOM     30  O   UNL     1      -0.598  -3.153  -1.274  1.00  0.00    -0.376 OA
BRANCH  30  31
ATOM     31  C   UNL     1       0.592  -2.447  -1.599  1.00  0.00     0.202 C 
BRANCH  31  32
ATOM     32  C   UNL     1       1.859  -3.253  -1.292  1.00  0.00     0.261 C 
BRANCH  32  33
ATOM     33  O   UNL     1       2.079  -3.482   0.110  1.00  0.00    -0.460 OA
BRANCH  33  34
ATOM     34  C   UNL     1       2.268  -2.381   0.875  1.00  0.00     0.338 C 
ATOM     35  O   UNL     1       2.334  -1.226   0.495  1.00  0.00    -0.246 OA
BRANCH  34  36
ATOM     36  C   UNL     1       2.152  -2.790   2.288  1.00  0.00     0.060 A 
ATOM     37  C   UNL     1       1.274  -2.084   3.121  1.00  0.00     0.016 A 
ATOM     38  C   UNL     1       2.900  -3.861   2.784  1.00  0.00     0.016 A 
ATOM     39  C   UNL     1       1.169  -2.429   4.468  1.00  0.00     0.010 A 
ATOM     40  C   UNL     1       2.807  -4.192   4.136  1.00  0.00     0.010 A 
ATOM     41  C   UNL     1       1.966  -3.457   4.988  1.00  0.00    -0.014 A 
BRANCH  41  42
ATOM     42  C   UNL     1       2.078  -3.633   6.454  1.00  0.00     0.031 A 
ATOM     43  C   UNL     1       3.182  -2.908   7.172  1.00  0.00     0.074 A 
ATOM     44  C   UNL     1       1.225  -4.420   7.133  1.00  0.00     0.049 A 
ATOM     45  N   UNL     1       3.505  -2.933   8.438  1.00  0.00    -0.248 NA
ATOM     46  C   UNL     1       4.038  -2.037   6.348  1.00  0.00     0.031 C 
ATOM     47  C   UNL     1       0.104  -5.156   6.552  1.00  0.00     0.029 A 
ATOM     48  N   UNL     1       1.183  -4.736   8.467  1.00  0.00    -0.354 N 
ATOM     49  C   UNL     1       4.597  -2.083   8.564  1.00  0.00     0.074 A 
ATOM     50  C   UNL     1       4.899  -1.579   7.242  1.00  0.00     0.031 C 
ATOM     51  C   UNL     1      -0.510  -5.852   7.526  1.00  0.00     0.029 A 
ATOM     52  C   UNL     1       0.189  -5.628   8.791  1.00  0.00     0.049 A 
ATOM     53  H   UNL     1       1.806  -4.360   9.130  1.00  0.00     0.167 HD
ATOM     54  C   UNL     1       5.283  -1.747   9.681  1.00  0.00     0.037 A 
ATOM     55  C   UNL     1      -0.108  -6.207   9.972  1.00  0.00     0.037 A 
ATOM     56  C   UNL     1       4.994  -2.261  10.992  1.00  0.00     0.049 A 
ATOM     57  C   UNL     1       0.708  -5.864  11.192  1.00  0.00     0.074 A 
ATOM     58  C   UNL     1       5.630  -1.978  12.187  1.00  0.00     0.029 A 
ATOM     59  N   UNL     1       3.990  -3.174  11.277  1.00  0.00    -0.354 N 
ATOM     60  N   UNL     1       1.722  -5.038  11.303  1.00  0.00    -0.248 NA
ATOM     61  C   UNL     1       0.339  -6.532  12.449  1.00  0.00     0.031 C 
ATOM     62  C   UNL     1       5.032  -2.748  13.192  1.00  0.00     0.029 A 
ATOM     63  C   UNL     1       3.998  -3.479  12.627  1.00  0.00     0.049 A 
ATOM     64  H   UNL     1       3.363  -3.549  10.617  1.00  0.00     0.167 HD
ATOM     65  C   UNL     1       2.094  -5.068  12.644  1.00  0.00     0.074 A 
ATOM     66  C   UNL     1       1.193  -5.988  13.306  1.00  0.00     0.031 C 
ATOM     67  C   UNL     1       3.088  -4.392  13.271  1.00  0.00     0.037 A 
BRANCH  54  68
ATOM     68  C   UNL     1       6.428  -0.791   9.518  1.00  0.00     0.058 A 
ATOM     69  C   UNL     1       6.213   0.576   9.285  1.00  0.00     0.135 A 
ATOM     70  C   UNL     1       7.753  -1.246   9.598  1.00  0.00     0.135 A 
ATOM     71  F   UNL     1       4.964   1.056   9.175  1.00  0.00    -0.206 F 
ATOM     72  C   UNL     1       7.275   1.457   9.112  1.00  0.00     0.059 A 
ATOM     73  C   UNL     1       8.830  -0.379   9.450  1.00  0.00     0.059 A 
ATOM     74  F   UNL     1       8.010  -2.546   9.810  1.00  0.00    -0.206 F 
ATOM     75  C   UNL     1       8.581   0.969   9.191  1.00  0.00     0.060 A 
BRANCH  75  76
ATOM     76  S   UNL     1       9.950   2.120   8.955  1.00  0.00     0.124 S 
ATOM     77  O   UNL     1       9.924   2.308   7.508  1.00  0.00    -0.237 OA
ATOM     78  O   UNL     1       9.535   3.271   9.750  1.00  0.00    -0.237 OA
ATOM     79  O   UNL     1      11.102   1.388   9.472  1.00  0.00    -0.744 OA
ENDBRANCH  75  76
ENDBRANCH  54  68
BRANCH  55  80
ATOM     80  C   UNL     1      -1.228  -7.179  10.063  1.00  0.00     0.058 A 
ATOM     81  C   UNL     1      -2.419  -6.851  10.727  1.00  0.00     0.135 A 
ATOM     82  C   UNL     1      -1.124  -8.460   9.499  1.00  0.00     0.135 A 
ATOM     83  F   UNL     1      -2.559  -5.642  11.293  1.00  0.00    -0.206 F 
ATOM     84  C   UNL     1      -3.465  -7.761  10.840  1.00  0.00     0.059 A 
ATOM     85  C   UNL     1      -2.164  -9.381   9.581  1.00  0.00     0.059 A 
ATOM     86  F   UNL     1      -0.007  -8.819   8.848  1.00  0.00    -0.206 F 
ATOM     87  C   UNL     1      -3.327  -9.025  10.263  1.00  0.00     0.060 A 
BRANCH  87  88
ATOM     88  S   UNL     1      -4.707 -10.185  10.372  1.00  0.00     0.124 S 
ATOM     89  O   UNL     1      -4.600 -10.639  11.754  1.00  0.00    -0.237 OA
ATOM     90  O   UNL     1      -5.851  -9.333  10.066  1.00  0.00    -0.237 OA
ATOM     91  O   UNL     1      -4.387 -11.180   9.353  1.00  0.00    -0.744 OA
ENDBRANCH  87  88
ENDBRANCH  55  80
BRANCH  67  92
ATOM     92  C   UNL     1       3.237  -4.594  14.753  1.00  0.00     0.058 A 
ATOM     93  C   UNL     1       3.799  -5.765  15.284  1.00  0.00     0.135 A 
ATOM     94  C   UNL     1       2.865  -3.578  15.648  1.00  0.00     0.135 A 
ATOM     95  F   UNL     1       4.167  -6.767  14.470  1.00  0.00    -0.206 F 
ATOM     96  C   UNL     1       3.967  -5.932  16.655  1.00  0.00     0.059 A 
ATOM     97  C   UNL     1       3.046  -3.714  17.021  1.00  0.00     0.059 A 
ATOM     98  F   UNL     1       2.335  -2.433  15.190  1.00  0.00    -0.206 F 
ATOM     99  C   UNL     1       3.587  -4.900  17.516  1.00  0.00     0.060 A 
BRANCH  99 100
ATOM    100  S   UNL     1       3.841  -5.111  19.291  1.00  0.00     0.124 S 
ATOM    101  O   UNL     1       2.728  -5.985  19.645  1.00  0.00    -0.237 OA
ATOM    102  O   UNL     1       5.168  -5.717  19.351  1.00  0.00    -0.237 OA
ATOM    103  O   UNL     1       3.759  -3.748  19.809  1.00  0.00    -0.744 OA
ENDBRANCH  99 100
ENDBRANCH  67  92
ENDBRANCH  41  42
ENDBRANCH  34  36
ENDBRANCH  33  34
ENDBRANCH  32  33
ENDBRANCH  31  32
ENDBRANCH  30  31
ENDBRANCH  29  30
ENDBRANCH   1  29
TORSDOF 24
