REMARK SMILES O=C(OCCOCCOCCOC(=O)c1cc(NC(=O)c2cccnc2Cl)ccc1O)c1ccc(-c2c3nc(c(-c4c(F)cc(S(=O)(=O)[O-])cc4F)c4ccc([nH]4)c(-c4c(F)cc(S(=O)(=O)[O-])cc4F)c4nc(c(-c5c(F)cc(S(=O)(=O)[O-])cc5F)c5ccc2[nH]5)C=C4)C=C3)cc1
REMARK SMILES IDX 7 1 6 2 5 3 4 4 3 5 2 6 1 7 32 8 33 9 97 10 34 11 96 12
REMARK SMILES IDX 35 13 36 14 37 15 90 16 38 17 95 18 89 19 91 20 39 21 94 22
REMARK SMILES IDX 88 23 87 24 40 26 74 27 53 28 73 29 54 30 57 31 72 32 92 33
REMARK SMILES IDX 55 34 56 35 71 37 93 38 58 39 41 40 42 41 51 42 43 43 44 44
REMARK SMILES IDX 50 45 52 46 45 47 46 48 47 49 48 50 49 51 75 52 76 53 85 54
REMARK SMILES IDX 77 55 78 56 84 57 86 58 79 59 80 60 81 61 82 62 83 63 59 64
REMARK SMILES IDX 60 65 69 66 61 67 62 68 68 69 70 70 63 71 64 72 65 73 66 74
REMARK SMILES IDX 67 75 8 76 9 77 10 78 11 79 12 80 13 81 14 82 15 83 16 84
REMARK SMILES IDX 30 85 17 86 29 87 28 88 31 89 18 91 19 92 20 94 21 95 22 96
REMARK SMILES IDX 26 97 23 98 25 99 27 100 24 101
REMARK H PARENT 91 25 57 36 31 90 18 93
REMARK Flexibility Score: inf
ROOT
ATOM      1  C   UNL     1       2.803   1.898   0.136  1.00  0.00     0.188 C 
ENDROOT
BRANCH   1   2
ATOM      2  O   UNL     1       4.217   1.745   0.226  1.00  0.00    -0.376 OA
BRANCH   2   3
ATOM      3  C   UNL     1       4.859   1.676  -1.050  1.00  0.00     0.202 C 
BRANCH   3   4
ATOM      4  C   UNL     1       4.747   0.314  -1.758  1.00  0.00     0.261 C 
BRANCH   4   5
ATOM      5  O   UNL     1       3.405  -0.207  -1.730  1.00  0.00    -0.460 OA
BRANCH   5   6
ATOM      6  C   UNL     1       2.964  -1.317  -1.082  1.00  0.00     0.338 C 
ATOM      7  O   UNL     1       1.976  -1.890  -1.539  1.00  0.00    -0.246 OA
BRANCH   6   8
ATOM      8  C   UNL     1       3.586  -1.839   0.184  1.00  0.00     0.060 A 
ATOM      9  C   UNL     1       4.649  -1.246   0.865  1.00  0.00     0.016 A 
ATOM     10  C   UNL     1       3.033  -3.003   0.748  1.00  0.00     0.016 A 
ATOM     11  C   UNL     1       5.216  -1.833   1.990  1.00  0.00     0.010 A 
ATOM     12  C   UNL     1       3.556  -3.564   1.924  1.00  0.00     0.010 A 
ATOM     13  C   UNL     1       4.685  -3.002   2.528  1.00  0.00    -0.014 A 
BRANCH  13  14
ATOM     14  C   UNL     1       5.460  -3.675   3.597  1.00  0.00     0.031 A 
ATOM     15  C   UNL     1       6.184  -4.947   3.254  1.00  0.00     0.074 A 
ATOM     16  C   UNL     1       5.677  -3.051   4.773  1.00  0.00     0.049 A 
ATOM     17  N   UNL     1       7.019  -5.646   3.976  1.00  0.00    -0.248 NA
ATOM     18  C   UNL     1       5.951  -5.499   1.908  1.00  0.00     0.031 C 
ATOM     19  C   UNL     1       5.083  -1.771   5.173  1.00  0.00     0.029 A 
ATOM     20  N   UNL     1       6.505  -3.371   5.819  1.00  0.00    -0.354 N 
ATOM     21  C   UNL     1       7.403  -6.715   3.175  1.00  0.00     0.074 A 
ATOM     22  C   UNL     1       6.679  -6.603   1.931  1.00  0.00     0.031 C 
ATOM     23  C   UNL     1       5.613  -1.391   6.347  1.00  0.00     0.029 A 
ATOM     24  C   UNL     1       6.538  -2.418   6.811  1.00  0.00     0.049 A 
ATOM     25  H   UNL     1       7.028  -4.205   5.857  1.00  0.00     0.167 HD
ATOM     26  C   UNL     1       8.300  -7.692   3.440  1.00  0.00     0.037 A 
ATOM     27  C   UNL     1       7.235  -2.382   7.964  1.00  0.00     0.037 A 
ATOM     28  C   UNL     1       9.027  -7.790   4.673  1.00  0.00     0.049 A 
ATOM     29  C   UNL     1       8.186  -3.512   8.261  1.00  0.00     0.074 A 
ATOM     30  C   UNL     1       9.892  -8.782   5.092  1.00  0.00     0.029 A 
ATOM     31  N   UNL     1       8.979  -6.840   5.684  1.00  0.00    -0.354 N 
ATOM     32  N   UNL     1       8.487  -4.550   7.515  1.00  0.00    -0.248 NA
ATOM     33  C   UNL     1       8.890  -3.471   9.549  1.00  0.00     0.031 C 
ATOM     34  C   UNL     1      10.356  -8.439   6.368  1.00  0.00     0.029 A 
ATOM     35  C   UNL     1       9.803  -7.219   6.726  1.00  0.00     0.049 A 
ATOM     36  H   UNL     1       8.438  -6.018   5.662  1.00  0.00     0.167 HD
ATOM     37  C   UNL     1       9.420  -5.281   8.240  1.00  0.00     0.074 A 
ATOM     38  C   UNL     1       9.657  -4.550   9.469  1.00  0.00     0.031 C 
ATOM     39  C   UNL     1      10.019  -6.457   7.930  1.00  0.00     0.037 A 
BRANCH  26  40
ATOM     40  C   UNL     1       8.501  -8.729   2.373  1.00  0.00     0.058 A 
ATOM     41  C   UNL     1       9.206  -8.440   1.193  1.00  0.00     0.135 A 
ATOM     42  C   UNL     1       7.929 -10.003   2.503  1.00  0.00     0.135 A 
ATOM     43  F   UNL     1       9.740  -7.223   1.005  1.00  0.00    -0.206 F 
ATOM     44  C   UNL     1       9.305  -9.368   0.162  1.00  0.00     0.059 A 
ATOM     45  C   UNL     1       8.034 -10.955   1.493  1.00  0.00     0.059 A 
ATOM     46  F   UNL     1       7.234 -10.323   3.605  1.00  0.00    -0.206 F 
ATOM     47  C   UNL     1       8.707 -10.620   0.318  1.00  0.00     0.060 A 
BRANCH  47  48
ATOM     48  S   UNL     1       8.811 -11.803  -1.042  1.00  0.00     0.124 S 
ATOM     49  O   UNL     1       7.848 -11.244  -1.987  1.00  0.00    -0.237 OA
ATOM     50  O   UNL     1      10.213 -11.707  -1.435  1.00  0.00    -0.237 OA
ATOM     51  O   UNL     1       8.422 -13.066  -0.424  1.00  0.00    -0.744 OA
ENDBRANCH  47  48
ENDBRANCH  26  40
BRANCH  27  52
ATOM     52  C   UNL     1       7.039  -1.270   8.937  1.00  0.00     0.058 A 
ATOM     53  C   UNL     1       8.069  -0.369   9.250  1.00  0.00     0.135 A 
ATOM     54  C   UNL     1       5.814  -1.111   9.606  1.00  0.00     0.135 A 
ATOM     55  F   UNL     1       9.261  -0.476   8.644  1.00  0.00    -0.206 F 
ATOM     56  C   UNL     1       7.902   0.630  10.207  1.00  0.00     0.059 A 
ATOM     57  C   UNL     1       5.615  -0.107  10.547  1.00  0.00     0.059 A 
ATOM     58  F   UNL     1       4.784  -1.926   9.332  1.00  0.00    -0.206 F 
ATOM     59  C   UNL     1       6.672   0.749  10.854  1.00  0.00     0.060 A 
BRANCH  59  60
ATOM     60  S   UNL     1       6.441   2.062  12.072  1.00  0.00     0.124 S 
ATOM     61  O   UNL     1       7.131   1.512  13.232  1.00  0.00    -0.237 OA
ATOM     62  O   UNL     1       7.082   3.199  11.420  1.00  0.00    -0.237 OA
ATOM     63  O   UNL     1       4.988   2.154  12.180  1.00  0.00    -0.744 OA
ENDBRANCH  59  60
ENDBRANCH  27  52
BRANCH  39  64
ATOM     64  C   UNL     1      10.992  -7.009   8.928  1.00  0.00     0.058 A 
ATOM     65  C   UNL     1      10.554  -7.612  10.117  1.00  0.00     0.135 A 
ATOM     66  C   UNL     1      12.371  -6.981   8.668  1.00  0.00     0.135 A 
ATOM     67  F   UNL     1       9.244  -7.656  10.409  1.00  0.00    -0.206 F 
ATOM     68  C   UNL     1      11.453  -8.150  11.028  1.00  0.00     0.059 A 
ATOM     69  C   UNL     1      13.287  -7.534   9.555  1.00  0.00     0.059 A 
ATOM     70  F   UNL     1      12.836  -6.424   7.539  1.00  0.00    -0.206 F 
ATOM     71  C   UNL     1      12.819  -8.106  10.739  1.00  0.00     0.060 A 
BRANCH  71  72
ATOM     72  S   UNL     1      13.978  -8.837  11.912  1.00  0.00     0.124 S 
ATOM     73  O   UNL     1      14.047  -7.801  12.938  1.00  0.00    -0.237 OA
ATOM     74  O   UNL     1      13.298 -10.069  12.300  1.00  0.00    -0.237 OA
ATOM     75  O   UNL     1      15.190  -9.021  11.120  1.00  0.00    -0.744 OA
ENDBRANCH  71  72
ENDBRANCH  39  64
ENDBRANCH  13  14
ENDBRANCH   6   8
ENDBRANCH   5   6
ENDBRANCH   4   5
ENDBRANCH   3   4
ENDBRANCH   2   3
ENDBRANCH   1   2
BRANCH   1  76
ATOM     76  C   UNL     1       2.237   3.127   0.849  1.00  0.00     0.188 C 
BRANCH  76  77
ATOM     77  O   UNL     1       2.908   4.364   0.645  1.00  0.00    -0.376 OA
BRANCH  77  78
ATOM     78  C   UNL     1       4.202   4.498   1.235  1.00  0.00     0.202 C 
BRANCH  78  79
ATOM     79  C   UNL     1       4.305   4.530   2.767  1.00  0.00     0.261 C 
BRANCH  79  80
ATOM     80  O   UNL     1       3.825   3.359   3.447  1.00  0.00    -0.460 OA
BRANCH  80  81
ATOM     81  C   UNL     1       2.689   3.547   4.169  1.00  0.00     0.342 C 
ATOM     82  O   UNL     1       1.941   4.511   4.122  1.00  0.00    -0.246 OA
BRANCH  81  83
ATOM     83  C   UNL     1       2.362   2.352   4.965  1.00  0.00     0.103 A 
ATOM     84  C   UNL     1       1.139   1.699   4.716  1.00  0.00     0.045 A 
ATOM     85  C   UNL     1       3.150   1.996   6.061  1.00  0.00     0.130 A 
ATOM     86  C   UNL     1       0.709   0.683   5.570  1.00  0.00     0.042 A 
ATOM     87  C   UNL     1       2.719   0.990   6.919  1.00  0.00     0.049 A 
ATOM     88  C   UNL     1       1.500   0.347   6.677  1.00  0.00     0.030 A 
BRANCH  85  89
ATOM     89  O   UNL     1       4.311   2.664   6.322  1.00  0.00    -0.507 OA
ATOM     90  H   UNL     1       4.601   3.342   5.744  1.00  0.00     0.293 HD
ENDBRANCH  85  89
BRANCH  86  91
ATOM     91  N   UNL     1      -0.518   0.002   5.445  1.00  0.00    -0.322 N 
ATOM     92  C   UNL     1      -1.382  -0.178   4.392  1.00  0.00     0.258 C 
ATOM     93  H   UNL     1      -0.815  -0.430   6.278  1.00  0.00     0.170 HD
ATOM     94  O   UNL     1      -2.533  -0.561   4.602  1.00  0.00    -0.269 OA
BRANCH  92  95
ATOM     95  C   UNL     1      -0.970  -0.020   2.991  1.00  0.00     0.077 A 
ATOM     96  C   UNL     1      -1.811   0.675   2.113  1.00  0.00     0.018 A 
ATOM     97  C   UNL     1       0.125  -0.673   2.452  1.00  0.00     0.141 A 
ATOM     98  C   UNL     1      -1.496   0.734   0.757  1.00  0.00     0.021 A 
ATOM     99  N   UNL     1       0.463  -0.609   1.142  1.00  0.00    -0.244 NA
ATOM    100  Cl  UNL     1       1.134  -1.736   3.345  1.00  0.00    -0.061 Cl
ATOM    101  C   UNL     1      -0.355   0.083   0.322  1.00  0.00     0.113 A 
ENDBRANCH  92  95
ENDBRANCH  86  91
ENDBRANCH  81  83
ENDBRANCH  80  81
ENDBRANCH  79  80
ENDBRANCH  78  79
ENDBRANCH  77  78
ENDBRANCH  76  77
ENDBRANCH   1  76
TORSDOF 23
