REMARK SMILES C[C@@H](C(=O)OCCOCCOCCOC(=O)c1ccc(-c2c3nc(c(-c4c(F)cc(S(=O)(=O)[O-])cc4F)c4ccc([nH]4)c(-c4c(F)cc(S(=O)(=O)[O-])cc4F)c4nc(c(-c5c(F)cc(S(=O)(=O)[O-])cc5F)c5ccc2[nH]5)C=C4)C=C3)cc1)c1ccc(-c2cccc(OC(=O)Nc3ccccc3)c2)c(F)c1
REMARK SMILES IDX 9 1 8 2 7 3 6 4 5 5 3 6 4 7 2 8 1 9 83 10 84 11 105 12 85 13
REMARK SMILES IDX 103 14 86 15 104 16 87 17 88 18 102 19 89 20 91 21 90 22
REMARK SMILES IDX 92 23 93 24 94 25 95 26 96 28 97 29 101 30 98 31 100 32
REMARK SMILES IDX 99 33 10 34 11 35 12 36 13 37 14 38 15 39 16 40 17 41 18 42
REMARK SMILES IDX 82 43 19 44 81 45 20 46 21 47 22 48 75 49 23 50 80 51 74 52
REMARK SMILES IDX 76 53 24 54 79 55 73 56 72 57 25 59 59 60 38 61 58 62 39 63
REMARK SMILES IDX 42 64 57 65 77 66 40 67 41 68 56 70 78 71 43 72 26 73 27 74
REMARK SMILES IDX 36 75 28 76 29 77 35 78 37 79 30 80 31 81 32 82 33 83 34 84
REMARK SMILES IDX 60 85 61 86 70 87 62 88 63 89 69 90 71 91 64 92 65 93 66 94
REMARK SMILES IDX 67 95 68 96 44 97 45 98 54 99 46 100 47 101 53 102 55 103
REMARK SMILES IDX 48 104 49 105 50 106 51 107 52 108
REMARK H PARENT 95 27 76 58 42 69
REMARK Flexibility Score: inf
ROOT
ATOM      1  C   UNL     1       0.340   2.873  -2.597  1.00  0.00     0.188 C 
ENDROOT
BRANCH   1   2
ATOM      2  O   UNL     1       1.093   3.993  -3.055  1.00  0.00    -0.376 OA
BRANCH   2   3
ATOM      3  C   UNL     1       2.375   4.231  -2.475  1.00  0.00     0.202 C 
BRANCH   3   4
ATOM      4  C   UNL     1       2.492   4.202  -0.943  1.00  0.00     0.261 C 
BRANCH   4   5
ATOM      5  O   UNL     1       2.087   2.947  -0.358  1.00  0.00    -0.463 OA
BRANCH   5   6
ATOM      6  C   UNL     1       1.506   3.020   0.868  1.00  0.00     0.313 C 
ATOM      7  O   UNL     1       1.439   4.053   1.527  1.00  0.00    -0.252 OA
BRANCH   6   8
ATOM      8  C   UNL     1       0.876   1.698   1.331  1.00  0.00     0.126 C 
ATOM      9  C   UNL     1       1.736   0.471   0.992  1.00  0.00     0.025 C 
BRANCH   8  10
ATOM     10  C   UNL     1      -0.625   1.560   1.041  1.00  0.00    -0.031 A 
ATOM     11  C   UNL     1      -1.463   2.687   1.032  1.00  0.00     0.005 A 
ATOM     12  C   UNL     1      -1.250   0.306   0.938  1.00  0.00     0.044 A 
ATOM     13  C   UNL     1      -2.861   2.562   0.983  1.00  0.00     0.012 A 
ATOM     14  C   UNL     1      -2.647   0.190   0.891  1.00  0.00     0.131 A 
ATOM     15  C   UNL     1      -3.486   1.305   0.956  1.00  0.00     0.018 A 
ATOM     16  F   UNL     1      -3.167  -1.046   0.814  1.00  0.00    -0.206 F 
BRANCH  15  17
ATOM     17  C   UNL     1      -4.953   1.191   1.070  1.00  0.00    -0.012 A 
ATOM     18  C   UNL     1      -5.796   2.000   0.297  1.00  0.00     0.009 A 
ATOM     19  C   UNL     1      -5.554   0.330   2.010  1.00  0.00     0.056 A 
ATOM     20  C   UNL     1      -7.182   1.944   0.440  1.00  0.00     0.004 A 
ATOM     21  C   UNL     1      -6.940   0.319   2.178  1.00  0.00     0.133 A 
ATOM     22  C   UNL     1      -7.760   1.109   1.382  1.00  0.00     0.047 A 
BRANCH  21  23
ATOM     23  O   UNL     1      -7.637  -0.427   3.152  1.00  0.00    -0.410 OA
BRANCH  23  24
ATOM     24  C   UNL     1      -7.108  -0.810   4.373  1.00  0.00     0.417 C 
ATOM     25  O   UNL     1      -5.912  -0.856   4.657  1.00  0.00    -0.224 OA
ATOM     26  N   UNL     1      -8.041  -1.057   5.349  1.00  0.00    -0.291 N 
ATOM     27  H   UNL     1      -7.661  -1.275   6.231  1.00  0.00     0.173 HD
BRANCH  26  28
ATOM     28  C   UNL     1      -9.446  -1.052   5.305  1.00  0.00     0.044 A 
ATOM     29  C   UNL     1     -10.111  -0.908   6.530  1.00  0.00     0.026 A 
ATOM     30  C   UNL     1     -10.204  -1.187   4.140  1.00  0.00     0.026 A 
ATOM     31  C   UNL     1     -11.506  -0.857   6.585  1.00  0.00     0.002 A 
ATOM     32  C   UNL     1     -11.602  -1.150   4.197  1.00  0.00     0.002 A 
ATOM     33  C   UNL     1     -12.252  -0.977   5.417  1.00  0.00     0.000 A 
ENDBRANCH  26  28
ENDBRANCH  23  24
ENDBRANCH  21  23
ENDBRANCH  15  17
ENDBRANCH   8  10
ENDBRANCH   6   8
ENDBRANCH   5   6
ENDBRANCH   4   5
ENDBRANCH   3   4
ENDBRANCH   2   3
ENDBRANCH   1   2
BRANCH   1  34
ATOM     34  C   UNL     1       1.040   1.505  -2.532  1.00  0.00     0.188 C 
BRANCH  34  35
ATOM     35  O   UNL     1       2.400   1.531  -2.915  1.00  0.00    -0.376 OA
BRANCH  35  36
ATOM     36  C   UNL     1       2.788   0.755  -4.036  1.00  0.00     0.202 C 
BRANCH  36  37
ATOM     37  C   UNL     1       2.090   1.025  -5.380  1.00  0.00     0.261 C 
BRANCH  37  38
ATOM     38  O   UNL     1       0.654   1.025  -5.368  1.00  0.00    -0.460 OA
BRANCH  38  39
ATOM     39  C   UNL     1       0.033  -0.161  -5.156  1.00  0.00     0.338 C 
ATOM     40  O   UNL     1       0.565  -1.243  -4.989  1.00  0.00    -0.246 OA
BRANCH  39  41
ATOM     41  C   UNL     1      -1.402   0.136  -4.933  1.00  0.00     0.060 A 
ATOM     42  C   UNL     1      -1.998  -0.220  -3.713  1.00  0.00     0.016 A 
ATOM     43  C   UNL     1      -2.143   0.797  -5.913  1.00  0.00     0.016 A 
ATOM     44  C   UNL     1      -3.345   0.074  -3.481  1.00  0.00     0.010 A 
ATOM     45  C   UNL     1      -3.496   1.066  -5.691  1.00  0.00     0.010 A 
ATOM     46  C   UNL     1      -4.110   0.685  -4.485  1.00  0.00    -0.014 A 
BRANCH  46  47
ATOM     47  C   UNL     1      -5.589   0.747  -4.367  1.00  0.00     0.031 A 
ATOM     48  C   UNL     1      -6.388  -0.398  -4.929  1.00  0.00     0.074 A 
ATOM     49  C   UNL     1      -6.209   1.807  -3.816  1.00  0.00     0.049 A 
ATOM     50  N   UNL     1      -7.683  -0.569  -4.964  1.00  0.00    -0.248 NA
ATOM     51  C   UNL     1      -5.620  -1.482  -5.564  1.00  0.00     0.031 C 
ATOM     52  C   UNL     1      -5.535   2.977  -3.259  1.00  0.00     0.029 A 
ATOM     53  N   UNL     1      -7.545   2.067  -3.619  1.00  0.00    -0.354 N 
ATOM     54  C   UNL     1      -7.887  -1.748  -5.671  1.00  0.00     0.074 A 
ATOM     55  C   UNL     1      -6.584  -2.260  -6.033  1.00  0.00     0.031 C 
ATOM     56  C   UNL     1      -6.458   3.805  -2.736  1.00  0.00     0.029 A 
ATOM     57  C   UNL     1      -7.791   3.235  -2.931  1.00  0.00     0.049 A 
ATOM     58  H   UNL     1      -8.261   1.472  -3.941  1.00  0.00     0.167 HD
ATOM     59  C   UNL     1      -9.059  -2.337  -6.008  1.00  0.00     0.037 A 
ATOM     60  C   UNL     1      -8.954   3.747  -2.471  1.00  0.00     0.037 A 
ATOM     61  C   UNL     1     -10.350  -1.826  -5.630  1.00  0.00     0.049 A 
ATOM     62  C   UNL     1     -10.240   3.009  -2.772  1.00  0.00     0.074 A 
ATOM     63  C   UNL     1     -11.598  -2.348  -5.915  1.00  0.00     0.029 A 
ATOM     64  N   UNL     1     -10.557  -0.676  -4.883  1.00  0.00    -0.354 N 
ATOM     65  N   UNL     1     -10.414   1.865  -3.391  1.00  0.00    -0.248 NA
ATOM     66  C   UNL     1     -11.490   3.639  -2.319  1.00  0.00     0.031 C 
ATOM     67  C   UNL     1     -12.563  -1.486  -5.384  1.00  0.00     0.029 A 
ATOM     68  C   UNL     1     -11.915  -0.458  -4.719  1.00  0.00     0.049 A 
ATOM     69  H   UNL     1      -9.845  -0.099  -4.524  1.00  0.00     0.167 HD
ATOM     70  C   UNL     1     -11.789   1.641  -3.401  1.00  0.00     0.074 A 
ATOM     71  C   UNL     1     -12.394   2.737  -2.675  1.00  0.00     0.031 C 
ATOM     72  C   UNL     1     -12.493   0.638  -3.983  1.00  0.00     0.037 A 
BRANCH  59  73
ATOM     73  C   UNL     1      -9.000  -3.558  -6.882  1.00  0.00     0.058 A 
ATOM     74  C   UNL     1      -8.549  -4.799  -6.407  1.00  0.00     0.135 A 
ATOM     75  C   UNL     1      -9.427  -3.485  -8.218  1.00  0.00     0.135 A 
ATOM     76  F   UNL     1      -8.106  -4.920  -5.145  1.00  0.00    -0.206 F 
ATOM     77  C   UNL     1      -8.504  -5.920  -7.232  1.00  0.00     0.059 A 
ATOM     78  C   UNL     1      -9.418  -4.598  -9.052  1.00  0.00     0.059 A 
ATOM     79  F   UNL     1      -9.860  -2.320  -8.727  1.00  0.00    -0.206 F 
ATOM     80  C   UNL     1      -8.942  -5.809  -8.553  1.00  0.00     0.060 A 
BRANCH  80  81
ATOM     81  S   UNL     1      -8.890  -7.273  -9.608  1.00  0.00     0.124 S 
ATOM     82  O   UNL     1      -7.456  -7.408  -9.847  1.00  0.00    -0.237 OA
ATOM     83  O   UNL     1      -9.488  -8.294  -8.755  1.00  0.00    -0.237 OA
ATOM     84  O   UNL     1      -9.685  -6.885 -10.769  1.00  0.00    -0.744 OA
ENDBRANCH  80  81
ENDBRANCH  59  73
BRANCH  60  85
ATOM     85  C   UNL     1      -8.968   4.954  -1.586  1.00  0.00     0.058 A 
ATOM     86  C   UNL     1      -9.431   4.861  -0.259  1.00  0.00     0.135 A 
ATOM     87  C   UNL     1      -8.520   6.211  -2.016  1.00  0.00     0.135 A 
ATOM     88  F   UNL     1      -9.898   3.692   0.208  1.00  0.00    -0.206 F 
ATOM     89  C   UNL     1      -9.445   5.952   0.602  1.00  0.00     0.059 A 
ATOM     90  C   UNL     1      -8.501   7.316  -1.166  1.00  0.00     0.059 A 
ATOM     91  F   UNL     1      -8.069   6.372  -3.270  1.00  0.00    -0.206 F 
ATOM     92  C   UNL     1      -8.972   7.178   0.140  1.00  0.00     0.060 A 
BRANCH  92  93
ATOM     93  S   UNL     1      -8.950   8.578   1.280  1.00  0.00     0.124 S 
ATOM     94  O   UNL     1     -10.369   8.905   1.370  1.00  0.00    -0.237 OA
ATOM     95  O   UNL     1      -8.353   7.992   2.475  1.00  0.00    -0.237 OA
ATOM     96  O   UNL     1      -8.118   9.559   0.589  1.00  0.00    -0.744 OA
ENDBRANCH  92  93
ENDBRANCH  60  85
BRANCH  72  97
ATOM     97  C   UNL     1     -13.995   0.686  -3.873  1.00  0.00     0.058 A 
ATOM     98  C   UNL     1     -14.748   1.646  -4.568  1.00  0.00     0.135 A 
ATOM     99  C   UNL     1     -14.692  -0.275  -3.122  1.00  0.00     0.135 A 
ATOM    100  F   UNL     1     -14.133   2.587  -5.302  1.00  0.00    -0.206 F 
ATOM    101  C   UNL     1     -16.137   1.670  -4.500  1.00  0.00     0.059 A 
ATOM    102  C   UNL     1     -16.083  -0.288  -3.064  1.00  0.00     0.059 A 
ATOM    103  F   UNL     1     -14.023  -1.225  -2.450  1.00  0.00    -0.206 F 
ATOM    104  C   UNL     1     -16.796   0.697  -3.747  1.00  0.00     0.060 A 
BRANCH 104 105
ATOM    105  S   UNL     1     -18.600   0.721  -3.696  1.00  0.00     0.124 S 
ATOM    106  O   UNL     1     -18.854   1.868  -2.830  1.00  0.00    -0.237 OA
ATOM    107  O   UNL     1     -18.951   0.899  -5.102  1.00  0.00    -0.237 OA
ATOM    108  O   UNL     1     -18.942  -0.581  -3.131  1.00  0.00    -0.744 OA
ENDBRANCH 104 105
ENDBRANCH  72  97
ENDBRANCH  46  47
ENDBRANCH  39  41
ENDBRANCH  38  39
ENDBRANCH  37  38
ENDBRANCH  36  37
ENDBRANCH  35  36
ENDBRANCH  34  35
ENDBRANCH   1  34
TORSDOF 25
