REMARK SMILES O=C(CCCN1C(=O)C(=O)/C(=C(/[O-])c2ccc(Cl)cc2)[C@@H]1c1ccccc1[N+](=O)[O-])OCCOCCOCCOC(=O)c1ccc(-c2c3nc(c(-c4c(F)cc(S(=O)(=O)[O-])cc4F)c4ccc([nH]4)c(-c4c(F)cc(S(=O)(=O)[O-])cc4F)c4nc(c(-c5c(F)cc(S(=O)(=O)[O-])cc5F)c5ccc2[nH]5)C=C4)C=C3)cc1
REMARK SMILES IDX 35 1 34 2 33 3 32 4 31 5 2 6 1 7 3 8 4 9 5 10 6 11 7 12
REMARK SMILES IDX 21 13 8 14 9 15 11 16 10 17 12 18 13 19 22 20 23 21 27 22
REMARK SMILES IDX 24 23 26 24 25 25 28 26 29 27 30 28 14 29 15 30 20 31 16 32
REMARK SMILES IDX 19 33 17 34 18 35 36 36 37 37 38 38 39 39 40 40 41 41 42 42
REMARK SMILES IDX 43 43 44 44 108 45 45 46 107 47 46 48 47 49 48 50 101 51
REMARK SMILES IDX 49 52 106 53 100 54 102 55 50 56 105 57 99 58 98 59 51 61
REMARK SMILES IDX 85 62 64 63 84 64 65 65 68 66 83 67 103 68 66 69 67 70 82 72
REMARK SMILES IDX 104 73 69 74 52 75 53 76 62 77 54 78 55 79 61 80 63 81 56 82
REMARK SMILES IDX 57 83 58 84 59 85 60 86 86 87 87 88 96 89 88 90 89 91 95 92
REMARK SMILES IDX 97 93 90 94 91 95 92 96 93 97 94 98 70 99 71 100 80 101
REMARK SMILES IDX 72 102 73 103 79 104 81 105 74 106 75 107 76 108 77 109
REMARK SMILES IDX 78 110
REMARK H PARENT 102 60 68 71
REMARK Flexibility Score: inf
ROOT
ATOM      1  C   UNL     1       1.156   1.617  -1.596  1.00  0.00     0.188 C 
ENDROOT
BRANCH   1   2
ATOM      2  O   UNL     1       2.336   2.336  -1.267  1.00  0.00    -0.376 OA
BRANCH   2   3
ATOM      3  C   UNL     1       3.527   1.599  -1.082  1.00  0.00     0.202 C 
BRANCH   3   4
ATOM      4  C   UNL     1       3.408   0.175  -0.559  1.00  0.00     0.261 C 
BRANCH   4   5
ATOM      5  O   UNL     1       2.342  -0.147   0.321  1.00  0.00    -0.463 OA
BRANCH   5   6
ATOM      6  C   UNL     1       2.453   0.033   1.655  1.00  0.00     0.305 C 
ATOM      7  O   UNL     1       1.610  -0.451   2.405  1.00  0.00    -0.252 OA
BRANCH   6   8
ATOM      8  C   UNL     1       3.591   0.899   2.151  1.00  0.00     0.124 C 
BRANCH   8   9
ATOM      9  C   UNL     1       4.876   0.274   2.728  1.00  0.00     0.033 C 
BRANCH   9  10
ATOM     10  C   UNL     1       6.015  -0.514   1.955  1.00  0.00     0.121 C 
BRANCH  10  11
ATOM     11  N   UNL     1       6.315  -0.149   0.570  1.00  0.00    -0.324 N 
ATOM     12  C   UNL     1       6.731   1.164   0.414  1.00  0.00     0.295 C 
ATOM     13  C   UNL     1       6.680  -1.038  -0.614  1.00  0.00     0.157 C 
ATOM     14  O   UNL     1       6.909   2.012   1.258  1.00  0.00    -0.265 OA
ATOM     15  C   UNL     1       6.934   1.414  -1.047  1.00  0.00     0.248 C 
ATOM     16  C   UNL     1       7.080   0.100  -1.735  1.00  0.00     0.025 C 
ATOM     17  O   UNL     1       6.936   2.535  -1.498  1.00  0.00    -0.283 OA
ATOM     18  C   UNL     1       7.590   0.110  -3.002  1.00  0.00    -0.092 C 
ATOM     19  O   UNL     1       8.056  -1.054  -3.583  1.00  0.00    -0.872 OA
BRANCH  13  20
ATOM     20  C   UNL     1       5.681  -2.149  -1.162  1.00  0.00     0.057 A 
ATOM     21  C   UNL     1       6.018  -2.680  -2.426  1.00  0.00     0.013 A 
ATOM     22  C   UNL     1       4.499  -2.768  -0.678  1.00  0.00     0.275 A 
ATOM     23  C   UNL     1       5.135  -3.356  -3.287  1.00  0.00     0.001 A 
ATOM     24  C   UNL     1       3.567  -3.431  -1.536  1.00  0.00     0.086 A 
ATOM     25  C   UNL     1       3.860  -3.657  -2.867  1.00  0.00     0.007 A 
BRANCH  22  26
ATOM     26  N   UNL     1       4.229  -3.103   0.713  1.00  0.00     0.063 N 
ATOM     27  O   UNL     1       4.218  -4.308   1.005  1.00  0.00    -0.258 OA
ATOM     28  O   UNL     1       3.948  -2.198   1.487  1.00  0.00    -0.258 OA
ENDBRANCH  22  26
ENDBRANCH  13  20
BRANCH  18  29
ATOM     29  C   UNL     1       7.734   1.266  -3.967  1.00  0.00    -0.033 A 
ATOM     30  C   UNL     1       8.482   2.421  -3.714  1.00  0.00     0.009 A 
ATOM     31  C   UNL     1       7.111   1.178  -5.234  1.00  0.00     0.009 A 
ATOM     32  C   UNL     1       8.476   3.508  -4.608  1.00  0.00     0.021 A 
ATOM     33  C   UNL     1       7.114   2.254  -6.139  1.00  0.00     0.021 A 
ATOM     34  C   UNL     1       7.774   3.429  -5.806  1.00  0.00     0.041 A 
ATOM     35  Cl  UNL     1       7.723   4.779  -6.871  1.00  0.00    -0.084 Cl
ENDBRANCH  18  29
ENDBRANCH  10  11
ENDBRANCH   9  10
ENDBRANCH   8   9
ENDBRANCH   6   8
ENDBRANCH   5   6
ENDBRANCH   4   5
ENDBRANCH   3   4
ENDBRANCH   2   3
ENDBRANCH   1   2
BRANCH   1  36
ATOM     36  C   UNL     1       1.162   0.846  -2.923  1.00  0.00     0.188 C 
BRANCH  36  37
ATOM     37  O   UNL     1       2.353   0.093  -3.138  1.00  0.00    -0.376 OA
BRANCH  37  38
ATOM     38  C   UNL     1       2.897   0.197  -4.445  1.00  0.00     0.202 C 
BRANCH  38  39
ATOM     39  C   UNL     1       3.777   1.432  -4.695  1.00  0.00     0.261 C 
BRANCH  39  40
ATOM     40  O   UNL     1       3.400   2.644  -4.037  1.00  0.00    -0.460 OA
BRANCH  40  41
ATOM     41  C   UNL     1       2.452   3.403  -4.618  1.00  0.00     0.338 C 
ATOM     42  O   UNL     1       1.874   3.159  -5.662  1.00  0.00    -0.246 OA
BRANCH  41  43
ATOM     43  C   UNL     1       2.074   4.460  -3.656  1.00  0.00     0.060 A 
ATOM     44  C   UNL     1       0.749   4.483  -3.212  1.00  0.00     0.016 A 
ATOM     45  C   UNL     1       3.000   5.386  -3.162  1.00  0.00     0.016 A 
ATOM     46  C   UNL     1       0.347   5.413  -2.258  1.00  0.00     0.010 A 
ATOM     47  C   UNL     1       2.580   6.364  -2.249  1.00  0.00     0.010 A 
ATOM     48  C   UNL     1       1.246   6.388  -1.808  1.00  0.00    -0.014 A 
BRANCH  48  49
ATOM     49  C   UNL     1       0.680   7.554  -1.088  1.00  0.00     0.031 A 
ATOM     50  C   UNL     1       0.157   8.692  -1.923  1.00  0.00     0.074 A 
ATOM     51  C   UNL     1       0.523   7.556   0.248  1.00  0.00     0.049 A 
ATOM     52  N   UNL     1      -0.477   9.773  -1.554  1.00  0.00    -0.248 NA
ATOM     53  C   UNL     1       0.363   8.583  -3.379  1.00  0.00     0.031 C 
ATOM     54  C   UNL     1       0.943   6.487   1.153  1.00  0.00     0.029 A 
ATOM     55  N   UNL     1      -0.049   8.491   1.076  1.00  0.00    -0.354 N 
ATOM     56  C   UNL     1      -0.769  10.456  -2.729  1.00  0.00     0.074 A 
ATOM     57  C   UNL     1      -0.209   9.691  -3.821  1.00  0.00     0.031 C 
ATOM     58  C   UNL     1       0.626   6.834   2.415  1.00  0.00     0.029 A 
ATOM     59  C   UNL     1      -0.005   8.153   2.409  1.00  0.00     0.049 A 
ATOM     60  H   UNL     1      -0.454   9.325   0.746  1.00  0.00     0.167 HD
ATOM     61  C   UNL     1      -1.455  11.611  -2.886  1.00  0.00     0.037 A 
ATOM     62  C   UNL     1      -0.417   8.841   3.493  1.00  0.00     0.037 A 
ATOM     63  C   UNL     1      -1.983  12.383  -1.792  1.00  0.00     0.049 A 
ATOM     64  C   UNL     1      -1.097  10.178   3.296  1.00  0.00     0.074 A 
ATOM     65  C   UNL     1      -2.673  13.580  -1.840  1.00  0.00     0.029 A 
ATOM     66  N   UNL     1      -1.867  12.039  -0.453  1.00  0.00    -0.354 N 
ATOM     67  N   UNL     1      -1.389  10.802   2.178  1.00  0.00    -0.248 NA
ATOM     68  C   UNL     1      -1.514  10.898   4.508  1.00  0.00     0.031 C 
ATOM     69  C   UNL     1      -2.927  13.989  -0.526  1.00  0.00     0.029 A 
ATOM     70  C   UNL     1      -2.453  13.014   0.337  1.00  0.00     0.049 A 
ATOM     71  H   UNL     1      -1.433  11.223  -0.115  1.00  0.00     0.167 HD
ATOM     72  C   UNL     1      -2.045  11.972   2.553  1.00  0.00     0.074 A 
ATOM     73  C   UNL     1      -2.131  11.954   3.998  1.00  0.00     0.031 C 
ATOM     74  C   UNL     1      -2.529  12.975   1.776  1.00  0.00     0.037 A 
BRANCH  61  75
ATOM     75  C   UNL     1      -1.655  12.120  -4.286  1.00  0.00     0.058 A 
ATOM     76  C   UNL     1      -2.535  11.490  -5.180  1.00  0.00     0.135 A 
ATOM     77  C   UNL     1      -0.997  13.280  -4.723  1.00  0.00     0.135 A 
ATOM     78  F   UNL     1      -3.168  10.360  -4.825  1.00  0.00    -0.206 F 
ATOM     79  C   UNL     1      -2.753  11.991  -6.460  1.00  0.00     0.059 A 
ATOM     80  C   UNL     1      -1.220  13.814  -5.989  1.00  0.00     0.059 A 
ATOM     81  F   UNL     1      -0.134  13.913  -3.913  1.00  0.00    -0.206 F 
ATOM     82  C   UNL     1      -2.098  13.159  -6.851  1.00  0.00     0.060 A 
BRANCH  82  83
ATOM     83  S   UNL     1      -2.430  13.821  -8.497  1.00  0.00     0.124 S 
ATOM     84  O   UNL     1      -1.792  12.823  -9.350  1.00  0.00    -0.237 OA
ATOM     85  O   UNL     1      -3.889  13.845  -8.532  1.00  0.00    -0.237 OA
ATOM     86  O   UNL     1      -1.785  15.130  -8.476  1.00  0.00    -0.744 OA
ENDBRANCH  82  83
ENDBRANCH  61  75
BRANCH  62  87
ATOM     87  C   UNL     1      -0.176   8.312   4.867  1.00  0.00     0.058 A 
ATOM     88  C   UNL     1      -1.233   7.971   5.725  1.00  0.00     0.135 A 
ATOM     89  C   UNL     1       1.130   8.189   5.370  1.00  0.00     0.135 A 
ATOM     90  F   UNL     1      -2.502   8.084   5.304  1.00  0.00    -0.206 F 
ATOM     91  C   UNL     1      -1.008   7.565   7.039  1.00  0.00     0.059 A 
ATOM     92  C   UNL     1       1.382   7.753   6.667  1.00  0.00     0.059 A 
ATOM     93  F   UNL     1       2.182   8.497   4.594  1.00  0.00    -0.206 F 
ATOM     94  C   UNL     1       0.304   7.461   7.501  1.00  0.00     0.060 A 
BRANCH  94  95
ATOM     95  S   UNL     1       0.588   6.927   9.204  1.00  0.00     0.124 S 
ATOM     96  O   UNL     1       0.151   8.097   9.956  1.00  0.00    -0.237 OA
ATOM     97  O   UNL     1      -0.267   5.749   9.303  1.00  0.00    -0.237 OA
ATOM     98  O   UNL     1       2.022   6.656   9.237  1.00  0.00    -0.744 OA
ENDBRANCH  94  95
ENDBRANCH  62  87
BRANCH  74  99
ATOM     99  C   UNL     1      -3.223  14.117   2.474  1.00  0.00     0.058 A 
ATOM    100  C   UNL     1      -2.521  15.031   3.276  1.00  0.00     0.135 A 
ATOM    101  C   UNL     1      -4.605  14.313   2.316  1.00  0.00     0.135 A 
ATOM    102  F   UNL     1      -1.199  14.894   3.459  1.00  0.00    -0.206 F 
ATOM    103  C   UNL     1      -3.173  16.068   3.937  1.00  0.00     0.059 A 
ATOM    104  C   UNL     1      -5.271  15.365   2.938  1.00  0.00     0.059 A 
ATOM    105  F   UNL     1      -5.324  13.482   1.545  1.00  0.00    -0.206 F 
ATOM    106  C   UNL     1      -4.549  16.225   3.764  1.00  0.00     0.060 A 
BRANCH 106 107
ATOM    107  S   UNL     1      -5.381  17.572   4.630  1.00  0.00     0.124 S 
ATOM    108  O   UNL     1      -5.369  17.088   6.007  1.00  0.00    -0.237 OA
ATOM    109  O   UNL     1      -4.511  18.709   4.350  1.00  0.00    -0.237 OA
ATOM    110  O   UNL     1      -6.695  17.625   3.996  1.00  0.00    -0.744 OA
ENDBRANCH 106 107
ENDBRANCH  74  99
ENDBRANCH  48  49
ENDBRANCH  41  43
ENDBRANCH  40  41
ENDBRANCH  39  40
ENDBRANCH  38  39
ENDBRANCH  37  38
ENDBRANCH  36  37
ENDBRANCH   1  36
TORSDOF 26
