REMARK SMILES COc1c[nH]c(C[N@H+]2CCC[C@@H](c3ccc(C(=O)OCCOCCOCCOC(=O)c4ccc(-c5c6nc(c(-c7c(F)cc(S(=O)(=O)[O-])cc7F)c7ccc([nH]7)c(-c7c(F)cc(S(=O)(=O)[O-])cc7F)c7nc(c(-c8c(F)cc(S(=O)(=O)[O-])cc8F)c8ccc5[nH]8)C=C7)C=C6)cc4)cc3)C2)cc1=O
REMARK SMILES IDX 23 1 22 2 21 3 20 4 19 5 17 6 18 7 16 8 13 9 14 10 98 11
REMARK SMILES IDX 15 12 97 13 12 14 8 15 9 16 99 17 10 19 11 20 7 21 6 22 3 23
REMARK SMILES IDX 4 24 101 25 5 26 100 27 102 28 2 30 1 31 24 32 25 33 26 34
REMARK SMILES IDX 27 35 28 36 29 37 30 38 31 39 32 40 96 41 33 42 95 43 34 44
REMARK SMILES IDX 35 45 36 46 89 47 37 48 94 49 88 50 90 51 38 52 93 53 87 54
REMARK SMILES IDX 86 55 39 57 73 58 52 59 72 60 53 61 56 62 71 63 91 64 54 65
REMARK SMILES IDX 55 66 70 68 92 69 57 70 40 71 41 72 50 73 42 74 43 75 49 76
REMARK SMILES IDX 51 77 44 78 45 79 46 80 47 81 48 82 74 83 75 84 84 85 76 86
REMARK SMILES IDX 77 87 83 88 85 89 78 90 79 91 80 92 81 93 82 94 58 95 59 96
REMARK SMILES IDX 68 97 60 98 61 99 67 100 69 101 62 102 63 103 64 104 65 105
REMARK SMILES IDX 66 106
REMARK H PARENT 8 18 5 29 90 56 56 67
REMARK Flexibility Score: inf
ROOT
ATOM      1  C   UNL     1      -6.733  -7.737  -3.989  1.00  0.00     0.188 C 
ENDROOT
BRANCH   1   2
ATOM      2  O   UNL     1      -8.137  -7.615  -3.830  1.00  0.00    -0.376 OA
BRANCH   2   3
ATOM      3  C   UNL     1      -8.931  -7.098  -4.888  1.00  0.00     0.202 C 
BRANCH   3   4
ATOM      4  C   UNL     1      -8.518  -5.828  -5.644  1.00  0.00     0.261 C 
BRANCH   4   5
ATOM      5  O   UNL     1      -7.165  -5.836  -6.120  1.00  0.00    -0.460 OA
BRANCH   5   6
ATOM      6  C   UNL     1      -6.389  -4.829  -5.642  1.00  0.00     0.338 C 
ATOM      7  O   UNL     1      -6.743  -3.891  -4.958  1.00  0.00    -0.246 OA
BRANCH   6   8
ATOM      8  C   UNL     1      -4.967  -5.116  -5.923  1.00  0.00     0.060 A 
ATOM      9  C   UNL     1      -2.217  -5.429  -6.368  1.00  0.00    -0.039 A 
ATOM     10  C   UNL     1      -2.711  -5.213  -5.070  1.00  0.00     0.005 A 
ATOM     11  C   UNL     1      -3.133  -5.585  -7.423  1.00  0.00     0.005 A 
ATOM     12  C   UNL     1      -4.073  -5.028  -4.853  1.00  0.00     0.016 A 
ATOM     13  C   UNL     1      -4.508  -5.441  -7.201  1.00  0.00     0.016 A 
BRANCH   9  14
ATOM     14  C   UNL     1      -0.724  -5.306  -6.658  1.00  0.00     0.074 C 
ATOM     15  N   UNL     1       1.152  -3.618  -6.443  1.00  0.00    -0.329 N 
ATOM     16  C   UNL     1       1.965  -4.601  -5.712  1.00  0.00     0.262 C 
ATOM     17  C   UNL     1      -0.277  -3.881  -6.260  1.00  0.00     0.270 C 
ATOM     18  H   UNL     1       1.361  -3.728  -7.435  1.00  0.00     0.348 HD
ATOM     19  C   UNL     1       1.625  -6.034  -6.141  1.00  0.00     0.062 C 
ATOM     20  C   UNL     1       0.141  -6.351  -5.941  1.00  0.00     0.020 C 
BRANCH  15  21
ATOM     21  C   UNL     1       1.512  -2.223  -6.100  1.00  0.00     0.317 C 
BRANCH  21  22
ATOM     22  C   UNL     1       1.349  -1.785  -4.646  1.00  0.00     0.074 A 
ATOM     23  C   UNL     1       0.818  -1.210  -1.894  1.00  0.00     0.182 A 
ATOM     24  C   UNL     1      -0.152  -1.416  -2.795  1.00  0.00     0.133 A 
ATOM     25  C   UNL     1       2.224  -1.188  -2.428  1.00  0.00     0.223 A 
ATOM     26  N   UNL     1       0.075  -1.615  -4.130  1.00  0.00    -0.357 N 
ATOM     27  C   UNL     1       2.420  -1.557  -3.863  1.00  0.00     0.083 A 
ATOM     28  O   UNL     1       3.204  -0.894  -1.750  1.00  0.00    -0.286 OA
ATOM     29  H   UNL     1      -0.693  -1.637  -4.745  1.00  0.00     0.166 HD
BRANCH  23  30
ATOM     30  O   UNL     1       0.521  -1.127  -0.550  1.00  0.00    -0.491 OA
ATOM     31  C   UNL     1       0.979   0.075   0.058  1.00  0.00     0.278 C 
ENDBRANCH  23  30
ENDBRANCH  21  22
ENDBRANCH  15  21
ENDBRANCH   9  14
ENDBRANCH   6   8
ENDBRANCH   5   6
ENDBRANCH   4   5
ENDBRANCH   3   4
ENDBRANCH   2   3
ENDBRANCH   1   2
BRANCH   1  32
ATOM     32  C   UNL     1      -6.152  -8.493  -5.203  1.00  0.00     0.188 C 
BRANCH  32  33
ATOM     33  O   UNL     1      -7.060  -8.940  -6.180  1.00  0.00    -0.376 OA
BRANCH  33  34
ATOM     34  C   UNL     1      -7.768 -10.156  -6.022  1.00  0.00     0.202 C 
BRANCH  34  35
ATOM     35  C   UNL     1      -7.702 -11.114  -4.816  1.00  0.00     0.261 C 
BRANCH  35  36
ATOM     36  O   UNL     1      -6.970 -10.712  -3.661  1.00  0.00    -0.460 OA
BRANCH  36  37
ATOM     37  C   UNL     1      -5.745 -11.276  -3.529  1.00  0.00     0.338 C 
ATOM     38  O   UNL     1      -5.193 -12.027  -4.314  1.00  0.00    -0.246 OA
BRANCH  37  39
ATOM     39  C   UNL     1      -5.083 -10.703  -2.345  1.00  0.00     0.060 A 
ATOM     40  C   UNL     1      -3.907  -9.967  -2.532  1.00  0.00     0.016 A 
ATOM     41  C   UNL     1      -5.583 -10.937  -1.062  1.00  0.00     0.016 A 
ATOM     42  C   UNL     1      -3.198  -9.500  -1.427  1.00  0.00     0.010 A 
ATOM     43  C   UNL     1      -4.862 -10.482   0.045  1.00  0.00     0.010 A 
ATOM     44  C   UNL     1      -3.646  -9.797  -0.133  1.00  0.00    -0.014 A 
BRANCH  44  45
ATOM     45  C   UNL     1      -2.739  -9.573   1.018  1.00  0.00     0.031 A 
ATOM     46  C   UNL     1      -1.918 -10.732   1.517  1.00  0.00     0.074 A 
ATOM     47  C   UNL     1      -2.616  -8.360   1.586  1.00  0.00     0.049 A 
ATOM     48  N   UNL     1      -1.066 -10.782   2.508  1.00  0.00    -0.248 NA
ATOM     49  C   UNL     1      -2.084 -12.008   0.801  1.00  0.00     0.031 C 
ATOM     50  C   UNL     1      -3.331  -7.154   1.171  1.00  0.00     0.029 A 
ATOM     51  N   UNL     1      -1.841  -7.947   2.641  1.00  0.00    -0.354 N 
ATOM     52  C   UNL     1      -0.596 -12.090   2.536  1.00  0.00     0.074 A 
ATOM     53  C   UNL     1      -1.283 -12.810   1.485  1.00  0.00     0.031 C 
ATOM     54  C   UNL     1      -2.967  -6.136   1.971  1.00  0.00     0.029 A 
ATOM     55  C   UNL     1      -2.014  -6.623   2.968  1.00  0.00     0.049 A 
ATOM     56  H   UNL     1      -1.220  -8.543   3.118  1.00  0.00     0.167 HD
ATOM     57  C   UNL     1       0.332 -12.640   3.354  1.00  0.00     0.037 A 
ATOM     58  C   UNL     1      -1.475  -5.896   3.967  1.00  0.00     0.037 A 
ATOM     59  C   UNL     1       1.010 -11.923   4.401  1.00  0.00     0.049 A 
ATOM     60  C   UNL     1      -0.487  -6.546   4.904  1.00  0.00     0.074 A 
ATOM     61  C   UNL     1       1.975 -12.386   5.277  1.00  0.00     0.029 A 
ATOM     62  N   UNL     1       0.789 -10.590   4.719  1.00  0.00    -0.354 N 
ATOM     63  N   UNL     1      -0.035  -7.778   4.905  1.00  0.00    -0.248 NA
ATOM     64  C   UNL     1       0.068  -5.702   5.972  1.00  0.00     0.031 C 
ATOM     65  C   UNL     1       2.305 -11.347   6.155  1.00  0.00     0.029 A 
ATOM     66  C   UNL     1       1.583 -10.221   5.792  1.00  0.00     0.049 A 
ATOM     67  H   UNL     1       0.160  -9.995   4.251  1.00  0.00     0.167 HD
ATOM     68  C   UNL     1       0.878  -7.848   5.954  1.00  0.00     0.074 A 
ATOM     69  C   UNL     1       0.922  -6.531   6.556  1.00  0.00     0.031 C 
ATOM     70  C   UNL     1       1.617  -8.905   6.379  1.00  0.00     0.037 A 
BRANCH  57  71
ATOM     71  C   UNL     1       0.645 -14.098   3.163  1.00  0.00     0.058 A 
ATOM     72  C   UNL     1       1.363 -14.559   2.047  1.00  0.00     0.135 A 
ATOM     73  C   UNL     1       0.238 -15.045   4.116  1.00  0.00     0.135 A 
ATOM     74  F   UNL     1       1.758 -13.700   1.095  1.00  0.00    -0.206 F 
ATOM     75  C   UNL     1       1.642 -15.911   1.870  1.00  0.00     0.059 A 
ATOM     76  C   UNL     1       0.529 -16.398   3.973  1.00  0.00     0.059 A 
ATOM     77  F   UNL     1      -0.456 -14.659   5.199  1.00  0.00    -0.206 F 
ATOM     78  C   UNL     1       1.219 -16.823   2.838  1.00  0.00     0.060 A 
BRANCH  78  79
ATOM     79  S   UNL     1       1.589 -18.573   2.595  1.00  0.00     0.124 S 
ATOM     80  O   UNL     1       0.653 -18.923   1.530  1.00  0.00    -0.237 OA
ATOM     81  O   UNL     1       2.998 -18.546   2.217  1.00  0.00    -0.237 OA
ATOM     82  O   UNL     1       1.304 -19.166   3.898  1.00  0.00    -0.744 OA
ENDBRANCH  78  79
ENDBRANCH  57  71
BRANCH  58  83
ATOM     83  C   UNL     1      -1.858  -4.469   4.141  1.00  0.00     0.058 A 
ATOM     84  C   UNL     1      -0.942  -3.436   3.892  1.00  0.00     0.135 A 
ATOM     85  C   UNL     1      -3.145  -4.110   4.571  1.00  0.00     0.135 A 
ATOM     86  F   UNL     1       0.306  -3.729   3.495  1.00  0.00    -0.206 F 
ATOM     87  C   UNL     1      -1.282  -2.100   4.076  1.00  0.00     0.059 A 
ATOM     88  C   UNL     1      -3.517  -2.780   4.739  1.00  0.00     0.059 A 
ATOM     89  F   UNL     1      -4.061  -5.060   4.816  1.00  0.00    -0.206 F 
ATOM     90  C   UNL     1      -2.574  -1.781   4.499  1.00  0.00     0.060 A 
BRANCH  90  91
ATOM     91  S   UNL     1      -3.019  -0.041   4.691  1.00  0.00     0.124 S 
ATOM     92  O   UNL     1      -2.317   0.308   5.920  1.00  0.00    -0.237 OA
ATOM     93  O   UNL     1      -2.492   0.549   3.465  1.00  0.00    -0.237 OA
ATOM     94  O   UNL     1      -4.476  -0.077   4.784  1.00  0.00    -0.744 OA
ENDBRANCH  90  91
ENDBRANCH  58  83
BRANCH  70  95
ATOM     95  C   UNL     1       2.561  -8.672   7.529  1.00  0.00     0.058 A 
ATOM     96  C   UNL     1       2.098  -8.483   8.841  1.00  0.00     0.135 A 
ATOM     97  C   UNL     1       3.950  -8.672   7.319  1.00  0.00     0.135 A 
ATOM     98  F   UNL     1       0.780  -8.472   9.097  1.00  0.00    -0.206 F 
ATOM     99  C   UNL     1       2.977  -8.265   9.898  1.00  0.00     0.059 A 
ATOM    100  C   UNL     1       4.848  -8.486   8.366  1.00  0.00     0.059 A 
ATOM    101  F   UNL     1       4.448  -8.864   6.087  1.00  0.00    -0.206 F 
ATOM    102  C   UNL     1       4.351  -8.265   9.649  1.00  0.00     0.060 A 
BRANCH 102 103
ATOM    103  S   UNL     1       5.482  -7.992  11.030  1.00  0.00     0.124 S 
ATOM    104  O   UNL     1       5.338  -6.557  11.248  1.00  0.00    -0.237 OA
ATOM    105  O   UNL     1       4.923  -8.851  12.069  1.00  0.00    -0.237 OA
ATOM    106  O   UNL     1       6.774  -8.421  10.500  1.00  0.00    -0.744 OA
ENDBRANCH 102 103
ENDBRANCH  70  95
ENDBRANCH  44  45
ENDBRANCH  37  39
ENDBRANCH  36  37
ENDBRANCH  35  36
ENDBRANCH  34  35
ENDBRANCH  33  34
ENDBRANCH  32  33
ENDBRANCH   1  32
TORSDOF 24
