REMARK SMILES Cc1cc(C)c2c(=O)n(CCCC(=O)OCCOCCOCCOC(=O)c3ccc(-c4c5nc(c(-c6c(F)cc(S(=O)(=O)[O-])cc6F)c6ccc([nH]6)c(-c6c(F)cc(S(=O)(=O)[O-])cc6F)c6nc(c(-c7c(F)cc(S(=O)(=O)[O-])cc7F)c7ccc4[nH]7)C=C6)C=C5)cc3)sc2n1
REMARK SMILES IDX 19 1 18 2 17 3 16 4 15 5 13 6 14 7 12 8 11 9 10 10 9 11 1 12
REMARK SMILES IDX 2 13 3 14 95 15 4 16 94 17 5 18 6 19 93 20 7 21 8 22 20 23
REMARK SMILES IDX 21 24 22 25 23 26 24 27 25 28 26 29 27 30 28 31 92 32 29 33
REMARK SMILES IDX 91 34 30 35 31 36 32 37 85 38 33 39 90 40 84 41 86 42 34 43
REMARK SMILES IDX 89 44 83 45 82 46 35 48 69 49 48 50 68 51 49 52 52 53 67 54
REMARK SMILES IDX 87 55 50 56 51 57 66 59 88 60 53 61 36 62 37 63 46 64 38 65
REMARK SMILES IDX 39 66 45 67 47 68 40 69 41 70 42 71 43 72 44 73 70 74 71 75
REMARK SMILES IDX 80 76 72 77 73 78 79 79 81 80 74 81 75 82 76 83 77 84 78 85
REMARK SMILES IDX 54 86 55 87 64 88 56 89 57 90 63 91 65 92 58 93 59 94 60 95
REMARK SMILES IDX 61 96 62 97
REMARK H PARENT 86 47 52 58
REMARK Flexibility Score: inf
ROOT
ATOM      1  C   UNL     1      -0.109   8.379   5.631  1.00  0.00     0.188 C 
ENDROOT
BRANCH   1   2
ATOM      2  O   UNL     1      -1.112   9.028   4.877  1.00  0.00    -0.376 OA
BRANCH   2   3
ATOM      3  C   UNL     1      -2.004   8.226   4.118  1.00  0.00     0.202 C 
BRANCH   3   4
ATOM      4  C   UNL     1      -1.475   7.012   3.333  1.00  0.00     0.261 C 
BRANCH   4   5
ATOM      5  O   UNL     1      -0.721   6.079   4.130  1.00  0.00    -0.463 OA
BRANCH   5   6
ATOM      6  C   UNL     1       0.535   5.784   3.728  1.00  0.00     0.305 C 
ATOM      7  O   UNL     1       1.052   6.221   2.704  1.00  0.00    -0.252 OA
BRANCH   6   8
ATOM      8  C   UNL     1       1.324   4.922   4.701  1.00  0.00     0.124 C 
BRANCH   8   9
ATOM      9  C   UNL     1       0.686   4.110   5.839  1.00  0.00     0.035 C 
BRANCH   9  10
ATOM     10  C   UNL     1      -0.715   3.513   5.676  1.00  0.00     0.139 C 
BRANCH  10  11
ATOM     11  N   UNL     1      -0.810   2.533   4.616  1.00  0.00    -0.262 N 
ATOM     12  C   UNL     1       0.948  -0.498  -0.309  1.00  0.00     0.067 C 
ATOM     13  C   UNL     1       0.328  -0.196   1.020  1.00  0.00     0.039 A 
ATOM     14  C   UNL     1       0.134  -1.202   1.980  1.00  0.00     0.027 A 
ATOM     15  N   UNL     1       0.039   1.101   1.250  1.00  0.00    -0.241 NA
ATOM     16  C   UNL     1      -0.327  -0.869   3.264  1.00  0.00    -0.033 A 
ATOM     17  C   UNL     1      -0.378   1.387   2.490  1.00  0.00     0.146 A 
ATOM     18  C   UNL     1      -0.611  -1.917   4.293  1.00  0.00     0.045 C 
ATOM     19  C   UNL     1      -0.510   0.480   3.524  1.00  0.00     0.081 A 
ATOM     20  S   UNL     1      -0.821   3.017   2.979  1.00  0.00    -0.035 S 
ATOM     21  C   UNL     1      -0.744   1.162   4.815  1.00  0.00     0.270 A 
ATOM     22  O   UNL     1      -0.778   0.570   5.881  1.00  0.00    -0.268 OA
ENDBRANCH  10  11
ENDBRANCH   9  10
ENDBRANCH   8   9
ENDBRANCH   6   8
ENDBRANCH   5   6
ENDBRANCH   4   5
ENDBRANCH   3   4
ENDBRANCH   2   3
ENDBRANCH   1   2
BRANCH   1  23
ATOM     23  C   UNL     1      -0.516   7.418   6.757  1.00  0.00     0.188 C 
BRANCH  23  24
ATOM     24  O   UNL     1      -1.538   6.466   6.555  1.00  0.00    -0.376 OA
BRANCH  24  25
ATOM     25  C   UNL     1      -2.903   6.569   6.939  1.00  0.00     0.202 C 
BRANCH  25  26
ATOM     26  C   UNL     1      -3.513   7.648   7.828  1.00  0.00     0.261 C 
BRANCH  26  27
ATOM     27  O   UNL     1      -2.602   8.514   8.447  1.00  0.00    -0.460 OA
BRANCH  27  28
ATOM     28  C   UNL     1      -1.886   7.958   9.452  1.00  0.00     0.338 C 
ATOM     29  O   UNL     1      -1.869   6.802   9.800  1.00  0.00    -0.246 OA
BRANCH  28  30
ATOM     30  C   UNL     1      -1.085   9.049  10.021  1.00  0.00     0.060 A 
ATOM     31  C   UNL     1      -0.058   8.712  10.901  1.00  0.00     0.016 A 
ATOM     32  C   UNL     1      -1.504  10.373   9.821  1.00  0.00     0.016 A 
ATOM     33  C   UNL     1       0.369   9.677  11.781  1.00  0.00     0.010 A 
ATOM     34  C   UNL     1      -1.107  11.322  10.716  1.00  0.00     0.010 A 
ATOM     35  C   UNL     1      -0.257  10.927  11.742  1.00  0.00    -0.014 A 
BRANCH  35  36
ATOM     36  C   UNL     1       0.019  11.877  12.790  1.00  0.00     0.031 A 
ATOM     37  C   UNL     1       1.298  12.574  12.568  1.00  0.00     0.074 A 
ATOM     38  C   UNL     1      -0.892  12.121  13.751  1.00  0.00     0.049 A 
ATOM     39  N   UNL     1       2.402  12.391  13.209  1.00  0.00    -0.248 NA
ATOM     40  C   UNL     1       1.446  13.378  11.341  1.00  0.00     0.031 C 
ATOM     41  C   UNL     1      -2.270  11.619  13.829  1.00  0.00     0.029 A 
ATOM     42  N   UNL     1      -0.819  12.957  14.820  1.00  0.00    -0.354 N 
ATOM     43  C   UNL     1       3.292  13.294  12.645  1.00  0.00     0.074 A 
ATOM     44  C   UNL     1       2.752  13.646  11.362  1.00  0.00     0.031 C 
ATOM     45  C   UNL     1      -2.957  12.335  14.748  1.00  0.00     0.029 A 
ATOM     46  C   UNL     1      -2.047  13.255  15.406  1.00  0.00     0.049 A 
ATOM     47  H   UNL     1       0.033  13.321  15.153  1.00  0.00     0.167 HD
ATOM     48  C   UNL     1       4.194  13.942  13.430  1.00  0.00     0.037 A 
ATOM     49  C   UNL     1      -2.282  14.243  16.310  1.00  0.00     0.037 A 
ATOM     50  C   UNL     1       4.336  13.271  14.699  1.00  0.00     0.049 A 
ATOM     51  C   UNL     1      -0.964  14.583  16.910  1.00  0.00     0.074 A 
ATOM     52  C   UNL     1       4.741  12.014  15.098  1.00  0.00     0.029 A 
ATOM     53  N   UNL     1       3.637  13.812  15.751  1.00  0.00    -0.354 N 
ATOM     54  N   UNL     1      -0.275  13.764  17.660  1.00  0.00    -0.248 NA
ATOM     55  C   UNL     1      -0.196  15.661  16.304  1.00  0.00     0.031 C 
ATOM     56  C   UNL     1       3.942  11.703  16.235  1.00  0.00     0.029 A 
ATOM     57  C   UNL     1       3.134  12.804  16.527  1.00  0.00     0.049 A 
ATOM     58  H   UNL     1       3.517  14.775  15.919  1.00  0.00     0.167 HD
ATOM     59  C   UNL     1       1.045  13.956  17.277  1.00  0.00     0.074 A 
ATOM     60  C   UNL     1       1.041  15.208  16.524  1.00  0.00     0.031 C 
ATOM     61  C   UNL     1       1.946  12.931  17.349  1.00  0.00     0.037 A 
BRANCH  48  62
ATOM     62  C   UNL     1       4.585  15.390  13.240  1.00  0.00     0.058 A 
ATOM     63  C   UNL     1       5.618  15.919  14.038  1.00  0.00     0.135 A 
ATOM     64  C   UNL     1       3.823  16.344  12.524  1.00  0.00     0.135 A 
ATOM     65  F   UNL     1       6.393  15.110  14.777  1.00  0.00    -0.206 F 
ATOM     66  C   UNL     1       5.837  17.291  14.164  1.00  0.00     0.059 A 
ATOM     67  C   UNL     1       4.062  17.709  12.590  1.00  0.00     0.059 A 
ATOM     68  F   UNL     1       2.747  16.020  11.800  1.00  0.00    -0.206 F 
ATOM     69  C   UNL     1       5.048  18.178  13.438  1.00  0.00     0.060 A 
BRANCH  69  70
ATOM     70  S   UNL     1       5.286  19.948  13.643  1.00  0.00     0.124 S 
ATOM     71  O   UNL     1       4.852  20.143  15.021  1.00  0.00    -0.237 OA
ATOM     72  O   UNL     1       6.718  20.086  13.395  1.00  0.00    -0.237 OA
ATOM     73  O   UNL     1       4.420  20.524  12.619  1.00  0.00    -0.744 OA
ENDBRANCH  69  70
ENDBRANCH  48  62
BRANCH  49  74
ATOM     74  C   UNL     1      -3.466  15.148  16.416  1.00  0.00     0.058 A 
ATOM     75  C   UNL     1      -3.590  16.056  17.486  1.00  0.00     0.135 A 
ATOM     76  C   UNL     1      -4.348  15.353  15.335  1.00  0.00     0.135 A 
ATOM     77  F   UNL     1      -2.788  15.951  18.557  1.00  0.00    -0.206 F 
ATOM     78  C   UNL     1      -4.481  17.137  17.457  1.00  0.00     0.059 A 
ATOM     79  C   UNL     1      -5.252  16.416  15.289  1.00  0.00     0.059 A 
ATOM     80  F   UNL     1      -4.298  14.581  14.241  1.00  0.00    -0.206 F 
ATOM     81  C   UNL     1      -5.292  17.324  16.338  1.00  0.00     0.060 A 
BRANCH  81  82
ATOM     82  S   UNL     1      -6.306  18.817  16.208  1.00  0.00     0.124 S 
ATOM     83  O   UNL     1      -7.284  18.613  17.271  1.00  0.00    -0.237 OA
ATOM     84  O   UNL     1      -5.327  19.874  16.436  1.00  0.00    -0.237 OA
ATOM     85  O   UNL     1      -6.838  18.747  14.849  1.00  0.00    -0.744 OA
ENDBRANCH  81  82
ENDBRANCH  49  74
BRANCH  61  86
ATOM     86  C   UNL     1       1.605  11.738  18.207  1.00  0.00     0.058 A 
ATOM     87  C   UNL     1       0.578  10.816  17.939  1.00  0.00     0.135 A 
ATOM     88  C   UNL     1       2.490  11.428  19.251  1.00  0.00     0.135 A 
ATOM     89  F   UNL     1      -0.258  10.994  16.905  1.00  0.00    -0.206 F 
ATOM     90  C   UNL     1       0.432   9.645  18.689  1.00  0.00     0.059 A 
ATOM     91  C   UNL     1       2.385  10.253  19.987  1.00  0.00     0.059 A 
ATOM     92  F   UNL     1       3.522  12.245  19.521  1.00  0.00    -0.206 F 
ATOM     93  C   UNL     1       1.349   9.367  19.704  1.00  0.00     0.060 A 
BRANCH  93  94
ATOM     94  S   UNL     1       1.228   7.806  20.606  1.00  0.00     0.124 S 
ATOM     95  O   UNL     1      -0.004   7.985  21.367  1.00  0.00    -0.237 OA
ATOM     96  O   UNL     1       1.170   6.823  19.528  1.00  0.00    -0.237 OA
ATOM     97  O   UNL     1       2.453   7.774  21.401  1.00  0.00    -0.744 OA
ENDBRANCH  93  94
ENDBRANCH  61  86
ENDBRANCH  35  36
ENDBRANCH  28  30
ENDBRANCH  27  28
ENDBRANCH  26  27
ENDBRANCH  25  26
ENDBRANCH  24  25
ENDBRANCH  23  24
ENDBRANCH   1  23
TORSDOF 23
