REMARK SMILES Cc1ccc(NC(=O)c2ccccc2NC(=O)[C@H]2CCCC[C@H]2C(=O)OCCOCCOCCOC(=O)c2ccc(-c3c4nc(c(-c5c(F)cc(S(=O)(=O)[O-])cc5F)c5ccc([nH]5)c(-c5c(F)cc(S(=O)(=O)[O-])cc5F)c5nc(c(-c6c(F)cc(S(=O)(=O)[O-])cc6F)c6ccc3[nH]6)C=C5)C=C4)cc2)cc1
REMARK SMILES IDX 30 1 29 2 28 3 27 4 26 5 24 6 25 7 23 8 18 9 19 10 20 11
REMARK SMILES IDX 22 12 21 13 16 14 15 15 17 17 14 18 9 19 10 20 11 21 13 22
REMARK SMILES IDX 12 23 7 24 6 25 8 27 5 28 1 29 2 30 3 31 105 32 4 33 104 34
REMARK SMILES IDX 31 35 32 36 33 37 34 38 35 39 36 40 37 41 38 42 39 43 103 44
REMARK SMILES IDX 40 45 102 46 41 47 42 48 43 49 96 50 44 51 101 52 95 53
REMARK SMILES IDX 97 54 45 55 100 56 94 57 93 58 46 60 80 61 59 62 79 63 60 64
REMARK SMILES IDX 63 65 78 66 98 67 61 68 62 69 77 71 99 72 64 73 47 74 48 75
REMARK SMILES IDX 57 76 49 77 50 78 56 79 58 80 51 81 52 82 53 83 54 84 55 85
REMARK SMILES IDX 81 86 82 87 91 88 83 89 84 90 90 91 92 92 85 93 86 94 87 95
REMARK SMILES IDX 88 96 89 97 65 98 66 99 75 100 67 101 68 102 74 103 76 104
REMARK SMILES IDX 69 105 70 106 71 107 72 108 73 109
REMARK H PARENT 15 16 6 26 97 59 63 70
REMARK Flexibility Score: inf
ROOT
ATOM      1  C   UNL     1      -0.428   4.494   5.204  1.00  0.00     0.188 C 
ENDROOT
BRANCH   1   2
ATOM      2  O   UNL     1      -1.152   4.195   6.361  1.00  0.00    -0.376 OA
BRANCH   2   3
ATOM      3  C   UNL     1      -1.966   3.015   6.350  1.00  0.00     0.202 C 
BRANCH   3   4
ATOM      4  C   UNL     1      -1.843   1.903   5.226  1.00  0.00     0.261 C 
BRANCH   4   5
ATOM      5  O   UNL     1      -2.736   0.467   5.014  1.00  0.00    -0.463 OA
BRANCH   5   6
ATOM      6  C   UNL     1      -2.965  -0.908   4.800  1.00  0.00     0.309 C 
ATOM      7  O   UNL     1      -4.098  -1.273   5.158  1.00  0.00    -0.252 OA
BRANCH   6   8
ATOM      8  C   UNL     1      -2.025  -2.248   4.324  1.00  0.00     0.111 C 
ATOM      9  C   UNL     1      -0.958  -2.587   3.100  1.00  0.00     0.093 C 
ATOM     10  C   UNL     1      -1.131  -4.101   2.704  1.00  0.00     0.014 C 
ATOM     11  C   UNL     1      -1.068  -5.093   3.878  1.00  0.00     0.001 C 
ATOM     12  C   UNL     1      -1.928  -3.315   5.456  1.00  0.00     0.016 C 
ATOM     13  C   UNL     1      -2.089  -4.756   4.953  1.00  0.00     0.001 C 
BRANCH   9  14
ATOM     14  C   UNL     1       0.607  -2.464   3.299  1.00  0.00     0.228 C 
ATOM     15  N   UNL     1       1.522  -1.679   2.626  1.00  0.00    -0.325 N 
ATOM     16  H   UNL     1       2.392  -1.698   3.087  1.00  0.00     0.169 HD
ATOM     17  O   UNL     1       1.136  -3.162   4.177  1.00  0.00    -0.274 OA
BRANCH  15  18
ATOM     18  C   UNL     1       1.596  -0.848   1.469  1.00  0.00     0.054 A 
ATOM     19  C   UNL     1       2.628   0.150   1.243  1.00  0.00     0.063 A 
ATOM     20  C   UNL     1       2.489   1.010   0.123  1.00  0.00     0.016 A 
ATOM     21  C   UNL     1       1.392   0.946  -0.728  1.00  0.00     0.001 A 
ATOM     22  C   UNL     1       0.562  -0.943   0.524  1.00  0.00     0.027 A 
ATOM     23  C   UNL     1       0.434  -0.031  -0.528  1.00  0.00     0.002 A 
BRANCH  19  24
ATOM     24  C   UNL     1       3.739   0.699   2.148  1.00  0.00     0.257 C 
ATOM     25  N   UNL     1       4.403   0.007   3.127  1.00  0.00    -0.322 N 
ATOM     26  H   UNL     1       4.759   0.556   3.863  1.00  0.00     0.170 HD
ATOM     27  O   UNL     1       4.020   1.905   2.093  1.00  0.00    -0.269 OA
BRANCH  25  28
ATOM     28  C   UNL     1       4.644  -1.349   3.231  1.00  0.00     0.041 A 
ATOM     29  C   UNL     1       4.051  -5.511   3.681  1.00  0.00     0.044 C 
ATOM     30  C   UNL     1       4.463  -4.080   3.529  1.00  0.00    -0.051 A 
ATOM     31  C   UNL     1       4.522  -3.522   2.249  1.00  0.00     0.005 A 
ATOM     32  C   UNL     1       4.643  -3.268   4.657  1.00  0.00     0.005 A 
ATOM     33  C   UNL     1       4.637  -2.152   2.099  1.00  0.00     0.026 A 
ATOM     34  C   UNL     1       4.762  -1.892   4.509  1.00  0.00     0.026 A 
ENDBRANCH  25  28
ENDBRANCH  19  24
ENDBRANCH  15  18
ENDBRANCH   9  14
ENDBRANCH   6   8
ENDBRANCH   5   6
ENDBRANCH   4   5
ENDBRANCH   3   4
ENDBRANCH   2   3
ENDBRANCH   1   2
BRANCH   1  35
ATOM     35  C   UNL     1       1.028   4.131   5.454  1.00  0.00     0.188 C 
BRANCH  35  36
ATOM     36  O   UNL     1       1.948   5.193   5.547  1.00  0.00    -0.376 OA
BRANCH  36  37
ATOM     37  C   UNL     1       1.851   6.104   4.470  1.00  0.00     0.202 C 
BRANCH  37  38
ATOM     38  C   UNL     1       1.377   5.718   3.045  1.00  0.00     0.261 C 
BRANCH  38  39
ATOM     39  O   UNL     1       1.063   4.377   2.507  1.00  0.00    -0.460 OA
BRANCH  39  40
ATOM     40  C   UNL     1       0.829   3.120   2.178  1.00  0.00     0.338 C 
ATOM     41  O   UNL     1       0.357   2.930   1.048  1.00  0.00    -0.246 OA
BRANCH  40  42
ATOM     42  C   UNL     1       0.857   1.948   3.125  1.00  0.00     0.060 A 
ATOM     43  C   UNL     1      -0.176   1.072   2.983  1.00  0.00     0.016 A 
ATOM     44  C   UNL     1       1.774   1.597   4.139  1.00  0.00     0.016 A 
ATOM     45  C   UNL     1      -0.381   0.086   3.970  1.00  0.00     0.010 A 
ATOM     46  C   UNL     1       1.499   0.632   5.170  1.00  0.00     0.010 A 
ATOM     47  C   UNL     1       0.305  -0.080   5.206  1.00  0.00    -0.014 A 
BRANCH  47  48
ATOM     48  C   UNL     1      -0.222  -0.580   6.627  1.00  0.00     0.031 A 
ATOM     49  C   UNL     1       0.472  -1.703   7.325  1.00  0.00     0.074 A 
ATOM     50  C   UNL     1      -1.172  -0.031   7.482  1.00  0.00     0.049 A 
ATOM     51  N   UNL     1      -0.032  -2.374   8.318  1.00  0.00    -0.248 NA
ATOM     52  C   UNL     1       1.714  -2.274   6.836  1.00  0.00     0.031 C 
ATOM     53  C   UNL     1      -1.038   0.221   8.934  1.00  0.00     0.029 A 
ATOM     54  N   UNL     1      -2.433   0.506   7.279  1.00  0.00    -0.354 N 
ATOM     55  C   UNL     1       0.948  -3.225   8.772  1.00  0.00     0.074 A 
ATOM     56  C   UNL     1       1.874  -3.300   7.673  1.00  0.00     0.031 C 
ATOM     57  C   UNL     1      -2.120   0.889   9.411  1.00  0.00     0.029 A 
ATOM     58  C   UNL     1      -3.114   1.043   8.350  1.00  0.00     0.049 A 
ATOM     59  H   UNL     1      -2.837   0.504   6.381  1.00  0.00     0.167 HD
ATOM     60  C   UNL     1       1.005  -3.576  10.092  1.00  0.00     0.037 A 
ATOM     61  C   UNL     1      -4.483   1.145   8.379  1.00  0.00     0.037 A 
ATOM     62  C   UNL     1      -0.130  -3.003  10.839  1.00  0.00     0.049 A 
ATOM     63  C   UNL     1      -4.883   0.011   9.277  1.00  0.00     0.074 A 
ATOM     64  C   UNL     1      -0.228  -1.900  11.674  1.00  0.00     0.029 A 
ATOM     65  N   UNL     1      -1.447  -3.372  10.543  1.00  0.00    -0.354 N 
ATOM     66  N   UNL     1      -4.004  -0.868   9.667  1.00  0.00    -0.248 NA
ATOM     67  C   UNL     1      -6.201  -0.229   9.846  1.00  0.00     0.031 C 
ATOM     68  C   UNL     1      -1.601  -1.581  11.840  1.00  0.00     0.029 A 
ATOM     69  C   UNL     1      -2.357  -2.509  11.140  1.00  0.00     0.049 A 
ATOM     70  H   UNL     1      -1.696  -4.143   9.984  1.00  0.00     0.167 HD
ATOM     71  C   UNL     1      -4.560  -1.739  10.529  1.00  0.00     0.074 A 
ATOM     72  C   UNL     1      -5.950  -1.315  10.605  1.00  0.00     0.031 C 
ATOM     73  C   UNL     1      -3.805  -2.731  11.075  1.00  0.00     0.037 A 
BRANCH  60  74
ATOM     74  C   UNL     1       2.299  -4.097  10.739  1.00  0.00     0.058 A 
ATOM     75  C   UNL     1       2.595  -3.867  12.103  1.00  0.00     0.135 A 
ATOM     76  C   UNL     1       3.321  -4.792  10.053  1.00  0.00     0.135 A 
ATOM     77  F   UNL     1       1.699  -3.311  12.929  1.00  0.00    -0.206 F 
ATOM     78  C   UNL     1       3.822  -4.208  12.696  1.00  0.00     0.059 A 
ATOM     79  C   UNL     1       4.578  -5.077  10.598  1.00  0.00     0.059 A 
ATOM     80  F   UNL     1       3.124  -5.308   8.835  1.00  0.00    -0.206 F 
ATOM     81  C   UNL     1       4.822  -4.790  11.928  1.00  0.00     0.060 A 
BRANCH  81  82
ATOM     82  S   UNL     1       6.391  -5.248  12.691  1.00  0.00     0.124 S 
ATOM     83  O   UNL     1       6.864  -3.973  13.220  1.00  0.00    -0.237 OA
ATOM     84  O   UNL     1       5.970  -6.232  13.682  1.00  0.00    -0.237 OA
ATOM     85  O   UNL     1       7.170  -5.782  11.576  1.00  0.00    -0.744 OA
ENDBRANCH  81  82
ENDBRANCH  60  74
BRANCH  61  86
ATOM     86  C   UNL     1      -5.215   1.626   7.122  1.00  0.00     0.058 A 
ATOM     87  C   UNL     1      -5.076   2.974   6.733  1.00  0.00     0.135 A 
ATOM     88  C   UNL     1      -5.731   0.801   6.119  1.00  0.00     0.135 A 
ATOM     89  F   UNL     1      -4.723   3.890   7.652  1.00  0.00    -0.206 F 
ATOM     90  C   UNL     1      -5.059   3.386   5.380  1.00  0.00     0.059 A 
ATOM     91  C   UNL     1      -5.729   1.182   4.752  1.00  0.00     0.059 A 
ATOM     92  F   UNL     1      -6.162  -0.428   6.433  1.00  0.00    -0.206 F 
ATOM     93  C   UNL     1      -5.277   2.446   4.383  1.00  0.00     0.060 A 
BRANCH  93  94
ATOM     94  S   UNL     1      -4.713   2.788   2.679  1.00  0.00     0.124 S 
ATOM     95  O   UNL     1      -5.916   3.328   2.061  1.00  0.00    -0.237 OA
ATOM     96  O   UNL     1      -3.624   3.745   2.884  1.00  0.00    -0.237 OA
ATOM     97  O   UNL     1      -4.274   1.480   2.195  1.00  0.00    -0.744 OA
ENDBRANCH  93  94
ENDBRANCH  61  86
BRANCH  73  98
ATOM     98  C   UNL     1      -4.412  -3.925  11.725  1.00  0.00     0.058 A 
ATOM     99  C   UNL     1      -5.657  -4.448  11.341  1.00  0.00     0.135 A 
ATOM    100  C   UNL     1      -3.683  -4.665  12.678  1.00  0.00     0.135 A 
ATOM    101  F   UNL     1      -6.372  -3.907  10.342  1.00  0.00    -0.206 F 
ATOM    102  C   UNL     1      -6.202  -5.569  11.948  1.00  0.00     0.059 A 
ATOM    103  C   UNL     1      -4.178  -5.827  13.246  1.00  0.00     0.059 A 
ATOM    104  F   UNL     1      -2.462  -4.285  13.084  1.00  0.00    -0.206 F 
ATOM    105  C   UNL     1      -5.457  -6.244  12.908  1.00  0.00     0.060 A 
BRANCH 105 106
ATOM    106  S   UNL     1      -6.164  -7.687  13.706  1.00  0.00     0.124 S 
ATOM    107  O   UNL     1      -6.913  -7.068  14.795  1.00  0.00    -0.237 OA
ATOM    108  O   UNL     1      -6.970  -8.280  12.642  1.00  0.00    -0.237 OA
ATOM    109  O   UNL     1      -4.991  -8.459  14.099  1.00  0.00    -0.744 OA
ENDBRANCH 105 106
ENDBRANCH  73  98
ENDBRANCH  47  48
ENDBRANCH  40  42
ENDBRANCH  39  40
ENDBRANCH  38  39
ENDBRANCH  37  38
ENDBRANCH  36  37
ENDBRANCH  35  36
ENDBRANCH   1  35
TORSDOF 24
