REMARK SMILES O=C(OCCOCCOCCOC(=O)[C@@H]1Cc2ccccc2CN1C(=O)COc1ccccc1)c1ccc(-c2c3nc(c(-c4c(F)cc(S(=O)(=O)[O-])cc4F)c4ccc([nH]4)c(-c4c(F)cc(S(=O)(=O)[O-])cc4F)c4nc(c(-c5c(F)cc(S(=O)(=O)[O-])cc5F)c5ccc2[nH]5)C=C4)C=C3)cc1
REMARK SMILES IDX 8 1 7 2 6 3 5 4 4 5 3 6 2 7 1 8 35 9 36 10 100 11 37 12
REMARK SMILES IDX 99 13 38 14 39 15 40 16 93 17 41 18 98 19 92 20 94 21 42 22
REMARK SMILES IDX 97 23 91 24 90 25 43 27 77 28 56 29 76 30 57 31 60 32 75 33
REMARK SMILES IDX 95 34 58 35 59 36 74 38 96 39 61 40 44 41 45 42 54 43 46 44
REMARK SMILES IDX 47 45 53 46 55 47 48 48 49 49 50 50 51 51 52 52 78 53 79 54
REMARK SMILES IDX 88 55 80 56 81 57 87 58 89 59 82 60 83 61 84 62 85 63 86 64
REMARK SMILES IDX 62 65 63 66 72 67 64 68 65 69 71 70 73 71 66 72 67 73 68 74
REMARK SMILES IDX 69 75 70 76 9 77 10 78 11 79 12 80 13 81 14 82 15 83 16 84
REMARK SMILES IDX 24 85 17 86 23 87 18 88 22 89 19 90 21 91 20 92 25 93 26 94
REMARK SMILES IDX 27 95 28 96 29 97 30 98 34 99 31 100 33 101 32 102
REMARK H PARENT 94 26 60 37
REMARK Flexibility Score: inf
ROOT
ATOM      1  C   UNL     1       6.265  -0.395  -5.326  1.00  0.00     0.188 C 
ENDROOT
BRANCH   1   2
ATOM      2  C   UNL     1       6.877  -0.985  -4.051  1.00  0.00     0.188 C 
BRANCH   2   3
ATOM      3  O   UNL     1       6.199  -0.496  -2.900  1.00  0.00    -0.376 OA
BRANCH   3   4
ATOM      4  C   UNL     1       6.903  -0.560  -1.663  1.00  0.00     0.202 C 
BRANCH   4   5
ATOM      5  C   UNL     1       7.280  -1.950  -1.092  1.00  0.00     0.261 C 
BRANCH   5   6
ATOM      6  O   UNL     1       7.474  -3.003  -2.073  1.00  0.00    -0.460 OA
BRANCH   6   7
ATOM      7  C   UNL     1       6.659  -4.089  -2.271  1.00  0.00     0.338 C 
ATOM      8  O   UNL     1       7.090  -5.107  -2.798  1.00  0.00    -0.246 OA
BRANCH   7   9
ATOM      9  C   UNL     1       5.229  -4.008  -1.887  1.00  0.00     0.060 A 
ATOM     10  C   UNL     1       4.596  -2.812  -1.865  1.00  0.00     0.016 A 
ATOM     11  C   UNL     1       4.410  -5.072  -1.643  1.00  0.00     0.016 A 
ATOM     12  C   UNL     1       3.408  -2.578  -1.167  1.00  0.00     0.010 A 
ATOM     13  C   UNL     1       3.084  -4.839  -1.137  1.00  0.00     0.010 A 
ATOM     14  C   UNL     1       2.405  -3.525  -0.562  1.00  0.00    -0.014 A 
BRANCH  14  15
ATOM     15  C   UNL     1       0.765  -3.239   0.779  1.00  0.00     0.031 A 
ATOM     16  C   UNL     1       0.581  -3.896   2.526  1.00  0.00     0.074 A 
ATOM     17  C   UNL     1      -0.486  -2.473   0.893  1.00  0.00     0.049 A 
ATOM     18  N   UNL     1      -0.360  -3.623   3.440  1.00  0.00    -0.248 NA
ATOM     19  C   UNL     1       1.624  -4.756   3.233  1.00  0.00     0.031 C 
ATOM     20  C   UNL     1      -0.921  -1.212   0.242  1.00  0.00     0.029 A 
ATOM     21  N   UNL     1      -1.772  -2.998   1.162  1.00  0.00    -0.354 N 
ATOM     22  C   UNL     1       0.086  -4.128   4.683  1.00  0.00     0.074 A 
ATOM     23  C   UNL     1       1.424  -4.575   4.511  1.00  0.00     0.031 C 
ATOM     24  C   UNL     1      -2.154  -1.303  -0.261  1.00  0.00     0.029 A 
ATOM     25  C   UNL     1      -2.777  -2.446   0.365  1.00  0.00     0.049 A 
ATOM     26  H   UNL     1      -1.942  -3.686   1.845  1.00  0.00     0.167 HD
ATOM     27  C   UNL     1      -0.527  -4.447   5.855  1.00  0.00     0.037 A 
ATOM     28  C   UNL     1      -4.108  -2.630   0.226  1.00  0.00     0.037 A 
ATOM     29  C   UNL     1      -1.943  -4.460   6.019  1.00  0.00     0.049 A 
ATOM     30  C   UNL     1      -4.827  -3.120   1.436  1.00  0.00     0.074 A 
ATOM     31  C   UNL     1      -2.673  -4.976   7.074  1.00  0.00     0.029 A 
ATOM     32  N   UNL     1      -2.838  -4.060   5.045  1.00  0.00    -0.354 N 
ATOM     33  N   UNL     1      -4.307  -3.570   2.548  1.00  0.00    -0.248 NA
ATOM     34  C   UNL     1      -6.288  -2.961   1.467  1.00  0.00     0.031 C 
ATOM     35  C   UNL     1      -4.016  -4.982   6.695  1.00  0.00     0.029 A 
ATOM     36  C   UNL     1      -4.118  -4.365   5.458  1.00  0.00     0.049 A 
ATOM     37  H   UNL     1      -2.600  -3.627   4.193  1.00  0.00     0.167 HD
ATOM     38  C   UNL     1      -5.359  -3.671   3.438  1.00  0.00     0.074 A 
ATOM     39  C   UNL     1      -6.556  -3.272   2.730  1.00  0.00     0.031 C 
ATOM     40  C   UNL     1      -5.312  -4.017   4.742  1.00  0.00     0.037 A 
BRANCH  27  41
ATOM     41  C   UNL     1       0.343  -5.121   6.918  1.00  0.00     0.058 A 
ATOM     42  C   UNL     1       1.349  -4.428   7.618  1.00  0.00     0.135 A 
ATOM     43  C   UNL     1       0.307  -6.523   7.064  1.00  0.00     0.135 A 
ATOM     44  F   UNL     1       1.483  -3.100   7.468  1.00  0.00    -0.206 F 
ATOM     45  C   UNL     1       2.317  -5.102   8.366  1.00  0.00     0.059 A 
ATOM     46  C   UNL     1       1.245  -7.211   7.831  1.00  0.00     0.059 A 
ATOM     47  F   UNL     1      -0.596  -7.250   6.388  1.00  0.00    -0.206 F 
ATOM     48  C   UNL     1       2.269  -6.496   8.449  1.00  0.00     0.060 A 
BRANCH  48  49
ATOM     49  S   UNL     1       3.587  -7.374   9.321  1.00  0.00     0.124 S 
ATOM     50  O   UNL     1       4.661  -7.342   8.332  1.00  0.00    -0.237 OA
ATOM     51  O   UNL     1       3.793  -6.545  10.504  1.00  0.00    -0.237 OA
ATOM     52  O   UNL     1       3.007  -8.690   9.575  1.00  0.00    -0.744 OA
ENDBRANCH  48  49
ENDBRANCH  27  41
BRANCH  28  53
ATOM     53  C   UNL     1      -4.827  -2.069  -0.965  1.00  0.00     0.058 A 
ATOM     54  C   UNL     1      -5.493  -0.833  -0.954  1.00  0.00     0.135 A 
ATOM     55  C   UNL     1      -4.774  -2.754  -2.193  1.00  0.00     0.135 A 
ATOM     56  F   UNL     1      -5.569  -0.124   0.182  1.00  0.00    -0.206 F 
ATOM     57  C   UNL     1      -6.072  -0.296  -2.107  1.00  0.00     0.059 A 
ATOM     58  C   UNL     1      -5.343  -2.237  -3.359  1.00  0.00     0.059 A 
ATOM     59  F   UNL     1      -4.156  -3.944  -2.269  1.00  0.00    -0.206 F 
ATOM     60  C   UNL     1      -5.986  -1.002  -3.308  1.00  0.00     0.060 A 
BRANCH  60  61
ATOM     61  S   UNL     1      -6.691  -0.266  -4.805  1.00  0.00     0.124 S 
ATOM     62  O   UNL     1      -8.119  -0.291  -4.507  1.00  0.00    -0.237 OA
ATOM     63  O   UNL     1      -6.072   1.056  -4.821  1.00  0.00    -0.237 OA
ATOM     64  O   UNL     1      -6.260  -1.168  -5.869  1.00  0.00    -0.744 OA
ENDBRANCH  60  61
ENDBRANCH  28  53
BRANCH  40  65
ATOM     65  C   UNL     1      -6.585  -4.050   5.516  1.00  0.00     0.058 A 
ATOM     66  C   UNL     1      -7.518  -5.075   5.322  1.00  0.00     0.135 A 
ATOM     67  C   UNL     1      -6.782  -3.150   6.575  1.00  0.00     0.135 A 
ATOM     68  F   UNL     1      -7.355  -5.962   4.327  1.00  0.00    -0.206 F 
ATOM     69  C   UNL     1      -8.611  -5.213   6.162  1.00  0.00     0.059 A 
ATOM     70  C   UNL     1      -7.857  -3.284   7.441  1.00  0.00     0.059 A 
ATOM     71  F   UNL     1      -5.899  -2.163   6.802  1.00  0.00    -0.206 F 
ATOM     72  C   UNL     1      -8.764  -4.321   7.227  1.00  0.00     0.060 A 
BRANCH  72  73
ATOM     73  S   UNL     1     -10.131  -4.583   8.370  1.00  0.00     0.124 S 
ATOM     74  O   UNL     1     -11.269  -4.146   7.569  1.00  0.00    -0.237 OA
ATOM     75  O   UNL     1     -10.049  -6.018   8.628  1.00  0.00    -0.237 OA
ATOM     76  O   UNL     1      -9.794  -3.728   9.505  1.00  0.00    -0.744 OA
ENDBRANCH  72  73
ENDBRANCH  40  65
ENDBRANCH  14  15
ENDBRANCH   7   9
ENDBRANCH   6   7
ENDBRANCH   5   6
ENDBRANCH   4   5
ENDBRANCH   3   4
ENDBRANCH   2   3
ENDBRANCH   1   2
BRANCH   1  77
ATOM     77  O   UNL     1       6.357   1.024  -5.442  1.00  0.00    -0.376 OA
BRANCH  77  78
ATOM     78  C   UNL     1       5.636   1.798  -4.477  1.00  0.00     0.202 C 
BRANCH  78  79
ATOM     79  C   UNL     1       4.104   1.706  -4.547  1.00  0.00     0.261 C 
BRANCH  79  80
ATOM     80  O   UNL     1       3.606   0.397  -4.211  1.00  0.00    -0.462 OA
BRANCH  80  81
ATOM     81  C   UNL     1       2.597  -0.090  -4.998  1.00  0.00     0.329 C 
ATOM     82  O   UNL     1       2.101   0.504  -5.946  1.00  0.00    -0.250 OA
BRANCH  81  83
ATOM     83  C   UNL     1       2.195  -1.499  -4.542  1.00  0.00     0.200 C 
ATOM     84  C   UNL     1       2.828  -2.470  -5.567  1.00  0.00     0.073 C 
ATOM     85  N   UNL     1       0.726  -1.646  -4.401  1.00  0.00    -0.321 N 
ATOM     86  C   UNL     1       2.251  -3.852  -5.461  1.00  0.00    -0.040 A 
ATOM     87  C   UNL     1       0.055  -2.681  -5.192  1.00  0.00     0.156 C 
ATOM     88  C   UNL     1       3.027  -5.003  -5.622  1.00  0.00     0.004 A 
ATOM     89  C   UNL     1       0.869  -3.954  -5.245  1.00  0.00    -0.025 A 
ATOM     90  C   UNL     1       2.431  -6.260  -5.523  1.00  0.00     0.000 A 
ATOM     91  C   UNL     1       0.281  -5.218  -5.138  1.00  0.00     0.006 A 
ATOM     92  C   UNL     1       1.063  -6.367  -5.269  1.00  0.00     0.000 A 
BRANCH  85  93
ATOM     93  C   UNL     1      -0.053  -0.972  -3.470  1.00  0.00     0.261 C 
ATOM     94  O   UNL     1      -1.285  -1.054  -3.483  1.00  0.00    -0.271 OA
BRANCH  93  95
ATOM     95  C   UNL     1       0.613  -0.087  -2.407  1.00  0.00     0.329 C 
BRANCH  95  96
ATOM     96  O   UNL     1       1.436  -0.501  -1.342  1.00  0.00    -0.484 OA
BRANCH  96  97
ATOM     97  C   UNL     1       1.282  -1.714  -0.693  1.00  0.00     0.120 A 
ATOM     98  C   UNL     1       2.335  -1.847   0.805  1.00  0.00     0.046 A 
ATOM     99  C   UNL     1       0.469  -3.181  -1.383  1.00  0.00     0.046 A 
ATOM    100  C   UNL     1       2.743  -3.493   1.445  1.00  0.00     0.004 A 
ATOM    101  C   UNL     1       0.659  -4.797  -0.604  1.00  0.00     0.004 A 
ATOM    102  C   UNL     1       1.841  -4.992   0.782  1.00  0.00     0.000 A 
ENDBRANCH  96  97
ENDBRANCH  95  96
ENDBRANCH  93  95
ENDBRANCH  85  93
ENDBRANCH  81  83
ENDBRANCH  80  81
ENDBRANCH  79  80
ENDBRANCH  78  79
ENDBRANCH  77  78
ENDBRANCH   1  77
TORSDOF 24
