REMARK SMILES Cc1ccc(S(=O)(=O)N2C[C@@H](CC(=O)OCCOCCOCCOC(=O)c3ccc(-c4c5nc(c(-c6c(F)cc(S(=O)(=O)[O-])cc6F)c6ccc([nH]6)c(-c6c(F)cc(S(=O)(=O)[O-])cc6F)c6nc(c(-c7c(F)cc(S(=O)(=O)[O-])cc7F)c7ccc4[nH]7)C=C6)C=C5)cc3)c3ccccc32)c(C)c1
REMARK SMILES IDX 19 1 18 2 17 3 16 4 15 5 13 6 14 7 12 8 11 9 9 10 10 11
REMARK SMILES IDX 98 12 93 13 97 14 94 15 96 16 95 17 6 18 7 19 8 20 5 21 1 22
REMARK SMILES IDX 2 23 3 24 101 25 4 26 99 27 100 28 20 29 21 30 22 31 23 32
REMARK SMILES IDX 24 33 25 34 26 35 27 36 28 37 92 38 29 39 91 40 30 41 31 42
REMARK SMILES IDX 32 43 85 44 33 45 90 46 84 47 86 48 34 49 89 50 83 51 82 52
REMARK SMILES IDX 35 54 69 55 48 56 68 57 49 58 52 59 67 60 87 61 50 62 51 63
REMARK SMILES IDX 66 65 88 66 53 67 36 68 37 69 46 70 38 71 39 72 45 73 47 74
REMARK SMILES IDX 40 75 41 76 42 77 43 78 44 79 70 80 71 81 80 82 72 83 73 84
REMARK SMILES IDX 79 85 81 86 74 87 75 88 76 89 77 90 78 91 54 92 55 93 64 94
REMARK SMILES IDX 56 95 57 96 63 97 65 98 58 99 59 100 60 101 61 102 62 103
REMARK H PARENT 86 53 52 64
REMARK Flexibility Score: inf
ROOT
ATOM      1  C   UNL     1      -3.127  -9.973  -0.685  1.00  0.00     0.188 C 
ENDROOT
BRANCH   1   2
ATOM      2  O   UNL     1      -2.305 -11.121  -0.504  1.00  0.00    -0.376 OA
BRANCH   2   3
ATOM      3  C   UNL     1      -1.167 -10.957   0.340  1.00  0.00     0.202 C 
BRANCH   3   4
ATOM      4  C   UNL     1      -0.114  -9.971  -0.178  1.00  0.00     0.261 C 
BRANCH   4   5
ATOM      5  O   UNL     1      -0.621  -8.623  -0.290  1.00  0.00    -0.463 OA
BRANCH   5   6
ATOM      6  C   UNL     1      -0.215  -7.933  -1.381  1.00  0.00     0.306 C 
ATOM      7  O   UNL     1       0.573  -8.364  -2.218  1.00  0.00    -0.252 OA
BRANCH   6   8
ATOM      8  C   UNL     1      -0.832  -6.562  -1.540  1.00  0.00     0.133 C 
BRANCH   8   9
ATOM      9  C   UNL     1      -1.755  -5.965  -0.475  1.00  0.00     0.053 C 
ATOM     10  N   UNL     1      -2.317  -3.679   0.126  1.00  0.00    -0.265 N 
ATOM     11  C   UNL     1      -2.321  -4.607  -1.022  1.00  0.00     0.144 C 
ATOM     12  C   UNL     1      -1.521  -4.218   1.163  1.00  0.00     0.055 A 
ATOM     13  C   UNL     1      -1.149  -5.528   0.839  1.00  0.00    -0.018 A 
ATOM     14  C   UNL     1      -1.158  -3.631   2.363  1.00  0.00     0.027 A 
ATOM     15  C   UNL     1      -0.409  -6.273   1.746  1.00  0.00     0.006 A 
ATOM     16  C   UNL     1      -0.379  -4.368   3.253  1.00  0.00     0.002 A 
ATOM     17  C   UNL     1      -0.012  -5.684   2.948  1.00  0.00     0.000 A 
BRANCH  10  18
ATOM     18  S   UNL     1      -2.713  -2.062  -0.055  1.00  0.00     0.264 S 
ATOM     19  O   UNL     1      -3.317  -1.625   1.194  1.00  0.00    -0.201 OA
ATOM     20  O   UNL     1      -3.406  -1.912  -1.314  1.00  0.00    -0.201 OA
BRANCH  18  21
ATOM     21  C   UNL     1      -1.193  -1.115  -0.209  1.00  0.00     0.090 A 
ATOM     22  C   UNL     1       2.494   1.130  -0.046  1.00  0.00     0.044 C 
ATOM     23  C   UNL     1       1.220   0.342  -0.131  1.00  0.00    -0.051 A 
ATOM     24  C   UNL     1       1.234  -1.042  -0.313  1.00  0.00     0.005 A 
ATOM     25  C   UNL     1      -0.012   0.999  -0.046  1.00  0.00     0.008 A 
ATOM     26  C   UNL     1       0.038  -1.766  -0.358  1.00  0.00     0.023 A 
ATOM     27  C   UNL     1      -1.230   0.292  -0.089  1.00  0.00    -0.030 A 
ATOM     28  C   UNL     1      -2.488   1.118  -0.017  1.00  0.00     0.046 C 
ENDBRANCH  18  21
ENDBRANCH  10  18
ENDBRANCH   8   9
ENDBRANCH   6   8
ENDBRANCH   5   6
ENDBRANCH   4   5
ENDBRANCH   3   4
ENDBRANCH   2   3
ENDBRANCH   1   2
BRANCH   1  29
ATOM     29  C   UNL     1      -3.851  -9.481   0.567  1.00  0.00     0.188 C 
BRANCH  29  30
ATOM     30  O   UNL     1      -3.034  -9.243   1.710  1.00  0.00    -0.376 OA
BRANCH  30  31
ATOM     31  C   UNL     1      -3.723  -8.653   2.824  1.00  0.00     0.202 C 
BRANCH  31  32
ATOM     32  C   UNL     1      -4.942  -9.437   3.359  1.00  0.00     0.261 C 
BRANCH  32  33
ATOM     33  O   UNL     1      -6.028  -9.593   2.421  1.00  0.00    -0.460 OA
BRANCH  33  34
ATOM     34  C   UNL     1      -6.538  -8.469   1.865  1.00  0.00     0.338 C 
ATOM     35  O   UNL     1      -6.347  -7.326   2.249  1.00  0.00    -0.246 OA
BRANCH  34  36
ATOM     36  C   UNL     1      -7.132  -8.824   0.547  1.00  0.00     0.060 A 
ATOM     37  C   UNL     1      -6.942  -7.940  -0.526  1.00  0.00     0.016 A 
ATOM     38  C   UNL     1      -7.793 -10.039   0.336  1.00  0.00     0.016 A 
ATOM     39  C   UNL     1      -7.444  -8.248  -1.794  1.00  0.00     0.010 A 
ATOM     40  C   UNL     1      -8.307 -10.340  -0.931  1.00  0.00     0.010 A 
ATOM     41  C   UNL     1      -8.165  -9.432  -1.995  1.00  0.00    -0.014 A 
BRANCH  41  42
ATOM     42  C   UNL     1      -8.958  -9.619  -3.237  1.00  0.00     0.031 A 
ATOM     43  C   UNL     1     -10.415  -9.236  -3.207  1.00  0.00     0.074 A 
ATOM     44  C   UNL     1      -8.417 -10.100  -4.372  1.00  0.00     0.049 A 
ATOM     45  N   UNL     1     -11.325  -9.349  -4.138  1.00  0.00    -0.248 NA
ATOM     46  C   UNL     1     -10.906  -8.647  -1.951  1.00  0.00     0.031 C 
ATOM     47  C   UNL     1      -7.015 -10.469  -4.555  1.00  0.00     0.029 A 
ATOM     48  N   UNL     1      -8.997 -10.367  -5.590  1.00  0.00    -0.354 N 
ATOM     49  C   UNL     1     -12.496  -8.848  -3.582  1.00  0.00     0.074 A 
ATOM     50  C   UNL     1     -12.188  -8.462  -2.222  1.00  0.00     0.031 C 
ATOM     51  C   UNL     1      -6.845 -10.924  -5.811  1.00  0.00     0.029 A 
ATOM     52  C   UNL     1      -8.131 -10.907  -6.511  1.00  0.00     0.049 A 
ATOM     53  H   UNL     1      -9.945 -10.187  -5.784  1.00  0.00     0.167 HD
ATOM     54  C   UNL     1     -13.717  -8.711  -4.151  1.00  0.00     0.037 A 
ATOM     55  C   UNL     1      -8.355 -11.354  -7.764  1.00  0.00     0.037 A 
ATOM     56  C   UNL     1     -14.032  -9.103  -5.498  1.00  0.00     0.049 A 
ATOM     57  C   UNL     1      -9.744 -11.273  -8.351  1.00  0.00     0.074 A 
ATOM     58  C   UNL     1     -15.241  -9.001  -6.162  1.00  0.00     0.029 A 
ATOM     59  N   UNL     1     -13.136  -9.682  -6.384  1.00  0.00    -0.354 N 
ATOM     60  N   UNL     1     -10.839 -10.783  -7.819  1.00  0.00    -0.248 NA
ATOM     61  C   UNL     1      -9.928 -11.808  -9.709  1.00  0.00     0.031 C 
ATOM     62  C   UNL     1     -15.089  -9.561  -7.435  1.00  0.00     0.029 A 
ATOM     63  C   UNL     1     -13.772  -9.964  -7.582  1.00  0.00     0.049 A 
ATOM     64  H   UNL     1     -12.188  -9.865  -6.191  1.00  0.00     0.167 HD
ATOM     65  C   UNL     1     -11.831 -10.923  -8.787  1.00  0.00     0.074 A 
ATOM     66  C   UNL     1     -11.206 -11.539  -9.939  1.00  0.00     0.031 C 
ATOM     67  C   UNL     1     -13.139 -10.569  -8.728  1.00  0.00     0.037 A 
BRANCH  54  68
ATOM     68  C   UNL     1     -14.811  -8.138  -3.295  1.00  0.00     0.058 A 
ATOM     69  C   UNL     1     -14.831  -6.781  -2.933  1.00  0.00     0.135 A 
ATOM     70  C   UNL     1     -15.854  -8.956  -2.833  1.00  0.00     0.135 A 
ATOM     71  F   UNL     1     -13.845  -5.961  -3.330  1.00  0.00    -0.206 F 
ATOM     72  C   UNL     1     -15.828  -6.263  -2.114  1.00  0.00     0.059 A 
ATOM     73  C   UNL     1     -16.877  -8.453  -2.035  1.00  0.00     0.059 A 
ATOM     74  F   UNL     1     -15.880 -10.261  -3.146  1.00  0.00    -0.206 F 
ATOM     75  C   UNL     1     -16.845  -7.108  -1.667  1.00  0.00     0.060 A 
BRANCH  75  76
ATOM     76  S   UNL     1     -18.124  -6.426  -0.591  1.00  0.00     0.124 S 
ATOM     77  O   UNL     1     -17.397  -6.280   0.667  1.00  0.00    -0.237 OA
ATOM     78  O   UNL     1     -18.473  -5.183  -1.270  1.00  0.00    -0.237 OA
ATOM     79  O   UNL     1     -19.160  -7.455  -0.601  1.00  0.00    -0.744 OA
ENDBRANCH  75  76
ENDBRANCH  54  68
BRANCH  55  80
ATOM     80  C   UNL     1      -7.238 -11.935  -8.560  1.00  0.00     0.058 A 
ATOM     81  C   UNL     1      -6.726 -11.269  -9.684  1.00  0.00     0.135 A 
ATOM     82  C   UNL     1      -6.672 -13.174  -8.223  1.00  0.00     0.135 A 
ATOM     83  F   UNL     1      -7.247 -10.091 -10.060  1.00  0.00    -0.206 F 
ATOM     84  C   UNL     1      -5.699 -11.813 -10.450  1.00  0.00     0.059 A 
ATOM     85  C   UNL     1      -5.628 -13.727  -8.958  1.00  0.00     0.059 A 
ATOM     86  F   UNL     1      -7.125 -13.852  -7.157  1.00  0.00    -0.206 F 
ATOM     87  C   UNL     1      -5.153 -13.043 -10.075  1.00  0.00     0.060 A 
BRANCH  87  88
ATOM     88  S   UNL     1      -3.783 -13.714 -11.043  1.00  0.00     0.124 S 
ATOM     89  O   UNL     1      -4.464 -14.141 -12.260  1.00  0.00    -0.237 OA
ATOM     90  O   UNL     1      -2.905 -12.555 -11.176  1.00  0.00    -0.237 OA
ATOM     91  O   UNL     1      -3.269 -14.786 -10.197  1.00  0.00    -0.744 OA
ENDBRANCH  87  88
ENDBRANCH  55  80
BRANCH  67  92
ATOM     92  C   UNL     1     -13.987 -10.796  -9.952  1.00  0.00     0.058 A 
ATOM     93  C   UNL     1     -14.407 -12.079 -10.334  1.00  0.00     0.135 A 
ATOM     94  C   UNL     1     -14.443  -9.705 -10.711  1.00  0.00     0.135 A 
ATOM     95  F   UNL     1     -13.998 -13.157  -9.647  1.00  0.00    -0.206 F 
ATOM     96  C   UNL     1     -15.236 -12.275 -11.436  1.00  0.00     0.059 A 
ATOM     97  C   UNL     1     -15.293  -9.875 -11.800  1.00  0.00     0.059 A 
ATOM     98  F   UNL     1     -14.082  -8.455 -10.382  1.00  0.00    -0.206 F 
ATOM     99  C   UNL     1     -15.676 -11.166 -12.161  1.00  0.00     0.060 A 
BRANCH  99 100
ATOM    100  S   UNL     1     -16.785 -11.429 -13.562  1.00  0.00     0.124 S 
ATOM    101  O   UNL     1     -15.872 -11.968 -14.564  1.00  0.00    -0.237 OA
ATOM    102  O   UNL     1     -17.758 -12.373 -13.019  1.00  0.00    -0.237 OA
ATOM    103  O   UNL     1     -17.306 -10.094 -13.840  1.00  0.00    -0.744 OA
ENDBRANCH  99 100
ENDBRANCH  67  92
ENDBRANCH  41  42
ENDBRANCH  34  36
ENDBRANCH  33  34
ENDBRANCH  32  33
ENDBRANCH  31  32
ENDBRANCH  30  31
ENDBRANCH  29  30
ENDBRANCH   1  29
TORSDOF 23
