REMARK SMILES O=C(OCCOCCOCCOC(=O)c1cc(N2CCN(c3ccc(F)cc3)CC2)ccc1NC(=O)C1CCCC1)c1ccc(-c2c3nc(c(-c4c(F)cc(S(=O)(=O)[O-])cc4F)c4ccc([nH]4)c(-c4c(F)cc(S(=O)(=O)[O-])cc4F)c4nc(c(-c5c(F)cc(S(=O)(=O)[O-])cc5F)c5ccc2[nH]5)C=C4)C=C3)cc1
REMARK SMILES IDX 7 1 6 2 5 3 4 4 3 5 2 6 1 7 42 8 43 9 107 10 44 11 106 12
REMARK SMILES IDX 45 13 46 14 47 15 100 16 48 17 105 18 99 19 101 20 49 21
REMARK SMILES IDX 104 22 98 23 97 24 50 26 84 27 63 28 83 29 64 30 67 31 82 32
REMARK SMILES IDX 102 33 65 34 66 35 81 37 103 38 68 39 51 40 52 41 61 42
REMARK SMILES IDX 53 43 54 44 60 45 62 46 55 47 56 48 57 49 58 50 59 51 85 52
REMARK SMILES IDX 86 53 95 54 87 55 88 56 94 57 96 58 89 59 90 60 91 61 92 62
REMARK SMILES IDX 93 63 69 64 70 65 79 66 71 67 72 68 78 69 80 70 73 71 74 72
REMARK SMILES IDX 75 73 76 74 77 75 8 76 9 77 10 78 11 79 12 80 13 81 14 82
REMARK SMILES IDX 15 83 16 84 33 85 17 86 32 87 31 88 34 89 35 90 36 92 37 93
REMARK SMILES IDX 38 94 41 95 39 96 40 97 18 98 19 99 30 100 20 101 29 102
REMARK SMILES IDX 21 103 22 104 23 105 28 106 24 107 27 108 25 109 26 110
REMARK H PARENT 101 25 67 36 34 91
REMARK Flexibility Score: inf
ROOT
ATOM      1  C   UNL     1       2.519  -1.579  -1.582  1.00  0.00     0.188 C 
ENDROOT
BRANCH   1   2
ATOM      2  O   UNL     1       3.737  -0.854  -1.375  1.00  0.00    -0.376 OA
BRANCH   2   3
ATOM      3  C   UNL     1       4.658  -1.519  -0.508  1.00  0.00     0.202 C 
BRANCH   3   4
ATOM      4  C   UNL     1       4.462  -1.195   0.978  1.00  0.00     0.261 C 
BRANCH   4   5
ATOM      5  O   UNL     1       3.077  -0.984   1.301  1.00  0.00    -0.460 OA
BRANCH   5   6
ATOM      6  C   UNL     1       2.411   0.198   1.355  1.00  0.00     0.338 C 
ATOM      7  O   UNL     1       1.209   0.188   1.619  1.00  0.00    -0.246 OA
BRANCH   6   8
ATOM      8  C   UNL     1       3.079   1.525   1.193  1.00  0.00     0.060 A 
ATOM      9  C   UNL     1       4.154   1.785   0.342  1.00  0.00     0.016 A 
ATOM     10  C   UNL     1       2.547   2.598   1.929  1.00  0.00     0.016 A 
ATOM     11  C   UNL     1       4.789   3.026   0.342  1.00  0.00     0.010 A 
ATOM     12  C   UNL     1       3.136   3.866   1.881  1.00  0.00     0.010 A 
ATOM     13  C   UNL     1       4.303   4.069   1.133  1.00  0.00    -0.014 A 
BRANCH  13  14
ATOM     14  C   UNL     1       5.111   5.303   1.284  1.00  0.00     0.031 A 
ATOM     15  C   UNL     1       5.823   5.537   2.588  1.00  0.00     0.074 A 
ATOM     16  C   UNL     1       5.287   6.146   0.249  1.00  0.00     0.049 A 
ATOM     17  N   UNL     1       6.556   6.552   2.960  1.00  0.00    -0.248 NA
ATOM     18  C   UNL     1       5.696   4.482   3.608  1.00  0.00     0.031 C 
ATOM     19  C   UNL     1       4.723   5.968  -1.087  1.00  0.00     0.029 A 
ATOM     20  N   UNL     1       6.012   7.304   0.145  1.00  0.00    -0.354 N 
ATOM     21  C   UNL     1       6.951   6.274   4.263  1.00  0.00     0.074 A 
ATOM     22  C   UNL     1       6.367   5.001   4.623  1.00  0.00     0.031 C 
ATOM     23  C   UNL     1       5.141   6.967  -1.883  1.00  0.00     0.029 A 
ATOM     24  C   UNL     1       5.969   7.874  -1.107  1.00  0.00     0.049 A 
ATOM     25  H   UNL     1       6.516   7.693   0.896  1.00  0.00     0.167 HD
ATOM     26  C   UNL     1       7.733   7.014   5.083  1.00  0.00     0.037 A 
ATOM     27  C   UNL     1       6.530   9.005  -1.567  1.00  0.00     0.037 A 
ATOM     28  C   UNL     1       8.322   8.269   4.704  1.00  0.00     0.049 A 
ATOM     29  C   UNL     1       7.345   9.833  -0.618  1.00  0.00     0.074 A 
ATOM     30  C   UNL     1       9.103   9.124   5.460  1.00  0.00     0.029 A 
ATOM     31  N   UNL     1       8.194   8.846   3.449  1.00  0.00    -0.354 N 
ATOM     32  N   UNL     1       7.649   9.589   0.634  1.00  0.00    -0.248 NA
ATOM     33  C   UNL     1       7.883  11.095  -1.143  1.00  0.00     0.031 C 
ATOM     34  C   UNL     1       9.421  10.235   4.670  1.00  0.00     0.029 A 
ATOM     35  C   UNL     1       8.869  10.053   3.412  1.00  0.00     0.049 A 
ATOM     36  H   UNL     1       7.697   8.454   2.695  1.00  0.00     0.167 HD
ATOM     37  C   UNL     1       8.415  10.669   1.048  1.00  0.00     0.074 A 
ATOM     38  C   UNL     1       8.547  11.554  -0.092  1.00  0.00     0.031 C 
ATOM     39  C   UNL     1       8.957  10.915   2.264  1.00  0.00     0.037 A 
BRANCH  26  40
ATOM     40  C   UNL     1       7.930   6.502   6.481  1.00  0.00     0.058 A 
ATOM     41  C   UNL     1       8.747   5.395   6.760  1.00  0.00     0.135 A 
ATOM     42  C   UNL     1       7.252   7.104   7.552  1.00  0.00     0.135 A 
ATOM     43  F   UNL     1       9.395   4.765   5.767  1.00  0.00    -0.206 F 
ATOM     44  C   UNL     1       8.851   4.876   8.047  1.00  0.00     0.059 A 
ATOM     45  C   UNL     1       7.359   6.616   8.850  1.00  0.00     0.059 A 
ATOM     46  F   UNL     1       6.452   8.160   7.337  1.00  0.00    -0.206 F 
ATOM     47  C   UNL     1       8.142   5.487   9.083  1.00  0.00     0.060 A 
BRANCH  47  48
ATOM     48  S   UNL     1       8.239   4.775  10.739  1.00  0.00     0.124 S 
ATOM     49  O   UNL     1       7.364   3.614  10.605  1.00  0.00    -0.237 OA
ATOM     50  O   UNL     1       9.662   4.483  10.874  1.00  0.00    -0.237 OA
ATOM     51  O   UNL     1       7.738   5.844  11.597  1.00  0.00    -0.744 OA
ENDBRANCH  47  48
ENDBRANCH  26  40
BRANCH  27  52
ATOM     52  C   UNL     1       6.335   9.478  -2.961  1.00  0.00     0.058 A 
ATOM     53  C   UNL     1       7.362   9.364  -3.908  1.00  0.00     0.135 A 
ATOM     54  C   UNL     1       5.173  10.172  -3.328  1.00  0.00     0.135 A 
ATOM     55  F   UNL     1       8.492   8.712  -3.596  1.00  0.00    -0.206 F 
ATOM     56  C   UNL     1       7.262   9.959  -5.163  1.00  0.00     0.059 A 
ATOM     57  C   UNL     1       5.050  10.774  -4.576  1.00  0.00     0.059 A 
ATOM     58  F   UNL     1       4.158  10.290  -2.458  1.00  0.00    -0.206 F 
ATOM     59  C   UNL     1       6.108  10.677  -5.481  1.00  0.00     0.060 A 
BRANCH  59  60
ATOM     60  S   UNL     1       5.980  11.440  -7.116  1.00  0.00     0.124 S 
ATOM     61  O   UNL     1       6.835  12.610  -6.961  1.00  0.00    -0.237 OA
ATOM     62  O   UNL     1       6.492  10.389  -7.990  1.00  0.00    -0.237 OA
ATOM     63  O   UNL     1       4.551  11.710  -7.243  1.00  0.00    -0.744 OA
ENDBRANCH  59  60
ENDBRANCH  27  52
BRANCH  39  64
ATOM     64  C   UNL     1       9.730  12.189   2.398  1.00  0.00     0.058 A 
ATOM     65  C   UNL     1       9.078  13.426   2.509  1.00  0.00     0.135 A 
ATOM     66  C   UNL     1      11.132  12.169   2.414  1.00  0.00     0.135 A 
ATOM     67  F   UNL     1       7.737  13.489   2.478  1.00  0.00    -0.206 F 
ATOM     68  C   UNL     1       9.794  14.610   2.613  1.00  0.00     0.059 A 
ATOM     69  C   UNL     1      11.868  13.341   2.538  1.00  0.00     0.059 A 
ATOM     70  F   UNL     1      11.794  11.007   2.308  1.00  0.00    -0.206 F 
ATOM     71  C   UNL     1      11.190  14.557   2.625  1.00  0.00     0.060 A 
BRANCH  71  72
ATOM     72  S   UNL     1      12.114  16.097   2.790  1.00  0.00     0.124 S 
ATOM     73  O   UNL     1      12.030  16.635   1.437  1.00  0.00    -0.237 OA
ATOM     74  O   UNL     1      11.351  16.814   3.807  1.00  0.00    -0.237 OA
ATOM     75  O   UNL     1      13.439  15.651   3.210  1.00  0.00    -0.744 OA
ENDBRANCH  71  72
ENDBRANCH  39  64
ENDBRANCH  13  14
ENDBRANCH   6   8
ENDBRANCH   5   6
ENDBRANCH   4   5
ENDBRANCH   3   4
ENDBRANCH   2   3
ENDBRANCH   1   2
BRANCH   1  76
ATOM     76  C   UNL     1       1.948  -1.293  -2.971  1.00  0.00     0.188 C 
BRANCH  76  77
ATOM     77  O   UNL     1       2.687  -1.848  -4.060  1.00  0.00    -0.376 OA
BRANCH  77  78
ATOM     78  C   UNL     1       4.016  -1.373  -4.259  1.00  0.00     0.202 C 
BRANCH  78  79
ATOM     79  C   UNL     1       4.171   0.016  -4.892  1.00  0.00     0.261 C 
BRANCH  79  80
ATOM     80  O   UNL     1       3.673   1.112  -4.105  1.00  0.00    -0.460 OA
BRANCH  80  81
ATOM     81  C   UNL     1       2.483   1.614  -4.519  1.00  0.00     0.340 C 
ATOM     82  O   UNL     1       1.744   1.149  -5.376  1.00  0.00    -0.246 OA
BRANCH  81  83
ATOM     83  C   UNL     1       2.159   2.849  -3.788  1.00  0.00     0.085 A 
ATOM     84  C   UNL     1       0.960   2.864  -3.050  1.00  0.00     0.043 A 
ATOM     85  C   UNL     1       2.885   4.025  -4.027  1.00  0.00     0.055 A 
ATOM     86  C   UNL     1       0.454   4.054  -2.525  1.00  0.00     0.038 A 
ATOM     87  C   UNL     1       2.366   5.203  -3.487  1.00  0.00     0.029 A 
ATOM     88  C   UNL     1       1.175   5.220  -2.750  1.00  0.00     0.028 A 
BRANCH  85  89
ATOM     89  N   UNL     1       4.101   3.951  -4.748  1.00  0.00    -0.325 N 
ATOM     90  C   UNL     1       4.807   4.848  -5.508  1.00  0.00     0.227 C 
ATOM     91  H   UNL     1       4.531   3.068  -4.692  1.00  0.00     0.169 HD
ATOM     92  O   UNL     1       5.915   4.501  -5.922  1.00  0.00    -0.274 OA
BRANCH  90  93
ATOM     93  C   UNL     1       4.171   6.158  -5.904  1.00  0.00     0.079 C 
ATOM     94  C   UNL     1       5.054   7.183  -6.595  1.00  0.00     0.013 C 
ATOM     95  C   UNL     1       3.054   5.975  -6.927  1.00  0.00     0.013 C 
ATOM     96  C   UNL     1       4.005   8.208  -7.022  1.00  0.00     0.001 C 
ATOM     97  C   UNL     1       2.785   7.387  -7.438  1.00  0.00     0.001 C 
ENDBRANCH  90  93
ENDBRANCH  85  89
BRANCH  86  98
ATOM     98  N   UNL     1      -0.762   4.058  -1.869  1.00  0.00    -0.368 N 
ATOM     99  C   UNL     1      -0.788   4.161  -0.395  1.00  0.00     0.138 C 
ATOM    100  C   UNL     1      -1.915   4.637  -2.584  1.00  0.00     0.138 C 
ATOM    101  C   UNL     1      -1.204   5.568   0.113  1.00  0.00     0.138 C 
ATOM    102  C   UNL     1      -2.282   6.043  -2.066  1.00  0.00     0.138 C 
ATOM    103  N   UNL     1      -2.401   6.056  -0.600  1.00  0.00    -0.368 N 
BRANCH 103 104
ATOM    104  C   UNL     1      -3.624   6.133   0.033  1.00  0.00     0.037 A 
ATOM    105  C   UNL     1      -3.768   6.879   1.215  1.00  0.00     0.029 A 
ATOM    106  C   UNL     1      -4.774   5.514  -0.482  1.00  0.00     0.029 A 
ATOM    107  C   UNL     1      -5.010   7.020   1.844  1.00  0.00     0.041 A 
ATOM    108  C   UNL     1      -6.016   5.635   0.150  1.00  0.00     0.041 A 
ATOM    109  C   UNL     1      -6.124   6.395   1.304  1.00  0.00     0.123 A 
ATOM    110  F   UNL     1      -7.317   6.529   1.899  1.00  0.00    -0.207 F 
ENDBRANCH 103 104
ENDBRANCH  86  98
ENDBRANCH  81  83
ENDBRANCH  80  81
ENDBRANCH  79  80
ENDBRANCH  78  79
ENDBRANCH  77  78
ENDBRANCH  76  77
ENDBRANCH   1  76
TORSDOF 24
