REMARK SMILES O=C(OCCOCCOCCOC(=O)[C@@H]1[C@H](C(=O)NCc2ccccc2Cl)[C@@H]2C=C[C@H]1C2)c1ccc(-c2c3nc(c(-c4c(F)cc(S(=O)(=O)[O-])cc4F)c4ccc([nH]4)c(-c4c(F)cc(S(=O)(=O)[O-])cc4F)c4nc(c(-c5c(F)cc(S(=O)(=O)[O-])cc5F)c5ccc2[nH]5)C=C4)C=C3)cc1
REMARK SMILES IDX 7 1 6 2 5 3 4 4 3 5 2 6 1 7 33 8 34 9 98 10 35 11 97 12
REMARK SMILES IDX 36 13 37 14 38 15 91 16 39 17 96 18 90 19 92 20 40 21 95 22
REMARK SMILES IDX 89 23 88 24 41 26 75 27 54 28 74 29 55 30 58 31 73 32 93 33
REMARK SMILES IDX 56 34 57 35 72 37 94 38 59 39 42 40 43 41 52 42 44 43 45 44
REMARK SMILES IDX 51 45 53 46 46 47 47 48 48 49 49 50 50 51 76 52 77 53 86 54
REMARK SMILES IDX 78 55 79 56 85 57 87 58 80 59 81 60 82 61 83 62 84 63 60 64
REMARK SMILES IDX 61 65 70 66 62 67 63 68 69 69 71 70 64 71 65 72 66 73 67 74
REMARK SMILES IDX 68 75 8 76 9 77 10 78 11 79 12 80 13 81 14 82 15 83 16 84
REMARK SMILES IDX 31 85 28 86 30 87 32 88 29 89 17 90 18 91 19 92 20 94 21 95
REMARK SMILES IDX 22 96 26 97 23 98 25 99 27 100 24 101
REMARK H PARENT 92 25 58 36 19 93
REMARK Flexibility Score: inf
ROOT
ATOM      1  C   UNL     1       1.974  -0.905  -0.699  1.00  0.00     0.188 C 
ENDROOT
BRANCH   1   2
ATOM      2  O   UNL     1       3.093  -0.021  -0.413  1.00  0.00    -0.376 OA
BRANCH   2   3
ATOM      3  C   UNL     1       4.161  -0.460   0.459  1.00  0.00     0.202 C 
BRANCH   3   4
ATOM      4  C   UNL     1       3.979  -0.356   1.970  1.00  0.00     0.261 C 
BRANCH   4   5
ATOM      5  O   UNL     1       2.842   0.356   2.461  1.00  0.00    -0.460 OA
BRANCH   5   6
ATOM      6  C   UNL     1       2.356   1.561   2.097  1.00  0.00     0.338 C 
ATOM      7  O   UNL     1       1.254   1.901   2.523  1.00  0.00    -0.246 OA
BRANCH   6   8
ATOM      8  C   UNL     1       3.070   2.464   1.153  1.00  0.00     0.060 A 
ATOM      9  C   UNL     1       4.454   2.481   0.963  1.00  0.00     0.016 A 
ATOM     10  C   UNL     1       2.281   3.372   0.430  1.00  0.00     0.016 A 
ATOM     11  C   UNL     1       5.021   3.258  -0.047  1.00  0.00     0.010 A 
ATOM     12  C   UNL     1       2.864   4.271  -0.465  1.00  0.00     0.010 A 
ATOM     13  C   UNL     1       4.239   4.214  -0.710  1.00  0.00    -0.014 A 
BRANCH  13  14
ATOM     14  C   UNL     1       4.943   5.393  -1.269  1.00  0.00     0.031 A 
ATOM     15  C   UNL     1       5.584   6.286  -0.253  1.00  0.00     0.074 A 
ATOM     16  C   UNL     1       5.063   5.644  -2.584  1.00  0.00     0.049 A 
ATOM     17  N   UNL     1       6.415   7.272  -0.429  1.00  0.00    -0.248 NA
ATOM     18  C   UNL     1       5.290   5.988   1.163  1.00  0.00     0.031 C 
ATOM     19  C   UNL     1       4.513   4.811  -3.633  1.00  0.00     0.029 A 
ATOM     20  N   UNL     1       5.694   6.647  -3.271  1.00  0.00    -0.354 N 
ATOM     21  C   UNL     1       6.786   7.661   0.847  1.00  0.00     0.074 A 
ATOM     22  C   UNL     1       6.114   6.804   1.791  1.00  0.00     0.031 C 
ATOM     23  C   UNL     1       4.849   5.295  -4.838  1.00  0.00     0.029 A 
ATOM     24  C   UNL     1       5.585   6.535  -4.641  1.00  0.00     0.049 A 
ATOM     25  H   UNL     1       6.180   7.380  -2.828  1.00  0.00     0.167 HD
ATOM     26  C   UNL     1       7.580   8.690   1.203  1.00  0.00     0.037 A 
ATOM     27  C   UNL     1       6.008   7.365  -5.615  1.00  0.00     0.037 A 
ATOM     28  C   UNL     1       8.062   9.650   0.258  1.00  0.00     0.049 A 
ATOM     29  C   UNL     1       6.747   8.604  -5.181  1.00  0.00     0.074 A 
ATOM     30  C   UNL     1       8.745  10.823   0.498  1.00  0.00     0.029 A 
ATOM     31  N   UNL     1       7.841   9.575  -1.113  1.00  0.00    -0.354 N 
ATOM     32  N   UNL     1       7.099   8.965  -3.967  1.00  0.00    -0.248 NA
ATOM     33  C   UNL     1       7.133   9.555  -6.228  1.00  0.00     0.031 C 
ATOM     34  C   UNL     1       8.871  11.496  -0.721  1.00  0.00     0.029 A 
ATOM     35  C   UNL     1       8.345  10.701  -1.731  1.00  0.00     0.049 A 
ATOM     36  H   UNL     1       7.392   8.830  -1.573  1.00  0.00     0.167 HD
ATOM     37  C   UNL     1       7.768  10.172  -4.105  1.00  0.00     0.074 A 
ATOM     38  C   UNL     1       7.779  10.475  -5.524  1.00  0.00     0.031 C 
ATOM     39  C   UNL     1       8.327  10.959  -3.152  1.00  0.00     0.037 A 
BRANCH  26  40
ATOM     40  C   UNL     1       7.805   8.869   2.672  1.00  0.00     0.058 A 
ATOM     41  C   UNL     1       8.596   7.972   3.411  1.00  0.00     0.135 A 
ATOM     42  C   UNL     1       7.130   9.882   3.369  1.00  0.00     0.135 A 
ATOM     43  F   UNL     1       9.208   6.945   2.799  1.00  0.00    -0.206 F 
ATOM     44  C   UNL     1       8.695   8.066   4.794  1.00  0.00     0.059 A 
ATOM     45  C   UNL     1       7.236  10.009   4.748  1.00  0.00     0.059 A 
ATOM     46  F   UNL     1       6.323  10.731   2.714  1.00  0.00    -0.206 F 
ATOM     47  C   UNL     1       8.010   9.089   5.453  1.00  0.00     0.060 A 
BRANCH  47  48
ATOM     48  S   UNL     1       8.142   9.193   7.249  1.00  0.00     0.124 S 
ATOM     49  O   UNL     1       7.369   8.027   7.667  1.00  0.00    -0.237 OA
ATOM     50  O   UNL     1       9.583   9.106   7.458  1.00  0.00    -0.237 OA
ATOM     51  O   UNL     1       7.542  10.487   7.560  1.00  0.00    -0.744 OA
ENDBRANCH  47  48
ENDBRANCH  26  40
BRANCH  27  52
ATOM     52  C   UNL     1       5.704   7.087  -7.050  1.00  0.00     0.058 A 
ATOM     53  C   UNL     1       6.718   6.846  -7.990  1.00  0.00     0.135 A 
ATOM     54  C   UNL     1       4.378   7.060  -7.517  1.00  0.00     0.135 A 
ATOM     55  F   UNL     1       8.004   6.876  -7.610  1.00  0.00    -0.206 F 
ATOM     56  C   UNL     1       6.433   6.596  -9.332  1.00  0.00     0.059 A 
ATOM     57  C   UNL     1       4.066   6.785  -8.847  1.00  0.00     0.059 A 
ATOM     58  F   UNL     1       3.360   7.284  -6.671  1.00  0.00    -0.206 F 
ATOM     59  C   UNL     1       5.101   6.561  -9.751  1.00  0.00     0.060 A 
BRANCH  59  60
ATOM     60  S   UNL     1       4.738   6.184 -11.481  1.00  0.00     0.124 S 
ATOM     61  O   UNL     1       5.213   7.387 -12.154  1.00  0.00    -0.237 OA
ATOM     62  O   UNL     1       5.525   4.975 -11.703  1.00  0.00    -0.237 OA
ATOM     63  O   UNL     1       3.291   5.989 -11.487  1.00  0.00    -0.744 OA
ENDBRANCH  59  60
ENDBRANCH  27  52
BRANCH  39  64
ATOM     64  C   UNL     1       9.031  12.200  -3.612  1.00  0.00     0.058 A 
ATOM     65  C   UNL     1       8.331  13.320  -4.082  1.00  0.00     0.135 A 
ATOM     66  C   UNL     1      10.427  12.294  -3.484  1.00  0.00     0.135 A 
ATOM     67  F   UNL     1       6.997  13.276  -4.223  1.00  0.00    -0.206 F 
ATOM     68  C   UNL     1       8.996  14.491  -4.426  1.00  0.00     0.059 A 
ATOM     69  C   UNL     1      11.106  13.465  -3.788  1.00  0.00     0.059 A 
ATOM     70  F   UNL     1      11.136  11.251  -3.023  1.00  0.00    -0.206 F 
ATOM     71  C   UNL     1      10.382  14.555  -4.267  1.00  0.00     0.060 A 
BRANCH  71  72
ATOM     72  S   UNL     1      11.225  16.098  -4.667  1.00  0.00     0.124 S 
ATOM     73  O   UNL     1      11.145  16.107  -6.124  1.00  0.00    -0.237 OA
ATOM     74  O   UNL     1      10.403  17.088  -3.979  1.00  0.00    -0.237 OA
ATOM     75  O   UNL     1      12.563  15.908  -4.113  1.00  0.00    -0.744 OA
ENDBRANCH  71  72
ENDBRANCH  39  64
ENDBRANCH  13  14
ENDBRANCH   6   8
ENDBRANCH   5   6
ENDBRANCH   4   5
ENDBRANCH   3   4
ENDBRANCH   2   3
ENDBRANCH   1   2
BRANCH   1  76
ATOM     76  C   UNL     1       1.694  -1.324  -2.263  1.00  0.00     0.188 C 
BRANCH  76  77
ATOM     77  O   UNL     1       2.209  -2.606  -2.711  1.00  0.00    -0.376 OA
BRANCH  77  78
ATOM     78  C   UNL     1       2.421  -2.964  -4.135  1.00  0.00     0.202 C 
BRANCH  78  79
ATOM     79  C   UNL     1       3.416  -2.252  -5.157  1.00  0.00     0.261 C 
BRANCH  79  80
ATOM     80  O   UNL     1       3.259  -0.850  -5.240  1.00  0.00    -0.463 OA
BRANCH  80  81
ATOM     81  C   UNL     1       2.013  -0.446  -5.550  1.00  0.00     0.310 C 
ATOM     82  O   UNL     1       1.139  -1.129  -6.031  1.00  0.00    -0.252 OA
BRANCH  81  83
ATOM     83  C   UNL     1       1.926   0.992  -5.205  1.00  0.00     0.119 C 
ATOM     84  C   UNL     1       2.780   1.512  -3.979  1.00  0.00     0.100 C 
ATOM     85  C   UNL     1       0.471   1.467  -4.926  1.00  0.00     0.027 C 
ATOM     86  C   UNL     1       1.651   2.342  -3.214  1.00  0.00     0.025 C 
ATOM     87  C   UNL     1      -0.113   0.919  -3.648  1.00  0.00    -0.027 C 
ATOM     88  C   UNL     1       0.770   2.870  -4.394  1.00  0.00     0.017 C 
ATOM     89  C   UNL     1       0.554   1.486  -2.631  1.00  0.00    -0.027 C 
BRANCH  84  90
ATOM     90  C   UNL     1       4.278   1.036  -3.342  1.00  0.00     0.224 C 
ATOM     91  O   UNL     1       5.123   1.960  -3.328  1.00  0.00    -0.275 OA
ATOM     92  N   UNL     1       4.925  -0.078  -2.860  1.00  0.00    -0.352 N 
ATOM     93  H   UNL     1       5.891   0.094  -2.784  1.00  0.00     0.163 HD
BRANCH  92  94
ATOM     94  C   UNL     1       4.617  -1.426  -2.431  1.00  0.00     0.153 C 
BRANCH  94  95
ATOM     95  C   UNL     1       5.418  -2.702  -2.224  1.00  0.00    -0.010 A 
ATOM     96  C   UNL     1       4.679  -3.814  -1.688  1.00  0.00     0.007 A 
ATOM     97  C   UNL     1       6.681  -2.978  -2.711  1.00  0.00     0.046 A 
ATOM     98  C   UNL     1       5.093  -5.140  -1.823  1.00  0.00     0.000 A 
ATOM     99  C   UNL     1       7.109  -4.314  -2.836  1.00  0.00     0.021 A 
ATOM    100  Cl  UNL     1       7.748  -1.715  -3.167  1.00  0.00    -0.084 Cl
ATOM    101  C   UNL     1       6.300  -5.391  -2.447  1.00  0.00     0.002 A 
ENDBRANCH  94  95
ENDBRANCH  92  94
ENDBRANCH  84  90
ENDBRANCH  81  83
ENDBRANCH  80  81
ENDBRANCH  79  80
ENDBRANCH  78  79
ENDBRANCH  77  78
ENDBRANCH  76  77
ENDBRANCH   1  76
TORSDOF 23
