REMARK SMILES O=C(CN1C(=O)N[C@@](CCC(=O)OCCOCCOCCOC(=O)c2ccc(-c3c4nc(c(-c5c(F)cc(S(=O)(=O)[O-])cc5F)c5ccc([nH]5)c(-c5c(F)cc(S(=O)(=O)[O-])cc5F)c5nc(c(-c6c(F)cc(S(=O)(=O)[O-])cc6F)c6ccc3[nH]6)C=C5)C=C4)cc2)(c2ccccc2)C1=O)Nc1cccc(F)c1
REMARK SMILES IDX 17 1 16 2 15 3 14 4 13 5 11 6 12 7 10 8 9 9 8 10 4 11 5 12
REMARK SMILES IDX 97 13 6 14 7 15 98 16 3 18 2 19 1 20 99 21 100 23 101 24
REMARK SMILES IDX 106 25 102 26 104 27 103 28 105 29 91 30 92 31 96 32 93 33
REMARK SMILES IDX 95 34 94 35 18 36 19 37 20 38 21 39 22 40 23 41 24 42 25 43
REMARK SMILES IDX 26 44 90 45 27 46 89 47 28 48 29 49 30 50 83 51 31 52 88 53
REMARK SMILES IDX 82 54 84 55 32 56 87 57 81 58 80 59 33 61 67 62 46 63 66 64
REMARK SMILES IDX 47 65 50 66 65 67 85 68 48 69 49 70 64 72 86 73 51 74 34 75
REMARK SMILES IDX 35 76 44 77 36 78 37 79 43 80 45 81 38 82 39 83 40 84 41 85
REMARK SMILES IDX 42 86 68 87 69 88 78 89 70 90 71 91 77 92 79 93 72 94 73 95
REMARK SMILES IDX 74 96 75 97 76 98 52 99 53 100 62 101 54 102 55 103 61 104
REMARK SMILES IDX 63 105 56 106 57 107 58 108 59 109 60 110
REMARK H PARENT 7 17 99 22 84 60 50 71
REMARK Flexibility Score: inf
ROOT
ATOM      1  C   UNL     1       5.135  -8.616   0.485  1.00  0.00     0.188 C 
ENDROOT
BRANCH   1   2
ATOM      2  O   UNL     1       6.347  -9.199   0.947  1.00  0.00    -0.376 OA
BRANCH   2   3
ATOM      3  C   UNL     1       7.180  -8.349   1.727  1.00  0.00     0.202 C 
BRANCH   3   4
ATOM      4  C   UNL     1       8.045  -7.396   0.890  1.00  0.00     0.261 C 
BRANCH   4   5
ATOM      5  O   UNL     1       7.305  -6.249   0.411  1.00  0.00    -0.463 OA
BRANCH   5   6
ATOM      6  C   UNL     1       7.069  -6.174  -0.919  1.00  0.00     0.305 C 
ATOM      7  O   UNL     1       7.459  -6.986  -1.747  1.00  0.00    -0.252 OA
BRANCH   6   8
ATOM      8  C   UNL     1       6.338  -4.906  -1.310  1.00  0.00     0.126 C 
BRANCH   8   9
ATOM      9  C   UNL     1       5.056  -4.521  -0.548  1.00  0.00     0.055 C 
BRANCH   9  10
ATOM     10  C   UNL     1       5.170  -3.408   0.535  1.00  0.00     0.147 C 
ATOM     11  N   UNL     1       3.926  -1.375   0.564  1.00  0.00    -0.252 N 
ATOM     12  C   UNL     1       5.170  -1.092   0.110  1.00  0.00     0.325 C 
ATOM     13  C   UNL     1       3.769  -2.730   0.700  1.00  0.00     0.261 C 
ATOM     14  O   UNL     1       5.604   0.008  -0.183  1.00  0.00    -0.248 OA
ATOM     15  N   UNL     1       5.888  -2.255   0.018  1.00  0.00    -0.319 N 
ATOM     16  O   UNL     1       2.724  -3.294   0.992  1.00  0.00    -0.271 OA
ATOM     17  H   UNL     1       6.797  -2.304  -0.359  1.00  0.00     0.166 HD
BRANCH  11  18
ATOM     18  C   UNL     1       2.973  -0.396   1.043  1.00  0.00     0.230 C 
BRANCH  18  19
ATOM     19  C   UNL     1       2.051   0.254   0.016  1.00  0.00     0.244 C 
ATOM     20  O   UNL     1       1.008   0.784   0.398  1.00  0.00    -0.273 OA
ATOM     21  N   UNL     1       2.569   0.334  -1.262  1.00  0.00    -0.324 N 
ATOM     22  H   UNL     1       3.438  -0.103  -1.411  1.00  0.00     0.170 HD
BRANCH  21  23
ATOM     23  C   UNL     1       1.988   0.973  -2.376  1.00  0.00     0.044 A 
ATOM     24  C   UNL     1       2.594   0.758  -3.622  1.00  0.00     0.026 A 
ATOM     25  C   UNL     1       0.863   1.795  -2.304  1.00  0.00     0.065 A 
ATOM     26  C   UNL     1       2.062   1.328  -4.783  1.00  0.00     0.005 A 
ATOM     27  C   UNL     1       0.352   2.372  -3.462  1.00  0.00     0.125 A 
ATOM     28  C   UNL     1       0.934   2.138  -4.702  1.00  0.00     0.039 A 
ATOM     29  F   UNL     1      -0.720   3.173  -3.382  1.00  0.00    -0.207 F 
ENDBRANCH  21  23
ENDBRANCH  18  19
ENDBRANCH  11  18
BRANCH  10  30
ATOM     30  C   UNL     1       5.649  -3.761   1.950  1.00  0.00    -0.013 A 
ATOM     31  C   UNL     1       5.606  -5.068   2.428  1.00  0.00     0.007 A 
ATOM     32  C   UNL     1       6.004  -2.769   2.888  1.00  0.00     0.007 A 
ATOM     33  C   UNL     1       5.942  -5.395   3.746  1.00  0.00     0.000 A 
ATOM     34  C   UNL     1       6.308  -3.084   4.219  1.00  0.00     0.000 A 
ATOM     35  C   UNL     1       6.286  -4.403   4.647  1.00  0.00     0.000 A 
ENDBRANCH  10  30
ENDBRANCH   9  10
ENDBRANCH   8   9
ENDBRANCH   6   8
ENDBRANCH   5   6
ENDBRANCH   4   5
ENDBRANCH   3   4
ENDBRANCH   2   3
ENDBRANCH   1   2
BRANCH   1  36
ATOM     36  C   UNL     1       3.991  -8.714   1.495  1.00  0.00     0.188 C 
BRANCH  36  37
ATOM     37  O   UNL     1       3.912  -7.592   2.376  1.00  0.00    -0.376 OA
BRANCH  37  38
ATOM     38  C   UNL     1       3.317  -7.860   3.649  1.00  0.00     0.202 C 
BRANCH  38  39
ATOM     39  C   UNL     1       1.793  -8.043   3.700  1.00  0.00     0.261 C 
BRANCH  39  40
ATOM     40  O   UNL     1       1.349  -9.004   2.742  1.00  0.00    -0.460 OA
BRANCH  40  41
ATOM     41  C   UNL     1       0.708  -8.491   1.660  1.00  0.00     0.338 C 
ATOM     42  O   UNL     1       0.279  -7.358   1.523  1.00  0.00    -0.246 OA
BRANCH  41  43
ATOM     43  C   UNL     1       0.853  -9.462   0.550  1.00  0.00     0.060 A 
ATOM     44  C   UNL     1       1.082  -8.956  -0.741  1.00  0.00     0.016 A 
ATOM     45  C   UNL     1       0.930 -10.836   0.800  1.00  0.00     0.016 A 
ATOM     46  C   UNL     1       1.359  -9.828  -1.793  1.00  0.00     0.010 A 
ATOM     47  C   UNL     1       1.191 -11.706  -0.252  1.00  0.00     0.010 A 
ATOM     48  C   UNL     1       1.365 -11.207  -1.554  1.00  0.00    -0.014 A 
BRANCH  48  49
ATOM     49  C   UNL     1       1.212 -12.164  -2.668  1.00  0.00     0.031 A 
ATOM     50  C   UNL     1      -0.197 -12.562  -3.006  1.00  0.00     0.074 A 
ATOM     51  C   UNL     1       2.268 -12.729  -3.276  1.00  0.00     0.049 A 
ATOM     52  N   UNL     1      -0.629 -13.544  -3.747  1.00  0.00    -0.248 NA
ATOM     53  C   UNL     1      -1.267 -11.755  -2.388  1.00  0.00     0.031 C 
ATOM     54  C   UNL     1       3.669 -12.383  -3.046  1.00  0.00     0.029 A 
ATOM     55  N   UNL     1       2.316 -13.748  -4.192  1.00  0.00    -0.354 N 
ATOM     56  C   UNL     1      -2.014 -13.489  -3.662  1.00  0.00     0.074 A 
ATOM     57  C   UNL     1      -2.354 -12.393  -2.785  1.00  0.00     0.031 C 
ATOM     58  C   UNL     1       4.444 -13.203  -3.780  1.00  0.00     0.029 A 
ATOM     59  C   UNL     1       3.594 -14.156  -4.492  1.00  0.00     0.049 A 
ATOM     60  H   UNL     1       1.512 -14.149  -4.595  1.00  0.00     0.167 HD
ATOM     61  C   UNL     1      -2.924 -14.289  -4.260  1.00  0.00     0.037 A 
ATOM     62  C   UNL     1       4.014 -15.207  -5.225  1.00  0.00     0.037 A 
ATOM     63  C   UNL     1      -2.565 -15.379  -5.121  1.00  0.00     0.049 A 
ATOM     64  C   UNL     1       2.984 -16.119  -5.847  1.00  0.00     0.074 A 
ATOM     65  C   UNL     1      -3.396 -16.258  -5.788  1.00  0.00     0.029 A 
ATOM     66  N   UNL     1      -1.261 -15.740  -5.427  1.00  0.00    -0.354 N 
ATOM     67  N   UNL     1       1.674 -16.059  -5.771  1.00  0.00    -0.248 NA
ATOM     68  C   UNL     1       3.484 -17.245  -6.650  1.00  0.00     0.031 C 
ATOM     69  C   UNL     1      -2.592 -17.178  -6.467  1.00  0.00     0.029 A 
ATOM     70  C   UNL     1      -1.262 -16.836  -6.267  1.00  0.00     0.049 A 
ATOM     71  H   UNL     1      -0.455 -15.283  -5.095  1.00  0.00     0.167 HD
ATOM     72  C   UNL     1       1.195 -17.110  -6.548  1.00  0.00     0.074 A 
ATOM     73  C   UNL     1       2.355 -17.796  -7.078  1.00  0.00     0.031 C 
ATOM     74  C   UNL     1      -0.086 -17.472  -6.806  1.00  0.00     0.037 A 
BRANCH  61  75
ATOM     75  C   UNL     1      -4.372 -14.026  -3.971  1.00  0.00     0.058 A 
ATOM     76  C   UNL     1      -5.030 -12.888  -4.466  1.00  0.00     0.135 A 
ATOM     77  C   UNL     1      -5.113 -14.922  -3.184  1.00  0.00     0.135 A 
ATOM     78  F   UNL     1      -4.358 -11.983  -5.196  1.00  0.00    -0.206 F 
ATOM     79  C   UNL     1      -6.365 -12.635  -4.171  1.00  0.00     0.059 A 
ATOM     80  C   UNL     1      -6.457 -14.704  -2.901  1.00  0.00     0.059 A 
ATOM     81  F   UNL     1      -4.528 -16.017  -2.673  1.00  0.00    -0.206 F 
ATOM     82  C   UNL     1      -7.071 -13.550  -3.389  1.00  0.00     0.060 A 
BRANCH  82  83
ATOM     83  S   UNL     1      -8.805 -13.214  -3.023  1.00  0.00     0.124 S 
ATOM     84  O   UNL     1      -8.693 -12.133  -2.049  1.00  0.00    -0.237 OA
ATOM     85  O   UNL     1      -9.332 -12.836  -4.331  1.00  0.00    -0.237 OA
ATOM     86  O   UNL     1      -9.294 -14.485  -2.497  1.00  0.00    -0.744 OA
ENDBRANCH  82  83
ENDBRANCH  61  75
BRANCH  62  87
ATOM     87  C   UNL     1       5.469 -15.465  -5.401  1.00  0.00     0.058 A 
ATOM     88  C   UNL     1       6.088 -15.285  -6.647  1.00  0.00     0.135 A 
ATOM     89  C   UNL     1       6.272 -15.894  -4.332  1.00  0.00     0.135 A 
ATOM     90  F   UNL     1       5.362 -14.889  -7.704  1.00  0.00    -0.206 F 
ATOM     91  C   UNL     1       7.445 -15.533  -6.832  1.00  0.00     0.059 A 
ATOM     92  C   UNL     1       7.637 -16.125  -4.486  1.00  0.00     0.059 A 
ATOM     93  F   UNL     1       5.733 -16.075  -3.116  1.00  0.00    -0.206 F 
ATOM     94  C   UNL     1       8.213 -15.950  -5.744  1.00  0.00     0.060 A 
BRANCH  94  95
ATOM     95  S   UNL     1       9.982 -16.226  -5.986  1.00  0.00     0.124 S 
ATOM     96  O   UNL     1       9.984 -17.467  -6.753  1.00  0.00    -0.237 OA
ATOM     97  O   UNL     1      10.382 -15.026  -6.714  1.00  0.00    -0.237 OA
ATOM     98  O   UNL     1      10.496 -16.325  -4.624  1.00  0.00    -0.744 OA
ENDBRANCH  94  95
ENDBRANCH  62  87
BRANCH  74  99
ATOM     99  C   UNL     1      -0.319 -18.610  -7.758  1.00  0.00     0.058 A 
ATOM    100  C   UNL     1      -0.148 -19.946  -7.370  1.00  0.00     0.135 A 
ATOM    101  C   UNL     1      -0.848 -18.355  -9.034  1.00  0.00     0.135 A 
ATOM    102  F   UNL     1       0.357 -20.241  -6.162  1.00  0.00    -0.206 F 
ATOM    103  C   UNL     1      -0.497 -20.994  -8.216  1.00  0.00     0.059 A 
ATOM    104  C   UNL     1      -1.226 -19.386  -9.886  1.00  0.00     0.059 A 
ATOM    105  F   UNL     1      -1.043 -17.091  -9.444  1.00  0.00    -0.206 F 
ATOM    106  C   UNL     1      -1.046 -20.703  -9.468  1.00  0.00     0.060 A 
BRANCH 106 107
ATOM    107  S   UNL     1      -1.575 -22.071 -10.520  1.00  0.00     0.124 S 
ATOM    108  O   UNL     1      -0.295 -22.599 -10.982  1.00  0.00    -0.237 OA
ATOM    109  O   UNL     1      -2.310 -22.918  -9.586  1.00  0.00    -0.237 OA
ATOM    110  O   UNL     1      -2.390 -21.419 -11.541  1.00  0.00    -0.744 OA
ENDBRANCH 106 107
ENDBRANCH  74  99
ENDBRANCH  48  49
ENDBRANCH  41  43
ENDBRANCH  40  41
ENDBRANCH  39  40
ENDBRANCH  38  39
ENDBRANCH  37  38
ENDBRANCH  36  37
ENDBRANCH   1  36
TORSDOF 26
