REMARK SMILES O=C(OCCOCCOCCOC(=O)C1(Cc2ccccc2Cl)CCN(c2ncnc3[nH]ccc23)CC1)c1ccc(-c2c3nc(c(-c4c(F)cc(S(=O)(=O)[O-])cc4F)c4ccc([nH]4)c(-c4c(F)cc(S(=O)(=O)[O-])cc4F)c4nc(c(-c5c(F)cc(S(=O)(=O)[O-])cc5F)c5ccc2[nH]5)C=C4)C=C3)cc1
REMARK SMILES IDX 7 1 6 2 5 3 4 4 3 5 2 6 1 7 38 8 39 9 103 10 40 11 102 12
REMARK SMILES IDX 41 13 42 14 43 15 96 16 44 17 101 18 95 19 97 20 45 21
REMARK SMILES IDX 100 22 94 23 93 24 46 26 80 27 59 28 79 29 60 30 63 31 78 32
REMARK SMILES IDX 98 33 61 34 62 35 77 37 99 38 64 39 47 40 48 41 57 42 49 43
REMARK SMILES IDX 50 44 56 45 58 46 51 47 52 48 53 49 54 50 55 51 81 52 82 53
REMARK SMILES IDX 91 54 83 55 84 56 90 57 92 58 85 59 86 60 87 61 88 62 89 63
REMARK SMILES IDX 65 64 66 65 75 66 67 67 68 68 74 69 76 70 69 71 70 72 71 73
REMARK SMILES IDX 72 74 73 75 8 76 9 77 10 78 11 79 12 80 13 81 14 82 15 83
REMARK SMILES IDX 24 84 37 85 25 86 36 87 26 88 16 89 17 90 18 91 22 92 19 93
REMARK SMILES IDX 21 94 23 95 20 96 27 97 28 98 35 99 29 100 31 101 34 102
REMARK SMILES IDX 30 103 32 104 33 105
REMARK H PARENT 97 25 63 36 32 106
REMARK Flexibility Score: inf
ROOT
ATOM      1  C   UNL     1       2.698  -1.911  -0.225  1.00  0.00     0.188 C 
ENDROOT
BRANCH   1   2
ATOM      2  O   UNL     1       3.960  -1.384  -0.650  1.00  0.00    -0.376 OA
BRANCH   2   3
ATOM      3  C   UNL     1       4.998  -1.579   0.316  1.00  0.00     0.202 C 
BRANCH   3   4
ATOM      4  C   UNL     1       4.963  -0.597   1.492  1.00  0.00     0.261 C 
BRANCH   4   5
ATOM      5  O   UNL     1       3.668  -0.028   1.702  1.00  0.00    -0.460 OA
BRANCH   5   6
ATOM      6  C   UNL     1       3.129   1.022   1.040  1.00  0.00     0.338 C 
ATOM      7  O   UNL     1       1.937   1.270   1.226  1.00  0.00    -0.246 OA
BRANCH   6   8
ATOM      8  C   UNL     1       3.912   1.942   0.155  1.00  0.00     0.060 A 
ATOM      9  C   UNL     1       4.913   1.599  -0.767  1.00  0.00     0.016 A 
ATOM     10  C   UNL     1       3.498   3.272   0.183  1.00  0.00     0.016 A 
ATOM     11  C   UNL     1       5.473   2.544  -1.654  1.00  0.00     0.010 A 
ATOM     12  C   UNL     1       4.022   4.196  -0.725  1.00  0.00     0.010 A 
ATOM     13  C   UNL     1       4.990   3.848  -1.687  1.00  0.00    -0.014 A 
BRANCH  13  14
ATOM     14  C   UNL     1       5.596   4.938  -2.517  1.00  0.00     0.031 A 
ATOM     15  C   UNL     1       6.174   6.059  -1.704  1.00  0.00     0.074 A 
ATOM     16  C   UNL     1       5.585   5.027  -3.870  1.00  0.00     0.049 A 
ATOM     17  N   UNL     1       6.386   7.298  -2.038  1.00  0.00    -0.248 NA
ATOM     18  C   UNL     1       6.420   5.763  -0.277  1.00  0.00     0.031 C 
ATOM     19  C   UNL     1       5.046   4.046  -4.793  1.00  0.00     0.029 A 
ATOM     20  N   UNL     1       6.016   6.016  -4.733  1.00  0.00    -0.354 N 
ATOM     21  C   UNL     1       6.704   7.933  -0.848  1.00  0.00     0.074 A 
ATOM     22  C   UNL     1       6.517   6.982   0.221  1.00  0.00     0.031 C 
ATOM     23  C   UNL     1       5.161   4.441  -6.065  1.00  0.00     0.029 A 
ATOM     24  C   UNL     1       5.734   5.763  -6.067  1.00  0.00     0.049 A 
ATOM     25  H   UNL     1       6.481   6.829  -4.428  1.00  0.00     0.167 HD
ATOM     26  C   UNL     1       7.183   9.183  -0.676  1.00  0.00     0.037 A 
ATOM     27  C   UNL     1       5.841   6.517  -7.178  1.00  0.00     0.037 A 
ATOM     28  C   UNL     1       7.458  10.047  -1.787  1.00  0.00     0.049 A 
ATOM     29  C   UNL     1       6.312   7.914  -6.976  1.00  0.00     0.074 A 
ATOM     30  C   UNL     1       8.054  11.290  -1.788  1.00  0.00     0.029 A 
ATOM     31  N   UNL     1       7.175   9.725  -3.112  1.00  0.00    -0.354 N 
ATOM     32  N   UNL     1       6.584   8.516  -5.843  1.00  0.00    -0.248 NA
ATOM     33  C   UNL     1       6.485   8.738  -8.172  1.00  0.00     0.031 C 
ATOM     34  C   UNL     1       8.114  11.730  -3.114  1.00  0.00     0.029 A 
ATOM     35  C   UNL     1       7.599  10.742  -3.944  1.00  0.00     0.049 A 
ATOM     36  H   UNL     1       6.738   8.896  -3.412  1.00  0.00     0.167 HD
ATOM     37  C   UNL     1       7.034   9.774  -6.188  1.00  0.00     0.074 A 
ATOM     38  C   UNL     1       6.945   9.861  -7.638  1.00  0.00     0.031 C 
ATOM     39  C   UNL     1       7.515  10.752  -5.385  1.00  0.00     0.037 A 
BRANCH  26  40
ATOM     40  C   UNL     1       7.452   9.615   0.739  1.00  0.00     0.058 A 
ATOM     41  C   UNL     1       8.405   8.960   1.544  1.00  0.00     0.135 A 
ATOM     42  C   UNL     1       6.676  10.618   1.336  1.00  0.00     0.135 A 
ATOM     43  F   UNL     1       9.160   7.973   1.035  1.00  0.00    -0.206 F 
ATOM     44  C   UNL     1       8.515   9.223   2.904  1.00  0.00     0.059 A 
ATOM     45  C   UNL     1       6.803  10.931   2.687  1.00  0.00     0.059 A 
ATOM     46  F   UNL     1       5.753  11.277   0.619  1.00  0.00    -0.206 F 
ATOM     47  C   UNL     1       7.700  10.204   3.469  1.00  0.00     0.060 A 
BRANCH  47  48
ATOM     48  S   UNL     1       7.830  10.501   5.244  1.00  0.00     0.124 S 
ATOM     49  O   UNL     1       7.117   9.346   5.784  1.00  0.00    -0.237 OA
ATOM     50  O   UNL     1       9.264  10.519   5.458  1.00  0.00    -0.237 OA
ATOM     51  O   UNL     1       7.152  11.790   5.418  1.00  0.00    -0.744 OA
ENDBRANCH  47  48
ENDBRANCH  26  40
BRANCH  27  52
ATOM     52  C   UNL     1       5.425   5.996  -8.517  1.00  0.00     0.058 A 
ATOM     53  C   UNL     1       6.340   5.558  -9.482  1.00  0.00     0.135 A 
ATOM     54  C   UNL     1       4.066   5.866  -8.834  1.00  0.00     0.135 A 
ATOM     55  F   UNL     1       7.657   5.688  -9.264  1.00  0.00    -0.206 F 
ATOM     56  C   UNL     1       5.920   4.985 -10.688  1.00  0.00     0.059 A 
ATOM     57  C   UNL     1       3.615   5.262 -10.005  1.00  0.00     0.059 A 
ATOM     58  F   UNL     1       3.154   6.333  -7.982  1.00  0.00    -0.206 F 
ATOM     59  C   UNL     1       4.553   4.823 -10.931  1.00  0.00     0.060 A 
BRANCH  59  60
ATOM     60  S   UNL     1       4.016   3.996 -12.446  1.00  0.00     0.124 S 
ATOM     61  O   UNL     1       4.340   4.995 -13.459  1.00  0.00    -0.237 OA
ATOM     62  O   UNL     1       4.843   2.794 -12.444  1.00  0.00    -0.237 OA
ATOM     63  O   UNL     1       2.592   3.767 -12.218  1.00  0.00    -0.744 OA
ENDBRANCH  59  60
ENDBRANCH  27  52
BRANCH  39  64
ATOM     64  C   UNL     1       8.114  11.927  -6.078  1.00  0.00     0.058 A 
ATOM     65  C   UNL     1       7.330  12.941  -6.637  1.00  0.00     0.135 A 
ATOM     66  C   UNL     1       9.511  12.058  -6.102  1.00  0.00     0.135 A 
ATOM     67  F   UNL     1       5.992  12.833  -6.656  1.00  0.00    -0.206 F 
ATOM     68  C   UNL     1       7.918  14.065  -7.197  1.00  0.00     0.059 A 
ATOM     69  C   UNL     1      10.118  13.185  -6.628  1.00  0.00     0.059 A 
ATOM     70  F   UNL     1      10.291  11.098  -5.578  1.00  0.00    -0.206 F 
ATOM     71  C   UNL     1       9.311  14.182  -7.174  1.00  0.00     0.060 A 
BRANCH  71  72
ATOM     72  S   UNL     1      10.057  15.689  -7.819  1.00  0.00     0.124 S 
ATOM     73  O   UNL     1       9.897  15.501  -9.256  1.00  0.00    -0.237 OA
ATOM     74  O   UNL     1       9.226  16.727  -7.216  1.00  0.00    -0.237 OA
ATOM     75  O   UNL     1      11.429  15.626  -7.324  1.00  0.00    -0.744 OA
ENDBRANCH  71  72
ENDBRANCH  39  64
ENDBRANCH  13  14
ENDBRANCH   6   8
ENDBRANCH   5   6
ENDBRANCH   4   5
ENDBRANCH   3   4
ENDBRANCH   2   3
ENDBRANCH   1   2
BRANCH   1  76
ATOM     76  C   UNL     1       2.021  -2.776  -1.281  1.00  0.00     0.188 C 
BRANCH  76  77
ATOM     77  O   UNL     1       2.751  -3.882  -1.797  1.00  0.00    -0.376 OA
BRANCH  77  78
ATOM     78  C   UNL     1       4.023  -3.631  -2.374  1.00  0.00     0.202 C 
BRANCH  78  79
ATOM     79  C   UNL     1       4.135  -2.799  -3.659  1.00  0.00     0.261 C 
BRANCH  79  80
ATOM     80  O   UNL     1       3.496  -1.514  -3.731  1.00  0.00    -0.463 OA
BRANCH  80  81
ATOM     81  C   UNL     1       2.264  -1.499  -4.314  1.00  0.00     0.312 C 
ATOM     82  O   UNL     1       1.500  -2.461  -4.309  1.00  0.00    -0.252 OA
BRANCH  81  83
ATOM     83  C   UNL     1       1.927  -0.199  -5.051  1.00  0.00     0.075 C 
ATOM     84  C   UNL     1       3.064   0.848  -4.951  1.00  0.00     0.040 C 
ATOM     85  C   UNL     1       0.557   0.368  -4.482  1.00  0.00     0.040 C 
ATOM     86  C   UNL     1       2.962   1.560  -3.610  1.00  0.00     0.119 C 
ATOM     87  C   UNL     1       0.622   1.403  -3.338  1.00  0.00     0.119 C 
ATOM     88  N   UNL     1       1.712   2.287  -3.655  1.00  0.00    -0.356 N 
BRANCH  83  89
ATOM     89  C   UNL     1       1.687  -0.620  -6.552  1.00  0.00     0.056 C 
BRANCH  89  90
ATOM     90  C   UNL     1       2.902  -1.109  -7.326  1.00  0.00    -0.028 A 
ATOM     91  C   UNL     1       3.648  -0.168  -8.059  1.00  0.00     0.005 A 
ATOM     92  C   UNL     1       3.347  -2.442  -7.345  1.00  0.00     0.044 A 
ATOM     93  C   UNL     1       4.848  -0.520  -8.680  1.00  0.00     0.000 A 
ATOM     94  C   UNL     1       4.593  -2.774  -7.890  1.00  0.00     0.021 A 
ATOM     95  Cl  UNL     1       2.365  -3.769  -6.838  1.00  0.00    -0.084 Cl
ATOM     96  C   UNL     1       5.349  -1.810  -8.548  1.00  0.00     0.002 A 
ENDBRANCH  89  90
ENDBRANCH  83  89
BRANCH  88  97
ATOM     97  C   UNL     1       1.611   3.630  -3.346  1.00  0.00     0.141 A 
ATOM     98  N   UNL     1       1.386   4.016  -2.065  1.00  0.00    -0.219 NA
ATOM     99  C   UNL     1       1.549   4.652  -4.328  1.00  0.00     0.061 A 
ATOM    100  C   UNL     1       1.280   5.336  -1.782  1.00  0.00     0.226 A 
ATOM    101  C   UNL     1       1.454   5.965  -3.879  1.00  0.00     0.142 A 
ATOM    102  C   UNL     1       1.480   4.728  -5.750  1.00  0.00     0.033 A 
ATOM    103  N   UNL     1       1.351   6.383  -2.614  1.00  0.00    -0.218 NA
ATOM    104  N   UNL     1       1.439   6.802  -4.959  1.00  0.00    -0.346 N 
ATOM    105  C   UNL     1       1.294   6.053  -6.094  1.00  0.00     0.085 A 
ATOM    106  H   UNL     1       1.518   7.782  -4.925  1.00  0.00     0.167 HD
ENDBRANCH  88  97
ENDBRANCH  81  83
ENDBRANCH  80  81
ENDBRANCH  79  80
ENDBRANCH  78  79
ENDBRANCH  77  78
ENDBRANCH  76  77
ENDBRANCH   1  76
TORSDOF 23
