REMARK SMILES O=C(OCCOCCOCCOC(=O)c1nccnc1C(=O)Nc1ccc(-n2cncn2)c(Cl)c1)c1ccc(-c2c3nc(c(-c4c(F)cc(S(=O)(=O)[O-])cc4F)c4ccc([nH]4)c(-c4c(F)cc(S(=O)(=O)[O-])cc4F)c4nc(c(-c5c(F)cc(S(=O)(=O)[O-])cc5F)c5ccc2[nH]5)C=C4)C=C3)cc1
REMARK SMILES IDX 7 1 6 2 5 3 4 4 3 5 2 6 1 7 36 8 37 9 101 10 38 11 100 12
REMARK SMILES IDX 39 13 40 14 41 15 94 16 42 17 99 18 93 19 95 20 43 21 98 22
REMARK SMILES IDX 92 23 91 24 44 26 78 27 57 28 77 29 58 30 61 31 76 32 96 33
REMARK SMILES IDX 59 34 60 35 75 37 97 38 62 39 45 40 46 41 55 42 47 43 48 44
REMARK SMILES IDX 54 45 56 46 49 47 50 48 51 49 52 50 53 51 79 52 80 53 89 54
REMARK SMILES IDX 81 55 82 56 88 57 90 58 83 59 84 60 85 61 86 62 87 63 63 64
REMARK SMILES IDX 64 65 73 66 65 67 66 68 72 69 74 70 67 71 68 72 69 73 70 74
REMARK SMILES IDX 71 75 8 76 9 77 10 78 11 79 12 80 13 81 14 82 15 83 16 84
REMARK SMILES IDX 20 85 17 86 19 87 18 88 21 89 22 90 23 91 24 93 25 94 35 95
REMARK SMILES IDX 26 96 33 97 27 98 34 99 28 100 29 101 32 102 30 103 31 104
REMARK H PARENT 95 25 61 36 23 92
REMARK Flexibility Score: inf
ROOT
ATOM      1  C   UNL     1       3.535   0.820  -0.347  1.00  0.00     0.188 C 
ENDROOT
BRANCH   1   2
ATOM      2  O   UNL     1       4.763   0.407   0.247  1.00  0.00    -0.376 OA
BRANCH   2   3
ATOM      3  C   UNL     1       5.447  -0.750  -0.196  1.00  0.00     0.202 C 
BRANCH   3   4
ATOM      4  C   UNL     1       4.811  -2.139  -0.097  1.00  0.00     0.261 C 
BRANCH   4   5
ATOM      5  O   UNL     1       3.453  -2.241  -0.538  1.00  0.00    -0.460 OA
BRANCH   5   6
ATOM      6  C   UNL     1       2.295  -1.939   0.086  1.00  0.00     0.338 C 
ATOM      7  O   UNL     1       1.262  -1.969  -0.582  1.00  0.00    -0.246 OA
BRANCH   6   8
ATOM      8  C   UNL     1       2.198  -1.488   1.505  1.00  0.00     0.060 A 
ATOM      9  C   UNL     1       3.215  -1.566   2.455  1.00  0.00     0.016 A 
ATOM     10  C   UNL     1       0.956  -0.936   1.887  1.00  0.00     0.016 A 
ATOM     11  C   UNL     1       2.941  -1.327   3.782  1.00  0.00     0.010 A 
ATOM     12  C   UNL     1       0.681  -0.659   3.213  1.00  0.00     0.010 A 
ATOM     13  C   UNL     1       1.649  -0.974   4.153  1.00  0.00    -0.014 A 
BRANCH  13  14
ATOM     14  C   UNL     1       1.350  -1.091   5.562  1.00  0.00     0.031 A 
ATOM     15  C   UNL     1       2.074  -0.146   6.439  1.00  0.00     0.074 A 
ATOM     16  C   UNL     1       0.540  -2.078   5.988  1.00  0.00     0.049 A 
ATOM     17  N   UNL     1       3.040  -0.402   7.260  1.00  0.00    -0.248 NA
ATOM     18  C   UNL     1       1.806   1.285   6.252  1.00  0.00     0.031 C 
ATOM     19  C   UNL     1      -0.363  -2.918   5.193  1.00  0.00     0.029 A 
ATOM     20  N   UNL     1       0.296  -2.486   7.257  1.00  0.00    -0.354 N 
ATOM     21  C   UNL     1       3.339   0.810   7.875  1.00  0.00     0.074 A 
ATOM     22  C   UNL     1       2.693   1.827   7.087  1.00  0.00     0.031 C 
ATOM     23  C   UNL     1      -1.223  -3.549   6.020  1.00  0.00     0.029 A 
ATOM     24  C   UNL     1      -0.841  -3.269   7.391  1.00  0.00     0.049 A 
ATOM     25  H   UNL     1       0.875  -2.248   8.017  1.00  0.00     0.167 HD
ATOM     26  C   UNL     1       3.873   0.850   9.127  1.00  0.00     0.037 A 
ATOM     27  C   UNL     1      -1.468  -3.562   8.556  1.00  0.00     0.037 A 
ATOM     28  C   UNL     1       4.512  -0.401   9.460  1.00  0.00     0.049 A 
ATOM     29  C   UNL     1      -0.467  -3.377   9.645  1.00  0.00     0.074 A 
ATOM     30  C   UNL     1       5.548  -1.135   8.914  1.00  0.00     0.029 A 
ATOM     31  N   UNL     1       3.851  -1.262  10.302  1.00  0.00    -0.354 N 
ATOM     32  N   UNL     1       0.592  -4.130   9.790  1.00  0.00    -0.248 NA
ATOM     33  C   UNL     1      -0.384  -2.069  10.280  1.00  0.00     0.031 C 
ATOM     34  C   UNL     1       5.167  -2.498   9.081  1.00  0.00     0.029 A 
ATOM     35  C   UNL     1       3.951  -2.520   9.765  1.00  0.00     0.049 A 
ATOM     36  H   UNL     1       3.390  -1.021  11.138  1.00  0.00     0.167 HD
ATOM     37  C   UNL     1       1.608  -3.260  10.162  1.00  0.00     0.074 A 
ATOM     38  C   UNL     1       0.928  -2.020  10.528  1.00  0.00     0.031 C 
ATOM     39  C   UNL     1       2.917  -3.527   9.871  1.00  0.00     0.037 A 
BRANCH  26  40
ATOM     40  C   UNL     1       3.453   1.853  10.183  1.00  0.00     0.058 A 
ATOM     41  C   UNL     1       4.078   1.814  11.448  1.00  0.00     0.135 A 
ATOM     42  C   UNL     1       2.269   2.623  10.120  1.00  0.00     0.135 A 
ATOM     43  F   UNL     1       5.225   1.139  11.625  1.00  0.00    -0.206 F 
ATOM     44  C   UNL     1       3.501   2.381  12.585  1.00  0.00     0.059 A 
ATOM     45  C   UNL     1       1.703   3.236  11.231  1.00  0.00     0.059 A 
ATOM     46  F   UNL     1       1.541   2.750   9.007  1.00  0.00    -0.206 F 
ATOM     47  C   UNL     1       2.295   3.062  12.468  1.00  0.00     0.060 A 
BRANCH  47  48
ATOM     48  S   UNL     1       1.460   3.655  13.948  1.00  0.00     0.124 S 
ATOM     49  O   UNL     1       1.057   2.400  14.572  1.00  0.00    -0.237 OA
ATOM     50  O   UNL     1       2.524   4.394  14.618  1.00  0.00    -0.237 OA
ATOM     51  O   UNL     1       0.376   4.474  13.415  1.00  0.00    -0.744 OA
ENDBRANCH  47  48
ENDBRANCH  26  40
BRANCH  27  52
ATOM     52  C   UNL     1      -2.938  -3.557   8.777  1.00  0.00     0.058 A 
ATOM     53  C   UNL     1      -3.500  -4.076   9.954  1.00  0.00     0.135 A 
ATOM     54  C   UNL     1      -3.809  -2.811   7.952  1.00  0.00     0.135 A 
ATOM     55  F   UNL     1      -2.740  -4.776  10.811  1.00  0.00    -0.206 F 
ATOM     56  C   UNL     1      -4.833  -3.838  10.312  1.00  0.00     0.059 A 
ATOM     57  C   UNL     1      -5.142  -2.575   8.279  1.00  0.00     0.059 A 
ATOM     58  F   UNL     1      -3.370  -2.208   6.838  1.00  0.00    -0.206 F 
ATOM     59  C   UNL     1      -5.642  -3.071   9.474  1.00  0.00     0.060 A 
BRANCH  59  60
ATOM     60  S   UNL     1      -7.311  -2.622  10.004  1.00  0.00     0.124 S 
ATOM     61  O   UNL     1      -8.003  -3.904   9.936  1.00  0.00    -0.237 OA
ATOM     62  O   UNL     1      -7.077  -2.094  11.344  1.00  0.00    -0.237 OA
ATOM     63  O   UNL     1      -7.730  -1.635   9.012  1.00  0.00    -0.744 OA
ENDBRANCH  59  60
ENDBRANCH  27  52
BRANCH  39  64
ATOM     64  C   UNL     1       3.276  -4.911   9.396  1.00  0.00     0.058 A 
ATOM     65  C   UNL     1       2.839  -5.467   8.180  1.00  0.00     0.135 A 
ATOM     66  C   UNL     1       4.232  -5.636  10.123  1.00  0.00     0.135 A 
ATOM     67  F   UNL     1       2.012  -4.789   7.372  1.00  0.00    -0.206 F 
ATOM     68  C   UNL     1       3.303  -6.705   7.729  1.00  0.00     0.059 A 
ATOM     69  C   UNL     1       4.731  -6.857   9.678  1.00  0.00     0.059 A 
ATOM     70  F   UNL     1       4.740  -5.127  11.259  1.00  0.00    -0.206 F 
ATOM     71  C   UNL     1       4.252  -7.392   8.485  1.00  0.00     0.060 A 
BRANCH  71  72
ATOM     72  S   UNL     1       4.917  -8.951   7.857  1.00  0.00     0.124 S 
ATOM     73  O   UNL     1       3.787  -9.858   8.029  1.00  0.00    -0.237 OA
ATOM     74  O   UNL     1       5.259  -8.617   6.477  1.00  0.00    -0.237 OA
ATOM     75  O   UNL     1       6.062  -9.208   8.727  1.00  0.00    -0.744 OA
ENDBRANCH  71  72
ENDBRANCH  39  64
ENDBRANCH  13  14
ENDBRANCH   6   8
ENDBRANCH   5   6
ENDBRANCH   4   5
ENDBRANCH   3   4
ENDBRANCH   2   3
ENDBRANCH   1   2
BRANCH   1  76
ATOM     76  C   UNL     1       3.227   0.486  -1.813  1.00  0.00     0.188 C 
BRANCH  76  77
ATOM     77  O   UNL     1       3.642   1.462  -2.765  1.00  0.00    -0.376 OA
BRANCH  77  78
ATOM     78  C   UNL     1       5.042   1.625  -2.878  1.00  0.00     0.202 C 
BRANCH  78  79
ATOM     79  C   UNL     1       5.526   2.893  -2.180  1.00  0.00     0.261 C 
BRANCH  79  80
ATOM     80  O   UNL     1       4.546   3.376  -1.241  1.00  0.00    -0.458 OA
BRANCH  80  81
ATOM     81  C   UNL     1       4.293   4.694  -1.254  1.00  0.00     0.359 C 
ATOM     82  O   UNL     1       4.868   5.517  -1.952  1.00  0.00    -0.244 OA
BRANCH  81  83
ATOM     83  C   UNL     1       3.276   5.097  -0.246  1.00  0.00     0.179 A 
ATOM     84  N   UNL     1       3.737   6.157   0.505  1.00  0.00    -0.245 NA
ATOM     85  C   UNL     1       1.970   4.627  -0.103  1.00  0.00     0.161 A 
ATOM     86  C   UNL     1       2.901   6.673   1.428  1.00  0.00     0.132 A 
ATOM     87  N   UNL     1       1.129   5.213   0.819  1.00  0.00    -0.247 NA
ATOM     88  C   UNL     1       1.618   6.208   1.584  1.00  0.00     0.132 A 
BRANCH  85  89
ATOM     89  C   UNL     1       1.304   3.420  -0.662  1.00  0.00     0.276 C 
ATOM     90  O   UNL     1       0.910   2.583   0.165  1.00  0.00    -0.267 OA
ATOM     91  N   UNL     1       0.955   3.146  -1.965  1.00  0.00    -0.321 N 
ATOM     92  H   UNL     1       0.193   2.526  -2.034  1.00  0.00     0.170 HD
BRANCH  91  93
ATOM     93  C   UNL     1       1.441   3.549  -3.211  1.00  0.00     0.043 A 
ATOM     94  C   UNL     1       2.183   4.695  -3.420  1.00  0.00     0.028 A 
ATOM     95  C   UNL     1       1.323   2.606  -4.247  1.00  0.00     0.049 A 
ATOM     96  C   UNL     1       3.040   4.765  -4.518  1.00  0.00     0.032 A 
ATOM     97  C   UNL     1       2.188   2.655  -5.345  1.00  0.00     0.068 A 
ATOM     98  C   UNL     1       3.101   3.704  -5.436  1.00  0.00     0.085 A 
ATOM     99  Cl  UNL     1       2.053   1.419  -6.542  1.00  0.00    -0.082 Cl
BRANCH  98 100
ATOM    100  N   UNL     1       4.212   3.666  -6.302  1.00  0.00    -0.220 N 
ATOM    101  C   UNL     1       4.820   4.740  -6.904  1.00  0.00     0.226 A 
ATOM    102  N   UNL     1       5.070   2.616  -6.306  1.00  0.00    -0.155 NA
ATOM    103  N   UNL     1       6.069   4.462  -7.196  1.00  0.00    -0.223 NA
ATOM    104  C   UNL     1       6.189   3.174  -6.770  1.00  0.00     0.246 A 
ENDBRANCH  98 100
ENDBRANCH  91  93
ENDBRANCH  85  89
ENDBRANCH  81  83
ENDBRANCH  80  81
ENDBRANCH  79  80
ENDBRANCH  78  79
ENDBRANCH  77  78
ENDBRANCH  76  77
ENDBRANCH   1  76
TORSDOF 23
