REMARK SMILES C[C@H](NC(=O)c1c(C(=O)OCCOCCOCCOC(=O)c2ccc(-c3c4nc(c(-c5c(F)cc(S(=O)(=O)[O-])cc5F)c5ccc([nH]5)c(-c5c(F)cc(S(=O)(=O)[O-])cc5F)c5nc(c(-c6c(F)cc(S(=O)(=O)[O-])cc6F)c6ccc3[nH]6)C=C5)C=C4)cc2)cnn1C)[C@]12C[C@H]3C[C@H](C[C@H](C3)C1)C2
REMARK SMILES IDX 14 1 13 2 12 3 11 4 10 5 8 6 9 7 7 8 6 9 90 10 88 11 89 12
REMARK SMILES IDX 91 13 4 14 3 15 5 17 2 18 1 19 92 20 93 21 100 22 101 23
REMARK SMILES IDX 94 24 98 25 96 26 95 27 99 28 97 29 15 30 16 31 17 32 18 33
REMARK SMILES IDX 19 34 20 35 21 36 22 37 23 38 87 39 24 40 86 41 25 42 26 43
REMARK SMILES IDX 27 44 80 45 28 46 85 47 79 48 81 49 29 50 84 51 78 52 77 53
REMARK SMILES IDX 30 55 64 56 43 57 63 58 44 59 47 60 62 61 82 62 45 63 46 64
REMARK SMILES IDX 61 66 83 67 48 68 31 69 32 70 41 71 33 72 34 73 40 74 42 75
REMARK SMILES IDX 35 76 36 77 37 78 38 79 39 80 65 81 66 82 75 83 67 84 68 85
REMARK SMILES IDX 74 86 76 87 69 88 70 89 71 90 72 91 73 92 49 93 50 94 59 95
REMARK SMILES IDX 51 96 52 97 58 98 60 99 53 100 54 101 55 102 56 103 57 104
REMARK H PARENT 3 16 81 54 47 65
REMARK Flexibility Score: inf
ROOT
ATOM      1  C   UNL     1       6.362  -0.162   2.123  1.00  0.00     0.188 C 
ENDROOT
BRANCH   1   2
ATOM      2  O   UNL     1       7.256   0.857   1.687  1.00  0.00    -0.376 OA
BRANCH   2   3
ATOM      3  C   UNL     1       6.798   1.854   0.782  1.00  0.00     0.202 C 
BRANCH   3   4
ATOM      4  C   UNL     1       6.366   1.379  -0.606  1.00  0.00     0.261 C 
BRANCH   4   5
ATOM      5  O   UNL     1       5.234   0.495  -0.550  1.00  0.00    -0.460 OA
BRANCH   5   6
ATOM      6  C   UNL     1       5.401  -0.703  -1.175  1.00  0.00     0.342 C 
ATOM      7  O   UNL     1       6.374  -0.994  -1.861  1.00  0.00    -0.246 OA
BRANCH   6   8
ATOM      8  C   UNL     1       4.397  -1.694  -0.838  1.00  0.00     0.111 A 
ATOM      9  C   UNL     1       3.007  -1.593  -0.708  1.00  0.00     0.140 A 
ATOM     10  N   UNL     1       2.599  -2.908  -0.646  1.00  0.00    -0.262 N 
ATOM     11  C   UNL     1       4.689  -3.052  -0.582  1.00  0.00     0.151 A 
ATOM     12  N   UNL     1       3.591  -3.772  -0.369  1.00  0.00    -0.180 NA
ATOM     13  C   UNL     1       1.338  -3.475  -1.063  1.00  0.00     0.174 C 
BRANCH   9  14
ATOM     14  C   UNL     1       2.173  -0.431  -0.878  1.00  0.00     0.270 C 
ATOM     15  N   UNL     1       1.026  -0.247  -0.140  1.00  0.00    -0.348 N 
ATOM     16  H   UNL     1       0.474   0.503  -0.458  1.00  0.00     0.164 HD
ATOM     17  O   UNL     1       2.446   0.454  -1.689  1.00  0.00    -0.267 OA
BRANCH  15  18
ATOM     18  C   UNL     1       0.452  -0.941   1.027  1.00  0.00     0.085 C 
ATOM     19  C   UNL     1       1.044  -0.344   2.307  1.00  0.00     0.031 C 
BRANCH  18  20
ATOM     20  C   UNL     1      -1.124  -0.934   0.988  1.00  0.00    -0.009 C 
ATOM     21  C   UNL     1      -1.710  -1.834   2.118  1.00  0.00     0.012 C 
ATOM     22  C   UNL     1      -1.636  -1.511  -0.365  1.00  0.00     0.012 C 
ATOM     23  C   UNL     1      -1.728   0.488   1.162  1.00  0.00     0.012 C 
ATOM     24  C   UNL     1      -3.250  -1.875   2.061  1.00  0.00    -0.010 C 
ATOM     25  C   UNL     1      -3.172  -1.542  -0.427  1.00  0.00    -0.010 C 
ATOM     26  C   UNL     1      -3.268   0.451   1.102  1.00  0.00    -0.010 C 
ATOM     27  C   UNL     1      -3.801  -0.451   2.227  1.00  0.00     0.007 C 
ATOM     28  C   UNL     1      -3.700  -2.435   0.705  1.00  0.00     0.007 C 
ATOM     29  C   UNL     1      -3.713  -0.116  -0.254  1.00  0.00     0.007 C 
ENDBRANCH  18  20
ENDBRANCH  15  18
ENDBRANCH   9  14
ENDBRANCH   6   8
ENDBRANCH   5   6
ENDBRANCH   4   5
ENDBRANCH   3   4
ENDBRANCH   2   3
ENDBRANCH   1   2
BRANCH   1  30
ATOM     30  C   UNL     1       4.896   0.196   2.428  1.00  0.00     0.188 C 
BRANCH  30  31
ATOM     31  O   UNL     1       4.678   1.568   2.727  1.00  0.00    -0.376 OA
BRANCH  31  32
ATOM     32  C   UNL     1       4.261   1.856   4.053  1.00  0.00     0.202 C 
BRANCH  32  33
ATOM     33  C   UNL     1       5.416   1.823   5.057  1.00  0.00     0.261 C 
BRANCH  33  34
ATOM     34  O   UNL     1       5.996   0.523   5.253  1.00  0.00    -0.460 OA
BRANCH  34  35
ATOM     35  C   UNL     1       5.187  -0.437   5.754  1.00  0.00     0.338 C 
ATOM     36  O   UNL     1       4.017  -0.323   6.071  1.00  0.00    -0.246 OA
BRANCH  35  37
ATOM     37  C   UNL     1       5.919  -1.716   5.702  1.00  0.00     0.060 A 
ATOM     38  C   UNL     1       5.320  -2.814   5.073  1.00  0.00     0.016 A 
ATOM     39  C   UNL     1       7.186  -1.829   6.280  1.00  0.00     0.016 A 
ATOM     40  C   UNL     1       5.982  -4.043   5.049  1.00  0.00     0.010 A 
ATOM     41  C   UNL     1       7.839  -3.062   6.267  1.00  0.00     0.010 A 
ATOM     42  C   UNL     1       7.229  -4.180   5.675  1.00  0.00    -0.014 A 
BRANCH  42  43
ATOM     43  C   UNL     1       7.835  -5.521   5.851  1.00  0.00     0.031 A 
ATOM     44  C   UNL     1       7.581  -6.262   7.135  1.00  0.00     0.074 A 
ATOM     45  C   UNL     1       8.617  -6.060   4.899  1.00  0.00     0.049 A 
ATOM     46  N   UNL     1       8.048  -7.416   7.532  1.00  0.00    -0.248 NA
ATOM     47  C   UNL     1       6.683  -5.610   8.104  1.00  0.00     0.031 C 
ATOM     48  C   UNL     1       8.929  -5.445   3.609  1.00  0.00     0.029 A 
ATOM     49  N   UNL     1       9.305  -7.247   4.881  1.00  0.00    -0.354 N 
ATOM     50  C   UNL     1       7.505  -7.630   8.792  1.00  0.00     0.074 A 
ATOM     51  C   UNL     1       6.689  -6.478   9.106  1.00  0.00     0.031 C 
ATOM     52  C   UNL     1       9.762  -6.255   2.931  1.00  0.00     0.029 A 
ATOM     53  C   UNL     1      10.059  -7.431   3.746  1.00  0.00     0.049 A 
ATOM     54  H   UNL     1       9.263  -7.905   5.612  1.00  0.00     0.167 HD
ATOM     55  C   UNL     1       7.666  -8.695   9.612  1.00  0.00     0.037 A 
ATOM     56  C   UNL     1      10.905  -8.428   3.416  1.00  0.00     0.037 A 
ATOM     57  C   UNL     1       8.477  -9.841   9.302  1.00  0.00     0.049 A 
ATOM     58  C   UNL     1      11.105  -9.578   4.370  1.00  0.00     0.074 A 
ATOM     59  C   UNL     1       8.677 -10.983  10.058  1.00  0.00     0.029 A 
ATOM     60  N   UNL     1       9.228  -9.989   8.146  1.00  0.00    -0.354 N 
ATOM     61  N   UNL     1      10.549  -9.789   5.540  1.00  0.00    -0.248 NA
ATOM     62  C   UNL     1      12.051 -10.627   3.960  1.00  0.00     0.031 C 
ATOM     63  C   UNL     1       9.578 -11.807   9.375  1.00  0.00     0.029 A 
ATOM     64  C   UNL     1       9.910 -11.193   8.178  1.00  0.00     0.049 A 
ATOM     65  H   UNL     1       9.271  -9.334   7.412  1.00  0.00     0.167 HD
ATOM     66  C   UNL     1      11.054 -11.006   5.988  1.00  0.00     0.074 A 
ATOM     67  C   UNL     1      11.957 -11.488   4.965  1.00  0.00     0.031 C 
ATOM     68  C   UNL     1      10.792 -11.666   7.142  1.00  0.00     0.037 A 
BRANCH  55  69
ATOM     69  C   UNL     1       6.958  -8.666  10.934  1.00  0.00     0.058 A 
ATOM     70  C   UNL     1       5.580  -8.909  11.030  1.00  0.00     0.135 A 
ATOM     71  C   UNL     1       7.673  -8.442  12.120  1.00  0.00     0.135 A 
ATOM     72  F   UNL     1       4.848  -9.108   9.922  1.00  0.00    -0.206 F 
ATOM     73  C   UNL     1       4.931  -8.922  12.260  1.00  0.00     0.059 A 
ATOM     74  C   UNL     1       7.048  -8.469  13.363  1.00  0.00     0.059 A 
ATOM     75  F   UNL     1       8.992  -8.197  12.078  1.00  0.00    -0.206 F 
ATOM     76  C   UNL     1       5.674  -8.701  13.421  1.00  0.00     0.060 A 
BRANCH  76  77
ATOM     77  S   UNL     1       4.824  -8.744  15.013  1.00  0.00     0.124 S 
ATOM     78  O   UNL     1       4.125  -7.462  15.003  1.00  0.00    -0.237 OA
ATOM     79  O   UNL     1       3.978  -9.926  14.886  1.00  0.00    -0.237 OA
ATOM     80  O   UNL     1       5.913  -8.857  15.977  1.00  0.00    -0.744 OA
ENDBRANCH  76  77
ENDBRANCH  55  69
BRANCH  56  81
ATOM     81  C   UNL     1      11.648  -8.388   2.130  1.00  0.00     0.058 A 
ATOM     82  C   UNL     1      11.346  -9.281   1.092  1.00  0.00     0.135 A 
ATOM     83  C   UNL     1      12.705  -7.486   1.932  1.00  0.00     0.135 A 
ATOM     84  F   UNL     1      10.352 -10.170   1.241  1.00  0.00    -0.206 F 
ATOM     85  C   UNL     1      12.083  -9.303  -0.088  1.00  0.00     0.059 A 
ATOM     86  C   UNL     1      13.443  -7.473   0.752  1.00  0.00     0.059 A 
ATOM     87  F   UNL     1      13.027  -6.606   2.892  1.00  0.00    -0.206 F 
ATOM     88  C   UNL     1      13.135  -8.398  -0.245  1.00  0.00     0.060 A 
BRANCH  88  89
ATOM     89  S   UNL     1      14.085  -8.424  -1.782  1.00  0.00     0.124 S 
ATOM     90  O   UNL     1      14.959  -9.571  -1.565  1.00  0.00    -0.237 OA
ATOM     91  O   UNL     1      13.043  -8.597  -2.789  1.00  0.00    -0.237 OA
ATOM     92  O   UNL     1      14.742  -7.120  -1.788  1.00  0.00    -0.744 OA
ENDBRANCH  88  89
ENDBRANCH  56  81
BRANCH  68  93
ATOM     93  C   UNL     1      11.455 -12.999   7.348  1.00  0.00     0.058 A 
ATOM     94  C   UNL     1      12.808 -13.100   7.704  1.00  0.00     0.135 A 
ATOM     95  C   UNL     1      10.710 -14.185   7.247  1.00  0.00     0.135 A 
ATOM     96  F   UNL     1      13.563 -11.995   7.809  1.00  0.00    -0.206 F 
ATOM     97  C   UNL     1      13.405 -14.335   7.939  1.00  0.00     0.059 A 
ATOM     98  C   UNL     1      11.281 -15.428   7.498  1.00  0.00     0.059 A 
ATOM     99  F   UNL     1       9.408 -14.140   6.921  1.00  0.00    -0.206 F 
ATOM    100  C   UNL     1      12.633 -15.494   7.834  1.00  0.00     0.060 A 
BRANCH 100 101
ATOM    101  S   UNL     1      13.405 -17.089   8.182  1.00  0.00     0.124 S 
ATOM    102  O   UNL     1      14.137 -17.337   6.945  1.00  0.00    -0.237 OA
ATOM    103  O   UNL     1      14.223 -16.796   9.355  1.00  0.00    -0.237 OA
ATOM    104  O   UNL     1      12.266 -17.969   8.426  1.00  0.00    -0.744 OA
ENDBRANCH 100 101
ENDBRANCH  68  93
ENDBRANCH  42  43
ENDBRANCH  35  37
ENDBRANCH  34  35
ENDBRANCH  33  34
ENDBRANCH  32  33
ENDBRANCH  31  32
ENDBRANCH  30  31
ENDBRANCH   1  30
TORSDOF 23
