REMARK SMILES O=C(CSc1nc(-c2cccc(F)c2)n[nH]1)OCCOCCOCCOC(=O)c1ccc(-c2c3nc(c(-c4c(F)cc(S(=O)(=O)[O-])cc4F)c4ccc([nH]4)c(-c4c(F)cc(S(=O)(=O)[O-])cc4F)c4nc(c(-c5c(F)cc(S(=O)(=O)[O-])cc5F)c5ccc2[nH]5)C=C4)C=C3)cc1
REMARK SMILES IDX 21 1 20 2 19 3 18 4 17 5 2 6 1 7 3 8 4 9 5 10 6 11 16 12
REMARK SMILES IDX 7 13 15 14 8 16 9 17 14 18 10 19 12 20 11 21 13 22 22 23
REMARK SMILES IDX 23 24 24 25 25 26 26 27 27 28 28 29 29 30 30 31 94 32 31 33
REMARK SMILES IDX 93 34 32 35 33 36 34 37 87 38 35 39 92 40 86 41 88 42 36 43
REMARK SMILES IDX 91 44 85 45 84 46 37 48 71 49 50 50 70 51 51 52 54 53 69 54
REMARK SMILES IDX 89 55 52 56 53 57 68 59 90 60 55 61 38 62 39 63 48 64 40 65
REMARK SMILES IDX 41 66 47 67 49 68 42 69 43 70 44 71 45 72 46 73 72 74 73 75
REMARK SMILES IDX 82 76 74 77 75 78 81 79 83 80 76 81 77 82 78 83 79 84 80 85
REMARK SMILES IDX 56 86 57 87 66 88 58 89 59 90 65 91 67 92 60 93 61 94 62 95
REMARK SMILES IDX 63 96 64 97
REMARK H PARENT 16 15 88 47 54 58
REMARK Flexibility Score: inf
ROOT
ATOM      1  C   UNL     1       3.193   1.836   0.526  1.00  0.00     0.188 C 
ENDROOT
BRANCH   1   2
ATOM      2  O   UNL     1       4.455   1.616  -0.080  1.00  0.00    -0.376 OA
BRANCH   2   3
ATOM      3  C   UNL     1       5.061   0.359   0.154  1.00  0.00     0.202 C 
BRANCH   3   4
ATOM      4  C   UNL     1       4.640  -0.623  -0.934  1.00  0.00     0.261 C 
BRANCH   4   5
ATOM      5  O   UNL     1       3.232  -0.951  -0.972  1.00  0.00    -0.463 OA
BRANCH   5   6
ATOM      6  C   UNL     1       2.457  -1.455   0.013  1.00  0.00     0.316 C 
ATOM      7  O   UNL     1       1.232  -1.384  -0.108  1.00  0.00    -0.251 OA
BRANCH   6   8
ATOM      8  C   UNL     1       3.071  -1.956   1.300  1.00  0.00     0.200 C 
BRANCH   8   9
ATOM      9  S   UNL     1       4.342  -3.241   1.095  1.00  0.00    -0.075 SA
BRANCH   9  10
ATOM     10  C   UNL     1       3.316  -4.481   0.501  1.00  0.00     0.184 A 
ATOM     11  N   UNL     1       2.294  -4.307  -0.289  1.00  0.00    -0.201 NA
ATOM     12  N   UNL     1       3.323  -5.744   0.991  1.00  0.00    -0.254 N 
ATOM     13  C   UNL     1       1.590  -5.476  -0.142  1.00  0.00     0.182 A 
ATOM     14  N   UNL     1       2.226  -6.410   0.586  1.00  0.00    -0.153 NA
ATOM     15  H   UNL     1       4.030  -6.121   1.563  1.00  0.00     0.192 HD
BRANCH  13  16
ATOM     16  C   UNL     1       0.226  -5.591  -0.630  1.00  0.00     0.024 A 
ATOM     17  C   UNL     1      -0.182  -4.877  -1.768  1.00  0.00     0.012 A 
ATOM     18  C   UNL     1      -0.714  -6.345   0.081  1.00  0.00     0.051 A 
ATOM     19  C   UNL     1      -1.508  -4.933  -2.204  1.00  0.00     0.004 A 
ATOM     20  C   UNL     1      -2.033  -6.380  -0.353  1.00  0.00     0.123 A 
ATOM     21  C   UNL     1      -2.437  -5.689  -1.491  1.00  0.00     0.039 A 
ATOM     22  F   UNL     1      -2.937  -7.084   0.341  1.00  0.00    -0.207 F 
ENDBRANCH  13  16
ENDBRANCH   9  10
ENDBRANCH   8   9
ENDBRANCH   6   8
ENDBRANCH   5   6
ENDBRANCH   4   5
ENDBRANCH   3   4
ENDBRANCH   2   3
ENDBRANCH   1   2
BRANCH   1  23
ATOM     23  C   UNL     1       2.426   2.985  -0.149  1.00  0.00     0.188 C 
BRANCH  23  24
ATOM     24  O   UNL     1       3.123   3.872  -1.017  1.00  0.00    -0.376 OA
BRANCH  24  25
ATOM     25  C   UNL     1       4.403   4.359  -0.635  1.00  0.00     0.202 C 
BRANCH  25  26
ATOM     26  C   UNL     1       4.495   5.168   0.661  1.00  0.00     0.261 C 
BRANCH  26  27
ATOM     27  O   UNL     1       4.126   4.434   1.845  1.00  0.00    -0.460 OA
BRANCH  27  28
ATOM     28  C   UNL     1       3.046   4.927   2.501  1.00  0.00     0.338 C 
ATOM     29  O   UNL     1       2.365   5.886   2.179  1.00  0.00    -0.246 OA
BRANCH  28  30
ATOM     30  C   UNL     1       2.692   4.081   3.657  1.00  0.00     0.060 A 
ATOM     31  C   UNL     1       1.418   3.500   3.682  1.00  0.00     0.016 A 
ATOM     32  C   UNL     1       3.524   4.012   4.777  1.00  0.00     0.016 A 
ATOM     33  C   UNL     1       0.946   2.901   4.851  1.00  0.00     0.010 A 
ATOM     34  C   UNL     1       3.043   3.422   5.953  1.00  0.00     0.010 A 
ATOM     35  C   UNL     1       1.735   2.905   6.010  1.00  0.00    -0.014 A 
BRANCH  35  36
ATOM     36  C   UNL     1       1.126   2.544   7.316  1.00  0.00     0.031 A 
ATOM     37  C   UNL     1       0.598   3.642   8.203  1.00  0.00     0.074 A 
ATOM     38  C   UNL     1       0.999   1.260   7.698  1.00  0.00     0.049 A 
ATOM     39  N   UNL     1       0.055   3.560   9.390  1.00  0.00    -0.248 NA
ATOM     40  C   UNL     1       0.690   5.013   7.676  1.00  0.00     0.031 C 
ATOM     41  C   UNL     1       1.411   0.101   6.911  1.00  0.00     0.029 A 
ATOM     42  N   UNL     1       0.482   0.721   8.851  1.00  0.00    -0.354 N 
ATOM     43  C   UNL     1      -0.268   4.864   9.750  1.00  0.00     0.074 A 
ATOM     44  C   UNL     1       0.172   5.721   8.670  1.00  0.00     0.031 C 
ATOM     45  C   UNL     1       1.131  -1.017   7.605  1.00  0.00     0.029 A 
ATOM     46  C   UNL     1       0.548  -0.651   8.896  1.00  0.00     0.049 A 
ATOM     47  H   UNL     1       0.100   1.266   9.576  1.00  0.00     0.167 HD
ATOM     48  C   UNL     1      -0.885   5.308  10.871  1.00  0.00     0.037 A 
ATOM     49  C   UNL     1       0.193  -1.512   9.872  1.00  0.00     0.037 A 
ATOM     50  C   UNL     1      -1.315   4.462  11.953  1.00  0.00     0.049 A 
ATOM     51  C   UNL     1      -0.404  -0.990  11.152  1.00  0.00     0.074 A 
ATOM     52  C   UNL     1      -1.931   4.828  13.138  1.00  0.00     0.029 A 
ATOM     53  N   UNL     1      -1.173   3.084  11.986  1.00  0.00    -0.354 N 
ATOM     54  N   UNL     1      -0.683   0.247  11.487  1.00  0.00    -0.248 NA
ATOM     55  C   UNL     1      -0.731  -1.980  12.189  1.00  0.00     0.031 C 
ATOM     56  C   UNL     1      -2.129   3.674  13.903  1.00  0.00     0.029 A 
ATOM     57  C   UNL     1      -1.675   2.584  13.177  1.00  0.00     0.049 A 
ATOM     58  H   UNL     1      -0.775   2.539  11.269  1.00  0.00     0.167 HD
ATOM     59  C   UNL     1      -1.239   0.181  12.761  1.00  0.00     0.074 A 
ATOM     60  C   UNL     1      -1.261  -1.217  13.136  1.00  0.00     0.031 C 
ATOM     61  C   UNL     1      -1.694   1.190  13.545  1.00  0.00     0.037 A 
BRANCH  48  62
ATOM     62  C   UNL     1      -1.122   6.787  10.991  1.00  0.00     0.058 A 
ATOM     63  C   UNL     1      -0.369   7.561  11.887  1.00  0.00     0.135 A 
ATOM     64  C   UNL     1      -2.120   7.432  10.243  1.00  0.00     0.135 A 
ATOM     65  F   UNL     1       0.603   6.995  12.620  1.00  0.00    -0.206 F 
ATOM     66  C   UNL     1      -0.603   8.923  12.045  1.00  0.00     0.059 A 
ATOM     67  C   UNL     1      -2.357   8.798  10.369  1.00  0.00     0.059 A 
ATOM     68  F   UNL     1      -2.851   6.740   9.355  1.00  0.00    -0.206 F 
ATOM     69  C   UNL     1      -1.599   9.533  11.281  1.00  0.00     0.060 A 
BRANCH  69  70
ATOM     70  S   UNL     1      -1.856  11.311  11.459  1.00  0.00     0.124 S 
ATOM     71  O   UNL     1      -2.502  11.392  12.764  1.00  0.00    -0.237 OA
ATOM     72  O   UNL     1      -0.491  11.827  11.391  1.00  0.00    -0.237 OA
ATOM     73  O   UNL     1      -2.699  11.647  10.315  1.00  0.00    -0.744 OA
ENDBRANCH  69  70
ENDBRANCH  48  62
BRANCH  49  74
ATOM     74  C   UNL     1       0.394  -2.971   9.670  1.00  0.00     0.058 A 
ATOM     75  C   UNL     1       1.681  -3.530   9.660  1.00  0.00     0.135 A 
ATOM     76  C   UNL     1      -0.695  -3.828   9.455  1.00  0.00     0.135 A 
ATOM     77  F   UNL     1       2.756  -2.752   9.860  1.00  0.00    -0.206 F 
ATOM     78  C   UNL     1       1.883  -4.882   9.411  1.00  0.00     0.059 A 
ATOM     79  C   UNL     1      -0.519  -5.189   9.224  1.00  0.00     0.059 A 
ATOM     80  F   UNL     1      -1.945  -3.339   9.478  1.00  0.00    -0.206 F 
ATOM     81  C   UNL     1       0.777  -5.702   9.183  1.00  0.00     0.060 A 
BRANCH  81  82
ATOM     82  S   UNL     1       1.069  -7.446   8.818  1.00  0.00     0.124 S 
ATOM     83  O   UNL     1       1.671  -7.364   7.490  1.00  0.00    -0.237 OA
ATOM     84  O   UNL     1       1.968  -7.838   9.898  1.00  0.00    -0.237 OA
ATOM     85  O   UNL     1      -0.266  -8.030   8.869  1.00  0.00    -0.744 OA
ENDBRANCH  81  82
ENDBRANCH  49  74
BRANCH  61  86
ATOM     86  C   UNL     1      -2.276   0.834  14.884  1.00  0.00     0.058 A 
ATOM     87  C   UNL     1      -3.659   0.936  15.110  1.00  0.00     0.135 A 
ATOM     88  C   UNL     1      -1.461   0.469  15.967  1.00  0.00     0.135 A 
ATOM     89  F   UNL     1      -4.483   1.286  14.110  1.00  0.00    -0.206 F 
ATOM     90  C   UNL     1      -4.211   0.707  16.366  1.00  0.00     0.059 A 
ATOM     91  C   UNL     1      -1.995   0.213  17.228  1.00  0.00     0.059 A 
ATOM     92  F   UNL     1      -0.135   0.346  15.801  1.00  0.00    -0.206 F 
ATOM     93  C   UNL     1      -3.370   0.352  17.421  1.00  0.00     0.060 A 
BRANCH  93  94
ATOM     94  S   UNL     1      -4.102   0.049  19.044  1.00  0.00     0.124 S 
ATOM     95  O   UNL     1      -4.435   1.401  19.479  1.00  0.00    -0.237 OA
ATOM     96  O   UNL     1      -5.235  -0.811  18.718  1.00  0.00    -0.237 OA
ATOM     97  O   UNL     1      -3.025  -0.602  19.785  1.00  0.00    -0.744 OA
ENDBRANCH  93  94
ENDBRANCH  61  86
ENDBRANCH  35  36
ENDBRANCH  28  30
ENDBRANCH  27  28
ENDBRANCH  26  27
ENDBRANCH  25  26
ENDBRANCH  24  25
ENDBRANCH  23  24
ENDBRANCH   1  23
TORSDOF 23
