REMARK SMILES CCC(CC)(NC(=O)N[C@H](C)C1CC1)C(=O)OCCOCCOCCOC(=O)c1ccc(-c2c3nc(c(-c4c(F)cc(S(=O)(=O)[O-])cc4F)c4ccc([nH]4)c(-c4c(F)cc(S(=O)(=O)[O-])cc4F)c4nc(c(-c5c(F)cc(S(=O)(=O)[O-])cc5F)c5ccc2[nH]5)C=C4)C=C3)cc1
REMARK SMILES IDX 21 1 20 2 19 3 18 4 17 5 15 6 16 7 3 8 2 9 1 10 4 11 5 12
REMARK SMILES IDX 6 13 7 14 8 16 9 17 10 19 11 20 12 21 13 22 14 23 22 24
REMARK SMILES IDX 23 25 24 26 25 27 26 28 27 29 28 30 29 31 30 32 94 33 31 34
REMARK SMILES IDX 93 35 32 36 33 37 34 38 87 39 35 40 92 41 86 42 88 43 36 44
REMARK SMILES IDX 91 45 85 46 84 47 37 49 71 50 50 51 70 52 51 53 54 54 69 55
REMARK SMILES IDX 89 56 52 57 53 58 68 60 90 61 55 62 38 63 39 64 48 65 40 66
REMARK SMILES IDX 41 67 47 68 49 69 42 70 43 71 44 72 45 73 46 74 72 75 73 76
REMARK SMILES IDX 82 77 74 78 75 79 81 80 83 81 76 82 77 83 78 84 79 85 80 86
REMARK SMILES IDX 56 87 57 88 66 89 58 90 59 91 65 92 67 93 60 94 61 95 62 96
REMARK SMILES IDX 63 97 64 98
REMARK H PARENT 6 15 9 18 88 48 54 59
REMARK Flexibility Score: inf
ROOT
ATOM      1  C   UNL     1       4.567   0.333   3.409  1.00  0.00     0.188 C 
ENDROOT
BRANCH   1   2
ATOM      2  O   UNL     1       3.380   1.160   3.388  1.00  0.00    -0.376 OA
BRANCH   2   3
ATOM      3  C   UNL     1       2.086   0.524   3.472  1.00  0.00     0.202 C 
BRANCH   3   4
ATOM      4  C   UNL     1       0.888   1.336   2.838  1.00  0.00     0.261 C 
BRANCH   4   5
ATOM      5  O   UNL     1       1.201   2.704   2.512  1.00  0.00    -0.461 OA
BRANCH   5   6
ATOM      6  C   UNL     1       0.662   3.773   3.118  1.00  0.00     0.331 C 
ATOM      7  O   UNL     1      -0.258   3.667   3.922  1.00  0.00    -0.249 OA
BRANCH   6   8
ATOM      8  C   UNL     1       1.518   5.110   2.868  1.00  0.00     0.139 C 
BRANCH   8   9
ATOM      9  C   UNL     1       2.562   5.287   4.065  1.00  0.00     0.037 C 
ATOM     10  C   UNL     1       2.173   4.595   5.378  1.00  0.00     0.007 C 
ENDBRANCH   8   9
BRANCH   8  11
ATOM     11  C   UNL     1       0.441   6.272   3.018  1.00  0.00     0.037 C 
ATOM     12  C   UNL     1       0.950   7.646   3.470  1.00  0.00     0.007 C 
ENDBRANCH   8  11
BRANCH   8  13
ATOM     13  N   UNL     1       2.146   5.385   1.414  1.00  0.00    -0.322 N 
ATOM     14  C   UNL     1       2.855   5.020   0.318  1.00  0.00     0.315 C 
ATOM     15  H   UNL     1       1.869   6.308   1.213  1.00  0.00     0.166 HD
ATOM     16  O   UNL     1       3.074   5.928  -0.495  1.00  0.00    -0.249 OA
ATOM     17  N   UNL     1       3.344   3.795  -0.015  1.00  0.00    -0.335 N 
ATOM     18  H   UNL     1       3.648   3.664  -0.942  1.00  0.00     0.165 HD
BRANCH  17  19
ATOM     19  C   UNL     1       3.451   2.687   0.875  1.00  0.00     0.083 C 
ATOM     20  C   UNL     1       4.055   3.273   2.137  1.00  0.00     0.031 C 
BRANCH  19  21
ATOM     21  C   UNL     1       3.670   1.215   0.502  1.00  0.00     0.011 C 
ATOM     22  C   UNL     1       3.586   0.570  -0.856  1.00  0.00     0.006 C 
ATOM     23  C   UNL     1       4.814   0.350  -0.025  1.00  0.00     0.006 C 
ENDBRANCH  19  21
ENDBRANCH  17  19
ENDBRANCH   8  13
ENDBRANCH   6   8
ENDBRANCH   5   6
ENDBRANCH   4   5
ENDBRANCH   3   4
ENDBRANCH   2   3
ENDBRANCH   1   2
BRANCH   1  24
ATOM     24  C   UNL     1       6.055   0.857   2.889  1.00  0.00     0.188 C 
BRANCH  24  25
ATOM     25  O   UNL     1       6.409   2.124   2.320  1.00  0.00    -0.376 OA
BRANCH  25  26
ATOM     26  C   UNL     1       6.697   2.497   0.968  1.00  0.00     0.202 C 
BRANCH  26  27
ATOM     27  C   UNL     1       7.966   1.967   0.282  1.00  0.00     0.261 C 
BRANCH  27  28
ATOM     28  O   UNL     1       9.107   2.000   1.131  1.00  0.00    -0.460 OA
BRANCH  28  29
ATOM     29  C   UNL     1       9.220   3.192   1.782  1.00  0.00     0.338 C 
ATOM     30  O   UNL     1       9.177   4.280   1.282  1.00  0.00    -0.246 OA
BRANCH  29  31
ATOM     31  C   UNL     1       9.074   2.881   3.226  1.00  0.00     0.060 A 
ATOM     32  C   UNL     1       8.465   3.841   4.042  1.00  0.00     0.016 A 
ATOM     33  C   UNL     1       9.418   1.617   3.726  1.00  0.00     0.016 A 
ATOM     34  C   UNL     1       8.305   3.579   5.396  1.00  0.00     0.010 A 
ATOM     35  C   UNL     1       9.238   1.343   5.071  1.00  0.00     0.010 A 
ATOM     36  C   UNL     1       8.764   2.360   5.913  1.00  0.00    -0.014 A 
BRANCH  36  37
ATOM     37  C   UNL     1       9.146   2.292   7.333  1.00  0.00     0.031 A 
ATOM     38  C   UNL     1      10.579   2.624   7.648  1.00  0.00     0.074 A 
ATOM     39  C   UNL     1       8.270   1.947   8.285  1.00  0.00     0.049 A 
ATOM     40  N   UNL     1      11.206   2.595   8.791  1.00  0.00    -0.248 NA
ATOM     41  C   UNL     1      11.427   3.027   6.509  1.00  0.00     0.031 C 
ATOM     42  C   UNL     1       6.858   1.633   8.073  1.00  0.00     0.029 A 
ATOM     43  N   UNL     1       8.457   1.797   9.632  1.00  0.00    -0.354 N 
ATOM     44  C   UNL     1      12.511   2.976   8.505  1.00  0.00     0.074 A 
ATOM     45  C   UNL     1      12.608   3.175   7.080  1.00  0.00     0.031 C 
ATOM     46  C   UNL     1       6.305   1.318   9.259  1.00  0.00     0.029 A 
ATOM     47  C   UNL     1       7.331   1.387  10.299  1.00  0.00     0.049 A 
ATOM     48  H   UNL     1       9.317   1.967  10.079  1.00  0.00     0.167 HD
ATOM     49  C   UNL     1      13.539   3.164   9.361  1.00  0.00     0.037 A 
ATOM     50  C   UNL     1       7.170   1.095  11.603  1.00  0.00     0.037 A 
ATOM     51  C   UNL     1      13.431   2.954  10.774  1.00  0.00     0.049 A 
ATOM     52  C   UNL     1       8.348   1.244  12.533  1.00  0.00     0.074 A 
ATOM     53  C   UNL     1      14.399   3.117  11.745  1.00  0.00     0.029 A 
ATOM     54  N   UNL     1      12.278   2.521  11.415  1.00  0.00    -0.354 N 
ATOM     55  N   UNL     1       9.571   1.640  12.263  1.00  0.00    -0.248 NA
ATOM     56  C   UNL     1       8.123   0.911  13.946  1.00  0.00     0.031 C 
ATOM     57  C   UNL     1      13.845   2.735  12.971  1.00  0.00     0.029 A 
ATOM     58  C   UNL     1      12.517   2.386  12.769  1.00  0.00     0.049 A 
ATOM     59  H   UNL     1      11.419   2.338  10.971  1.00  0.00     0.167 HD
ATOM     60  C   UNL     1      10.252   1.634  13.477  1.00  0.00     0.074 A 
ATOM     61  C   UNL     1       9.302   1.200  14.482  1.00  0.00     0.031 C 
ATOM     62  C   UNL     1      11.542   1.960  13.743  1.00  0.00     0.037 A 
BRANCH  49  63
ATOM     63  C   UNL     1      14.851   3.586   8.770  1.00  0.00     0.058 A 
ATOM     64  C   UNL     1      15.038   4.867   8.224  1.00  0.00     0.135 A 
ATOM     65  C   UNL     1      15.926   2.686   8.716  1.00  0.00     0.135 A 
ATOM     66  F   UNL     1      14.029   5.754   8.217  1.00  0.00    -0.206 F 
ATOM     67  C   UNL     1      16.235   5.231   7.618  1.00  0.00     0.059 A 
ATOM     68  C   UNL     1      17.142   3.039   8.141  1.00  0.00     0.059 A 
ATOM     69  F   UNL     1      15.793   1.444   9.206  1.00  0.00    -0.206 F 
ATOM     70  C   UNL     1      17.281   4.308   7.580  1.00  0.00     0.060 A 
BRANCH  70  71
ATOM     71  S   UNL     1      18.828   4.789   6.785  1.00  0.00     0.124 S 
ATOM     72  O   UNL     1      18.454   4.751   5.374  1.00  0.00    -0.237 OA
ATOM     73  O   UNL     1      19.065   6.117   7.342  1.00  0.00    -0.237 OA
ATOM     74  O   UNL     1      19.765   3.756   7.213  1.00  0.00    -0.744 OA
ENDBRANCH  70  71
ENDBRANCH  49  63
BRANCH  50  75
ATOM     75  C   UNL     1       5.847   0.641  12.104  1.00  0.00     0.058 A 
ATOM     76  C   UNL     1       5.072   1.459  12.939  1.00  0.00     0.135 A 
ATOM     77  C   UNL     1       5.330  -0.617  11.757  1.00  0.00     0.135 A 
ATOM     78  F   UNL     1       5.527   2.667  13.304  1.00  0.00    -0.206 F 
ATOM     79  C   UNL     1       3.838   1.040  13.427  1.00  0.00     0.059 A 
ATOM     80  C   UNL     1       4.089  -1.048  12.214  1.00  0.00     0.059 A 
ATOM     81  F   UNL     1       6.027  -1.431  10.949  1.00  0.00    -0.206 F 
ATOM     82  C   UNL     1       3.355  -0.216  13.057  1.00  0.00     0.060 A 
BRANCH  82  83
ATOM     83  S   UNL     1       1.733  -0.732  13.661  1.00  0.00     0.124 S 
ATOM     84  O   UNL     1       2.014  -0.997  15.067  1.00  0.00    -0.237 OA
ATOM     85  O   UNL     1       0.915   0.444  13.382  1.00  0.00    -0.237 OA
ATOM     86  O   UNL     1       1.430  -1.905  12.845  1.00  0.00    -0.744 OA
ENDBRANCH  82  83
ENDBRANCH  50  75
BRANCH  62  87
ATOM     87  C   UNL     1      11.995   1.896  15.175  1.00  0.00     0.058 A 
ATOM     88  C   UNL     1      12.218   0.673  15.823  1.00  0.00     0.135 A 
ATOM     89  C   UNL     1      12.287   3.077  15.876  1.00  0.00     0.135 A 
ATOM     90  F   UNL     1      11.952  -0.484  15.196  1.00  0.00    -0.206 F 
ATOM     91  C   UNL     1      12.697   0.622  17.128  1.00  0.00     0.059 A 
ATOM     92  C   UNL     1      12.795   3.050  17.170  1.00  0.00     0.059 A 
ATOM     93  F   UNL     1      12.107   4.273  15.293  1.00  0.00    -0.206 F 
ATOM     94  C   UNL     1      12.987   1.817  17.791  1.00  0.00     0.060 A 
BRANCH  94  95
ATOM     95  S   UNL     1      13.650   1.736  19.467  1.00  0.00     0.124 S 
ATOM     96  O   UNL     1      12.466   1.363  20.233  1.00  0.00    -0.237 OA
ATOM     97  O   UNL     1      14.679   0.707  19.347  1.00  0.00    -0.237 OA
ATOM     98  O   UNL     1      14.150   3.088  19.701  1.00  0.00    -0.744 OA
ENDBRANCH  94  95
ENDBRANCH  62  87
ENDBRANCH  36  37
ENDBRANCH  29  31
ENDBRANCH  28  29
ENDBRANCH  27  28
ENDBRANCH  26  27
ENDBRANCH  25  26
ENDBRANCH  24  25
ENDBRANCH   1  24
TORSDOF 25
