REMARK SMILES CCC1CN(c2cc(F)ccc2C(=O)OCCOCCOCCOC(=O)c2ccc(-c3c4nc(c(-c5c(F)cc(S(=O)(=O)[O-])cc5F)c5ccc([nH]5)c(-c5c(F)cc(S(=O)(=O)[O-])cc5F)c5nc(c(-c6c(F)cc(S(=O)(=O)[O-])cc6F)c6ccc3[nH]6)C=C5)C=C4)cc2)C1
REMARK SMILES IDX 20 1 19 2 18 3 17 4 16 5 15 6 13 7 14 8 12 9 6 10 7 11 8 12
REMARK SMILES IDX 11 13 9 14 10 15 5 16 3 17 4 18 93 19 2 20 1 21 21 22 22 23
REMARK SMILES IDX 23 24 24 25 25 26 26 27 27 28 28 29 92 30 29 31 91 32 30 33
REMARK SMILES IDX 31 34 32 35 85 36 33 37 90 38 84 39 86 40 34 41 89 42 83 43
REMARK SMILES IDX 82 44 35 46 69 47 48 48 68 49 49 50 52 51 67 52 87 53 50 54
REMARK SMILES IDX 51 55 66 57 88 58 53 59 36 60 37 61 46 62 38 63 39 64 45 65
REMARK SMILES IDX 47 66 40 67 41 68 42 69 43 70 44 71 70 72 71 73 80 74 72 75
REMARK SMILES IDX 73 76 79 77 81 78 74 79 75 80 76 81 77 82 78 83 54 84 55 85
REMARK SMILES IDX 64 86 56 87 57 88 63 89 65 90 58 91 59 92 60 93 61 94 62 95
REMARK H PARENT 86 45 52 56
REMARK Flexibility Score: inf
ROOT
ATOM      1  C   UNL     1      -2.923  -3.776   4.427  1.00  0.00     0.188 C 
ENDROOT
BRANCH   1   2
ATOM      2  C   UNL     1      -3.814  -2.915   5.350  1.00  0.00     0.188 C 
BRANCH   2   3
ATOM      3  O   UNL     1      -4.823  -2.097   4.774  1.00  0.00    -0.376 OA
BRANCH   3   4
ATOM      4  C   UNL     1      -4.455  -1.110   3.817  1.00  0.00     0.202 C 
BRANCH   4   5
ATOM      5  C   UNL     1      -3.186  -0.264   4.010  1.00  0.00     0.261 C 
BRANCH   5   6
ATOM      6  O   UNL     1      -2.021  -1.036   4.330  1.00  0.00    -0.460 OA
BRANCH   6   7
ATOM      7  C   UNL     1      -1.266  -0.601   5.369  1.00  0.00     0.340 C 
ATOM      8  O   UNL     1      -1.444   0.417   6.016  1.00  0.00    -0.246 OA
BRANCH   7   9
ATOM      9  C   UNL     1      -0.300  -1.652   5.771  1.00  0.00     0.083 A 
ATOM     10  C   UNL     1       0.585  -2.298   4.884  1.00  0.00     0.054 A 
ATOM     11  C   UNL     1       1.386  -3.333   5.407  1.00  0.00     0.066 A 
ATOM     12  C   UNL     1       1.308  -3.707   6.745  1.00  0.00     0.125 A 
ATOM     13  C   UNL     1      -0.387  -2.060   7.121  1.00  0.00     0.021 A 
ATOM     14  F   UNL     1       2.114  -4.672   7.205  1.00  0.00    -0.207 F 
ATOM     15  C   UNL     1       0.417  -3.089   7.606  1.00  0.00     0.040 A 
BRANCH  10  16
ATOM     16  N   UNL     1       0.745  -1.970   3.532  1.00  0.00    -0.370 N 
ATOM     17  C   UNL     1       1.278  -1.506   1.617  1.00  0.00     0.028 C 
ATOM     18  C   UNL     1       0.589  -0.773   2.784  1.00  0.00     0.122 C 
ATOM     19  C   UNL     1       0.970  -2.798   2.391  1.00  0.00     0.122 C 
BRANCH  17  20
ATOM     20  C   UNL     1       0.659  -1.333   0.240  1.00  0.00     0.004 C 
ATOM     21  C   UNL     1       0.974   0.057  -0.291  1.00  0.00     0.004 C 
ENDBRANCH  17  20
ENDBRANCH  10  16
ENDBRANCH   7   9
ENDBRANCH   6   7
ENDBRANCH   5   6
ENDBRANCH   4   5
ENDBRANCH   3   4
ENDBRANCH   2   3
ENDBRANCH   1   2
BRANCH   1  22
ATOM     22  O   UNL     1      -3.010  -3.487   3.052  1.00  0.00    -0.376 OA
BRANCH  22  23
ATOM     23  C   UNL     1      -3.958  -4.164   2.244  1.00  0.00     0.202 C 
BRANCH  23  24
ATOM     24  C   UNL     1      -5.156  -4.999   2.748  1.00  0.00     0.261 C 
BRANCH  24  25
ATOM     25  O   UNL     1      -5.332  -5.183   4.155  1.00  0.00    -0.460 OA
BRANCH  25  26
ATOM     26  C   UNL     1      -4.877  -6.351   4.664  1.00  0.00     0.338 C 
ATOM     27  O   UNL     1      -4.296  -7.241   4.056  1.00  0.00    -0.246 OA
BRANCH  26  28
ATOM     28  C   UNL     1      -5.012  -6.317   6.132  1.00  0.00     0.060 A 
ATOM     29  C   UNL     1      -3.850  -6.312   6.915  1.00  0.00     0.016 A 
ATOM     30  C   UNL     1      -6.272  -6.324   6.734  1.00  0.00     0.016 A 
ATOM     31  C   UNL     1      -3.945  -6.351   8.305  1.00  0.00     0.010 A 
ATOM     32  C   UNL     1      -6.364  -6.385   8.129  1.00  0.00     0.010 A 
ATOM     33  C   UNL     1      -5.201  -6.435   8.919  1.00  0.00    -0.014 A 
BRANCH  33  34
ATOM     34  C   UNL     1      -5.285  -6.761  10.366  1.00  0.00     0.031 A 
ATOM     35  C   UNL     1      -5.559  -8.187  10.766  1.00  0.00     0.074 A 
ATOM     36  C   UNL     1      -5.078  -5.821  11.307  1.00  0.00     0.049 A 
ATOM     37  N   UNL     1      -5.696  -8.700  11.961  1.00  0.00    -0.248 NA
ATOM     38  C   UNL     1      -5.697  -9.165   9.674  1.00  0.00     0.031 C 
ATOM     39  C   UNL     1      -4.769  -4.417  11.046  1.00  0.00     0.029 A 
ATOM     40  N   UNL     1      -5.102  -5.910  12.678  1.00  0.00    -0.354 N 
ATOM     41  C   UNL     1      -5.939 -10.054  11.765  1.00  0.00     0.074 A 
ATOM     42  C   UNL     1      -5.962 -10.281  10.338  1.00  0.00     0.031 C 
ATOM     43  C   UNL     1      -4.642  -3.772  12.219  1.00  0.00     0.029 A 
ATOM     44  C   UNL     1      -4.890  -4.710  13.315  1.00  0.00     0.049 A 
ATOM     45  H   UNL     1      -5.256  -6.755  13.160  1.00  0.00     0.167 HD
ATOM     46  C   UNL     1      -6.114 -11.023  12.693  1.00  0.00     0.037 A 
ATOM     47  C   UNL     1      -4.915  -4.399  14.627  1.00  0.00     0.037 A 
ATOM     48  C   UNL     1      -6.076 -10.796  14.114  1.00  0.00     0.049 A 
ATOM     49  C   UNL     1      -5.168  -5.489  15.641  1.00  0.00     0.074 A 
ATOM     50  C   UNL     1      -6.221 -11.722  15.133  1.00  0.00     0.029 A 
ATOM     51  N   UNL     1      -5.884  -9.563  14.719  1.00  0.00    -0.354 N 
ATOM     52  N   UNL     1      -5.376  -6.769  15.442  1.00  0.00    -0.248 NA
ATOM     53  C   UNL     1      -5.182  -5.095  17.058  1.00  0.00     0.031 C 
ATOM     54  C   UNL     1      -6.174 -11.041  16.352  1.00  0.00     0.029 A 
ATOM     55  C   UNL     1      -5.932  -9.701  16.096  1.00  0.00     0.049 A 
ATOM     56  H   UNL     1      -5.735  -8.716  14.240  1.00  0.00     0.167 HD
ATOM     57  C   UNL     1      -5.519  -7.335  16.706  1.00  0.00     0.074 A 
ATOM     58  C   UNL     1      -5.358  -6.261  17.663  1.00  0.00     0.031 C 
ATOM     59  C   UNL     1      -5.761  -8.627  17.042  1.00  0.00     0.037 A 
BRANCH  46  60
ATOM     60  C   UNL     1      -6.370 -12.427  12.218  1.00  0.00     0.058 A 
ATOM     61  C   UNL     1      -7.623 -13.026  12.422  1.00  0.00     0.135 A 
ATOM     62  C   UNL     1      -5.351 -13.213  11.658  1.00  0.00     0.135 A 
ATOM     63  F   UNL     1      -8.636 -12.315  12.943  1.00  0.00    -0.206 F 
ATOM     64  C   UNL     1      -7.847 -14.365  12.122  1.00  0.00     0.059 A 
ATOM     65  C   UNL     1      -5.560 -14.548  11.325  1.00  0.00     0.059 A 
ATOM     66  F   UNL     1      -4.142 -12.681  11.417  1.00  0.00    -0.206 F 
ATOM     67  C   UNL     1      -6.806 -15.121  11.582  1.00  0.00     0.060 A 
BRANCH  67  68
ATOM     68  S   UNL     1      -7.109 -16.863  11.219  1.00  0.00     0.124 S 
ATOM     69  O   UNL     1      -7.287 -17.422  12.554  1.00  0.00    -0.237 OA
ATOM     70  O   UNL     1      -8.310 -16.795  10.391  1.00  0.00    -0.237 OA
ATOM     71  O   UNL     1      -5.898 -17.279  10.518  1.00  0.00    -0.744 OA
ENDBRANCH  67  68
ENDBRANCH  46  60
BRANCH  47  72
ATOM     72  C   UNL     1      -4.706  -2.990  15.062  1.00  0.00     0.058 A 
ATOM     73  C   UNL     1      -5.650  -1.994  14.767  1.00  0.00     0.135 A 
ATOM     74  C   UNL     1      -3.563  -2.609  15.782  1.00  0.00     0.135 A 
ATOM     75  F   UNL     1      -6.761  -2.301  14.079  1.00  0.00    -0.206 F 
ATOM     76  C   UNL     1      -5.460  -0.670  15.147  1.00  0.00     0.059 A 
ATOM     77  C   UNL     1      -3.364  -1.295  16.201  1.00  0.00     0.059 A 
ATOM     78  F   UNL     1      -2.639  -3.526  16.106  1.00  0.00    -0.206 F 
ATOM     79  C   UNL     1      -4.313  -0.330  15.865  1.00  0.00     0.060 A 
BRANCH  79  80
ATOM     80  S   UNL     1      -4.090   1.394  16.354  1.00  0.00     0.124 S 
ATOM     81  O   UNL     1      -3.863   2.035  15.062  1.00  0.00    -0.237 OA
ATOM     82  O   UNL     1      -5.363   1.695  16.999  1.00  0.00    -0.237 OA
ATOM     83  O   UNL     1      -2.934   1.346  17.243  1.00  0.00    -0.744 OA
ENDBRANCH  79  80
ENDBRANCH  47  72
BRANCH  59  84
ATOM     84  C   UNL     1      -5.835  -8.975  18.506  1.00  0.00     0.058 A 
ATOM     85  C   UNL     1      -4.846  -9.781  19.095  1.00  0.00     0.135 A 
ATOM     86  C   UNL     1      -6.918  -8.582  19.307  1.00  0.00     0.135 A 
ATOM     87  F   UNL     1      -3.792 -10.196  18.374  1.00  0.00    -0.206 F 
ATOM     88  C   UNL     1      -4.936 -10.196  20.419  1.00  0.00     0.059 A 
ATOM     89  C   UNL     1      -7.012  -8.958  20.645  1.00  0.00     0.059 A 
ATOM     90  F   UNL     1      -7.889  -7.807  18.797  1.00  0.00    -0.206 F 
ATOM     91  C   UNL     1      -6.022  -9.778  21.187  1.00  0.00     0.060 A 
BRANCH  91  92
ATOM     92  S   UNL     1      -6.106 -10.302  22.913  1.00  0.00     0.124 S 
ATOM     93  O   UNL     1      -6.380 -11.729  22.781  1.00  0.00    -0.237 OA
ATOM     94  O   UNL     1      -4.776  -9.954  23.404  1.00  0.00    -0.237 OA
ATOM     95  O   UNL     1      -7.197  -9.500  23.459  1.00  0.00    -0.744 OA
ENDBRANCH  91  92
ENDBRANCH  59  84
ENDBRANCH  33  34
ENDBRANCH  26  28
ENDBRANCH  25  26
ENDBRANCH  24  25
ENDBRANCH  23  24
ENDBRANCH  22  23
ENDBRANCH   1  22
TORSDOF 22
