REMARK SMILES C[C@H](C(=O)OCCOCCOCCOC(=O)c1ccc(-c2c3nc(c(-c4c(F)cc(S(=O)(=O)[O-])cc4F)c4ccc([nH]4)c(-c4c(F)cc(S(=O)(=O)[O-])cc4F)c4nc(c(-c5c(F)cc(S(=O)(=O)[O-])cc5F)c5ccc2[nH]5)C=C4)C=C3)cc1)N1CCCC[C@H](NC(=O)OC(C)(C)C)C1=O
REMARK SMILES IDX 8 1 7 2 6 3 5 4 3 5 4 6 2 7 1 8 83 9 84 10 97 12 98 13 88 14
REMARK SMILES IDX 87 15 86 16 85 17 89 19 90 20 91 22 92 23 93 24 94 25 95 26
REMARK SMILES IDX 96 27 9 28 10 29 11 30 12 31 13 32 14 33 15 34 16 35 17 36
REMARK SMILES IDX 18 37 82 38 19 39 81 40 20 41 21 42 22 43 75 44 23 45 80 46
REMARK SMILES IDX 74 47 76 48 24 49 79 50 73 51 72 52 25 54 59 55 38 56 58 57
REMARK SMILES IDX 39 58 42 59 57 60 77 61 40 62 41 63 56 65 78 66 43 67 26 68
REMARK SMILES IDX 27 69 36 70 28 71 29 72 35 73 37 74 30 75 31 76 32 77 33 78
REMARK SMILES IDX 34 79 60 80 61 81 70 82 62 83 63 84 69 85 71 86 64 87 65 88
REMARK SMILES IDX 66 89 67 90 68 91 44 92 45 93 54 94 46 95 47 96 53 97 55 98
REMARK SMILES IDX 48 99 49 100 50 101 51 102 52 103
REMARK H PARENT 89 21 76 53 42 64
REMARK Flexibility Score: 90.00
ROOT
ATOM      1  O   UNL     1       3.320   1.497  -0.851  1.00  0.00    -0.376 OA
ENDROOT
BRANCH   1   2
ATOM      2  C   UNL     1       2.269   2.148  -1.549  1.00  0.00     0.202 C 
BRANCH   2   3
ATOM      3  C   UNL     1       0.988   1.353  -1.836  1.00  0.00     0.261 C 
BRANCH   3   4
ATOM      4  O   UNL     1       0.494   0.575  -0.730  1.00  0.00    -0.462 OA
BRANCH   4   5
ATOM      5  C   UNL     1       0.481  -0.775  -0.861  1.00  0.00     0.328 C 
ATOM      6  O   UNL     1       0.809  -1.361  -1.889  1.00  0.00    -0.250 OA
BRANCH   5   7
ATOM      7  C   UNL     1      -0.046  -1.541   0.386  1.00  0.00     0.192 C 
ATOM      8  C   UNL     1       0.713  -1.473   1.706  1.00  0.00     0.044 C 
BRANCH   7   9
ATOM      9  N   UNL     1      -1.499  -1.458   0.602  1.00  0.00    -0.327 N 
BRANCH   9  10
ATOM     10  C   UNL     1      -2.202  -2.718   0.804  1.00  0.00     0.120 CG0
ATOM     11  G   UNL     1      -2.961  -3.123  -0.444  1.00  0.00     0.000 G0
ENDBRANCH   9  10
BRANCH   9  12
ATOM     12  C   UNL     1      -2.114  -0.231   0.834  1.00  0.00     0.246 C 
ATOM     13  O   UNL     1      -1.480   0.788   1.099  1.00  0.00    -0.272 OA
BRANCH  12  14
ATOM     14  C   UNL     1      -3.655  -0.221   0.700  1.00  0.00     0.175 C 
BRANCH  14  15
ATOM     15  C   UNL     1      -4.090  -0.815  -0.651  1.00  0.00     0.035 C 
BRANCH  15  16
ATOM     16  C   UNL     1      -4.256  -2.337  -0.623  1.00  0.00     0.004 C 
BRANCH  16  17
ATOM     17  C   UNL     1      -2.961  -3.123  -0.444  1.00  0.00     0.022 CG0
ATOM     18  G   UNL     1      -2.202  -2.718   0.804  1.00  0.00     0.000 G0
ENDBRANCH  16  17
ENDBRANCH  15  16
ENDBRANCH  14  15
BRANCH  14  19
ATOM     19  N   UNL     1      -4.175   1.139   0.817  1.00  0.00    -0.310 N 
ATOM     20  C   UNL     1      -4.545   1.739   1.979  1.00  0.00     0.408 C 
ATOM     21  H   UNL     1      -4.265   1.663  -0.012  1.00  0.00     0.167 HD
ATOM     22  O   UNL     1      -5.148   2.808   1.976  1.00  0.00    -0.225 OA
BRANCH  20  23
ATOM     23  O   UNL     1      -4.235   0.998   3.063  1.00  0.00    -0.444 OA
BRANCH  23  24
ATOM     24  C   UNL     1      -4.836   1.238   4.358  1.00  0.00     0.106 C 
ATOM     25  C   UNL     1      -4.809   2.699   4.821  1.00  0.00     0.056 C 
ATOM     26  C   UNL     1      -6.263   0.685   4.316  1.00  0.00     0.056 C 
ATOM     27  C   UNL     1      -3.997   0.407   5.340  1.00  0.00     0.056 C 
ENDBRANCH  23  24
ENDBRANCH  20  23
ENDBRANCH  14  19
ENDBRANCH  12  14
ENDBRANCH   9  12
ENDBRANCH   7   9
ENDBRANCH   5   7
ENDBRANCH   4   5
ENDBRANCH   3   4
ENDBRANCH   2   3
ENDBRANCH   1   2
BRANCH   1  28
ATOM     28  C   UNL     1       3.044   0.915   0.420  1.00  0.00     0.188 C 
BRANCH  28  29
ATOM     29  C   UNL     1       2.077   1.627   1.395  1.00  0.00     0.188 C 
BRANCH  29  30
ATOM     30  O   UNL     1       1.864   2.973   1.033  1.00  0.00    -0.376 OA
BRANCH  30  31
ATOM     31  C   UNL     1       2.321   3.973   1.908  1.00  0.00     0.202 C 
BRANCH  31  32
ATOM     32  C   UNL     1       3.807   3.998   2.301  1.00  0.00     0.261 C 
BRANCH  32  33
ATOM     33  O   UNL     1       4.506   2.742   2.355  1.00  0.00    -0.460 OA
BRANCH  33  34
ATOM     34  C   UNL     1       4.498   2.074   3.533  1.00  0.00     0.338 C 
ATOM     35  O   UNL     1       3.912   2.401   4.550  1.00  0.00    -0.246 OA
BRANCH  34  36
ATOM     36  C   UNL     1       5.189   0.773   3.354  1.00  0.00     0.060 A 
ATOM     37  C   UNL     1       4.457  -0.416   3.487  1.00  0.00     0.016 A 
ATOM     38  C   UNL     1       6.558   0.723   3.084  1.00  0.00     0.016 A 
ATOM     39  C   UNL     1       5.099  -1.657   3.380  1.00  0.00     0.010 A 
ATOM     40  C   UNL     1       7.202  -0.520   2.997  1.00  0.00     0.010 A 
ATOM     41  C   UNL     1       6.484  -1.719   3.173  1.00  0.00    -0.014 A 
BRANCH  41  42
ATOM     42  C   UNL     1       7.218  -3.008   3.310  1.00  0.00     0.031 A 
ATOM     43  C   UNL     1       7.965  -3.279   4.592  1.00  0.00     0.074 A 
ATOM     44  C   UNL     1       7.237  -3.926   2.325  1.00  0.00     0.049 A 
ATOM     45  N   UNL     1       8.765  -4.267   4.899  1.00  0.00    -0.248 NA
ATOM     46  C   UNL     1       7.783  -2.294   5.671  1.00  0.00     0.031 C 
ATOM     47  C   UNL     1       6.522  -3.819   1.055  1.00  0.00     0.029 A 
ATOM     48  N   UNL     1       7.903  -5.127   2.234  1.00  0.00    -0.354 N 
ATOM     49  C   UNL     1       9.195  -4.017   6.199  1.00  0.00     0.074 A 
ATOM     50  C   UNL     1       8.587  -2.770   6.611  1.00  0.00     0.031 C 
ATOM     51  C   UNL     1       6.805  -4.898   0.303  1.00  0.00     0.029 A 
ATOM     52  C   UNL     1       7.755  -5.751   1.017  1.00  0.00     0.049 A 
ATOM     53  H   UNL     1       8.436  -5.504   2.971  1.00  0.00     0.167 HD
ATOM     54  C   UNL     1      10.017  -4.759   6.980  1.00  0.00     0.037 A 
ATOM     55  C   UNL     1       8.344  -6.861   0.522  1.00  0.00     0.037 A 
ATOM     56  C   UNL     1      10.626  -5.997   6.566  1.00  0.00     0.049 A 
ATOM     57  C   UNL     1       9.323  -7.630   1.378  1.00  0.00     0.074 A 
ATOM     58  C   UNL     1      11.470  -6.824   7.288  1.00  0.00     0.029 A 
ATOM     59  N   UNL     1      10.467  -6.583   5.318  1.00  0.00    -0.354 N 
ATOM     60  N   UNL     1       9.715  -7.388   2.607  1.00  0.00    -0.248 NA
ATOM     61  C   UNL     1       9.940  -8.823   0.780  1.00  0.00     0.031 C 
ATOM     62  C   UNL     1      11.868  -7.877   6.458  1.00  0.00     0.029 A 
ATOM     63  C   UNL     1      11.217  -7.746   5.242  1.00  0.00     0.049 A 
ATOM     64  H   UNL     1       9.905  -6.225   4.594  1.00  0.00     0.167 HD
ATOM     65  C   UNL     1      10.596  -8.414   2.938  1.00  0.00     0.074 A 
ATOM     66  C   UNL     1      10.671  -9.286   1.785  1.00  0.00     0.031 C 
ATOM     67  C   UNL     1      11.278  -8.617   4.093  1.00  0.00     0.037 A 
BRANCH  54  68
ATOM     68  C   UNL     1      10.333  -4.234   8.356  1.00  0.00     0.058 A 
ATOM     69  C   UNL     1       9.368  -4.197   9.376  1.00  0.00     0.135 A 
ATOM     70  C   UNL     1      11.630  -3.793   8.668  1.00  0.00     0.135 A 
ATOM     71  F   UNL     1       8.108  -4.591   9.131  1.00  0.00    -0.206 F 
ATOM     72  C   UNL     1       9.670  -3.713  10.645  1.00  0.00     0.059 A 
ATOM     73  C   UNL     1      11.962  -3.336   9.940  1.00  0.00     0.059 A 
ATOM     74  F   UNL     1      12.592  -3.805   7.732  1.00  0.00    -0.206 F 
ATOM     75  C   UNL     1      10.970  -3.286  10.918  1.00  0.00     0.060 A 
BRANCH  75  76
ATOM     76  S   UNL     1      11.344  -2.665  12.571  1.00  0.00     0.124 S 
ATOM     77  O   UNL     1      10.621  -1.397  12.577  1.00  0.00    -0.237 OA
ATOM     78  O   UNL     1      10.794  -3.711  13.427  1.00  0.00    -0.237 OA
ATOM     79  O   UNL     1      12.799  -2.556  12.575  1.00  0.00    -0.744 OA
ENDBRANCH  75  76
ENDBRANCH  54  68
BRANCH  55  80
ATOM     80  C   UNL     1       8.051  -7.306  -0.871  1.00  0.00     0.058 A 
ATOM     81  C   UNL     1       7.369  -8.505  -1.125  1.00  0.00     0.135 A 
ATOM     82  C   UNL     1       8.462  -6.546  -1.978  1.00  0.00     0.135 A 
ATOM     83  F   UNL     1       6.972  -9.280  -0.104  1.00  0.00    -0.206 F 
ATOM     84  C   UNL     1       7.117  -8.943  -2.422  1.00  0.00     0.059 A 
ATOM     85  C   UNL     1       8.194  -6.946  -3.284  1.00  0.00     0.059 A 
ATOM     86  F   UNL     1       9.118  -5.389  -1.794  1.00  0.00    -0.206 F 
ATOM     87  C   UNL     1       7.528  -8.152  -3.497  1.00  0.00     0.060 A 
BRANCH  87  88
ATOM     88  S   UNL     1       7.146  -8.704  -5.174  1.00  0.00     0.124 S 
ATOM     89  O   UNL     1       8.044  -9.843  -5.321  1.00  0.00    -0.237 OA
ATOM     90  O   UNL     1       5.725  -9.020  -5.073  1.00  0.00    -0.237 OA
ATOM     91  O   UNL     1       7.465  -7.538  -5.993  1.00  0.00    -0.744 OA
ENDBRANCH  87  88
ENDBRANCH  55  80
BRANCH  67  92
ATOM     92  C   UNL     1      12.132  -9.856   4.200  1.00  0.00     0.058 A 
ATOM     93  C   UNL     1      13.329 -10.002   3.481  1.00  0.00     0.135 A 
ATOM     94  C   UNL     1      11.774 -10.888   5.085  1.00  0.00     0.135 A 
ATOM     95  F   UNL     1      13.719  -9.050   2.618  1.00  0.00    -0.206 F 
ATOM     96  C   UNL     1      14.126 -11.135   3.616  1.00  0.00     0.059 A 
ATOM     97  C   UNL     1      12.573 -12.014   5.261  1.00  0.00     0.059 A 
ATOM     98  F   UNL     1      10.647 -10.798   5.808  1.00  0.00    -0.206 F 
ATOM     99  C   UNL     1      13.742 -12.135   4.512  1.00  0.00     0.060 A 
BRANCH  99 100
ATOM    100  S   UNL     1      14.804 -13.583   4.703  1.00  0.00     0.124 S 
ATOM    101  O   UNL     1      14.587 -14.276   3.437  1.00  0.00    -0.237 OA
ATOM    102  O   UNL     1      16.122 -12.981   4.879  1.00  0.00    -0.237 OA
ATOM    103  O   UNL     1      14.263 -14.250   5.883  1.00  0.00    -0.744 OA
ENDBRANCH  99 100
ENDBRANCH  67  92
ENDBRANCH  41  42
ENDBRANCH  34  36
ENDBRANCH  33  34
ENDBRANCH  32  33
ENDBRANCH  31  32
ENDBRANCH  30  31
ENDBRANCH  29  30
ENDBRANCH  28  29
ENDBRANCH   1  28
TORSDOF 24
