REMARK SMILES O=C(OCCOCCOCCOC(=O)[C@@H](Cc1ccccc1)Nc1ccc(Cl)c(Br)c1)c1ccc(-c2c3nc(c(-c4c(F)cc(S(=O)(=O)[O-])cc4F)c4ccc([nH]4)c(-c4c(F)cc(S(=O)(=O)[O-])cc4F)c4nc(c(-c5c(F)cc(S(=O)(=O)[O-])cc5F)c5ccc2[nH]5)C=C4)C=C3)cc1
REMARK SMILES IDX 7 1 6 2 5 3 4 4 3 5 2 6 1 7 32 8 33 9 97 10 34 11 96 12
REMARK SMILES IDX 35 13 36 14 37 15 90 16 38 17 95 18 89 19 91 20 39 21 94 22
REMARK SMILES IDX 88 23 87 24 40 26 74 27 53 28 73 29 54 30 57 31 72 32 92 33
REMARK SMILES IDX 55 34 56 35 71 37 93 38 58 39 41 40 42 41 51 42 43 43 44 44
REMARK SMILES IDX 50 45 52 46 45 47 46 48 47 49 48 50 49 51 75 52 76 53 85 54
REMARK SMILES IDX 77 55 78 56 84 57 86 58 79 59 80 60 81 61 82 62 83 63 59 64
REMARK SMILES IDX 60 65 69 66 61 67 62 68 68 69 70 70 63 71 64 72 65 73 66 74
REMARK SMILES IDX 67 75 8 76 9 77 10 78 11 79 12 80 13 81 14 82 15 83 16 84
REMARK SMILES IDX 17 85 18 86 22 87 19 88 21 89 20 90 23 91 24 93 25 94 31 95
REMARK SMILES IDX 26 96 29 97 27 98 30 99 28 100
REMARK H PARENT 91 25 57 36 23 92
REMARK Flexibility Score: inf
ROOT
ATOM      1  C   UNL     1       2.376  -0.592   1.731  1.00  0.00     0.188 C 
ENDROOT
BRANCH   1   2
ATOM      2  O   UNL     1       3.682  -0.793   1.167  1.00  0.00    -0.376 OA
BRANCH   2   3
ATOM      3  C   UNL     1       4.533   0.352   1.278  1.00  0.00     0.202 C 
BRANCH   3   4
ATOM      4  C   UNL     1       4.285   1.469   0.253  1.00  0.00     0.261 C 
BRANCH   4   5
ATOM      5  O   UNL     1       2.920   1.548  -0.181  1.00  0.00    -0.460 OA
BRANCH   5   6
ATOM      6  C   UNL     1       2.340   1.015  -1.285  1.00  0.00     0.338 C 
ATOM      7  O   UNL     1       1.185   1.359  -1.536  1.00  0.00    -0.246 OA
BRANCH   6   8
ATOM      8  C   UNL     1       2.984   0.012  -2.202  1.00  0.00     0.060 A 
ATOM      9  C   UNL     1       4.192  -0.646  -1.980  1.00  0.00     0.016 A 
ATOM     10  C   UNL     1       2.271  -0.330  -3.372  1.00  0.00     0.016 A 
ATOM     11  C   UNL     1       4.694  -1.573  -2.893  1.00  0.00     0.010 A 
ATOM     12  C   UNL     1       2.760  -1.275  -4.287  1.00  0.00     0.010 A 
ATOM     13  C   UNL     1       3.985  -1.893  -4.051  1.00  0.00    -0.014 A 
BRANCH  13  14
ATOM     14  C   UNL     1       4.620  -2.832  -4.999  1.00  0.00     0.031 A 
ATOM     15  C   UNL     1       5.629  -2.297  -5.962  1.00  0.00     0.074 A 
ATOM     16  C   UNL     1       4.413  -4.155  -4.870  1.00  0.00     0.049 A 
ATOM     17  N   UNL     1       6.369  -2.945  -6.818  1.00  0.00    -0.248 NA
ATOM     18  C   UNL     1       5.832  -0.838  -5.966  1.00  0.00     0.031 C 
ATOM     19  C   UNL     1       3.483  -4.751  -3.919  1.00  0.00     0.029 A 
ATOM     20  N   UNL     1       5.002  -5.234  -5.475  1.00  0.00    -0.354 N 
ATOM     21  C   UNL     1       7.071  -1.972  -7.512  1.00  0.00     0.074 A 
ATOM     22  C   UNL     1       6.732  -0.695  -6.928  1.00  0.00     0.031 C 
ATOM     23  C   UNL     1       3.654  -6.082  -3.907  1.00  0.00     0.029 A 
ATOM     24  C   UNL     1       4.625  -6.445  -4.933  1.00  0.00     0.049 A 
ATOM     25  H   UNL     1       5.634  -5.153  -6.225  1.00  0.00     0.167 HD
ATOM     26  C   UNL     1       7.868  -2.142  -8.590  1.00  0.00     0.037 A 
ATOM     27  C   UNL     1       5.007  -7.698  -5.255  1.00  0.00     0.037 A 
ATOM     28  C   UNL     1       8.157  -3.426  -9.166  1.00  0.00     0.049 A 
ATOM     29  C   UNL     1       5.917  -7.856  -6.449  1.00  0.00     0.074 A 
ATOM     30  C   UNL     1       8.880  -3.713 -10.308  1.00  0.00     0.029 A 
ATOM     31  N   UNL     1       7.719  -4.637  -8.649  1.00  0.00    -0.354 N 
ATOM     32  N   UNL     1       6.541  -6.927  -7.138  1.00  0.00    -0.248 NA
ATOM     33  C   UNL     1       6.115  -9.219  -6.963  1.00  0.00     0.031 C 
ATOM     34  C   UNL     1       8.832  -5.096 -10.511  1.00  0.00     0.029 A 
ATOM     35  C   UNL     1       8.124  -5.675  -9.467  1.00  0.00     0.049 A 
ATOM     36  H   UNL     1       7.196  -4.742  -7.821  1.00  0.00     0.167 HD
ATOM     37  C   UNL     1       7.157  -7.586  -8.194  1.00  0.00     0.074 A 
ATOM     38  C   UNL     1       6.899  -9.000  -8.010  1.00  0.00     0.031 C 
ATOM     39  C   UNL     1       7.836  -7.071  -9.249  1.00  0.00     0.037 A 
BRANCH  26  40
ATOM     40  C   UNL     1       8.343  -0.905  -9.289  1.00  0.00     0.058 A 
ATOM     41  C   UNL     1       9.395  -0.117  -8.803  1.00  0.00     0.135 A 
ATOM     42  C   UNL     1       7.711  -0.502 -10.477  1.00  0.00     0.135 A 
ATOM     43  F   UNL     1      10.004  -0.437  -7.650  1.00  0.00    -0.206 F 
ATOM     44  C   UNL     1       9.803   1.034  -9.470  1.00  0.00     0.059 A 
ATOM     45  C   UNL     1       8.113   0.633 -11.170  1.00  0.00     0.059 A 
ATOM     46  F   UNL     1       6.681  -1.210 -10.968  1.00  0.00    -0.206 F 
ATOM     47  C   UNL     1       9.156   1.400 -10.654  1.00  0.00     0.060 A 
BRANCH  47  48
ATOM     48  S   UNL     1       9.700   2.890 -11.515  1.00  0.00     0.124 S 
ATOM     49  O   UNL     1       9.194   3.937 -10.633  1.00  0.00    -0.237 OA
ATOM     50  O   UNL     1      11.150   2.724 -11.536  1.00  0.00    -0.237 OA
ATOM     51  O   UNL     1       9.042   2.792 -12.814  1.00  0.00    -0.744 OA
ENDBRANCH  47  48
ENDBRANCH  26  40
BRANCH  27  52
ATOM     52  C   UNL     1       4.475  -8.892  -4.531  1.00  0.00     0.058 A 
ATOM     53  C   UNL     1       5.336  -9.800  -3.893  1.00  0.00     0.135 A 
ATOM     54  C   UNL     1       3.100  -9.183  -4.497  1.00  0.00     0.135 A 
ATOM     55  F   UNL     1       6.661  -9.588  -3.900  1.00  0.00    -0.206 F 
ATOM     56  C   UNL     1       4.860 -10.957  -3.276  1.00  0.00     0.059 A 
ATOM     57  C   UNL     1       2.596 -10.309  -3.850  1.00  0.00     0.059 A 
ATOM     58  F   UNL     1       2.222  -8.364  -5.096  1.00  0.00    -0.206 F 
ATOM     59  C   UNL     1       3.487 -11.203  -3.262  1.00  0.00     0.060 A 
BRANCH  59  60
ATOM     60  S   UNL     1       2.873 -12.700  -2.461  1.00  0.00     0.124 S 
ATOM     61  O   UNL     1       3.213 -13.719  -3.447  1.00  0.00    -0.237 OA
ATOM     62  O   UNL     1       3.645 -12.729  -1.222  1.00  0.00    -0.237 OA
ATOM     63  O   UNL     1       1.449 -12.431  -2.294  1.00  0.00    -0.744 OA
ENDBRANCH  59  60
ENDBRANCH  27  52
BRANCH  39  64
ATOM     64  C   UNL     1       8.301  -8.033 -10.303  1.00  0.00     0.058 A 
ATOM     65  C   UNL     1       7.397  -8.581 -11.227  1.00  0.00     0.135 A 
ATOM     66  C   UNL     1       9.665  -8.321 -10.460  1.00  0.00     0.135 A 
ATOM     67  F   UNL     1       6.082  -8.336 -11.112  1.00  0.00    -0.206 F 
ATOM     68  C   UNL     1       7.831  -9.384 -12.273  1.00  0.00     0.059 A 
ATOM     69  C   UNL     1      10.123  -9.103 -11.514  1.00  0.00     0.059 A 
ATOM     70  F   UNL     1      10.567  -7.809  -9.607  1.00  0.00    -0.206 F 
ATOM     71  C   UNL     1       9.198  -9.632 -12.414  1.00  0.00     0.060 A 
BRANCH  71  72
ATOM     72  S   UNL     1       9.755 -10.611 -13.824  1.00  0.00     0.124 S 
ATOM     73  O   UNL     1       9.349 -11.955 -13.427  1.00  0.00    -0.237 OA
ATOM     74  O   UNL     1       9.007 -10.022 -14.930  1.00  0.00    -0.237 OA
ATOM     75  O   UNL     1      11.196 -10.373 -13.854  1.00  0.00    -0.744 OA
ENDBRANCH  71  72
ENDBRANCH  39  64
ENDBRANCH  13  14
ENDBRANCH   6   8
ENDBRANCH   5   6
ENDBRANCH   4   5
ENDBRANCH   3   4
ENDBRANCH   2   3
ENDBRANCH   1   2
BRANCH   1  76
ATOM     76  C   UNL     1       1.899  -1.826   2.505  1.00  0.00     0.188 C 
BRANCH  76  77
ATOM     77  O   UNL     1       2.433  -1.959   3.828  1.00  0.00    -0.376 OA
BRANCH  77  78
ATOM     78  C   UNL     1       3.848  -2.076   3.952  1.00  0.00     0.202 C 
BRANCH  78  79
ATOM     79  C   UNL     1       4.432  -3.447   3.610  1.00  0.00     0.261 C 
BRANCH  79  80
ATOM     80  O   UNL     1       4.087  -3.842   2.279  1.00  0.00    -0.462 OA
BRANCH  80  81
ATOM     81  C   UNL     1       3.458  -5.041   2.148  1.00  0.00     0.328 C 
ATOM     82  O   UNL     1       3.195  -5.787   3.090  1.00  0.00    -0.250 OA
BRANCH  81  83
ATOM     83  C   UNL     1       3.041  -5.330   0.695  1.00  0.00     0.194 C 
BRANCH  83  84
ATOM     84  C   UNL     1       3.728  -4.442  -0.352  1.00  0.00     0.072 C 
BRANCH  84  85
ATOM     85  C   UNL     1       5.231  -4.530  -0.504  1.00  0.00    -0.045 A 
ATOM     86  C   UNL     1       5.841  -5.674  -1.034  1.00  0.00     0.004 A 
ATOM     87  C   UNL     1       6.037  -3.425  -0.196  1.00  0.00     0.004 A 
ATOM     88  C   UNL     1       7.218  -5.709  -1.255  1.00  0.00     0.000 A 
ATOM     89  C   UNL     1       7.412  -3.452  -0.434  1.00  0.00     0.000 A 
ATOM     90  C   UNL     1       8.002  -4.596  -0.963  1.00  0.00     0.000 A 
ENDBRANCH  84  85
ENDBRANCH  83  84
BRANCH  83  91
ATOM     91  N   UNL     1       3.241  -6.759   0.398  1.00  0.00    -0.372 N 
ATOM     92  H   UNL     1       4.162  -7.107   0.381  1.00  0.00     0.161 HD
BRANCH  91  93
ATOM     93  C   UNL     1       2.204  -7.636   0.142  1.00  0.00     0.036 A 
ATOM     94  C   UNL     1       2.223  -8.894   0.753  1.00  0.00     0.027 A 
ATOM     95  C   UNL     1       1.117  -7.319  -0.678  1.00  0.00     0.043 A 
ATOM     96  C   UNL     1       1.181  -9.808   0.573  1.00  0.00     0.024 A 
ATOM     97  C   UNL     1       0.072  -8.237  -0.876  1.00  0.00     0.038 A 
ATOM     98  C   UNL     1       0.095  -9.478  -0.234  1.00  0.00     0.055 A 
ATOM     99  Br  UNL     1      -1.341  -7.712  -2.035  1.00  0.00    -0.049 Br
ATOM    100  Cl  UNL     1      -1.199 -10.617  -0.351  1.00  0.00    -0.083 Cl
ENDBRANCH  91  93
ENDBRANCH  83  91
ENDBRANCH  81  83
ENDBRANCH  80  81
ENDBRANCH  79  80
ENDBRANCH  78  79
ENDBRANCH  77  78
ENDBRANCH  76  77
ENDBRANCH   1  76
TORSDOF 24
