REMARK SMILES Cc1cc(N2CC[NH+]([C@@H](C(=O)OCCOCCOCCOC(=O)c3ccc(-c4c5nc(c(-c6c(F)cc(S(=O)(=O)[O-])cc6F)c6ccc([nH]6)c(-c6c(F)cc(S(=O)(=O)[O-])cc6F)c6nc(c(-c7c(F)cc(S(=O)(=O)[O-])cc7F)c7ccc4[nH]7)C=C6)C=C5)cc3)c3c[nH]c4ccccc34)CC2)nc2ccccc12
REMARK SMILES IDX 17 1 16 2 15 3 14 4 13 5 12 6 10 7 11 8 9 9 8 10 5 11 6 12
REMARK SMILES IDX 100 13 7 14 99 15 4 17 1 18 2 19 3 20 107 21 102 22 106 23
REMARK SMILES IDX 101 24 103 25 105 26 104 27 90 28 91 29 98 30 92 31 93 32
REMARK SMILES IDX 97 33 94 35 96 36 95 37 18 38 19 39 20 40 21 41 22 42 23 43
REMARK SMILES IDX 24 44 25 45 89 46 26 47 88 48 27 49 28 50 29 51 82 52 30 53
REMARK SMILES IDX 87 54 81 55 83 56 31 57 86 58 80 59 79 60 32 62 66 63 45 64
REMARK SMILES IDX 65 65 46 66 49 67 64 68 84 69 47 70 48 71 63 73 85 74 50 75
REMARK SMILES IDX 33 76 34 77 43 78 35 79 36 80 42 81 44 82 37 83 38 84 39 85
REMARK SMILES IDX 40 86 41 87 67 88 68 89 77 90 69 91 70 92 76 93 78 94 71 95
REMARK SMILES IDX 72 96 73 97 74 98 75 99 51 100 52 101 61 102 53 103 54 104
REMARK SMILES IDX 60 105 62 106 55 107 56 108 57 109 58 110 59 111
REMARK H PARENT 8 16 92 34 83 61 49 72
REMARK Flexibility Score: inf
ROOT
ATOM      1  C   UNL     1      -0.378  -5.441   0.290  1.00  0.00     0.188 C 
ENDROOT
BRANCH   1   2
ATOM      2  C   UNL     1      -0.594  -6.620  -0.661  1.00  0.00     0.188 C 
BRANCH   2   3
ATOM      3  O   UNL     1      -0.053  -6.479  -1.966  1.00  0.00    -0.376 OA
BRANCH   3   4
ATOM      4  C   UNL     1      -0.411  -5.305  -2.689  1.00  0.00     0.202 C 
BRANCH   4   5
ATOM      5  C   UNL     1      -1.897  -5.104  -3.018  1.00  0.00     0.261 C 
BRANCH   5   6
ATOM      6  O   UNL     1      -2.681  -4.837  -1.844  1.00  0.00    -0.459 OA
BRANCH   6   7
ATOM      7  C   UNL     1      -3.532  -5.790  -1.392  1.00  0.00     0.370 C 
ATOM      8  O   UNL     1      -3.792  -6.813  -2.021  1.00  0.00    -0.245 OA
BRANCH   7   9
ATOM      9  C   UNL     1      -4.171  -5.416  -0.044  1.00  0.00     0.328 C 
BRANCH   9  10
ATOM     10  N   UNL     1      -4.887  -4.052   0.012  1.00  0.00    -0.316 N 
ATOM     11  N   UNL     1      -3.704  -1.262  -0.394  1.00  0.00    -0.345 N 
ATOM     12  C   UNL     1      -3.717  -1.972   0.905  1.00  0.00     0.179 C 
ATOM     13  C   UNL     1      -3.987  -2.132  -1.547  1.00  0.00     0.179 C 
ATOM     14  C   UNL     1      -4.793  -3.068   1.079  1.00  0.00     0.285 C 
ATOM     15  C   UNL     1      -5.043  -3.272  -1.243  1.00  0.00     0.285 C 
ATOM     16  H   UNL     1      -5.675  -4.639   0.286  1.00  0.00     0.349 HD
BRANCH  11  17
ATOM     17  C   UNL     1      -2.624  -0.330  -0.527  1.00  0.00     0.129 A 
ATOM     18  C   UNL     1      -1.967   3.338   0.180  1.00  0.00     0.045 C 
ATOM     19  C   UNL     1      -1.718   1.879  -0.070  1.00  0.00    -0.038 A 
ATOM     20  C   UNL     1      -2.807   0.978  -0.107  1.00  0.00     0.051 A 
ATOM     21  C   UNL     1      -0.400   1.410  -0.262  1.00  0.00     0.003 A 
ATOM     22  C   UNL     1      -0.281   0.104  -0.732  1.00  0.00     0.073 A 
ATOM     23  C   UNL     1       0.774   2.176   0.018  1.00  0.00     0.010 A 
ATOM     24  N   UNL     1      -1.387  -0.676  -0.978  1.00  0.00    -0.231 NA
ATOM     25  C   UNL     1       1.038  -0.382  -0.870  1.00  0.00     0.029 A 
ATOM     26  C   UNL     1       2.053   1.626  -0.051  1.00  0.00     0.001 A 
ATOM     27  C   UNL     1       2.186   0.322  -0.476  1.00  0.00     0.002 A 
ENDBRANCH  11  17
ENDBRANCH   9  10
BRANCH   9  28
ATOM     28  C   UNL     1      -3.870  -6.350   1.263  1.00  0.00     0.046 A 
ATOM     29  C   UNL     1      -4.962  -6.700   2.062  1.00  0.00     0.094 A 
ATOM     30  C   UNL     1      -2.840  -6.624   2.302  1.00  0.00     0.009 A 
ATOM     31  N   UNL     1      -4.880  -5.675   3.015  1.00  0.00    -0.361 N 
ATOM     32  C   UNL     1      -3.583  -5.709   3.632  1.00  0.00     0.046 A 
ATOM     33  C   UNL     1      -1.170  -7.212   2.621  1.00  0.00     0.011 A 
ATOM     34  H   UNL     1      -5.597  -5.035   3.228  1.00  0.00     0.166 HD
ATOM     35  C   UNL     1      -2.478  -5.238   5.247  1.00  0.00     0.026 A 
ATOM     36  C   UNL     1      -0.179  -6.813   4.063  1.00  0.00     0.001 A 
ATOM     37  C   UNL     1      -0.783  -5.830   5.358  1.00  0.00     0.002 A 
ENDBRANCH   9  28
ENDBRANCH   7   9
ENDBRANCH   6   7
ENDBRANCH   5   6
ENDBRANCH   4   5
ENDBRANCH   3   4
ENDBRANCH   2   3
ENDBRANCH   1   2
BRANCH   1  38
ATOM     38  O   UNL     1      -1.031  -4.263  -0.063  1.00  0.00    -0.376 OA
BRANCH  38  39
ATOM     39  C   UNL     1      -0.385  -3.058   0.265  1.00  0.00     0.202 C 
BRANCH  39  40
ATOM     40  C   UNL     1       0.068  -2.676   1.672  1.00  0.00     0.261 C 
BRANCH  40  41
ATOM     41  O   UNL     1      -0.870  -3.156   2.625  1.00  0.00    -0.460 OA
BRANCH  41  42
ATOM     42  C   UNL     1      -1.883  -2.568   3.275  1.00  0.00     0.338 C 
ATOM     43  O   UNL     1      -2.150  -1.395   3.395  1.00  0.00    -0.246 OA
BRANCH  42  44
ATOM     44  C   UNL     1      -2.636  -3.754   3.744  1.00  0.00     0.060 A 
ATOM     45  C   UNL     1      -4.114  -3.808   4.719  1.00  0.00     0.016 A 
ATOM     46  C   UNL     1      -1.727  -5.282   3.533  1.00  0.00     0.016 A 
ATOM     47  C   UNL     1      -4.686  -5.304   5.556  1.00  0.00     0.010 A 
ATOM     48  C   UNL     1      -2.382  -6.950   4.444  1.00  0.00     0.010 A 
ATOM     49  C   UNL     1      -3.846  -6.865   5.454  1.00  0.00    -0.014 A 
BRANCH  49  50
ATOM     50  C   UNL     1      -3.960  -8.008   6.373  1.00  0.00     0.031 A 
ATOM     51  C   UNL     1      -3.553  -7.837   7.804  1.00  0.00     0.074 A 
ATOM     52  C   UNL     1      -4.051  -9.255   5.874  1.00  0.00     0.049 A 
ATOM     53  N   UNL     1      -3.780  -8.611   8.828  1.00  0.00    -0.248 NA
ATOM     54  C   UNL     1      -2.721  -6.671   8.133  1.00  0.00     0.031 C 
ATOM     55  C   UNL     1      -4.036  -9.614   4.453  1.00  0.00     0.029 A 
ATOM     56  N   UNL     1      -4.135 -10.465   6.507  1.00  0.00    -0.354 N 
ATOM     57  C   UNL     1      -3.216  -7.959   9.918  1.00  0.00     0.074 A 
ATOM     58  C   UNL     1      -2.510  -6.810   9.428  1.00  0.00     0.031 C 
ATOM     59  C   UNL     1      -4.170 -10.941   4.320  1.00  0.00     0.029 A 
ATOM     60  C   UNL     1      -4.324 -11.519   5.643  1.00  0.00     0.049 A 
ATOM     61  H   UNL     1      -4.067 -10.571   7.483  1.00  0.00     0.167 HD
ATOM     62  C   UNL     1      -3.331  -8.277  11.224  1.00  0.00     0.037 A 
ATOM     63  C   UNL     1      -4.661 -12.794   5.903  1.00  0.00     0.037 A 
ATOM     64  C   UNL     1      -3.899  -9.529  11.630  1.00  0.00     0.049 A 
ATOM     65  C   UNL     1      -4.913 -13.143   7.339  1.00  0.00     0.074 A 
ATOM     66  C   UNL     1      -4.184  -9.994  12.895  1.00  0.00     0.029 A 
ATOM     67  N   UNL     1      -4.215 -10.549  10.738  1.00  0.00    -0.354 N 
ATOM     68  N   UNL     1      -4.699 -12.414   8.412  1.00  0.00    -0.248 NA
ATOM     69  C   UNL     1      -5.498 -14.458   7.604  1.00  0.00     0.031 C 
ATOM     70  C   UNL     1      -4.607 -11.324  12.770  1.00  0.00     0.029 A 
ATOM     71  C   UNL     1      -4.670 -11.655  11.422  1.00  0.00     0.049 A 
ATOM     72  H   UNL     1      -4.126 -10.489   9.759  1.00  0.00     0.167 HD
ATOM     73  C   UNL     1      -5.149 -13.170   9.485  1.00  0.00     0.074 A 
ATOM     74  C   UNL     1      -5.665 -14.405   8.918  1.00  0.00     0.031 C 
ATOM     75  C   UNL     1      -5.145 -12.876  10.812  1.00  0.00     0.037 A 
BRANCH  62  76
ATOM     76  C   UNL     1      -2.858  -7.259  12.228  1.00  0.00     0.058 A 
ATOM     77  C   UNL     1      -3.416  -5.963  12.265  1.00  0.00     0.135 A 
ATOM     78  C   UNL     1      -1.841  -7.546  13.148  1.00  0.00     0.135 A 
ATOM     79  F   UNL     1      -4.386  -5.616  11.403  1.00  0.00    -0.206 F 
ATOM     80  C   UNL     1      -2.949  -4.984  13.135  1.00  0.00     0.059 A 
ATOM     81  C   UNL     1      -1.384  -6.591  14.057  1.00  0.00     0.059 A 
ATOM     82  F   UNL     1      -1.259  -8.755  13.160  1.00  0.00    -0.206 F 
ATOM     83  C   UNL     1      -1.931  -5.309  14.029  1.00  0.00     0.060 A 
BRANCH  83  84
ATOM     84  S   UNL     1      -1.338  -4.024  15.149  1.00  0.00     0.124 S 
ATOM     85  O   UNL     1      -0.673  -3.112  14.223  1.00  0.00    -0.237 OA
ATOM     86  O   UNL     1      -2.578  -3.532  15.740  1.00  0.00    -0.237 OA
ATOM     87  O   UNL     1      -0.455  -4.746  16.059  1.00  0.00    -0.744 OA
ENDBRANCH  83  84
ENDBRANCH  62  76
BRANCH  63  88
ATOM     88  C   UNL     1      -4.924 -13.729   4.776  1.00  0.00     0.058 A 
ATOM     89  C   UNL     1      -6.231 -14.100   4.423  1.00  0.00     0.135 A 
ATOM     90  C   UNL     1      -3.878 -14.191   3.963  1.00  0.00     0.135 A 
ATOM     91  F   UNL     1      -7.272 -13.670   5.153  1.00  0.00    -0.206 F 
ATOM     92  C   UNL     1      -6.491 -14.910   3.319  1.00  0.00     0.059 A 
ATOM     93  C   UNL     1      -4.113 -14.979   2.840  1.00  0.00     0.059 A 
ATOM     94  F   UNL     1      -2.612 -13.832   4.231  1.00  0.00    -0.206 F 
ATOM     95  C   UNL     1      -5.423 -15.339   2.529  1.00  0.00     0.060 A 
BRANCH  95  96
ATOM     96  S   UNL     1      -5.776 -16.337   1.065  1.00  0.00     0.124 S 
ATOM     97  O   UNL     1      -6.261 -17.576   1.661  1.00  0.00    -0.237 OA
ATOM     98  O   UNL     1      -6.774 -15.526   0.376  1.00  0.00    -0.237 OA
ATOM     99  O   UNL     1      -4.480 -16.426   0.397  1.00  0.00    -0.744 OA
ENDBRANCH  95  96
ENDBRANCH  63  88
BRANCH  75 100
ATOM    100  C   UNL     1      -5.745 -13.902  11.725  1.00  0.00     0.058 A 
ATOM    101  C   UNL     1      -5.160 -15.162  11.916  1.00  0.00     0.135 A 
ATOM    102  C   UNL     1      -6.920 -13.601  12.434  1.00  0.00     0.135 A 
ATOM    103  F   UNL     1      -4.035 -15.494  11.263  1.00  0.00    -0.206 F 
ATOM    104  C   UNL     1      -5.757 -16.116  12.728  1.00  0.00     0.059 A 
ATOM    105  C   UNL     1      -7.503 -14.521  13.293  1.00  0.00     0.059 A 
ATOM    106  F   UNL     1      -7.506 -12.400  12.302  1.00  0.00    -0.206 F 
ATOM    107  C   UNL     1      -6.929 -15.784  13.410  1.00  0.00     0.060 A 
BRANCH 107 108
ATOM    108  S   UNL     1      -7.700 -17.036  14.451  1.00  0.00     0.124 S 
ATOM    109  O   UNL     1      -8.209 -17.971  13.454  1.00  0.00    -0.237 OA
ATOM    110  O   UNL     1      -6.574 -17.509  15.250  1.00  0.00    -0.237 OA
ATOM    111  O   UNL     1      -8.715 -16.288  15.187  1.00  0.00    -0.744 OA
ENDBRANCH 107 108
ENDBRANCH  75 100
ENDBRANCH  49  50
ENDBRANCH  42  44
ENDBRANCH  41  42
ENDBRANCH  40  41
ENDBRANCH  39  40
ENDBRANCH  38  39
ENDBRANCH   1  38
TORSDOF 23
