REMARK SMILES CCOC(=O)C1=NN(c2ccc(C)cc2Cl)[C@@](C)(C(=O)OCCOCCOCCOC(=O)c2ccc(-c3c4nc(c(-c5c(F)cc(S(=O)(=O)[O-])cc5F)c5ccc([nH]5)c(-c5c(F)cc(S(=O)(=O)[O-])cc5F)c5nc(c(-c6c(F)cc(S(=O)(=O)[O-])cc6F)c6ccc3[nH]6)C=C5)C=C4)cc2)C1
REMARK SMILES IDX 25 1 24 2 23 3 22 4 21 5 19 6 20 7 17 8 6 9 7 10 99 11 8 12
REMARK SMILES IDX 18 13 4 14 5 15 3 16 2 17 1 18 9 19 10 20 15 21 11 22 14 23
REMARK SMILES IDX 16 24 12 25 13 26 26 27 27 28 28 29 29 30 30 31 31 32 32 33
REMARK SMILES IDX 33 34 34 35 98 36 35 37 97 38 36 39 37 40 38 41 91 42 39 43
REMARK SMILES IDX 96 44 90 45 92 46 40 47 95 48 89 49 88 50 41 52 75 53 54 54
REMARK SMILES IDX 74 55 55 56 58 57 73 58 93 59 56 60 57 61 72 63 94 64 59 65
REMARK SMILES IDX 42 66 43 67 52 68 44 69 45 70 51 71 53 72 46 73 47 74 48 75
REMARK SMILES IDX 49 76 50 77 76 78 77 79 86 80 78 81 79 82 85 83 87 84 80 85
REMARK SMILES IDX 81 86 82 87 83 88 84 89 60 90 61 91 70 92 62 93 63 94 69 95
REMARK SMILES IDX 71 96 64 97 65 98 66 99 67 100 68 101
REMARK H PARENT 92 51 58 62
REMARK Flexibility Score: inf
ROOT
ATOM      1  C   UNL     1       5.675  -4.014  -3.364  1.00  0.00     0.188 C 
ENDROOT
BRANCH   1   2
ATOM      2  O   UNL     1       7.085  -4.196  -3.440  1.00  0.00    -0.376 OA
BRANCH   2   3
ATOM      3  C   UNL     1       7.624  -5.506  -3.442  1.00  0.00     0.202 C 
BRANCH   3   4
ATOM      4  C   UNL     1       7.391  -6.389  -2.204  1.00  0.00     0.261 C 
BRANCH   4   5
ATOM      5  O   UNL     1       6.040  -6.474  -1.683  1.00  0.00    -0.461 OA
BRANCH   5   6
ATOM      6  C   UNL     1       5.809  -5.764  -0.549  1.00  0.00     0.334 C 
ATOM      7  O   UNL     1       6.700  -5.119   0.009  1.00  0.00    -0.249 OA
BRANCH   6   8
ATOM      8  C   UNL     1       4.404  -5.864   0.096  1.00  0.00     0.163 C 
ATOM      9  C   UNL     1       2.793  -4.189  -0.238  1.00  0.00     0.149 C 
ATOM     10  N   UNL     1       2.349  -5.183  -0.942  1.00  0.00    -0.169 NA
ATOM     11  C   UNL     1       4.040  -4.428   0.535  1.00  0.00     0.108 C 
ATOM     12  N   UNL     1       3.225  -6.241  -0.766  1.00  0.00    -0.246 N 
ATOM     13  C   UNL     1       4.603  -6.728   1.340  1.00  0.00     0.050 C 
BRANCH   9  14
ATOM     14  C   UNL     1       2.193  -2.804  -0.204  1.00  0.00     0.354 C 
ATOM     15  O   UNL     1       2.950  -1.850  -0.169  1.00  0.00    -0.245 OA
BRANCH  14  16
ATOM     16  O   UNL     1       0.853  -2.803  -0.247  1.00  0.00    -0.461 OA
BRANCH  16  17
ATOM     17  C   UNL     1       0.144  -1.554  -0.448  1.00  0.00     0.230 C 
ATOM     18  C   UNL     1       0.515  -0.407   0.479  1.00  0.00     0.049 C 
ENDBRANCH  16  17
ENDBRANCH  14  16
ENDBRANCH   9  14
BRANCH  12  19
ATOM     19  C   UNL     1       2.750  -7.510  -1.132  1.00  0.00     0.079 A 
ATOM     20  C   UNL     1       2.702  -8.569  -0.209  1.00  0.00     0.030 A 
ATOM     21  C   UNL     1       2.194  -7.821  -2.398  1.00  0.00     0.066 A 
ATOM     22  C   UNL     1       2.307  -9.874  -0.544  1.00  0.00     0.006 A 
ATOM     23  C   UNL     1       1.850  -9.141  -2.761  1.00  0.00     0.026 A 
ATOM     24  Cl  UNL     1       1.799  -6.631  -3.592  1.00  0.00    -0.082 Cl
ATOM     25  C   UNL     1       1.922 -10.184  -1.840  1.00  0.00    -0.049 A 
ATOM     26  C   UNL     1       1.587 -11.588  -2.237  1.00  0.00     0.044 C 
ENDBRANCH  12  19
ENDBRANCH   6   8
ENDBRANCH   5   6
ENDBRANCH   4   5
ENDBRANCH   3   4
ENDBRANCH   2   3
ENDBRANCH   1   2
BRANCH   1  27
ATOM     27  C   UNL     1       4.723  -5.130  -3.817  1.00  0.00     0.188 C 
BRANCH  27  28
ATOM     28  O   UNL     1       5.311  -6.072  -4.694  1.00  0.00    -0.376 OA
BRANCH  28  29
ATOM     29  C   UNL     1       4.649  -6.282  -5.926  1.00  0.00     0.202 C 
BRANCH  29  30
ATOM     30  C   UNL     1       4.706  -5.095  -6.896  1.00  0.00     0.261 C 
BRANCH  30  31
ATOM     31  O   UNL     1       4.377  -3.814  -6.322  1.00  0.00    -0.460 OA
BRANCH  31  32
ATOM     32  C   UNL     1       3.068  -3.482  -6.266  1.00  0.00     0.338 C 
ATOM     33  O   UNL     1       2.127  -4.142  -6.684  1.00  0.00    -0.246 OA
BRANCH  32  34
ATOM     34  C   UNL     1       2.933  -2.232  -5.485  1.00  0.00     0.060 A 
ATOM     35  C   UNL     1       2.525  -2.305  -4.153  1.00  0.00     0.016 A 
ATOM     36  C   UNL     1       3.171  -0.985  -6.069  1.00  0.00     0.016 A 
ATOM     37  C   UNL     1       2.357  -1.133  -3.418  1.00  0.00     0.010 A 
ATOM     38  C   UNL     1       2.953   0.192  -5.328  1.00  0.00     0.010 A 
ATOM     39  C   UNL     1       2.510   0.130  -3.998  1.00  0.00    -0.014 A 
BRANCH  39  40
ATOM     40  C   UNL     1       2.031   1.331  -3.246  1.00  0.00     0.031 A 
ATOM     41  C   UNL     1       0.741   1.996  -3.668  1.00  0.00     0.074 A 
ATOM     42  C   UNL     1       2.642   1.764  -2.124  1.00  0.00     0.049 A 
ATOM     43  N   UNL     1       0.159   3.067  -3.189  1.00  0.00    -0.248 NA
ATOM     44  C   UNL     1       0.002   1.354  -4.766  1.00  0.00     0.031 C 
ATOM     45  C   UNL     1       3.820   1.153  -1.514  1.00  0.00     0.029 A 
ATOM     46  N   UNL     1       2.335   2.808  -1.280  1.00  0.00    -0.354 N 
ATOM     47  C   UNL     1      -0.989   3.252  -3.953  1.00  0.00     0.074 A 
ATOM     48  C   UNL     1      -1.023   2.179  -4.924  1.00  0.00     0.031 C 
ATOM     49  C   UNL     1       4.126   1.818  -0.387  1.00  0.00     0.029 A 
ATOM     50  C   UNL     1       3.208   2.945  -0.224  1.00  0.00     0.049 A 
ATOM     51  H   UNL     1       1.562   3.403  -1.418  1.00  0.00     0.167 HD
ATOM     52  C   UNL     1      -1.926   4.228  -3.863  1.00  0.00     0.037 A 
ATOM     53  C   UNL     1       3.285   3.881   0.746  1.00  0.00     0.037 A 
ATOM     54  C   UNL     1      -1.912   5.288  -2.884  1.00  0.00     0.049 A 
ATOM     55  C   UNL     1       2.280   5.007   0.775  1.00  0.00     0.074 A 
ATOM     56  C   UNL     1      -2.810   6.332  -2.734  1.00  0.00     0.029 A 
ATOM     57  N   UNL     1      -0.958   5.442  -1.889  1.00  0.00    -0.354 N 
ATOM     58  N   UNL     1       1.235   5.206   0.006  1.00  0.00    -0.248 NA
ATOM     59  C   UNL     1       2.473   6.044   1.800  1.00  0.00     0.031 C 
ATOM     60  C   UNL     1      -2.368   7.148  -1.688  1.00  0.00     0.029 A 
ATOM     61  C   UNL     1      -1.232   6.578  -1.140  1.00  0.00     0.049 A 
ATOM     62  H   UNL     1      -0.199   4.835  -1.736  1.00  0.00     0.167 HD
ATOM     63  C   UNL     1       0.641   6.380   0.464  1.00  0.00     0.074 A 
ATOM     64  C   UNL     1       1.423   6.828   1.596  1.00  0.00     0.031 C 
ATOM     65  C   UNL     1      -0.449   7.030  -0.016  1.00  0.00     0.037 A 
BRANCH  52  66
ATOM     66  C   UNL     1      -3.022   4.240  -4.896  1.00  0.00     0.058 A 
ATOM     67  C   UNL     1      -4.058   3.292  -4.906  1.00  0.00     0.135 A 
ATOM     68  C   UNL     1      -3.050   5.247  -5.876  1.00  0.00     0.135 A 
ATOM     69  F   UNL     1      -4.072   2.296  -4.006  1.00  0.00    -0.206 F 
ATOM     70  C   UNL     1      -5.066   3.329  -5.865  1.00  0.00     0.059 A 
ATOM     71  C   UNL     1      -4.064   5.321  -6.824  1.00  0.00     0.059 A 
ATOM     72  F   UNL     1      -2.084   6.179  -5.914  1.00  0.00    -0.206 F 
ATOM     73  C   UNL     1      -5.061   4.348  -6.820  1.00  0.00     0.060 A 
BRANCH  73  74
ATOM     74  S   UNL     1      -6.378   4.385  -8.055  1.00  0.00     0.124 S 
ATOM     75  O   UNL     1      -6.032   3.235  -8.884  1.00  0.00    -0.237 OA
ATOM     76  O   UNL     1      -7.577   4.238  -7.235  1.00  0.00    -0.237 OA
ATOM     77  O   UNL     1      -6.213   5.688  -8.691  1.00  0.00    -0.744 OA
ENDBRANCH  73  74
ENDBRANCH  52  66
BRANCH  53  78
ATOM     78  C   UNL     1       4.387   3.834   1.751  1.00  0.00     0.058 A 
ATOM     79  C   UNL     1       4.127   3.641   3.116  1.00  0.00     0.135 A 
ATOM     80  C   UNL     1       5.725   4.016   1.365  1.00  0.00     0.135 A 
ATOM     81  F   UNL     1       2.865   3.488   3.545  1.00  0.00    -0.206 F 
ATOM     82  C   UNL     1       5.149   3.641   4.062  1.00  0.00     0.059 A 
ATOM     83  C   UNL     1       6.767   3.983   2.287  1.00  0.00     0.059 A 
ATOM     84  F   UNL     1       6.033   4.213   0.074  1.00  0.00    -0.206 F 
ATOM     85  C   UNL     1       6.468   3.807   3.636  1.00  0.00     0.060 A 
BRANCH  85  86
ATOM     86  S   UNL     1       7.793   3.755   4.863  1.00  0.00     0.124 S 
ATOM     87  O   UNL     1       7.611   5.030   5.547  1.00  0.00    -0.237 OA
ATOM     88  O   UNL     1       7.450   2.563   5.633  1.00  0.00    -0.237 OA
ATOM     89  O   UNL     1       9.000   3.641   4.050  1.00  0.00    -0.744 OA
ENDBRANCH  85  86
ENDBRANCH  53  78
BRANCH  65  90
ATOM     90  C   UNL     1      -0.882   8.286   0.700  1.00  0.00     0.058 A 
ATOM     91  C   UNL     1      -0.117   9.464   0.663  1.00  0.00     0.135 A 
ATOM     92  C   UNL     1      -2.085   8.317   1.425  1.00  0.00     0.135 A 
ATOM     93  F   UNL     1       1.042   9.496  -0.014  1.00  0.00    -0.206 F 
ATOM     94  C   UNL     1      -0.502  10.607   1.359  1.00  0.00     0.059 A 
ATOM     95  C   UNL     1      -2.507   9.460   2.100  1.00  0.00     0.059 A 
ATOM     96  F   UNL     1      -2.869   7.228   1.483  1.00  0.00    -0.206 F 
ATOM     97  C   UNL     1      -1.697  10.594   2.080  1.00  0.00     0.060 A 
BRANCH  97  98
ATOM     98  S   UNL     1      -2.178  12.078   2.990  1.00  0.00     0.124 S 
ATOM     99  O   UNL     1      -1.237  12.057   4.104  1.00  0.00    -0.237 OA
ATOM    100  O   UNL     1      -1.969  13.132   2.002  1.00  0.00    -0.237 OA
ATOM    101  O   UNL     1      -3.572  11.825   3.341  1.00  0.00    -0.744 OA
ENDBRANCH  97  98
ENDBRANCH  65  90
ENDBRANCH  39  40
ENDBRANCH  32  34
ENDBRANCH  31  32
ENDBRANCH  30  31
ENDBRANCH  29  30
ENDBRANCH  28  29
ENDBRANCH  27  28
ENDBRANCH   1  27
TORSDOF 24
