REMARK SMILES C[C@H]1CCc2sc3ncn4nc(/C=C\C(=O)OCCOCCOCCOC(=O)c5ccc(-c6c7nc(c(-c8c(F)cc(S(=O)(=O)[O-])cc8F)c8ccc([nH]8)c(-c8c(F)cc(S(=O)(=O)[O-])cc8F)c8nc(c(-c9c(F)cc(S(=O)(=O)[O-])cc9F)c9ccc6[nH]9)C=C8)C=C7)cc5)nc4c3c2C1
REMARK SMILES IDX 22 1 21 2 20 3 19 4 18 5 17 6 15 7 16 8 14 9 13 10 12 11
REMARK SMILES IDX 1 12 2 13 3 14 99 15 4 16 98 17 5 18 97 19 6 20 7 21 96 22
REMARK SMILES IDX 8 23 10 24 95 25 9 26 11 27 23 28 24 29 25 30 26 31 27 32
REMARK SMILES IDX 28 33 29 34 30 35 94 36 31 37 93 38 32 39 33 40 34 41 87 42
REMARK SMILES IDX 35 43 92 44 86 45 88 46 36 47 91 48 85 49 84 50 37 52 71 53
REMARK SMILES IDX 50 54 70 55 51 56 54 57 69 58 89 59 52 60 53 61 68 63 90 64
REMARK SMILES IDX 55 65 38 66 39 67 48 68 40 69 41 70 47 71 49 72 42 73 43 74
REMARK SMILES IDX 44 75 45 76 46 77 72 78 73 79 82 80 74 81 75 82 81 83 83 84
REMARK SMILES IDX 76 85 77 86 78 87 79 88 80 89 56 90 57 91 66 92 58 93 59 94
REMARK SMILES IDX 65 95 67 96 60 97 61 98 62 99 63 100 64 101
REMARK H PARENT 88 51 54 62
REMARK Flexibility Score: inf
ROOT
ATOM      1  C   UNL     1       1.488  -2.211   5.048  1.00  0.00     0.188 C 
ENDROOT
BRANCH   1   2
ATOM      2  C   UNL     1       1.217  -3.417   4.112  1.00  0.00     0.188 C 
BRANCH   2   3
ATOM      3  O   UNL     1       1.482  -3.317   2.717  1.00  0.00    -0.376 OA
BRANCH   3   4
ATOM      4  C   UNL     1       0.887  -2.252   1.981  1.00  0.00     0.202 C 
BRANCH   4   5
ATOM      5  C   UNL     1      -0.603  -1.935   2.183  1.00  0.00     0.261 C 
BRANCH   5   6
ATOM      6  O   UNL     1      -0.953  -1.701   3.550  1.00  0.00    -0.460 OA
BRANCH   6   7
ATOM      7  C   UNL     1      -2.094  -2.255   4.006  1.00  0.00     0.330 C 
ATOM      8  O   UNL     1      -2.874  -2.937   3.373  1.00  0.00    -0.247 OA
BRANCH   7   9
ATOM      9  C   UNL     1      -2.201  -2.121   5.474  1.00  0.00     0.097 C 
ATOM     10  C   UNL     1      -2.032  -1.046   6.258  1.00  0.00     0.058 C 
BRANCH  10  11
ATOM     11  C   UNL     1      -1.712   0.307   5.939  1.00  0.00     0.175 A 
ATOM     12  C   UNL     1      -0.939   2.106  -0.537  1.00  0.00     0.008 C 
ATOM     13  C   UNL     1       0.338   1.865   0.271  1.00  0.00    -0.009 C 
ATOM     14  C   UNL     1       1.367   3.004   0.101  1.00  0.00     0.009 C 
ATOM     15  C   UNL     1      -0.007   1.616   1.751  1.00  0.00     0.041 C 
ATOM     16  C   UNL     1       0.941   4.332   0.753  1.00  0.00     0.047 C 
ATOM     17  C   UNL     1      -0.062   2.858   2.571  1.00  0.00    -0.020 A 
ATOM     18  C   UNL     1       0.386   4.083   2.121  1.00  0.00     0.011 A 
ATOM     19  C   UNL     1      -0.519   2.964   3.900  1.00  0.00     0.060 A 
ATOM     20  S   UNL     1       0.215   5.321   3.291  1.00  0.00    -0.120 S 
ATOM     21  C   UNL     1      -0.432   4.233   4.448  1.00  0.00     0.129 A 
ATOM     22  C   UNL     1      -1.053   1.947   4.817  1.00  0.00     0.168 A 
ATOM     23  N   UNL     1      -0.788   4.623   5.720  1.00  0.00    -0.225 NA
ATOM     24  N   UNL     1      -1.348   2.348   6.080  1.00  0.00    -0.201 N 
ATOM     25  N   UNL     1      -1.326   0.678   4.672  1.00  0.00    -0.207 NA
ATOM     26  C   UNL     1      -1.227   3.670   6.509  1.00  0.00     0.227 A 
ATOM     27  N   UNL     1      -1.773   1.316   6.831  1.00  0.00    -0.145 NA
ENDBRANCH  10  11
ENDBRANCH   7   9
ENDBRANCH   6   7
ENDBRANCH   5   6
ENDBRANCH   4   5
ENDBRANCH   3   4
ENDBRANCH   2   3
ENDBRANCH   1   2
BRANCH   1  28
ATOM     28  O   UNL     1       1.473  -0.949   4.418  1.00  0.00    -0.376 OA
BRANCH  28  29
ATOM     29  C   UNL     1       2.647  -0.183   4.220  1.00  0.00     0.202 C 
BRANCH  29  30
ATOM     30  C   UNL     1       4.041  -0.768   4.030  1.00  0.00     0.261 C 
BRANCH  30  31
ATOM     31  O   UNL     1       4.092  -2.160   3.804  1.00  0.00    -0.460 OA
BRANCH  31  32
ATOM     32  C   UNL     1       4.501  -2.850   4.883  1.00  0.00     0.338 C 
ATOM     33  O   UNL     1       4.563  -2.439   6.044  1.00  0.00    -0.246 OA
BRANCH  32  34
ATOM     34  C   UNL     1       4.985  -4.160   4.482  1.00  0.00     0.060 A 
ATOM     35  C   UNL     1       5.219  -5.073   5.509  1.00  0.00     0.016 A 
ATOM     36  C   UNL     1       5.493  -4.333   3.185  1.00  0.00     0.016 A 
ATOM     37  C   UNL     1       6.160  -6.047   5.293  1.00  0.00     0.010 A 
ATOM     38  C   UNL     1       6.434  -5.311   2.972  1.00  0.00     0.010 A 
ATOM     39  C   UNL     1       6.821  -6.089   4.056  1.00  0.00    -0.014 A 
BRANCH  39  40
ATOM     40  C   UNL     1       7.905  -7.036   3.933  1.00  0.00     0.031 A 
ATOM     41  C   UNL     1       7.442  -8.434   4.006  1.00  0.00     0.074 A 
ATOM     42  C   UNL     1       9.191  -6.675   3.778  1.00  0.00     0.049 A 
ATOM     43  N   UNL     1       7.561  -9.239   5.006  1.00  0.00    -0.248 NA
ATOM     44  C   UNL     1       6.561  -8.918   2.935  1.00  0.00     0.031 C 
ATOM     45  C   UNL     1       9.748  -5.357   3.466  1.00  0.00     0.029 A 
ATOM     46  N   UNL     1      10.290  -7.472   3.811  1.00  0.00    -0.354 N 
ATOM     47  C   UNL     1       6.971 -10.426   4.596  1.00  0.00     0.074 A 
ATOM     48  C   UNL     1       6.210 -10.112   3.415  1.00  0.00     0.031 C 
ATOM     49  C   UNL     1      11.051  -5.495   3.123  1.00  0.00     0.029 A 
ATOM     50  C   UNL     1      11.450  -6.877   3.338  1.00  0.00     0.049 A 
ATOM     51  H   UNL     1      10.265  -8.398   4.144  1.00  0.00     0.167 HD
ATOM     52  C   UNL     1       7.373 -11.614   5.120  1.00  0.00     0.037 A 
ATOM     53  C   UNL     1      12.628  -7.507   3.099  1.00  0.00     0.037 A 
ATOM     54  C   UNL     1       8.075 -11.422   6.366  1.00  0.00     0.049 A 
ATOM     55  C   UNL     1      12.630  -8.740   3.933  1.00  0.00     0.074 A 
ATOM     56  C   UNL     1       7.743 -10.885   7.595  1.00  0.00     0.029 A 
ATOM     57  N   UNL     1       9.448 -11.474   6.338  1.00  0.00    -0.354 N 
ATOM     58  N   UNL     1      12.665  -8.734   5.238  1.00  0.00    -0.248 NA
ATOM     59  C   UNL     1      12.139  -9.971   3.331  1.00  0.00     0.031 C 
ATOM     60  C   UNL     1       8.924 -10.224   8.046  1.00  0.00     0.029 A 
ATOM     61  C   UNL     1       9.925 -10.437   7.098  1.00  0.00     0.049 A 
ATOM     62  H   UNL     1       9.992 -12.138   5.856  1.00  0.00     0.167 HD
ATOM     63  C   UNL     1      11.817  -9.763   5.623  1.00  0.00     0.074 A 
ATOM     64  C   UNL     1      11.597 -10.545   4.409  1.00  0.00     0.031 C 
ATOM     65  C   UNL     1      11.157  -9.727   6.818  1.00  0.00     0.037 A 
BRANCH  52  66
ATOM     66  C   UNL     1       7.494 -12.879   4.306  1.00  0.00     0.058 A 
ATOM     67  C   UNL     1       7.837 -14.079   4.960  1.00  0.00     0.135 A 
ATOM     68  C   UNL     1       7.586 -12.906   2.895  1.00  0.00     0.135 A 
ATOM     69  F   UNL     1       7.783 -14.168   6.298  1.00  0.00    -0.206 F 
ATOM     70  C   UNL     1       8.328 -15.188   4.272  1.00  0.00     0.059 A 
ATOM     71  C   UNL     1       8.021 -14.018   2.187  1.00  0.00     0.059 A 
ATOM     72  F   UNL     1       7.359 -11.831   2.133  1.00  0.00    -0.206 F 
ATOM     73  C   UNL     1       8.435 -15.137   2.885  1.00  0.00     0.060 A 
BRANCH  73  74
ATOM     74  S   UNL     1       9.189 -16.513   2.006  1.00  0.00     0.124 S 
ATOM     75  O   UNL     1      10.568 -16.433   2.473  1.00  0.00    -0.237 OA
ATOM     76  O   UNL     1       8.409 -17.644   2.496  1.00  0.00    -0.237 OA
ATOM     77  O   UNL     1       8.975 -16.172   0.603  1.00  0.00    -0.744 OA
ENDBRANCH  73  74
ENDBRANCH  52  66
BRANCH  53  78
ATOM     78  C   UNL     1      13.529  -7.336   1.926  1.00  0.00     0.058 A 
ATOM     79  C   UNL     1      14.787  -7.965   1.885  1.00  0.00     0.135 A 
ATOM     80  C   UNL     1      13.061  -6.809   0.705  1.00  0.00     0.135 A 
ATOM     81  F   UNL     1      15.305  -8.509   2.997  1.00  0.00    -0.206 F 
ATOM     82  C   UNL     1      15.508  -8.121   0.695  1.00  0.00     0.059 A 
ATOM     83  C   UNL     1      13.765  -6.944  -0.491  1.00  0.00     0.059 A 
ATOM     84  F   UNL     1      11.856  -6.226   0.617  1.00  0.00    -0.206 F 
ATOM     85  C   UNL     1      14.975  -7.628  -0.495  1.00  0.00     0.060 A 
BRANCH  85  86
ATOM     86  S   UNL     1      15.813  -7.981  -2.058  1.00  0.00     0.124 S 
ATOM     87  O   UNL     1      17.043  -7.209  -1.923  1.00  0.00    -0.237 OA
ATOM     88  O   UNL     1      15.962  -9.432  -2.006  1.00  0.00    -0.237 OA
ATOM     89  O   UNL     1      14.876  -7.489  -3.065  1.00  0.00    -0.744 OA
ENDBRANCH  85  86
ENDBRANCH  53  78
BRANCH  65  90
ATOM     90  C   UNL     1      11.606  -8.726   7.853  1.00  0.00     0.058 A 
ATOM     91  C   UNL     1      11.504  -7.330   7.714  1.00  0.00     0.135 A 
ATOM     92  C   UNL     1      12.009  -9.216   9.105  1.00  0.00     0.135 A 
ATOM     93  F   UNL     1      11.039  -6.781   6.582  1.00  0.00    -0.206 F 
ATOM     94  C   UNL     1      11.816  -6.462   8.765  1.00  0.00     0.059 A 
ATOM     95  C   UNL     1      12.294  -8.372  10.174  1.00  0.00     0.059 A 
ATOM     96  F   UNL     1      12.072 -10.541   9.319  1.00  0.00    -0.206 F 
ATOM     97  C   UNL     1      12.204  -6.994   9.995  1.00  0.00     0.060 A 
BRANCH  97  98
ATOM     98  S   UNL     1      12.521  -5.878  11.380  1.00  0.00     0.124 S 
ATOM     99  O   UNL     1      13.745  -5.203  10.960  1.00  0.00    -0.237 OA
ATOM    100  O   UNL     1      11.317  -5.051  11.402  1.00  0.00    -0.237 OA
ATOM    101  O   UNL     1      12.667  -6.779  12.521  1.00  0.00    -0.744 OA
ENDBRANCH  97  98
ENDBRANCH  65  90
ENDBRANCH  39  40
ENDBRANCH  32  34
ENDBRANCH  31  32
ENDBRANCH  30  31
ENDBRANCH  29  30
ENDBRANCH  28  29
ENDBRANCH   1  28
TORSDOF 21
