REMARK SMILES O=C(OCCOCCOCCOC(=O)c1ccc(-c2c3nc(c(-c4c(F)cc(S(=O)(=O)[O-])cc4F)c4ccc([nH]4)c(-c4c(F)cc(S(=O)(=O)[O-])cc4F)c4nc(c(-c5c(F)cc(S(=O)(=O)[O-])cc5F)c5ccc2[nH]5)C=C4)C=C3)cc1)C1=Cc2cc(Cl)c(Cl)cc2O[C@@H]1C(F)(F)F
REMARK SMILES IDX 8 1 7 2 6 3 5 4 4 5 3 6 2 7 1 8 81 9 82 10 92 11 83 12 91 13
REMARK SMILES IDX 84 14 90 15 85 16 89 17 86 18 87 19 88 20 93 21 94 22 95 23
REMARK SMILES IDX 96 24 9 25 10 26 11 27 12 28 13 29 14 30 15 31 16 32 80 33
REMARK SMILES IDX 17 34 79 35 18 36 19 37 20 38 73 39 21 40 78 41 72 42 74 43
REMARK SMILES IDX 22 44 77 45 71 46 70 47 23 49 57 50 36 51 56 52 37 53 40 54
REMARK SMILES IDX 55 55 75 56 38 57 39 58 54 60 76 61 41 62 24 63 25 64 34 65
REMARK SMILES IDX 26 66 27 67 33 68 35 69 28 70 29 71 30 72 31 73 32 74 58 75
REMARK SMILES IDX 59 76 68 77 60 78 61 79 67 80 69 81 62 82 63 83 64 84 65 85
REMARK SMILES IDX 66 86 42 87 43 88 52 89 44 90 45 91 51 92 53 93 46 94 47 95
REMARK SMILES IDX 48 96 49 97 50 98
REMARK H PARENT 74 48 40 59
REMARK Flexibility Score: inf
ROOT
ATOM      1  C   UNL     1       2.309   3.042   1.474  1.00  0.00     0.188 C 
ENDROOT
BRANCH   1   2
ATOM      2  C   UNL     1       2.539   1.564   1.839  1.00  0.00     0.188 C 
BRANCH   2   3
ATOM      3  O   UNL     1       3.844   0.895   1.888  1.00  0.00    -0.376 OA
BRANCH   3   4
ATOM      4  C   UNL     1       4.505  -0.247   0.865  1.00  0.00     0.202 C 
BRANCH   4   5
ATOM      5  C   UNL     1       3.755  -0.897  -1.061  1.00  0.00     0.261 C 
BRANCH   5   6
ATOM      6  O   UNL     1       2.862  -2.111  -1.328  1.00  0.00    -0.460 OA
BRANCH   6   7
ATOM      7  C   UNL     1       3.102  -3.115  -0.476  1.00  0.00     0.338 C 
ATOM      8  O   UNL     1       2.514  -4.158  -0.348  1.00  0.00    -0.246 OA
BRANCH   7   9
ATOM      9  C   UNL     1       3.945  -2.359   0.428  1.00  0.00     0.087 C 
ATOM     10  C   UNL     1       5.322  -2.178  -0.070  1.00  0.00     0.027 C 
ATOM     11  C   UNL     1       2.668  -0.938   0.678  1.00  0.00     0.316 C 
ATOM     12  C   UNL     1       5.944  -0.628  -0.765  1.00  0.00     0.019 A 
ATOM     13  O   UNL     1       3.270   0.703  -0.169  1.00  0.00    -0.475 OA
ATOM     14  C   UNL     1       7.184  -0.589  -1.339  1.00  0.00     0.034 A 
ATOM     15  C   UNL     1       4.951   0.788  -0.880  1.00  0.00     0.129 A 
ATOM     16  C   UNL     1       7.529   0.641  -1.944  1.00  0.00     0.060 A 
ATOM     17  C   UNL     1       5.361   1.954  -1.460  1.00  0.00     0.069 A 
ATOM     18  Cl  UNL     1       9.102   0.643  -2.705  1.00  0.00    -0.083 Cl
ATOM     19  C   UNL     1       6.676   1.845  -1.988  1.00  0.00     0.063 A 
ATOM     20  Cl  UNL     1       7.298   3.282  -2.759  1.00  0.00    -0.083 Cl
BRANCH  11  21
ATOM     21  C   UNL     1       2.335  -1.303   2.239  1.00  0.00     0.430 C 
ATOM     22  F   UNL     1       1.698  -0.406   2.996  1.00  0.00    -0.167 F 
ATOM     23  F   UNL     1       1.497  -2.382   2.215  1.00  0.00    -0.167 F 
ATOM     24  F   UNL     1       3.417  -1.730   2.940  1.00  0.00    -0.167 F 
ENDBRANCH  11  21
ENDBRANCH   7   9
ENDBRANCH   6   7
ENDBRANCH   5   6
ENDBRANCH   4   5
ENDBRANCH   3   4
ENDBRANCH   2   3
ENDBRANCH   1   2
BRANCH   1  25
ATOM     25  O   UNL     1       3.332   3.770   0.843  1.00  0.00    -0.376 OA
BRANCH  25  26
ATOM     26  C   UNL     1       4.587   3.777   1.509  1.00  0.00     0.202 C 
BRANCH  26  27
ATOM     27  C   UNL     1       4.622   4.145   3.001  1.00  0.00     0.261 C 
BRANCH  27  28
ATOM     28  O   UNL     1       4.136   3.095   3.867  1.00  0.00    -0.460 OA
BRANCH  28  29
ATOM     29  C   UNL     1       3.074   3.398   4.657  1.00  0.00     0.338 C 
ATOM     30  O   UNL     1       2.484   4.465   4.707  1.00  0.00    -0.246 OA
BRANCH  29  31
ATOM     31  C   UNL     1       2.585   2.184   5.349  1.00  0.00     0.060 A 
ATOM     32  C   UNL     1       1.243   1.810   5.176  1.00  0.00     0.016 A 
ATOM     33  C   UNL     1       3.414   1.454   6.202  1.00  0.00     0.016 A 
ATOM     34  C   UNL     1       0.720   0.720   5.870  1.00  0.00     0.010 A 
ATOM     35  C   UNL     1       2.877   0.390   6.937  1.00  0.00     0.010 A 
ATOM     36  C   UNL     1       1.517   0.049   6.804  1.00  0.00    -0.014 A 
BRANCH  36  37
ATOM     37  C   UNL     1       0.839  -0.755   7.852  1.00  0.00     0.031 A 
ATOM     38  C   UNL     1       0.416  -0.028   9.103  1.00  0.00     0.074 A 
ATOM     39  C   UNL     1       0.549  -2.058   7.687  1.00  0.00     0.049 A 
ATOM     40  N   UNL     1      -0.237  -0.469  10.145  1.00  0.00    -0.248 NA
ATOM     41  C   UNL     1       0.781   1.398   9.184  1.00  0.00     0.031 C 
ATOM     42  C   UNL     1       0.867  -2.855   6.505  1.00  0.00     0.029 A 
ATOM     43  N   UNL     1      -0.089  -2.938   8.527  1.00  0.00    -0.354 N 
ATOM     44  C   UNL     1      -0.362   0.622  10.999  1.00  0.00     0.074 A 
ATOM     45  C   UNL     1       0.316   1.734  10.375  1.00  0.00     0.031 C 
ATOM     46  C   UNL     1       0.425  -4.112   6.697  1.00  0.00     0.029 A 
ATOM     47  C   UNL     1      -0.189  -4.213   8.022  1.00  0.00     0.049 A 
ATOM     48  H   UNL     1      -0.443  -2.679   9.408  1.00  0.00     0.167 HD
ATOM     49  C   UNL     1      -0.992   0.694  12.194  1.00  0.00     0.037 A 
ATOM     50  C   UNL     1      -0.711  -5.328   8.574  1.00  0.00     0.037 A 
ATOM     51  C   UNL     1      -1.646  -0.424  12.819  1.00  0.00     0.049 A 
ATOM     52  C   UNL     1      -1.344  -5.241   9.944  1.00  0.00     0.074 A 
ATOM     53  C   UNL     1      -2.324  -0.461  14.023  1.00  0.00     0.029 A 
ATOM     54  N   UNL     1      -1.685  -1.710  12.296  1.00  0.00    -0.354 N 
ATOM     55  N   UNL     1      -1.490  -4.195  10.726  1.00  0.00    -0.248 NA
ATOM     56  C   UNL     1      -1.897  -6.484  10.500  1.00  0.00     0.031 C 
ATOM     57  C   UNL     1      -2.708  -1.783  14.265  1.00  0.00     0.029 A 
ATOM     58  C   UNL     1      -2.348  -2.554  13.170  1.00  0.00     0.049 A 
ATOM     59  H   UNL     1      -1.299  -1.980  11.432  1.00  0.00     0.167 HD
ATOM     60  C   UNL     1      -2.193  -4.646  11.841  1.00  0.00     0.074 A 
ATOM     61  C   UNL     1      -2.446  -6.056  11.628  1.00  0.00     0.031 C 
ATOM     62  C   UNL     1      -2.600  -3.956  12.938  1.00  0.00     0.037 A 
BRANCH  49  63
ATOM     63  C   UNL     1      -0.959   2.012  12.921  1.00  0.00     0.058 A 
ATOM     64  C   UNL     1      -1.644   3.144  12.448  1.00  0.00     0.135 A 
ATOM     65  C   UNL     1      -0.238   2.140  14.119  1.00  0.00     0.135 A 
ATOM     66  F   UNL     1      -2.329   3.089  11.294  1.00  0.00    -0.206 F 
ATOM     67  C   UNL     1      -1.592   4.361  13.122  1.00  0.00     0.059 A 
ATOM     68  C   UNL     1      -0.201   3.336  14.828  1.00  0.00     0.059 A 
ATOM     69  F   UNL     1       0.444   1.094  14.612  1.00  0.00    -0.206 F 
ATOM     70  C   UNL     1      -0.870   4.445  14.314  1.00  0.00     0.060 A 
BRANCH  70  71
ATOM     71  S   UNL     1      -0.823   6.026  15.183  1.00  0.00     0.124 S 
ATOM     72  O   UNL     1      -0.003   6.831  14.283  1.00  0.00    -0.237 OA
ATOM     73  O   UNL     1      -2.236   6.386  15.246  1.00  0.00    -0.237 OA
ATOM     74  O   UNL     1      -0.206   5.693  16.463  1.00  0.00    -0.744 OA
ENDBRANCH  70  71
ENDBRANCH  49  63
BRANCH  50  75
ATOM     75  C   UNL     1      -0.672  -6.624   7.838  1.00  0.00     0.058 A 
ATOM     76  C   UNL     1      -1.849  -7.249   7.396  1.00  0.00     0.135 A 
ATOM     77  C   UNL     1       0.543  -7.278   7.581  1.00  0.00     0.135 A 
ATOM     78  F   UNL     1      -3.041  -6.676   7.629  1.00  0.00    -0.206 F 
ATOM     79  C   UNL     1      -1.826  -8.480   6.747  1.00  0.00     0.059 A 
ATOM     80  C   UNL     1       0.595  -8.495   6.906  1.00  0.00     0.059 A 
ATOM     81  F   UNL     1       1.701  -6.727   7.978  1.00  0.00    -0.206 F 
ATOM     82  C   UNL     1      -0.597  -9.094   6.502  1.00  0.00     0.060 A 
BRANCH  82  83
ATOM     83  S   UNL     1      -0.577 -10.672   5.623  1.00  0.00     0.124 S 
ATOM     84  O   UNL     1      -1.162 -11.570   6.612  1.00  0.00    -0.237 OA
ATOM     85  O   UNL     1      -1.403 -10.380   4.456  1.00  0.00    -0.237 OA
ATOM     86  O   UNL     1       0.841 -10.883   5.342  1.00  0.00    -0.744 OA
ENDBRANCH  82  83
ENDBRANCH  50  75
BRANCH  62  87
ATOM     87  C   UNL     1      -3.423  -4.694  13.963  1.00  0.00     0.058 A 
ATOM     88  C   UNL     1      -2.886  -5.713  14.767  1.00  0.00     0.135 A 
ATOM     89  C   UNL     1      -4.769  -4.344  14.169  1.00  0.00     0.135 A 
ATOM     90  F   UNL     1      -1.605  -6.088  14.618  1.00  0.00    -0.206 F 
ATOM     91  C   UNL     1      -3.665  -6.388  15.702  1.00  0.00     0.059 A 
ATOM     92  C   UNL     1      -5.554  -4.977  15.127  1.00  0.00     0.059 A 
ATOM     93  F   UNL     1      -5.332  -3.364  13.445  1.00  0.00    -0.206 F 
ATOM     94  C   UNL     1      -4.999  -6.013  15.874  1.00  0.00     0.060 A 
BRANCH  94  95
ATOM     95  S   UNL     1      -5.997  -6.896  17.091  1.00  0.00     0.124 S 
ATOM     96  O   UNL     1      -6.169  -8.193  16.445  1.00  0.00    -0.237 OA
ATOM     97  O   UNL     1      -5.135  -6.883  18.269  1.00  0.00    -0.237 OA
ATOM     98  O   UNL     1      -7.205  -6.083  17.197  1.00  0.00    -0.744 OA
ENDBRANCH  94  95
ENDBRANCH  62  87
ENDBRANCH  36  37
ENDBRANCH  29  31
ENDBRANCH  28  29
ENDBRANCH  27  28
ENDBRANCH  26  27
ENDBRANCH  25  26
ENDBRANCH   1  25
TORSDOF 21
