REMARK SMILES O=C(CN1C(=O)S/C(=C\c2cccc(F)c2)C1=O)NCC(=O)OCCOCCOCCOC(=O)c1ccc(-c2c3nc(c(-c4c(F)cc(S(=O)(=O)[O-])cc4F)c4ccc([nH]4)c(-c4c(F)cc(S(=O)(=O)[O-])cc4F)c4nc(c(-c5c(F)cc(S(=O)(=O)[O-])cc5F)c5ccc2[nH]5)C=C4)C=C3)cc1
REMARK SMILES IDX 27 1 26 2 25 3 24 4 23 5 21 6 22 7 20 8 19 9 1 10 2 11 3 13
REMARK SMILES IDX 4 14 5 15 17 16 6 17 7 18 8 19 18 20 9 21 10 22 11 23 16 24
REMARK SMILES IDX 12 25 14 26 13 27 15 28 28 29 29 30 30 31 31 32 32 33 33 34
REMARK SMILES IDX 34 35 35 36 36 37 100 38 37 39 99 40 38 41 39 42 40 43 93 44
REMARK SMILES IDX 41 45 98 46 92 47 94 48 42 49 97 50 91 51 90 52 43 54 77 55
REMARK SMILES IDX 56 56 76 57 57 58 60 59 75 60 95 61 58 62 59 63 74 65 96 66
REMARK SMILES IDX 61 67 44 68 45 69 54 70 46 71 47 72 53 73 55 74 48 75 49 76
REMARK SMILES IDX 50 77 51 78 52 79 78 80 79 81 88 82 80 83 81 84 87 85 89 86
REMARK SMILES IDX 82 87 83 88 84 89 85 90 86 91 62 92 63 93 72 94 64 95 65 96
REMARK SMILES IDX 71 97 73 98 66 99 67 100 68 101 69 102 70 103
REMARK H PARENT 19 12 94 53 60 64
REMARK Flexibility Score: inf
ROOT
ATOM      1  C   UNL     1       4.567  -4.047   2.359  1.00  0.00     0.188 C 
ENDROOT
BRANCH   1   2
ATOM      2  O   UNL     1       4.373  -5.432   2.102  1.00  0.00    -0.376 OA
BRANCH   2   3
ATOM      3  C   UNL     1       3.485  -5.806   1.051  1.00  0.00     0.202 C 
BRANCH   3   4
ATOM      4  C   UNL     1       2.097  -5.135   0.969  1.00  0.00     0.261 C 
BRANCH   4   5
ATOM      5  O   UNL     1       2.110  -3.687   0.892  1.00  0.00    -0.462 OA
BRANCH   5   6
ATOM      6  C   UNL     1       1.215  -3.035   1.685  1.00  0.00     0.325 C 
ATOM      7  O   UNL     1       0.371  -3.608   2.369  1.00  0.00    -0.250 OA
BRANCH   6   8
ATOM      8  C   UNL     1       1.434  -1.510   1.801  1.00  0.00     0.238 C 
BRANCH   8   9
ATOM      9  N   UNL     1       2.308  -0.750   0.910  1.00  0.00    -0.344 N 
ATOM     10  O   UNL     1       0.688   0.007  -0.512  1.00  0.00    -0.273 OA
ATOM     11  C   UNL     1       1.865  -0.014  -0.163  1.00  0.00     0.240 C 
ATOM     12  H   UNL     1       3.276  -0.766   1.090  1.00  0.00     0.164 HD
BRANCH  11  13
ATOM     13  C   UNL     1       2.972   0.708  -0.951  1.00  0.00     0.229 C 
BRANCH  13  14
ATOM     14  N   UNL     1       3.662   1.734  -0.179  1.00  0.00    -0.259 N 
ATOM     15  C   UNL     1       3.409   3.067  -0.376  1.00  0.00     0.294 C 
ATOM     16  C   UNL     1       4.638   1.422   0.733  1.00  0.00     0.268 C 
ATOM     17  O   UNL     1       2.623   3.558  -1.163  1.00  0.00    -0.261 OA
ATOM     18  S   UNL     1       4.446   4.037   0.659  1.00  0.00    -0.022 SA
ATOM     19  C   UNL     1       5.225   2.657   1.326  1.00  0.00     0.083 C 
ATOM     20  O   UNL     1       4.940   0.282   1.064  1.00  0.00    -0.268 OA
ATOM     21  C   UNL     1       6.206   2.617   2.240  1.00  0.00     0.029 C 
BRANCH  21  22
ATOM     22  C   UNL     1       6.817   3.755   2.944  1.00  0.00    -0.021 A 
ATOM     23  C   UNL     1       6.042   4.636   3.713  1.00  0.00     0.008 A 
ATOM     24  C   UNL     1       8.206   3.921   2.921  1.00  0.00     0.047 A 
ATOM     25  C   UNL     1       6.640   5.685   4.419  1.00  0.00     0.004 A 
ATOM     26  C   UNL     1       8.791   4.971   3.626  1.00  0.00     0.123 A 
ATOM     27  C   UNL     1       8.021   5.855   4.373  1.00  0.00     0.039 A 
ATOM     28  F   UNL     1      10.119   5.134   3.579  1.00  0.00    -0.207 F 
ENDBRANCH  21  22
ENDBRANCH  13  14
ENDBRANCH  11  13
ENDBRANCH   8   9
ENDBRANCH   6   8
ENDBRANCH   5   6
ENDBRANCH   4   5
ENDBRANCH   3   4
ENDBRANCH   2   3
ENDBRANCH   1   2
BRANCH   1  29
ATOM     29  C   UNL     1       4.849  -3.121   1.166  1.00  0.00     0.188 C 
BRANCH  29  30
ATOM     30  O   UNL     1       4.781  -3.739  -0.097  1.00  0.00    -0.376 OA
BRANCH  30  31
ATOM     31  C   UNL     1       5.965  -3.845  -0.863  1.00  0.00     0.202 C 
BRANCH  31  32
ATOM     32  C   UNL     1       7.266  -4.366  -0.223  1.00  0.00     0.261 C 
BRANCH  32  33
ATOM     33  O   UNL     1       7.563  -3.931   1.114  1.00  0.00    -0.460 OA
BRANCH  33  34
ATOM     34  C   UNL     1       8.063  -2.680   1.252  1.00  0.00     0.338 C 
ATOM     35  O   UNL     1       8.290  -1.883   0.358  1.00  0.00    -0.246 OA
BRANCH  34  36
ATOM     36  C   UNL     1       8.071  -2.347   2.696  1.00  0.00     0.060 A 
ATOM     37  C   UNL     1       7.259  -1.298   3.146  1.00  0.00     0.016 A 
ATOM     38  C   UNL     1       8.878  -3.043   3.596  1.00  0.00     0.016 A 
ATOM     39  C   UNL     1       7.285  -0.905   4.483  1.00  0.00     0.010 A 
ATOM     40  C   UNL     1       8.920  -2.636   4.936  1.00  0.00     0.010 A 
ATOM     41  C   UNL     1       8.156  -1.538   5.376  1.00  0.00    -0.014 A 
BRANCH  41  42
ATOM     42  C   UNL     1       8.420  -0.915   6.698  1.00  0.00     0.031 A 
ATOM     43  C   UNL     1       9.670  -0.090   6.859  1.00  0.00     0.074 A 
ATOM     44  C   UNL     1       7.548  -1.024   7.717  1.00  0.00     0.049 A 
ATOM     45  N   UNL     1      10.130   0.523   7.918  1.00  0.00    -0.248 NA
ATOM     46  C   UNL     1      10.515   0.065   5.662  1.00  0.00     0.031 C 
ATOM     47  C   UNL     1       6.277  -1.744   7.670  1.00  0.00     0.029 A 
ATOM     48  N   UNL     1       7.605  -0.526   8.996  1.00  0.00    -0.354 N 
ATOM     49  C   UNL     1      11.318   1.126   7.520  1.00  0.00     0.074 A 
ATOM     50  C   UNL     1      11.526   0.780   6.132  1.00  0.00     0.031 C 
ATOM     51  C   UNL     1       5.676  -1.646   8.869  1.00  0.00     0.029 A 
ATOM     52  C   UNL     1       6.533  -0.887   9.778  1.00  0.00     0.049 A 
ATOM     53  H   UNL     1       8.344   0.037   9.322  1.00  0.00     0.167 HD
ATOM     54  C   UNL     1      12.154   1.907   8.243  1.00  0.00     0.037 A 
ATOM     55  C   UNL     1       6.283  -0.647  11.082  1.00  0.00     0.037 A 
ATOM     56  C   UNL     1      11.939   2.257   9.623  1.00  0.00     0.049 A 
ATOM     57  C   UNL     1       7.263   0.171  11.886  1.00  0.00     0.074 A 
ATOM     58  C   UNL     1      12.729   3.047  10.440  1.00  0.00     0.029 A 
ATOM     59  N   UNL     1      10.861   1.841  10.390  1.00  0.00    -0.354 N 
ATOM     60  N   UNL     1       8.386   0.730  11.500  1.00  0.00    -0.248 NA
ATOM     61  C   UNL     1       6.939   0.398  13.302  1.00  0.00     0.031 C 
ATOM     62  C   UNL     1      12.158   3.063  11.715  1.00  0.00     0.029 A 
ATOM     63  C   UNL     1      10.975   2.343  11.676  1.00  0.00     0.049 A 
ATOM     64  H   UNL     1      10.123   1.274  10.068  1.00  0.00     0.167 HD
ATOM     65  C   UNL     1       8.882   1.402  12.614  1.00  0.00     0.074 A 
ATOM     66  C   UNL     1       7.933   1.188  13.685  1.00  0.00     0.031 C 
ATOM     67  C   UNL     1      10.019   2.134  12.735  1.00  0.00     0.037 A 
BRANCH  54  68
ATOM     68  C   UNL     1      13.392   2.428   7.566  1.00  0.00     0.058 A 
ATOM     69  C   UNL     1      14.661   1.971   7.960  1.00  0.00     0.135 A 
ATOM     70  C   UNL     1      13.333   3.426   6.581  1.00  0.00     0.135 A 
ATOM     71  F   UNL     1      14.775   1.010   8.890  1.00  0.00    -0.206 F 
ATOM     72  C   UNL     1      15.826   2.505   7.422  1.00  0.00     0.059 A 
ATOM     73  C   UNL     1      14.486   3.953   6.005  1.00  0.00     0.059 A 
ATOM     74  F   UNL     1      12.145   3.878   6.149  1.00  0.00    -0.206 F 
ATOM     75  C   UNL     1      15.729   3.498   6.447  1.00  0.00     0.060 A 
BRANCH  75  76
ATOM     76  S   UNL     1      17.254   4.170   5.753  1.00  0.00     0.124 S 
ATOM     77  O   UNL     1      17.816   4.881   6.896  1.00  0.00    -0.237 OA
ATOM     78  O   UNL     1      17.962   2.959   5.347  1.00  0.00    -0.237 OA
ATOM     79  O   UNL     1      16.787   5.011   4.655  1.00  0.00    -0.744 OA
ENDBRANCH  75  76
ENDBRANCH  54  68
BRANCH  55  80
ATOM     80  C   UNL     1       5.045  -1.185  11.711  1.00  0.00     0.058 A 
ATOM     81  C   UNL     1       4.864  -2.565  11.896  1.00  0.00     0.135 A 
ATOM     82  C   UNL     1       4.013  -0.332  12.131  1.00  0.00     0.135 A 
ATOM     83  F   UNL     1       5.818  -3.427  11.511  1.00  0.00    -0.206 F 
ATOM     84  C   UNL     1       3.695  -3.080  12.446  1.00  0.00     0.059 A 
ATOM     85  C   UNL     1       2.846  -0.822  12.713  1.00  0.00     0.059 A 
ATOM     86  F   UNL     1       4.146   0.997  11.994  1.00  0.00    -0.206 F 
ATOM     87  C   UNL     1       2.690  -2.200  12.849  1.00  0.00     0.060 A 
BRANCH  87  88
ATOM     88  S   UNL     1       1.176  -2.893  13.548  1.00  0.00     0.124 S 
ATOM     89  O   UNL     1       0.601  -3.563  12.387  1.00  0.00    -0.237 OA
ATOM     90  O   UNL     1       1.696  -3.767  14.594  1.00  0.00    -0.237 OA
ATOM     91  O   UNL     1       0.452  -1.717  14.018  1.00  0.00    -0.744 OA
ENDBRANCH  87  88
ENDBRANCH  55  80
BRANCH  67  92
ATOM     92  C   UNL     1      10.287   2.806  14.057  1.00  0.00     0.058 A 
ATOM     93  C   UNL     1      10.253   4.208  14.156  1.00  0.00     0.135 A 
ATOM     94  C   UNL     1      10.634   2.080  15.207  1.00  0.00     0.135 A 
ATOM     95  F   UNL     1       9.939   4.956  13.087  1.00  0.00    -0.206 F 
ATOM     96  C   UNL     1      10.559   4.863  15.344  1.00  0.00     0.059 A 
ATOM     97  C   UNL     1      10.911   2.714  16.416  1.00  0.00     0.059 A 
ATOM     98  F   UNL     1      10.678   0.738  15.170  1.00  0.00    -0.206 F 
ATOM     99  C   UNL     1      10.882   4.107  16.471  1.00  0.00     0.060 A 
BRANCH  99 100
ATOM    100  S   UNL     1      11.224   4.975  18.017  1.00  0.00     0.124 S 
ATOM    101  O   UNL     1      12.511   5.600  17.732  1.00  0.00    -0.237 OA
ATOM    102  O   UNL     1      10.086   5.884  18.118  1.00  0.00    -0.237 OA
ATOM    103  O   UNL     1      11.252   3.904  19.008  1.00  0.00    -0.744 OA
ENDBRANCH  99 100
ENDBRANCH  67  92
ENDBRANCH  41  42
ENDBRANCH  34  36
ENDBRANCH  33  34
ENDBRANCH  32  33
ENDBRANCH  31  32
ENDBRANCH  30  31
ENDBRANCH  29  30
ENDBRANCH   1  29
TORSDOF 24
