REMARK SMILES COc1ccc2c(c1)c(CC(=O)OCCOCCOCCOC(=O)c1ccc(-c3c4nc(c(-c5c(F)cc(S(=O)(=O)[O-])cc5F)c5ccc([nH]5)c(-c5c(F)cc(S(=O)(=O)[O-])cc5F)c5nc(c(-c6c(F)cc(S(=O)(=O)[O-])cc6F)c6ccc3[nH]6)C=C5)C=C4)cc1)c(C)n2Cc1ccn(C(F)F)c(=O)c1
REMARK SMILES IDX 17 1 16 2 15 3 14 4 13 5 11 6 12 7 10 8 9 9 3 10 4 11 8 12
REMARK SMILES IDX 5 13 7 14 6 15 93 16 91 17 92 18 2 19 1 20 94 21 95 22 96 23
REMARK SMILES IDX 104 24 97 25 102 26 98 27 103 28 99 29 100 30 101 31 18 32
REMARK SMILES IDX 19 33 20 34 21 35 22 36 23 37 24 38 25 39 26 40 90 41 27 42
REMARK SMILES IDX 89 43 28 44 29 45 30 46 83 47 31 48 88 49 82 50 84 51 32 52
REMARK SMILES IDX 87 53 81 54 80 55 33 57 67 58 46 59 66 60 47 61 50 62 65 63
REMARK SMILES IDX 85 64 48 65 49 66 64 68 86 69 51 70 34 71 35 72 44 73 36 74
REMARK SMILES IDX 37 75 43 76 45 77 38 78 39 79 40 80 41 81 42 82 68 83 69 84
REMARK SMILES IDX 78 85 70 86 71 87 77 88 79 89 72 90 73 91 74 92 75 93 76 94
REMARK SMILES IDX 52 95 53 96 62 97 54 98 55 99 61 100 63 101 56 102 57 103
REMARK SMILES IDX 58 104 59 105 60 106
REMARK H PARENT 84 56 50 67
REMARK Flexibility Score: inf
ROOT
ATOM      1  C   UNL     1      -2.329  -5.062   1.560  1.00  0.00     0.188 C 
ENDROOT
BRANCH   1   2
ATOM      2  O   UNL     1      -2.856  -6.089   2.360  1.00  0.00    -0.376 OA
BRANCH   2   3
ATOM      3  C   UNL     1      -2.335  -7.391   2.236  1.00  0.00     0.202 C 
BRANCH   3   4
ATOM      4  C   UNL     1      -2.325  -8.059   0.852  1.00  0.00     0.261 C 
BRANCH   4   5
ATOM      5  O   UNL     1      -1.452  -7.448  -0.157  1.00  0.00    -0.463 OA
BRANCH   5   6
ATOM      6  C   UNL     1      -2.138  -6.649  -1.004  1.00  0.00     0.310 C 
ATOM      7  O   UNL     1      -3.358  -6.579  -0.870  1.00  0.00    -0.252 OA
BRANCH   6   8
ATOM      8  C   UNL     1      -1.452  -5.715  -2.003  1.00  0.00     0.160 C 
BRANCH   8   9
ATOM      9  C   UNL     1       0.016  -5.572  -2.382  1.00  0.00    -0.008 A 
ATOM     10  C   UNL     1       2.246  -2.558  -1.190  1.00  0.00     0.119 A 
ATOM     11  C   UNL     1       3.333  -2.834  -1.985  1.00  0.00     0.048 A 
ATOM     12  C   UNL     1       1.190  -3.482  -1.146  1.00  0.00     0.057 A 
ATOM     13  C   UNL     1       3.317  -3.975  -2.797  1.00  0.00     0.031 A 
ATOM     14  C   UNL     1       1.039  -4.568  -2.043  1.00  0.00     0.007 A 
ATOM     15  C   UNL     1       2.150  -4.778  -2.866  1.00  0.00     0.049 A 
ATOM     16  N   UNL     1       1.852  -5.891  -3.620  1.00  0.00    -0.340 N 
ATOM     17  C   UNL     1       0.507  -6.169  -3.541  1.00  0.00     0.020 A 
ATOM     18  C   UNL     1      -0.255  -6.946  -4.568  1.00  0.00     0.065 C 
BRANCH  10  19
ATOM     19  O   UNL     1       2.299  -1.523  -0.293  1.00  0.00    -0.497 OA
ATOM     20  C   UNL     1       1.695  -0.308  -0.764  1.00  0.00     0.278 C 
ENDBRANCH  10  19
BRANCH  16  21
ATOM     21  C   UNL     1       2.836  -6.680  -4.349  1.00  0.00     0.158 C 
BRANCH  21  22
ATOM     22  C   UNL     1       3.079  -7.989  -3.638  1.00  0.00    -0.021 A 
ATOM     23  C   UNL     1       2.175  -9.088  -3.900  1.00  0.00     0.024 A 
ATOM     24  C   UNL     1       4.062  -8.154  -2.734  1.00  0.00     0.077 A 
ATOM     25  C   UNL     1       2.245 -10.213  -3.187  1.00  0.00     0.095 A 
ATOM     26  C   UNL     1       4.206  -9.440  -1.999  1.00  0.00     0.255 A 
ATOM     27  N   UNL     1       3.235 -10.392  -2.240  1.00  0.00    -0.258 N 
ATOM     28  O   UNL     1       5.170  -9.573  -1.233  1.00  0.00    -0.269 OA
BRANCH  27  29
ATOM     29  C   UNL     1       3.329 -11.641  -1.537  1.00  0.00     0.451 C 
ATOM     30  F   UNL     1       4.435 -12.325  -1.925  1.00  0.00    -0.185 F 
ATOM     31  F   UNL     1       3.403 -11.458  -0.196  1.00  0.00    -0.185 F 
ENDBRANCH  27  29
ENDBRANCH  21  22
ENDBRANCH  16  21
ENDBRANCH   8   9
ENDBRANCH   6   8
ENDBRANCH   5   6
ENDBRANCH   4   5
ENDBRANCH   3   4
ENDBRANCH   2   3
ENDBRANCH   1   2
BRANCH   1  32
ATOM     32  C   UNL     1      -0.832  -5.018   1.218  1.00  0.00     0.188 C 
BRANCH  32  33
ATOM     33  O   UNL     1       0.103  -5.615   2.074  1.00  0.00    -0.376 OA
BRANCH  33  34
ATOM     34  C   UNL     1       0.340  -4.929   3.287  1.00  0.00     0.202 C 
BRANCH  34  35
ATOM     35  C   UNL     1       0.173  -3.378   3.340  1.00  0.00     0.261 C 
BRANCH  35  36
ATOM     36  O   UNL     1      -1.125  -2.873   2.881  1.00  0.00    -0.460 OA
BRANCH  36  37
ATOM     37  C   UNL     1      -1.151  -1.769   2.064  1.00  0.00     0.338 C 
ATOM     38  O   UNL     1      -0.249  -0.945   2.012  1.00  0.00    -0.246 OA
BRANCH  37  39
ATOM     39  C   UNL     1      -2.192  -1.893   0.954  1.00  0.00     0.060 A 
ATOM     40  C   UNL     1      -3.576  -2.040   1.058  1.00  0.00     0.016 A 
ATOM     41  C   UNL     1      -1.663  -2.003  -0.332  1.00  0.00     0.016 A 
ATOM     42  C   UNL     1      -4.341  -2.472  -0.083  1.00  0.00     0.010 A 
ATOM     43  C   UNL     1      -2.409  -2.373  -1.455  1.00  0.00     0.010 A 
ATOM     44  C   UNL     1      -3.744  -2.741  -1.340  1.00  0.00    -0.014 A 
BRANCH  44  45
ATOM     45  C   UNL     1      -4.458  -3.005  -2.633  1.00  0.00     0.031 A 
ATOM     46  C   UNL     1      -4.967  -1.731  -3.142  1.00  0.00     0.074 A 
ATOM     47  C   UNL     1      -4.631  -4.064  -3.476  1.00  0.00     0.049 A 
ATOM     48  N   UNL     1      -6.088  -1.236  -2.745  1.00  0.00    -0.248 NA
ATOM     49  C   UNL     1      -4.116  -0.810  -3.898  1.00  0.00     0.031 C 
ATOM     50  C   UNL     1      -4.275  -5.446  -3.295  1.00  0.00     0.029 A 
ATOM     51  N   UNL     1      -5.212  -4.136  -4.733  1.00  0.00    -0.354 N 
ATOM     52  C   UNL     1      -6.229  -0.085  -3.477  1.00  0.00     0.074 A 
ATOM     53  C   UNL     1      -4.892   0.279  -3.870  1.00  0.00     0.031 C 
ATOM     54  C   UNL     1      -4.332  -6.175  -4.429  1.00  0.00     0.029 A 
ATOM     55  C   UNL     1      -5.007  -5.354  -5.416  1.00  0.00     0.049 A 
ATOM     56  H   UNL     1      -5.728  -3.392  -5.120  1.00  0.00     0.167 HD
ATOM     57  C   UNL     1      -7.451   0.221  -3.988  1.00  0.00     0.037 A 
ATOM     58  C   UNL     1      -5.687  -5.947  -6.441  1.00  0.00     0.037 A 
ATOM     59  C   UNL     1      -8.486  -0.622  -3.399  1.00  0.00     0.049 A 
ATOM     60  C   UNL     1      -7.047  -5.368  -6.435  1.00  0.00     0.074 A 
ATOM     61  C   UNL     1      -8.868  -0.931  -2.104  1.00  0.00     0.029 A 
ATOM     62  N   UNL     1      -9.031  -1.617  -4.181  1.00  0.00    -0.354 N 
ATOM     63  N   UNL     1      -7.933  -5.627  -5.512  1.00  0.00    -0.248 NA
ATOM     64  C   UNL     1      -7.228  -4.123  -7.157  1.00  0.00     0.031 C 
ATOM     65  C   UNL     1      -9.213  -2.316  -2.124  1.00  0.00     0.029 A 
ATOM     66  C   UNL     1      -9.111  -2.770  -3.439  1.00  0.00     0.049 A 
ATOM     67  H   UNL     1      -9.316  -1.518  -5.118  1.00  0.00     0.167 HD
ATOM     68  C   UNL     1      -8.490  -4.391  -5.218  1.00  0.00     0.074 A 
ATOM     69  C   UNL     1      -8.063  -3.517  -6.312  1.00  0.00     0.031 C 
ATOM     70  C   UNL     1      -9.010  -4.113  -3.987  1.00  0.00     0.037 A 
BRANCH  57  71
ATOM     71  C   UNL     1      -7.644   0.971  -5.279  1.00  0.00     0.058 A 
ATOM     72  C   UNL     1      -8.950   1.355  -5.633  1.00  0.00     0.135 A 
ATOM     73  C   UNL     1      -6.666   1.136  -6.288  1.00  0.00     0.135 A 
ATOM     74  F   UNL     1      -9.959   1.243  -4.754  1.00  0.00    -0.206 F 
ATOM     75  C   UNL     1      -9.276   1.789  -6.914  1.00  0.00     0.059 A 
ATOM     76  C   UNL     1      -6.958   1.624  -7.551  1.00  0.00     0.059 A 
ATOM     77  F   UNL     1      -5.394   0.751  -6.153  1.00  0.00    -0.206 F 
ATOM     78  C   UNL     1      -8.271   1.907  -7.869  1.00  0.00     0.060 A 
BRANCH  78  79
ATOM     79  S   UNL     1      -8.701   2.375  -9.548  1.00  0.00     0.124 S 
ATOM     80  O   UNL     1      -9.473   1.215  -9.979  1.00  0.00    -0.237 OA
ATOM     81  O   UNL     1      -9.453   3.605  -9.329  1.00  0.00    -0.237 OA
ATOM     82  O   UNL     1      -7.401   2.545 -10.191  1.00  0.00    -0.744 OA
ENDBRANCH  78  79
ENDBRANCH  57  71
BRANCH  58  83
ATOM     83  C   UNL     1      -5.101  -6.694  -7.600  1.00  0.00     0.058 A 
ATOM     84  C   UNL     1      -5.903  -7.168  -8.661  1.00  0.00     0.135 A 
ATOM     85  C   UNL     1      -3.711  -6.761  -7.814  1.00  0.00     0.135 A 
ATOM     86  F   UNL     1      -7.240  -7.189  -8.542  1.00  0.00    -0.206 F 
ATOM     87  C   UNL     1      -5.365  -7.569  -9.894  1.00  0.00     0.059 A 
ATOM     88  C   UNL     1      -3.152  -7.157  -9.032  1.00  0.00     0.059 A 
ATOM     89  F   UNL     1      -2.848  -6.373  -6.864  1.00  0.00    -0.206 F 
ATOM     90  C   UNL     1      -3.986  -7.519 -10.083  1.00  0.00     0.060 A 
BRANCH  90  91
ATOM     91  S   UNL     1      -3.295  -7.798 -11.735  1.00  0.00     0.124 S 
ATOM     92  O   UNL     1      -3.555  -9.218 -11.941  1.00  0.00    -0.237 OA
ATOM     93  O   UNL     1      -4.077  -6.880 -12.555  1.00  0.00    -0.237 OA
ATOM     94  O   UNL     1      -1.887  -7.440 -11.575  1.00  0.00    -0.744 OA
ENDBRANCH  90  91
ENDBRANCH  58  83
BRANCH  70  95
ATOM     95  C   UNL     1      -9.312  -5.252  -3.033  1.00  0.00     0.058 A 
ATOM     96  C   UNL     1      -8.347  -6.088  -2.444  1.00  0.00     0.135 A 
ATOM     97  C   UNL     1     -10.624  -5.362  -2.541  1.00  0.00     0.135 A 
ATOM     98  F   UNL     1      -7.062  -6.016  -2.810  1.00  0.00    -0.206 F 
ATOM     99  C   UNL     1      -8.666  -6.976  -1.409  1.00  0.00     0.059 A 
ATOM    100  C   UNL     1     -10.961  -6.223  -1.497  1.00  0.00     0.059 A 
ATOM    101  F   UNL     1     -11.593  -4.573  -3.035  1.00  0.00    -0.206 F 
ATOM    102  C   UNL     1      -9.974  -7.025  -0.930  1.00  0.00     0.060 A 
BRANCH 102 103
ATOM    103  S   UNL     1     -10.363  -8.086   0.482  1.00  0.00     0.124 S 
ATOM    104  O   UNL     1     -10.176  -9.422  -0.073  1.00  0.00    -0.237 OA
ATOM    105  O   UNL     1      -9.377  -7.668   1.474  1.00  0.00    -0.237 OA
ATOM    106  O   UNL     1     -11.744  -7.735   0.805  1.00  0.00    -0.744 OA
ENDBRANCH 102 103
ENDBRANCH  70  95
ENDBRANCH  44  45
ENDBRANCH  37  39
ENDBRANCH  36  37
ENDBRANCH  35  36
ENDBRANCH  34  35
ENDBRANCH  33  34
ENDBRANCH  32  33
ENDBRANCH   1  32
TORSDOF 25
