REMARK SMILES O=C(OCCOCCOCCOC(=O)c1cccn(Cc2ccc3c(c2)OC(F)(F)O3)c1=O)c1ccc(-c2c3nc(c(-c4c(F)cc(S(=O)(=O)[O-])cc4F)c4ccc([nH]4)c(-c4c(F)cc(S(=O)(=O)[O-])cc4F)c4nc(c(-c5c(F)cc(S(=O)(=O)[O-])cc5F)c5ccc2[nH]5)C=C4)C=C3)cc1
REMARK SMILES IDX 7 1 6 2 5 3 4 4 3 5 2 6 1 7 34 8 35 9 99 10 36 11 98 12
REMARK SMILES IDX 37 13 38 14 39 15 92 16 40 17 97 18 91 19 93 20 41 21 96 22
REMARK SMILES IDX 90 23 89 24 42 26 76 27 55 28 75 29 56 30 59 31 74 32 94 33
REMARK SMILES IDX 57 34 58 35 73 37 95 38 60 39 43 40 44 41 53 42 45 43 46 44
REMARK SMILES IDX 52 45 54 46 47 47 48 48 49 49 50 50 51 51 77 52 78 53 87 54
REMARK SMILES IDX 79 55 80 56 86 57 88 58 81 59 82 60 83 61 84 62 85 63 61 64
REMARK SMILES IDX 62 65 71 66 63 67 64 68 70 69 72 70 65 71 66 72 67 73 68 74
REMARK SMILES IDX 69 75 8 76 9 77 10 78 11 79 12 80 13 81 14 82 15 83 16 84
REMARK SMILES IDX 32 85 17 86 19 87 33 88 18 89 20 90 21 91 22 92 26 93 23 94
REMARK SMILES IDX 25 95 24 96 27 97 31 98 28 99 29 100 30 101
REMARK H PARENT 93 25 59 36
REMARK Flexibility Score: inf
ROOT
ATOM      1  C   UNL     1       2.611  -1.664   1.099  1.00  0.00     0.188 C 
ENDROOT
BRANCH   1   2
ATOM      2  O   UNL     1       3.860  -1.494   0.419  1.00  0.00    -0.376 OA
BRANCH   2   3
ATOM      3  C   UNL     1       4.842  -0.824   1.215  1.00  0.00     0.202 C 
BRANCH   3   4
ATOM      4  C   UNL     1       4.693   0.702   1.287  1.00  0.00     0.261 C 
BRANCH   4   5
ATOM      5  O   UNL     1       3.356   1.167   1.058  1.00  0.00    -0.460 OA
BRANCH   5   6
ATOM      6  C   UNL     1       2.720   1.427  -0.111  1.00  0.00     0.338 C 
ATOM      7  O   UNL     1       1.577   1.880  -0.037  1.00  0.00    -0.246 OA
BRANCH   6   8
ATOM      8  C   UNL     1       3.279   1.173  -1.485  1.00  0.00     0.060 A 
ATOM      9  C   UNL     1       2.463   1.549  -2.572  1.00  0.00     0.016 A 
ATOM     10  C   UNL     1       4.515   0.601  -1.791  1.00  0.00     0.016 A 
ATOM     11  C   UNL     1       2.879   1.373  -3.899  1.00  0.00     0.010 A 
ATOM     12  C   UNL     1       4.949   0.446  -3.110  1.00  0.00     0.010 A 
ATOM     13  C   UNL     1       4.140   0.834  -4.175  1.00  0.00    -0.014 A 
BRANCH  13  14
ATOM     14  C   UNL     1       4.716   0.867  -5.537  1.00  0.00     0.031 A 
ATOM     15  C   UNL     1       4.952  -0.371  -6.348  1.00  0.00     0.074 A 
ATOM     16  C   UNL     1       5.169   2.052  -5.985  1.00  0.00     0.049 A 
ATOM     17  N   UNL     1       5.227  -0.470  -7.623  1.00  0.00    -0.248 NA
ATOM     18  C   UNL     1       4.893  -1.662  -5.651  1.00  0.00     0.031 C 
ATOM     19  C   UNL     1       5.151   3.304  -5.223  1.00  0.00     0.029 A 
ATOM     20  N   UNL     1       5.771   2.387  -7.166  1.00  0.00    -0.354 N 
ATOM     21  C   UNL     1       5.253  -1.831  -7.903  1.00  0.00     0.074 A 
ATOM     22  C   UNL     1       5.110  -2.518  -6.644  1.00  0.00     0.031 C 
ATOM     23  C   UNL     1       5.737   4.267  -5.951  1.00  0.00     0.029 A 
ATOM     24  C   UNL     1       6.154   3.703  -7.230  1.00  0.00     0.049 A 
ATOM     25  H   UNL     1       5.917   1.746  -7.899  1.00  0.00     0.167 HD
ATOM     26  C   UNL     1       5.336  -2.426  -9.116  1.00  0.00     0.037 A 
ATOM     27  C   UNL     1       6.763   4.379  -8.220  1.00  0.00     0.037 A 
ATOM     28  C   UNL     1       5.689  -1.719 -10.314  1.00  0.00     0.049 A 
ATOM     29  C   UNL     1       7.028   3.673  -9.517  1.00  0.00     0.074 A 
ATOM     30  C   UNL     1       5.810  -2.211 -11.600  1.00  0.00     0.029 A 
ATOM     31  N   UNL     1       6.071  -0.389 -10.347  1.00  0.00    -0.354 N 
ATOM     32  N   UNL     1       6.739   2.438  -9.853  1.00  0.00    -0.248 NA
ATOM     33  C   UNL     1       7.678   4.452 -10.577  1.00  0.00     0.031 C 
ATOM     34  C   UNL     1       6.342  -1.194 -12.397  1.00  0.00     0.029 A 
ATOM     35  C   UNL     1       6.508  -0.061 -11.614  1.00  0.00     0.049 A 
ATOM     36  H   UNL     1       6.037   0.229  -9.582  1.00  0.00     0.167 HD
ATOM     37  C   UNL     1       7.142   2.301 -11.175  1.00  0.00     0.074 A 
ATOM     38  C   UNL     1       7.694   3.579 -11.576  1.00  0.00     0.031 C 
ATOM     39  C   UNL     1       7.055   1.218 -11.986  1.00  0.00     0.037 A 
BRANCH  26  40
ATOM     40  C   UNL     1       4.977  -3.877  -9.254  1.00  0.00     0.058 A 
ATOM     41  C   UNL     1       3.691  -4.216  -9.710  1.00  0.00     0.135 A 
ATOM     42  C   UNL     1       5.892  -4.917  -9.053  1.00  0.00     0.135 A 
ATOM     43  F   UNL     1       2.773  -3.257  -9.916  1.00  0.00    -0.206 F 
ATOM     44  C   UNL     1       3.307  -5.536  -9.918  1.00  0.00     0.059 A 
ATOM     45  C   UNL     1       5.528  -6.249  -9.254  1.00  0.00     0.059 A 
ATOM     46  F   UNL     1       7.144  -4.644  -8.656  1.00  0.00    -0.206 F 
ATOM     47  C   UNL     1       4.226  -6.549  -9.664  1.00  0.00     0.060 A 
BRANCH  47  48
ATOM     48  S   UNL     1       3.729  -8.273  -9.874  1.00  0.00     0.124 S 
ATOM     49  O   UNL     1       3.452  -8.663  -8.496  1.00  0.00    -0.237 OA
ATOM     50  O   UNL     1       2.562  -8.180 -10.747  1.00  0.00    -0.237 OA
ATOM     51  O   UNL     1       4.913  -8.874 -10.480  1.00  0.00    -0.744 OA
ENDBRANCH  47  48
ENDBRANCH  26  40
BRANCH  27  52
ATOM     52  C   UNL     1       7.079   5.814  -8.025  1.00  0.00     0.058 A 
ATOM     53  C   UNL     1       6.318   6.804  -8.659  1.00  0.00     0.135 A 
ATOM     54  C   UNL     1       8.087   6.224  -7.137  1.00  0.00     0.135 A 
ATOM     55  F   UNL     1       5.340   6.455  -9.509  1.00  0.00    -0.206 F 
ATOM     56  C   UNL     1       6.543   8.154  -8.422  1.00  0.00     0.059 A 
ATOM     57  C   UNL     1       8.318   7.569  -6.869  1.00  0.00     0.059 A 
ATOM     58  F   UNL     1       8.825   5.310  -6.487  1.00  0.00    -0.206 F 
ATOM     59  C   UNL     1       7.540   8.527  -7.519  1.00  0.00     0.060 A 
BRANCH  59  60
ATOM     60  S   UNL     1       7.768  10.283  -7.167  1.00  0.00     0.124 S 
ATOM     61  O   UNL     1       8.322  10.765  -8.427  1.00  0.00    -0.237 OA
ATOM     62  O   UNL     1       6.406  10.710  -6.863  1.00  0.00    -0.237 OA
ATOM     63  O   UNL     1       8.686  10.283  -6.032  1.00  0.00    -0.744 OA
ENDBRANCH  59  60
ENDBRANCH  27  52
BRANCH  39  64
ATOM     64  C   UNL     1       7.573   1.352 -13.385  1.00  0.00     0.058 A 
ATOM     65  C   UNL     1       8.950   1.377 -13.648  1.00  0.00     0.135 A 
ATOM     66  C   UNL     1       6.688   1.344 -14.474  1.00  0.00     0.135 A 
ATOM     67  F   UNL     1       9.832   1.386 -12.636  1.00  0.00    -0.206 F 
ATOM     68  C   UNL     1       9.434   1.402 -14.949  1.00  0.00     0.059 A 
ATOM     69  C   UNL     1       7.151   1.339 -15.784  1.00  0.00     0.059 A 
ATOM     70  F   UNL     1       5.362   1.301 -14.269  1.00  0.00    -0.206 F 
ATOM     71  C   UNL     1       8.526   1.376 -16.010  1.00  0.00     0.060 A 
BRANCH  71  72
ATOM     72  S   UNL     1       9.173   1.353 -17.693  1.00  0.00     0.124 S 
ATOM     73  O   UNL     1       9.656   2.723 -17.838  1.00  0.00    -0.237 OA
ATOM     74  O   UNL     1      10.204   0.322 -17.616  1.00  0.00    -0.237 OA
ATOM     75  O   UNL     1       8.007   1.009 -18.501  1.00  0.00    -0.744 OA
ENDBRANCH  71  72
ENDBRANCH  39  64
ENDBRANCH  13  14
ENDBRANCH   6   8
ENDBRANCH   5   6
ENDBRANCH   4   5
ENDBRANCH   3   4
ENDBRANCH   2   3
ENDBRANCH   1   2
BRANCH   1  76
ATOM     76  C   UNL     1       2.074  -3.096   1.022  1.00  0.00     0.188 C 
BRANCH  76  77
ATOM     77  O   UNL     1       2.826  -4.102   1.693  1.00  0.00    -0.376 OA
BRANCH  77  78
ATOM     78  C   UNL     1       4.171  -4.321   1.276  1.00  0.00     0.202 C 
BRANCH  78  79
ATOM     79  C   UNL     1       4.420  -4.895  -0.124  1.00  0.00     0.261 C 
BRANCH  79  80
ATOM     80  O   UNL     1       3.937  -4.071  -1.194  1.00  0.00    -0.459 OA
BRANCH  80  81
ATOM     81  C   UNL     1       2.859  -4.579  -1.847  1.00  0.00     0.343 C 
ATOM     82  O   UNL     1       2.213  -5.563  -1.523  1.00  0.00    -0.246 OA
BRANCH  81  83
ATOM     83  C   UNL     1       2.501  -3.742  -2.994  1.00  0.00     0.125 A 
ATOM     84  C   UNL     1       1.740  -2.644  -2.849  1.00  0.00     0.023 A 
ATOM     85  C   UNL     1       2.837  -4.236  -4.347  1.00  0.00     0.265 A 
ATOM     86  C   UNL     1       1.208  -1.964  -4.005  1.00  0.00     0.019 A 
ATOM     87  N   UNL     1       2.151  -3.629  -5.396  1.00  0.00    -0.310 N 
ATOM     88  O   UNL     1       3.684  -5.116  -4.481  1.00  0.00    -0.268 OA
ATOM     89  C   UNL     1       1.381  -2.493  -5.221  1.00  0.00     0.089 A 
BRANCH  87  90
ATOM     90  C   UNL     1       2.295  -4.196  -6.725  1.00  0.00     0.161 C 
BRANCH  90  91
ATOM     91  C   UNL     1       1.244  -5.228  -7.043  1.00  0.00    -0.024 A 
ATOM     92  C   UNL     1       0.278  -4.972  -8.042  1.00  0.00     0.010 A 
ATOM     93  C   UNL     1       1.296  -6.488  -6.425  1.00  0.00     0.056 A 
ATOM     94  C   UNL     1      -0.601  -5.975  -8.456  1.00  0.00     0.051 A 
ATOM     95  C   UNL     1       0.425  -7.458  -6.859  1.00  0.00     0.173 A 
ATOM     96  C   UNL     1      -0.490  -7.212  -7.858  1.00  0.00     0.172 A 
ATOM     97  O   UNL     1       0.382  -8.740  -6.410  1.00  0.00    -0.395 OA
ATOM     98  O   UNL     1      -1.215  -8.318  -8.176  1.00  0.00    -0.395 OA
ATOM     99  C   UNL     1      -0.546  -9.284  -7.351  1.00  0.00     0.586 C 
ATOM    100  F   UNL     1       0.079 -10.191  -8.140  1.00  0.00    -0.125 F 
ATOM    101  F   UNL     1      -1.500  -9.962  -6.655  1.00  0.00    -0.125 F 
ENDBRANCH  90  91
ENDBRANCH  87  90
ENDBRANCH  81  83
ENDBRANCH  80  81
ENDBRANCH  79  80
ENDBRANCH  78  79
ENDBRANCH  77  78
ENDBRANCH  76  77
ENDBRANCH   1  76
TORSDOF 22
