REMARK SMILES O=C(OCCOCCOCCOC(=O)c1ccc(-c2c3nc(c(-c4c(F)cc(S(=O)(=O)[O-])cc4F)c4ccc([nH]4)c(-c4c(F)cc(S(=O)(=O)[O-])cc4F)c4nc(c(-c5c(F)cc(S(=O)(=O)[O-])cc5F)c5ccc2[nH]5)C=C4)C=C3)cc1)C1=Cc2cc(Cl)ccc2O[C@@H]1C(F)(F)F
REMARK SMILES IDX 8 1 7 2 6 3 5 4 4 5 3 6 2 7 1 8 81 9 82 10 91 11 83 12 90 13
REMARK SMILES IDX 84 14 89 15 85 16 88 17 86 18 87 19 92 20 93 21 94 22 95 23
REMARK SMILES IDX 9 24 10 25 11 26 12 27 13 28 14 29 15 30 16 31 80 32 17 33
REMARK SMILES IDX 79 34 18 35 19 36 20 37 73 38 21 39 78 40 72 41 74 42 22 43
REMARK SMILES IDX 77 44 71 45 70 46 23 48 57 49 36 50 56 51 37 52 40 53 55 54
REMARK SMILES IDX 75 55 38 56 39 57 54 59 76 60 41 61 24 62 25 63 34 64 26 65
REMARK SMILES IDX 27 66 33 67 35 68 28 69 29 70 30 71 31 72 32 73 58 74 59 75
REMARK SMILES IDX 68 76 60 77 61 78 67 79 69 80 62 81 63 82 64 83 65 84 66 85
REMARK SMILES IDX 42 86 43 87 52 88 44 89 45 90 51 91 53 92 46 93 47 94 48 95
REMARK SMILES IDX 49 96 50 97
REMARK H PARENT 74 47 40 58
REMARK Flexibility Score: inf
ROOT
ATOM      1  C   UNL     1       1.286   2.504  -2.656  1.00  0.00     0.188 C 
ENDROOT
BRANCH   1   2
ATOM      2  C   UNL     1       1.464   1.742  -1.346  1.00  0.00     0.188 C 
BRANCH   2   3
ATOM      3  O   UNL     1       2.807   1.767  -0.873  1.00  0.00    -0.376 OA
BRANCH   3   4
ATOM      4  C   UNL     1       3.643   0.725  -1.378  1.00  0.00     0.202 C 
BRANCH   4   5
ATOM      5  C   UNL     1       3.222  -0.679  -0.920  1.00  0.00     0.261 C 
BRANCH   5   6
ATOM      6  O   UNL     1       2.458  -0.597   0.299  1.00  0.00    -0.460 OA
BRANCH   6   7
ATOM      7  C   UNL     1       2.865  -1.381   1.316  1.00  0.00     0.338 C 
ATOM      8  O   UNL     1       2.426  -2.505   1.504  1.00  0.00    -0.246 OA
BRANCH   7   9
ATOM      9  C   UNL     1       3.828  -0.704   2.229  1.00  0.00     0.087 C 
ATOM     10  C   UNL     1       4.829  -1.520   2.617  1.00  0.00     0.027 C 
ATOM     11  C   UNL     1       4.145   0.758   1.981  1.00  0.00     0.316 C 
ATOM     12  C   UNL     1       5.953  -1.396   1.664  1.00  0.00     0.019 A 
ATOM     13  O   UNL     1       5.443   0.961   1.338  1.00  0.00    -0.475 OA
ATOM     14  C   UNL     1       6.740  -2.502   1.339  1.00  0.00     0.032 A 
ATOM     15  C   UNL     1       6.177  -0.161   1.040  1.00  0.00     0.128 A 
ATOM     16  C   UNL     1       7.715  -2.377   0.349  1.00  0.00     0.041 A 
ATOM     17  C   UNL     1       7.151  -0.045   0.049  1.00  0.00     0.048 A 
ATOM     18  Cl  UNL     1       8.676  -3.739  -0.078  1.00  0.00    -0.084 Cl
ATOM     19  C   UNL     1       7.908  -1.162  -0.311  1.00  0.00     0.024 A 
BRANCH  11  20
ATOM     20  C   UNL     1       4.014   1.621   3.236  1.00  0.00     0.430 C 
ATOM     21  F   UNL     1       4.072   2.939   2.926  1.00  0.00    -0.167 F 
ATOM     22  F   UNL     1       2.827   1.412   3.852  1.00  0.00    -0.167 F 
ATOM     23  F   UNL     1       4.996   1.367   4.129  1.00  0.00    -0.167 F 
ENDBRANCH  11  20
ENDBRANCH   7   9
ENDBRANCH   6   7
ENDBRANCH   5   6
ENDBRANCH   4   5
ENDBRANCH   3   4
ENDBRANCH   2   3
ENDBRANCH   1   2
BRANCH   1  24
ATOM     24  O   UNL     1       2.363   2.256  -3.558  1.00  0.00    -0.376 OA
BRANCH  24  25
ATOM     25  C   UNL     1       3.059   3.442  -3.954  1.00  0.00     0.202 C 
BRANCH  25  26
ATOM     26  C   UNL     1       4.060   4.017  -2.931  1.00  0.00     0.261 C 
BRANCH  26  27
ATOM     27  O   UNL     1       3.546   4.350  -1.628  1.00  0.00    -0.460 OA
BRANCH  27  28
ATOM     28  C   UNL     1       2.717   5.412  -1.549  1.00  0.00     0.338 C 
ATOM     29  O   UNL     1       2.317   6.092  -2.475  1.00  0.00    -0.246 OA
BRANCH  28  30
ATOM     30  C   UNL     1       2.273   5.578  -0.147  1.00  0.00     0.060 A 
ATOM     31  C   UNL     1       0.952   5.264   0.187  1.00  0.00     0.016 A 
ATOM     32  C   UNL     1       3.121   6.151   0.805  1.00  0.00     0.016 A 
ATOM     33  C   UNL     1       0.463   5.563   1.462  1.00  0.00     0.010 A 
ATOM     34  C   UNL     1       2.626   6.461   2.081  1.00  0.00     0.010 A 
ATOM     35  C   UNL     1       1.281   6.207   2.403  1.00  0.00    -0.014 A 
BRANCH  35  36
ATOM     36  C   UNL     1       0.656   6.777   3.628  1.00  0.00     0.031 A 
ATOM     37  C   UNL     1       0.185   8.210   3.601  1.00  0.00     0.074 A 
ATOM     38  C   UNL     1       0.433   6.024   4.721  1.00  0.00     0.049 A 
ATOM     39  N   UNL     1      -0.482   8.884   4.503  1.00  0.00    -0.248 NA
ATOM     40  C   UNL     1       0.505   8.982   2.389  1.00  0.00     0.031 C 
ATOM     41  C   UNL     1       0.827   4.626   4.881  1.00  0.00     0.029 A 
ATOM     42  N   UNL     1      -0.188   6.336   5.907  1.00  0.00    -0.354 N 
ATOM     43  C   UNL     1      -0.692  10.145   3.955  1.00  0.00     0.074 A 
ATOM     44  C   UNL     1      -0.033  10.161   2.667  1.00  0.00     0.031 C 
ATOM     45  C   UNL     1       0.446   4.202   6.100  1.00  0.00     0.029 A 
ATOM     46  C   UNL     1      -0.213   5.299   6.809  1.00  0.00     0.049 A 
ATOM     47  H   UNL     1      -0.578   7.220   6.093  1.00  0.00     0.167 HD
ATOM     48  C   UNL     1      -1.389  11.190   4.465  1.00  0.00     0.037 A 
ATOM     49  C   UNL     1      -0.708   5.242   8.063  1.00  0.00     0.037 A 
ATOM     50  C   UNL     1      -2.017  11.194   5.761  1.00  0.00     0.049 A 
ATOM     51  C   UNL     1      -1.423   6.441   8.639  1.00  0.00     0.074 A 
ATOM     52  C   UNL     1      -2.732  12.212   6.369  1.00  0.00     0.029 A 
ATOM     53  N   UNL     1      -1.996  10.134   6.655  1.00  0.00    -0.354 N 
ATOM     54  N   UNL     1      -1.653   7.610   8.089  1.00  0.00    -0.248 NA
ATOM     55  C   UNL     1      -1.963   6.304  10.000  1.00  0.00     0.031 C 
ATOM     56  C   UNL     1      -3.107  11.782   7.647  1.00  0.00     0.029 A 
ATOM     57  C   UNL     1      -2.670  10.478   7.816  1.00  0.00     0.049 A 
ATOM     58  H   UNL     1      -1.565   9.264   6.489  1.00  0.00     0.167 HD
ATOM     59  C   UNL     1      -2.384   8.336   9.027  1.00  0.00     0.074 A 
ATOM     60  C   UNL     1      -2.575   7.468  10.169  1.00  0.00     0.031 C 
ATOM     61  C   UNL     1      -2.856   9.607   8.949  1.00  0.00     0.037 A 
BRANCH  48  62
ATOM     62  C   UNL     1      -1.504  12.424   3.612  1.00  0.00     0.058 A 
ATOM     63  C   UNL     1      -2.316  12.445   2.466  1.00  0.00     0.135 A 
ATOM     64  C   UNL     1      -0.828  13.604   3.957  1.00  0.00     0.135 A 
ATOM     65  F   UNL     1      -2.971  11.338   2.081  1.00  0.00    -0.206 F 
ATOM     66  C   UNL     1      -2.434  13.586   1.679  1.00  0.00     0.059 A 
ATOM     67  C   UNL     1      -0.951  14.765   3.197  1.00  0.00     0.059 A 
ATOM     68  F   UNL     1      -0.037  13.638   5.041  1.00  0.00    -0.206 F 
ATOM     69  C   UNL     1      -1.747  14.742   2.053  1.00  0.00     0.060 A 
BRANCH  69  70
ATOM     70  S   UNL     1      -1.915  16.215   1.023  1.00  0.00     0.124 S 
ATOM     71  O   UNL     1      -1.140  15.838  -0.155  1.00  0.00    -0.237 OA
ATOM     72  O   UNL     1      -3.360  16.297   0.830  1.00  0.00    -0.237 OA
ATOM     73  O   UNL     1      -1.334  17.273   1.844  1.00  0.00    -0.744 OA
ENDBRANCH  69  70
ENDBRANCH  48  62
BRANCH  49  74
ATOM     74  C   UNL     1      -0.540   4.005   8.877  1.00  0.00     0.058 A 
ATOM     75  C   UNL     1      -1.635   3.201   9.226  1.00  0.00     0.135 A 
ATOM     76  C   UNL     1       0.726   3.623   9.348  1.00  0.00     0.135 A 
ATOM     77  F   UNL     1      -2.869   3.530   8.814  1.00  0.00    -0.206 F 
ATOM     78  C   UNL     1      -1.486   2.076  10.034  1.00  0.00     0.059 A 
ATOM     79  C   UNL     1       0.904   2.489  10.134  1.00  0.00     0.059 A 
ATOM     80  F   UNL     1       1.808   4.354   9.038  1.00  0.00    -0.206 F 
ATOM     81  C   UNL     1      -0.211   1.729  10.484  1.00  0.00     0.060 A 
BRANCH  81  82
ATOM     82  S   UNL     1      -0.021   0.253  11.508  1.00  0.00     0.124 S 
ATOM     83  O   UNL     1      -0.559   0.709  12.784  1.00  0.00    -0.237 OA
ATOM     84  O   UNL     1      -0.829  -0.727  10.788  1.00  0.00    -0.237 OA
ATOM     85  O   UNL     1       1.418   0.009  11.480  1.00  0.00    -0.744 OA
ENDBRANCH  81  82
ENDBRANCH  49  74
BRANCH  61  86
ATOM     86  C   UNL     1      -3.649  10.126  10.120  1.00  0.00     0.058 A 
ATOM     87  C   UNL     1      -3.044  10.426  11.351  1.00  0.00     0.135 A 
ATOM     88  C   UNL     1      -5.031  10.352  10.001  1.00  0.00     0.135 A 
ATOM     89  F   UNL     1      -1.727  10.230  11.521  1.00  0.00    -0.206 F 
ATOM     90  C   UNL     1      -3.785  10.890  12.434  1.00  0.00     0.059 A 
ATOM     91  C   UNL     1      -5.787  10.844  11.061  1.00  0.00     0.059 A 
ATOM     92  F   UNL     1      -5.660  10.100   8.842  1.00  0.00    -0.206 F 
ATOM     93  C   UNL     1      -5.158  11.091  12.281  1.00  0.00     0.060 A 
BRANCH  93  94
ATOM     94  S   UNL     1      -6.110  11.694  13.692  1.00  0.00     0.124 S 
ATOM     95  O   UNL     1      -6.196  10.497  14.521  1.00  0.00    -0.237 OA
ATOM     96  O   UNL     1      -5.263  12.764  14.209  1.00  0.00    -0.237 OA
ATOM     97  O   UNL     1      -7.366  12.134  13.091  1.00  0.00    -0.744 OA
ENDBRANCH  93  94
ENDBRANCH  61  86
ENDBRANCH  35  36
ENDBRANCH  28  30
ENDBRANCH  27  28
ENDBRANCH  26  27
ENDBRANCH  25  26
ENDBRANCH  24  25
ENDBRANCH   1  24
TORSDOF 21
