REMARK SMILES Cc1c(C[NH2+]C[C@@H]2CCCO2)c(C(=O)OCCOCCOCCOC(=O)c2ccc(-c3c4nc(c(-c5c(F)cc(S(=O)(=O)[O-])cc5F)c5ccc([nH]5)c(-c5c(F)cc(S(=O)(=O)[O-])cc5F)c5nc(c(-c6c(F)cc(S(=O)(=O)[O-])cc6F)c6ccc3[nH]6)C=C5)C=C4)cc2)c(C)n1Cc1ccc(F)cc1
REMARK SMILES IDX 19 1 18 2 17 3 16 4 15 5 13 6 14 7 12 8 1 9 2 10 3 11 95 12
REMARK SMILES IDX 93 13 94 14 4 15 5 16 6 19 7 20 8 21 11 22 9 23 10 24 96 25
REMARK SMILES IDX 97 26 98 27 103 28 99 29 102 30 100 31 101 32 20 33 21 34
REMARK SMILES IDX 22 35 23 36 24 37 25 38 26 39 27 40 28 41 92 42 29 43 91 44
REMARK SMILES IDX 30 45 31 46 32 47 85 48 33 49 90 50 84 51 86 52 34 53 89 54
REMARK SMILES IDX 83 55 82 56 35 58 69 59 48 60 68 61 49 62 52 63 67 64 87 65
REMARK SMILES IDX 50 66 51 67 66 69 88 70 53 71 36 72 37 73 46 74 38 75 39 76
REMARK SMILES IDX 45 77 47 78 40 79 41 80 42 81 43 82 44 83 70 84 71 85 80 86
REMARK SMILES IDX 72 87 73 88 79 89 81 90 74 91 75 92 76 93 77 94 78 95 54 96
REMARK SMILES IDX 55 97 64 98 56 99 57 100 63 101 65 102 58 103 59 104 60 105
REMARK SMILES IDX 61 106 62 107
REMARK H PARENT 5 17 5 18 86 57 52 68
REMARK Flexibility Score: inf
ROOT
ATOM      1  C   UNL     1       2.513  -6.348  -1.951  1.00  0.00     0.188 C 
ENDROOT
BRANCH   1   2
ATOM      2  O   UNL     1       2.080  -7.655  -2.267  1.00  0.00    -0.376 OA
BRANCH   2   3
ATOM      3  C   UNL     1       0.811  -7.934  -2.837  1.00  0.00     0.202 C 
BRANCH   3   4
ATOM      4  C   UNL     1      -0.447  -7.073  -2.676  1.00  0.00     0.261 C 
BRANCH   4   5
ATOM      5  O   UNL     1      -0.221  -5.675  -2.581  1.00  0.00    -0.460 OA
BRANCH   5   6
ATOM      6  C   UNL     1      -0.544  -5.108  -1.388  1.00  0.00     0.340 C 
ATOM      7  O   UNL     1      -1.046  -5.708  -0.426  1.00  0.00    -0.246 OA
BRANCH   6   8
ATOM      8  C   UNL     1      -0.278  -3.685  -1.403  1.00  0.00     0.089 A 
ATOM      9  C   UNL     1       1.169  -0.421  -0.363  1.00  0.00     0.065 C 
ATOM     10  C   UNL     1       0.505  -1.602  -0.995  1.00  0.00     0.025 A 
ATOM     11  C   UNL     1       0.663  -2.938  -0.628  1.00  0.00     0.042 A 
ATOM     12  N   UNL     1      -0.375  -1.546  -2.070  1.00  0.00    -0.343 N 
ATOM     13  C   UNL     1      -0.937  -2.799  -2.247  1.00  0.00     0.030 A 
ATOM     14  C   UNL     1      -2.037  -3.140  -3.200  1.00  0.00     0.065 C 
BRANCH  11  15
ATOM     15  C   UNL     1       1.650  -3.484   0.379  1.00  0.00     0.300 C 
BRANCH  15  16
ATOM     16  N   UNL     1       0.928  -4.259   1.374  1.00  0.00    -0.340 N 
ATOM     17  H   UNL     1       0.532  -5.079   0.916  1.00  0.00     0.346 HD
ATOM     18  H   UNL     1       0.215  -3.642   1.765  1.00  0.00     0.346 HD
BRANCH  16  19
ATOM     19  C   UNL     1       1.753  -4.713   2.498  1.00  0.00     0.293 C 
BRANCH  19  20
ATOM     20  C   UNL     1       2.340  -3.655   3.463  1.00  0.00     0.173 C 
ATOM     21  C   UNL     1       1.618  -2.317   3.568  1.00  0.00     0.040 C 
ATOM     22  O   UNL     1       3.704  -3.382   3.104  1.00  0.00    -0.372 OA
ATOM     23  C   UNL     1       2.738  -1.329   3.786  1.00  0.00     0.031 C 
ATOM     24  C   UNL     1       3.930  -1.974   3.117  1.00  0.00     0.161 C 
ENDBRANCH  19  20
ENDBRANCH  16  19
ENDBRANCH  15  16
ENDBRANCH  11  15
BRANCH  12  25
ATOM     25  C   UNL     1      -0.786  -0.335  -2.791  1.00  0.00     0.157 C 
BRANCH  25  26
ATOM     26  C   UNL     1      -0.148  -0.116  -4.152  1.00  0.00    -0.028 A 
ATOM     27  C   UNL     1       0.371   1.153  -4.472  1.00  0.00     0.008 A 
ATOM     28  C   UNL     1      -0.185  -1.079  -5.175  1.00  0.00     0.008 A 
ATOM     29  C   UNL     1       0.801   1.450  -5.771  1.00  0.00     0.039 A 
ATOM     30  C   UNL     1       0.232  -0.781  -6.475  1.00  0.00     0.039 A 
ATOM     31  C   UNL     1       0.712   0.485  -6.764  1.00  0.00     0.123 A 
ATOM     32  F   UNL     1       1.075   0.785  -8.018  1.00  0.00    -0.207 F 
ENDBRANCH  25  26
ENDBRANCH  12  25
ENDBRANCH   6   8
ENDBRANCH   5   6
ENDBRANCH   4   5
ENDBRANCH   3   4
ENDBRANCH   2   3
ENDBRANCH   1   2
BRANCH   1  33
ATOM     33  C   UNL     1       2.975  -5.382  -3.055  1.00  0.00     0.188 C 
BRANCH  33  34
ATOM     34  O   UNL     1       2.855  -5.798  -4.398  1.00  0.00    -0.376 OA
BRANCH  34  35
ATOM     35  C   UNL     1       3.559  -6.976  -4.798  1.00  0.00     0.202 C 
BRANCH  35  36
ATOM     36  C   UNL     1       5.111  -7.100  -4.620  1.00  0.00     0.261 C 
BRANCH  36  37
ATOM     37  O   UNL     1       5.720  -7.872  -3.501  1.00  0.00    -0.460 OA
BRANCH  37  38
ATOM     38  C   UNL     1       6.804  -7.290  -2.854  1.00  0.00     0.338 C 
ATOM     39  O   UNL     1       6.938  -6.071  -2.820  1.00  0.00    -0.246 OA
BRANCH  38  40
ATOM     40  C   UNL     1       7.838  -8.210  -2.115  1.00  0.00     0.060 A 
ATOM     41  C   UNL     1       7.957  -8.150  -0.729  1.00  0.00     0.016 A 
ATOM     42  C   UNL     1       8.930  -8.882  -2.719  1.00  0.00     0.016 A 
ATOM     43  C   UNL     1       9.059  -8.786   0.000  1.00  0.00     0.010 A 
ATOM     44  C   UNL     1      10.095  -9.476  -1.969  1.00  0.00     0.010 A 
ATOM     45  C   UNL     1      10.216  -9.465  -0.561  1.00  0.00    -0.014 A 
BRANCH  45  46
ATOM     46  C   UNL     1      11.607  -9.607   0.423  1.00  0.00     0.031 A 
ATOM     47  C   UNL     1      11.582  -8.272   1.093  1.00  0.00     0.074 A 
ATOM     48  C   UNL     1      12.762 -10.369   0.782  1.00  0.00     0.049 A 
ATOM     49  N   UNL     1      11.516  -7.188   0.368  1.00  0.00    -0.248 NA
ATOM     50  C   UNL     1      11.220  -8.079   2.499  1.00  0.00     0.031 C 
ATOM     51  C   UNL     1      13.249 -11.639   0.198  1.00  0.00     0.029 A 
ATOM     52  N   UNL     1      13.830 -10.198   1.782  1.00  0.00    -0.354 N 
ATOM     53  C   UNL     1      11.502  -6.146   1.252  1.00  0.00     0.074 A 
ATOM     54  C   UNL     1      11.040  -6.752   2.496  1.00  0.00     0.031 C 
ATOM     55  C   UNL     1      14.314 -12.178   0.880  1.00  0.00     0.029 A 
ATOM     56  C   UNL     1      14.767 -11.324   1.986  1.00  0.00     0.049 A 
ATOM     57  H   UNL     1      13.918  -9.363   2.296  1.00  0.00     0.167 HD
ATOM     58  C   UNL     1      12.505  -5.237   1.074  1.00  0.00     0.037 A 
ATOM     59  C   UNL     1      15.864 -11.531   2.869  1.00  0.00     0.037 A 
ATOM     60  C   UNL     1      13.562  -5.390   2.038  1.00  0.00     0.049 A 
ATOM     61  C   UNL     1      16.399 -10.192   3.148  1.00  0.00     0.074 A 
ATOM     62  C   UNL     1      13.584  -5.686   3.386  1.00  0.00     0.029 A 
ATOM     63  N   UNL     1      14.812  -5.694   1.545  1.00  0.00    -0.354 N 
ATOM     64  N   UNL     1      17.093  -9.537   2.271  1.00  0.00    -0.248 NA
ATOM     65  C   UNL     1      16.322  -9.585   4.474  1.00  0.00     0.031 C 
ATOM     66  C   UNL     1      14.611  -6.642   3.517  1.00  0.00     0.029 A 
ATOM     67  C   UNL     1      15.422  -6.588   2.391  1.00  0.00     0.049 A 
ATOM     68  H   UNL     1      15.205  -5.330   0.719  1.00  0.00     0.167 HD
ATOM     69  C   UNL     1      17.067  -8.265   2.748  1.00  0.00     0.074 A 
ATOM     70  C   UNL     1      16.843  -8.392   4.178  1.00  0.00     0.031 C 
ATOM     71  C   UNL     1      16.542  -7.351   1.899  1.00  0.00     0.037 A 
BRANCH  58  72
ATOM     72  C   UNL     1      12.765  -4.848  -0.360  1.00  0.00     0.058 A 
ATOM     73  C   UNL     1      12.486  -3.542  -0.771  1.00  0.00     0.135 A 
ATOM     74  C   UNL     1      13.252  -5.747  -1.339  1.00  0.00     0.135 A 
ATOM     75  F   UNL     1      12.078  -2.627   0.123  1.00  0.00    -0.206 F 
ATOM     76  C   UNL     1      12.634  -3.155  -2.101  1.00  0.00     0.059 A 
ATOM     77  C   UNL     1      13.354  -5.398  -2.680  1.00  0.00     0.059 A 
ATOM     78  F   UNL     1      13.670  -6.975  -0.992  1.00  0.00    -0.206 F 
ATOM     79  C   UNL     1      13.043  -4.096  -3.051  1.00  0.00     0.060 A 
BRANCH  79  80
ATOM     80  S   UNL     1      13.143  -3.584  -4.779  1.00  0.00     0.124 S 
ATOM     81  O   UNL     1      11.879  -2.874  -4.964  1.00  0.00    -0.237 OA
ATOM     82  O   UNL     1      14.332  -2.740  -4.767  1.00  0.00    -0.237 OA
ATOM     83  O   UNL     1      13.248  -4.843  -5.508  1.00  0.00    -0.744 OA
ENDBRANCH  79  80
ENDBRANCH  58  72
BRANCH  59  84
ATOM     84  C   UNL     1      16.919 -12.567   3.542  1.00  0.00     0.058 A 
ATOM     85  C   UNL     1      18.259 -12.159   3.930  1.00  0.00     0.135 A 
ATOM     86  C   UNL     1      16.530 -13.740   4.217  1.00  0.00     0.135 A 
ATOM     87  F   UNL     1      18.844 -11.090   3.372  1.00  0.00    -0.206 F 
ATOM     88  C   UNL     1      19.046 -12.756   4.952  1.00  0.00     0.059 A 
ATOM     89  C   UNL     1      17.326 -14.380   5.231  1.00  0.00     0.059 A 
ATOM     90  F   UNL     1      15.320 -14.265   3.983  1.00  0.00    -0.206 F 
ATOM     91  C   UNL     1      18.558 -13.855   5.631  1.00  0.00     0.060 A 
BRANCH  91  92
ATOM     92  S   UNL     1      19.469 -14.479   7.097  1.00  0.00     0.124 S 
ATOM     93  O   UNL     1      20.703 -15.001   6.519  1.00  0.00    -0.237 OA
ATOM     94  O   UNL     1      19.618 -13.278   7.914  1.00  0.00    -0.237 OA
ATOM     95  O   UNL     1      18.569 -15.487   7.652  1.00  0.00    -0.744 OA
ENDBRANCH  91  92
ENDBRANCH  59  84
BRANCH  71  96
ATOM     96  C   UNL     1      17.046  -7.358   0.469  1.00  0.00     0.058 A 
ATOM     97  C   UNL     1      17.090  -8.457  -0.421  1.00  0.00     0.135 A 
ATOM     98  C   UNL     1      17.586  -6.154  -0.012  1.00  0.00     0.135 A 
ATOM     99  F   UNL     1      16.523  -9.636  -0.125  1.00  0.00    -0.206 F 
ATOM    100  C   UNL     1      17.709  -8.375  -1.672  1.00  0.00     0.059 A 
ATOM    101  C   UNL     1      18.160  -6.036  -1.275  1.00  0.00     0.059 A 
ATOM    102  F   UNL     1      17.552  -5.056   0.761  1.00  0.00    -0.206 F 
ATOM    103  C   UNL     1      18.254  -7.163  -2.084  1.00  0.00     0.060 A 
BRANCH 103 104
ATOM    104  S   UNL     1      19.090  -7.074  -3.682  1.00  0.00     0.124 S 
ATOM    105  O   UNL     1      20.310  -7.835  -3.424  1.00  0.00    -0.237 OA
ATOM    106  O   UNL     1      18.134  -7.711  -4.580  1.00  0.00    -0.237 OA
ATOM    107  O   UNL     1      19.292  -5.641  -3.879  1.00  0.00    -0.744 OA
ENDBRANCH 103 104
ENDBRANCH  71  96
ENDBRANCH  45  46
ENDBRANCH  38  40
ENDBRANCH  37  38
ENDBRANCH  36  37
ENDBRANCH  35  36
ENDBRANCH  34  35
ENDBRANCH  33  34
ENDBRANCH   1  33
TORSDOF 26
