REMARK SMILES Cn1ccc(NC(=O)[C@@H]2CCCC[C@@H]2C(=O)OCCOCCOCCOC(=O)c2ccc(-c3c4nc(c(-c5c(F)cc(S(=O)(=O)[O-])cc5F)c5ccc([nH]5)c(-c5c(F)cc(S(=O)(=O)[O-])cc5F)c5nc(c(-c6c(F)cc(S(=O)(=O)[O-])cc6F)c6ccc3[nH]6)C=C5)C=C4)cc2)n1
REMARK SMILES IDX 22 1 21 2 20 3 19 4 18 5 17 6 15 7 16 8 14 9 9 10 10 11
REMARK SMILES IDX 11 12 13 13 12 14 7 15 6 16 8 18 5 19 1 20 2 21 3 22 95 23
REMARK SMILES IDX 4 24 23 25 24 26 25 27 26 28 27 29 28 30 29 31 30 32 94 33
REMARK SMILES IDX 31 34 93 35 32 36 33 37 34 38 87 39 35 40 92 41 86 42 88 43
REMARK SMILES IDX 36 44 91 45 85 46 84 47 37 49 71 50 50 51 70 52 51 53 54 54
REMARK SMILES IDX 69 55 89 56 52 57 53 58 68 60 90 61 55 62 38 63 39 64 48 65
REMARK SMILES IDX 40 66 41 67 47 68 49 69 42 70 43 71 44 72 45 73 46 74 72 75
REMARK SMILES IDX 73 76 82 77 74 78 75 79 81 80 83 81 76 82 77 83 78 84 79 85
REMARK SMILES IDX 80 86 56 87 57 88 66 89 58 90 59 91 65 92 67 93 60 94 61 95
REMARK SMILES IDX 62 96 63 97 64 98
REMARK H PARENT 6 17 88 48 54 59
REMARK Flexibility Score: inf
ROOT
ATOM      1  C   UNL     1       2.596   4.635   3.000  1.00  0.00     0.188 C 
ENDROOT
BRANCH   1   2
ATOM      2  C   UNL     1       1.406   4.482   3.953  1.00  0.00     0.188 C 
BRANCH   2   3
ATOM      3  O   UNL     1       1.379   3.378   4.858  1.00  0.00    -0.376 OA
BRANCH   3   4
ATOM      4  C   UNL     1       2.245   2.283   4.615  1.00  0.00     0.202 C 
BRANCH   4   5
ATOM      5  C   UNL     1       1.783   1.284   3.551  1.00  0.00     0.261 C 
BRANCH   5   6
ATOM      6  O   UNL     1       1.289   1.876   2.337  1.00  0.00    -0.463 OA
BRANCH   6   7
ATOM      7  C   UNL     1      -0.052   2.068   2.302  1.00  0.00     0.309 C 
ATOM      8  O   UNL     1      -0.787   1.846   3.260  1.00  0.00    -0.252 OA
BRANCH   7   9
ATOM      9  C   UNL     1      -0.603   2.403   0.919  1.00  0.00     0.111 C 
ATOM     10  C   UNL     1       0.299   2.974  -0.216  1.00  0.00     0.093 C 
ATOM     11  C   UNL     1       0.306   4.518  -0.239  1.00  0.00     0.014 C 
ATOM     12  C   UNL     1      -1.093   5.115  -0.208  1.00  0.00     0.001 C 
ATOM     13  C   UNL     1      -1.957   3.138   1.029  1.00  0.00     0.016 C 
ATOM     14  C   UNL     1      -1.832   4.651   1.033  1.00  0.00     0.001 C 
BRANCH  10  15
ATOM     15  C   UNL     1       1.758   2.473  -0.303  1.00  0.00     0.229 C 
ATOM     16  N   UNL     1       2.071   1.154  -0.440  1.00  0.00    -0.309 N 
ATOM     17  H   UNL     1       3.031   0.937  -0.425  1.00  0.00     0.171 HD
ATOM     18  O   UNL     1       2.710   3.261  -0.228  1.00  0.00    -0.274 OA
BRANCH  16  19
ATOM     19  C   UNL     1       1.222   0.092  -0.596  1.00  0.00     0.154 A 
ATOM     20  C   UNL     1      -2.027  -1.070  -0.705  1.00  0.00     0.173 C 
ATOM     21  N   UNL     1      -0.586  -0.983  -0.739  1.00  0.00    -0.274 N 
ATOM     22  C   UNL     1       0.318  -1.906  -0.307  1.00  0.00     0.110 A 
ATOM     23  N   UNL     1      -0.022   0.189  -1.056  1.00  0.00    -0.155 NA
ATOM     24  C   UNL     1       1.525  -1.243  -0.247  1.00  0.00     0.068 A 
ENDBRANCH  16  19
ENDBRANCH  10  15
ENDBRANCH   7   9
ENDBRANCH   6   7
ENDBRANCH   5   6
ENDBRANCH   4   5
ENDBRANCH   3   4
ENDBRANCH   2   3
ENDBRANCH   1   2
BRANCH   1  25
ATOM     25  O   UNL     1       3.813   4.761   3.738  1.00  0.00    -0.376 OA
BRANCH  25  26
ATOM     26  C   UNL     1       4.641   5.816   3.262  1.00  0.00     0.202 C 
BRANCH  26  27
ATOM     27  C   UNL     1       4.379   7.102   4.051  1.00  0.00     0.261 C 
BRANCH  27  28
ATOM     28  O   UNL     1       2.993   7.492   4.113  1.00  0.00    -0.460 OA
BRANCH  28  29
ATOM     29  C   UNL     1       2.478   8.049   2.994  1.00  0.00     0.338 C 
ATOM     30  O   UNL     1       3.062   8.229   1.941  1.00  0.00    -0.246 OA
BRANCH  29  31
ATOM     31  C   UNL     1       1.030   8.294   3.195  1.00  0.00     0.060 A 
ATOM     32  C   UNL     1       0.131   7.810   2.240  1.00  0.00     0.016 A 
ATOM     33  C   UNL     1       0.562   9.046   4.276  1.00  0.00     0.016 A 
ATOM     34  C   UNL     1      -1.234   8.099   2.346  1.00  0.00     0.010 A 
ATOM     35  C   UNL     1      -0.803   9.347   4.373  1.00  0.00     0.010 A 
ATOM     36  C   UNL     1      -1.709   8.898   3.395  1.00  0.00    -0.014 A 
BRANCH  36  37
ATOM     37  C   UNL     1      -3.109   9.401   3.380  1.00  0.00     0.031 A 
ATOM     38  C   UNL     1      -3.370  10.797   2.877  1.00  0.00     0.074 A 
ATOM     39  C   UNL     1      -4.143   8.638   3.781  1.00  0.00     0.049 A 
ATOM     40  N   UNL     1      -4.480  11.489   2.878  1.00  0.00    -0.248 NA
ATOM     41  C   UNL     1      -2.220  11.506   2.292  1.00  0.00     0.031 C 
ATOM     42  C   UNL     1      -4.050   7.248   4.223  1.00  0.00     0.029 A 
ATOM     43  N   UNL     1      -5.481   8.936   3.891  1.00  0.00    -0.354 N 
ATOM     44  C   UNL     1      -4.161  12.719   2.314  1.00  0.00     0.074 A 
ATOM     45  C   UNL     1      -2.751  12.681   1.990  1.00  0.00     0.031 C 
ATOM     46  C   UNL     1      -5.277   6.819   4.571  1.00  0.00     0.029 A 
ATOM     47  C   UNL     1      -6.234   7.914   4.419  1.00  0.00     0.049 A 
ATOM     48  H   UNL     1      -5.864   9.801   3.616  1.00  0.00     0.167 HD
ATOM     49  C   UNL     1      -4.966  13.785   2.089  1.00  0.00     0.037 A 
ATOM     50  C   UNL     1      -7.537   7.877   4.771  1.00  0.00     0.037 A 
ATOM     51  C   UNL     1      -6.370  13.825   2.402  1.00  0.00     0.049 A 
ATOM     52  C   UNL     1      -8.398   9.102   4.584  1.00  0.00     0.074 A 
ATOM     53  C   UNL     1      -7.263  14.866   2.216  1.00  0.00     0.029 A 
ATOM     54  N   UNL     1      -7.086  12.781   2.967  1.00  0.00    -0.354 N 
ATOM     55  N   UNL     1      -8.079  10.267   4.073  1.00  0.00    -0.248 NA
ATOM     56  C   UNL     1      -9.797   9.010   5.032  1.00  0.00     0.031 C 
ATOM     57  C   UNL     1      -8.512  14.465   2.703  1.00  0.00     0.029 A 
ATOM     58  C   UNL     1      -8.406  13.159   3.153  1.00  0.00     0.049 A 
ATOM     59  H   UNL     1      -6.712  11.902   3.202  1.00  0.00     0.167 HD
ATOM     60  C   UNL     1      -9.239  11.036   4.119  1.00  0.00     0.074 A 
ATOM     61  C   UNL     1     -10.271  10.202   4.696  1.00  0.00     0.031 C 
ATOM     62  C   UNL     1      -9.431  12.317   3.718  1.00  0.00     0.037 A 
BRANCH  49  63
ATOM     63  C   UNL     1      -4.333  15.017   1.509  1.00  0.00     0.058 A 
ATOM     64  C   UNL     1      -3.963  15.093   0.158  1.00  0.00     0.135 A 
ATOM     65  C   UNL     1      -4.115  16.146   2.315  1.00  0.00     0.135 A 
ATOM     66  F   UNL     1      -4.133  14.035  -0.650  1.00  0.00    -0.206 F 
ATOM     67  C   UNL     1      -3.376  16.239  -0.370  1.00  0.00     0.059 A 
ATOM     68  C   UNL     1      -3.550  17.310   1.804  1.00  0.00     0.059 A 
ATOM     69  F   UNL     1      -4.448  16.122   3.615  1.00  0.00    -0.206 F 
ATOM     70  C   UNL     1      -3.171  17.341   0.463  1.00  0.00     0.060 A 
BRANCH  70  71
ATOM     71  S   UNL     1      -2.405  18.821  -0.233  1.00  0.00     0.124 S 
ATOM     72  O   UNL     1      -1.011  18.401  -0.343  1.00  0.00    -0.237 OA
ATOM     73  O   UNL     1      -3.120  18.981  -1.495  1.00  0.00    -0.237 OA
ATOM     74  O   UNL     1      -2.674  19.846   0.771  1.00  0.00    -0.744 OA
ENDBRANCH  70  71
ENDBRANCH  49  63
BRANCH  50  75
ATOM     75  C   UNL     1      -8.111   6.646   5.382  1.00  0.00     0.058 A 
ATOM     76  C   UNL     1      -9.055   5.867   4.697  1.00  0.00     0.135 A 
ATOM     77  C   UNL     1      -7.746   6.242   6.676  1.00  0.00     0.135 A 
ATOM     78  F   UNL     1      -9.452   6.223   3.466  1.00  0.00    -0.206 F 
ATOM     79  C   UNL     1      -9.627   4.738   5.277  1.00  0.00     0.059 A 
ATOM     80  C   UNL     1      -8.285   5.103   7.267  1.00  0.00     0.059 A 
ATOM     81  F   UNL     1      -6.848   6.953   7.375  1.00  0.00    -0.206 F 
ATOM     82  C   UNL     1      -9.235   4.364   6.563  1.00  0.00     0.060 A 
BRANCH  82  83
ATOM     83  S   UNL     1      -9.953   2.876   7.293  1.00  0.00     0.124 S 
ATOM     84  O   UNL     1     -11.286   3.341   7.659  1.00  0.00    -0.237 OA
ATOM     85  O   UNL     1      -9.891   1.927   6.185  1.00  0.00    -0.237 OA
ATOM     86  O   UNL     1      -9.057   2.584   8.408  1.00  0.00    -0.744 OA
ENDBRANCH  82  83
ENDBRANCH  50  75
BRANCH  62  87
ATOM     87  C   UNL     1     -10.814  12.895   3.852  1.00  0.00     0.058 A 
ATOM     88  C   UNL     1     -11.335  13.281   5.097  1.00  0.00     0.135 A 
ATOM     89  C   UNL     1     -11.602  13.123   2.713  1.00  0.00     0.135 A 
ATOM     90  F   UNL     1     -10.624  13.081   6.218  1.00  0.00    -0.206 F 
ATOM     91  C   UNL     1     -12.597  13.857   5.210  1.00  0.00     0.059 A 
ATOM     92  C   UNL     1     -12.858  13.719   2.800  1.00  0.00     0.059 A 
ATOM     93  F   UNL     1     -11.147  12.783   1.496  1.00  0.00    -0.206 F 
ATOM     94  C   UNL     1     -13.351  14.074   4.054  1.00  0.00     0.060 A 
BRANCH  94  95
ATOM     95  S   UNL     1     -14.970  14.859   4.207  1.00  0.00     0.124 S 
ATOM     96  O   UNL     1     -15.783  13.760   4.719  1.00  0.00    -0.237 OA
ATOM     97  O   UNL     1     -14.707  15.944   5.147  1.00  0.00    -0.237 OA
ATOM     98  O   UNL     1     -15.273  15.281   2.842  1.00  0.00    -0.744 OA
ENDBRANCH  94  95
ENDBRANCH  62  87
ENDBRANCH  36  37
ENDBRANCH  29  31
ENDBRANCH  28  29
ENDBRANCH  27  28
ENDBRANCH  26  27
ENDBRANCH  25  26
ENDBRANCH   1  25
TORSDOF 22
