REMARK SMILES NS(=O)(=O)c1ccc(-n2nc(C(F)F)cc2-c2ccc(C(=O)OCCOCCOCCOC(=O)c3ccc(-c4c5nc(c(-c6c(F)cc(S(=O)(=O)[O-])cc6F)c6ccc([nH]6)c(-c6c(F)cc(S(=O)(=O)[O-])cc6F)c6nc(c(-c7c(F)cc(S(=O)(=O)[O-])cc7F)c7ccc4[nH]7)C=C6)C=C5)cc3)cc2)cc1
REMARK SMILES IDX 27 1 26 2 25 3 24 4 23 5 21 6 22 7 20 8 17 9 18 10 102 11
REMARK SMILES IDX 19 12 101 13 16 14 9 15 10 16 11 17 15 18 8 19 5 20 6 21
REMARK SMILES IDX 104 22 7 23 103 24 2 25 3 26 4 27 1 28 12 31 13 32 14 33
REMARK SMILES IDX 28 34 29 35 30 36 31 37 32 38 33 39 34 40 35 41 36 42 100 43
REMARK SMILES IDX 37 44 99 45 38 46 39 47 40 48 93 49 41 50 98 51 92 52 94 53
REMARK SMILES IDX 42 54 97 55 91 56 90 57 43 59 77 60 56 61 76 62 57 63 60 64
REMARK SMILES IDX 75 65 95 66 58 67 59 68 74 70 96 71 61 72 44 73 45 74 54 75
REMARK SMILES IDX 46 76 47 77 53 78 55 79 48 80 49 81 50 82 51 83 52 84 78 85
REMARK SMILES IDX 79 86 88 87 80 88 81 89 87 90 89 91 82 92 83 93 84 94 85 95
REMARK SMILES IDX 86 96 62 97 63 98 72 99 64 100 65 101 71 102 73 103 66 104
REMARK SMILES IDX 67 105 68 106 69 107 70 108
REMARK H PARENT 1 29 1 30 94 58 60 69
REMARK Flexibility Score: inf
ROOT
ATOM      1  C   UNL     1      -5.206  -4.079  -2.628  1.00  0.00     0.188 C 
ENDROOT
BRANCH   1   2
ATOM      2  O   UNL     1      -6.601  -3.955  -2.801  1.00  0.00    -0.376 OA
BRANCH   2   3
ATOM      3  C   UNL     1      -7.341  -4.895  -3.558  1.00  0.00     0.202 C 
BRANCH   3   4
ATOM      4  C   UNL     1      -6.775  -5.730  -4.725  1.00  0.00     0.261 C 
BRANCH   4   5
ATOM      5  O   UNL     1      -5.399  -6.112  -4.651  1.00  0.00    -0.460 OA
BRANCH   5   6
ATOM      6  C   UNL     1      -4.565  -5.473  -5.502  1.00  0.00     0.338 C 
ATOM      7  O   UNL     1      -4.875  -4.669  -6.365  1.00  0.00    -0.246 OA
BRANCH   6   8
ATOM      8  C   UNL     1      -3.156  -5.748  -5.136  1.00  0.00     0.060 A 
ATOM      9  C   UNL     1      -0.431  -6.152  -4.603  1.00  0.00     0.000 A 
ATOM     10  C   UNL     1      -0.921  -4.863  -4.858  1.00  0.00     0.011 A 
ATOM     11  C   UNL     1      -1.332  -7.226  -4.554  1.00  0.00     0.011 A 
ATOM     12  C   UNL     1      -2.273  -4.663  -5.129  1.00  0.00     0.016 A 
ATOM     13  C   UNL     1      -2.696  -7.026  -4.808  1.00  0.00     0.016 A 
BRANCH   9  14
ATOM     14  C   UNL     1       1.015  -6.384  -4.550  1.00  0.00     0.075 A 
ATOM     15  N   UNL     1       1.950  -5.631  -3.848  1.00  0.00    -0.233 N 
ATOM     16  N   UNL     1       3.208  -5.819  -4.325  1.00  0.00    -0.166 NA
ATOM     17  C   UNL     1       3.108  -6.852  -5.176  1.00  0.00     0.129 A 
ATOM     18  C   UNL     1       1.757  -7.223  -5.361  1.00  0.00     0.060 A 
BRANCH  15  19
ATOM     19  C   UNL     1       1.717  -4.728  -2.781  1.00  0.00     0.065 A 
ATOM     20  C   UNL     1       1.180  -2.892  -0.761  1.00  0.00     0.082 A 
ATOM     21  C   UNL     1       0.506  -4.118  -0.780  1.00  0.00     0.024 A 
ATOM     22  C   UNL     1       2.137  -2.585  -1.733  1.00  0.00     0.024 A 
ATOM     23  C   UNL     1       0.764  -5.034  -1.800  1.00  0.00     0.030 A 
ATOM     24  C   UNL     1       2.429  -3.521  -2.729  1.00  0.00     0.030 A 
BRANCH  20  25
ATOM     25  S   UNL     1       0.754  -1.746   0.518  1.00  0.00     0.238 S 
ATOM     26  O   UNL     1       1.550  -2.058   1.675  1.00  0.00    -0.207 OA
ATOM     27  O   UNL     1      -0.689  -1.639   0.542  1.00  0.00    -0.207 OA
BRANCH  25  28
ATOM     28  N   UNL     1       1.299  -0.253  -0.038  1.00  0.00    -0.225 NA
ATOM     29  H   UNL     1       1.087   0.465   0.654  1.00  0.00     0.137 HD
ATOM     30  H   UNL     1       0.834  -0.027  -0.917  1.00  0.00     0.137 HD
ENDBRANCH  25  28
ENDBRANCH  20  25
ENDBRANCH  15  19
BRANCH  17  31
ATOM     31  C   UNL     1       4.293  -7.462  -5.863  1.00  0.00     0.393 C 
ATOM     32  F   UNL     1       5.213  -6.540  -6.256  1.00  0.00    -0.203 F 
ATOM     33  F   UNL     1       4.943  -8.344  -5.054  1.00  0.00    -0.203 F 
ENDBRANCH  17  31
ENDBRANCH   9  14
ENDBRANCH   6   8
ENDBRANCH   5   6
ENDBRANCH   4   5
ENDBRANCH   3   4
ENDBRANCH   2   3
ENDBRANCH   1   2
BRANCH   1  34
ATOM     34  C   UNL     1      -4.598  -5.325  -1.954  1.00  0.00     0.188 C 
BRANCH  34  35
ATOM     35  O   UNL     1      -5.317  -6.538  -1.984  1.00  0.00    -0.376 OA
BRANCH  35  36
ATOM     36  C   UNL     1      -6.358  -6.866  -1.079  1.00  0.00     0.202 C 
BRANCH  36  37
ATOM     37  C   UNL     1      -6.928  -5.969   0.019  1.00  0.00     0.261 C 
BRANCH  37  38
ATOM     38  O   UNL     1      -6.433  -4.654   0.076  1.00  0.00    -0.460 OA
BRANCH  38  39
ATOM     39  C   UNL     1      -5.347  -4.550   0.867  1.00  0.00     0.338 C 
ATOM     40  O   UNL     1      -4.643  -5.458   1.277  1.00  0.00    -0.246 OA
BRANCH  39  41
ATOM     41  C   UNL     1      -5.185  -3.155   1.254  1.00  0.00     0.060 A 
ATOM     42  C   UNL     1      -3.945  -2.806   1.788  1.00  0.00     0.016 A 
ATOM     43  C   UNL     1      -6.352  -2.412   1.472  1.00  0.00     0.016 A 
ATOM     44  C   UNL     1      -3.926  -1.854   2.774  1.00  0.00     0.010 A 
ATOM     45  C   UNL     1      -6.336  -1.488   2.479  1.00  0.00     0.010 A 
ATOM     46  C   UNL     1      -5.143  -1.296   3.175  1.00  0.00    -0.014 A 
BRANCH  46  47
ATOM     47  C   UNL     1      -5.129  -0.372   4.284  1.00  0.00     0.031 A 
ATOM     48  C   UNL     1      -4.584   0.935   3.866  1.00  0.00     0.074 A 
ATOM     49  C   UNL     1      -5.685  -0.693   5.469  1.00  0.00     0.049 A 
ATOM     50  N   UNL     1      -3.456   1.464   4.204  1.00  0.00    -0.248 NA
ATOM     51  C   UNL     1      -5.242   1.615   2.732  1.00  0.00     0.031 C 
ATOM     52  C   UNL     1      -6.445  -1.904   5.795  1.00  0.00     0.029 A 
ATOM     53  N   UNL     1      -5.800   0.046   6.604  1.00  0.00    -0.354 N 
ATOM     54  C   UNL     1      -3.442   2.695   3.559  1.00  0.00     0.074 A 
ATOM     55  C   UNL     1      -4.371   2.589   2.472  1.00  0.00     0.031 C 
ATOM     56  C   UNL     1      -7.134  -1.703   6.941  1.00  0.00     0.029 A 
ATOM     57  C   UNL     1      -6.790  -0.399   7.478  1.00  0.00     0.049 A 
ATOM     58  H   UNL     1      -5.232   0.828   6.793  1.00  0.00     0.167 HD
ATOM     59  C   UNL     1      -3.004   3.795   4.228  1.00  0.00     0.037 A 
ATOM     60  C   UNL     1      -7.346   0.319   8.493  1.00  0.00     0.037 A 
ATOM     61  C   UNL     1      -2.140   3.412   5.323  1.00  0.00     0.049 A 
ATOM     62  C   UNL     1      -6.410   1.440   8.789  1.00  0.00     0.074 A 
ATOM     63  C   UNL     1      -1.001   2.637   5.441  1.00  0.00     0.029 A 
ATOM     64  N   UNL     1      -2.648   3.528   6.595  1.00  0.00    -0.354 N 
ATOM     65  N   UNL     1      -5.219   1.276   9.299  1.00  0.00    -0.248 NA
ATOM     66  C   UNL     1      -6.609   2.691   8.072  1.00  0.00     0.031 C 
ATOM     67  C   UNL     1      -1.130   1.964   6.691  1.00  0.00     0.029 A 
ATOM     68  C   UNL     1      -2.297   2.415   7.308  1.00  0.00     0.049 A 
ATOM     69  H   UNL     1      -3.177   4.286   6.935  1.00  0.00     0.167 HD
ATOM     70  C   UNL     1      -4.410   2.162   8.600  1.00  0.00     0.074 A 
ATOM     71  C   UNL     1      -5.336   3.066   7.922  1.00  0.00     0.031 C 
ATOM     72  C   UNL     1      -3.086   1.889   8.400  1.00  0.00     0.037 A 
BRANCH  59  73
ATOM     73  C   UNL     1      -3.752   5.119   4.207  1.00  0.00     0.058 A 
ATOM     74  C   UNL     1      -3.199   6.203   4.919  1.00  0.00     0.135 A 
ATOM     75  C   UNL     1      -5.098   5.292   3.804  1.00  0.00     0.135 A 
ATOM     76  F   UNL     1      -1.924   6.162   5.340  1.00  0.00    -0.206 F 
ATOM     77  C   UNL     1      -3.955   7.309   5.303  1.00  0.00     0.059 A 
ATOM     78  C   UNL     1      -5.854   6.408   4.133  1.00  0.00     0.059 A 
ATOM     79  F   UNL     1      -5.796   4.368   3.138  1.00  0.00    -0.206 F 
ATOM     80  C   UNL     1      -5.289   7.391   4.920  1.00  0.00     0.060 A 
BRANCH  80  81
ATOM     81  S   UNL     1      -6.295   8.769   5.482  1.00  0.00     0.124 S 
ATOM     82  O   UNL     1      -6.392   8.492   6.909  1.00  0.00    -0.237 OA
ATOM     83  O   UNL     1      -5.471   9.911   5.101  1.00  0.00    -0.237 OA
ATOM     84  O   UNL     1      -7.531   8.614   4.719  1.00  0.00    -0.744 OA
ENDBRANCH  80  81
ENDBRANCH  59  73
BRANCH  60  85
ATOM     85  C   UNL     1      -8.767   0.325   8.950  1.00  0.00     0.058 A 
ATOM     86  C   UNL     1      -9.156   1.029  10.108  1.00  0.00     0.135 A 
ATOM     87  C   UNL     1      -9.820  -0.119   8.124  1.00  0.00     0.135 A 
ATOM     88  F   UNL     1      -8.228   1.508  10.950  1.00  0.00    -0.206 F 
ATOM     89  C   UNL     1     -10.497   1.320  10.396  1.00  0.00     0.059 A 
ATOM     90  C   UNL     1     -11.161   0.145   8.399  1.00  0.00     0.059 A 
ATOM     91  F   UNL     1      -9.580  -0.749   6.966  1.00  0.00    -0.206 F 
ATOM     92  C   UNL     1     -11.493   0.890   9.522  1.00  0.00     0.060 A 
BRANCH  92  93
ATOM     93  S   UNL     1     -13.207   1.409   9.783  1.00  0.00     0.124 S 
ATOM     94  O   UNL     1     -13.573   0.653  10.976  1.00  0.00    -0.237 OA
ATOM     95  O   UNL     1     -13.073   2.851   9.957  1.00  0.00    -0.237 OA
ATOM     96  O   UNL     1     -13.878   0.993   8.553  1.00  0.00    -0.744 OA
ENDBRANCH  92  93
ENDBRANCH  60  85
BRANCH  72  97
ATOM     97  C   UNL     1      -2.439   0.831   9.255  1.00  0.00     0.058 A 
ATOM     98  C   UNL     1      -2.795  -0.529   9.272  1.00  0.00     0.135 A 
ATOM     99  C   UNL     1      -1.318   1.209  10.009  1.00  0.00     0.135 A 
ATOM    100  F   UNL     1      -3.786  -0.994   8.495  1.00  0.00    -0.206 F 
ATOM    101  C   UNL     1      -2.100  -1.459  10.050  1.00  0.00     0.059 A 
ATOM    102  C   UNL     1      -0.590   0.296  10.762  1.00  0.00     0.059 A 
ATOM    103  F   UNL     1      -0.889   2.482   9.985  1.00  0.00    -0.206 F 
ATOM    104  C   UNL     1      -1.000  -1.034  10.796  1.00  0.00     0.060 A 
BRANCH 104 105
ATOM    105  S   UNL     1      -0.076  -2.234  11.779  1.00  0.00     0.124 S 
ATOM    106  O   UNL     1      -1.020  -2.550  12.845  1.00  0.00    -0.237 OA
ATOM    107  O   UNL     1       0.178  -3.303  10.818  1.00  0.00    -0.237 OA
ATOM    108  O   UNL     1       1.111  -1.492  12.199  1.00  0.00    -0.744 OA
ENDBRANCH 104 105
ENDBRANCH  72  97
ENDBRANCH  46  47
ENDBRANCH  39  41
ENDBRANCH  38  39
ENDBRANCH  37  38
ENDBRANCH  36  37
ENDBRANCH  35  36
ENDBRANCH  34  35
ENDBRANCH   1  34
TORSDOF 25
