REMARK SMILES CC[C@H]1SC[C@H](C(=O)OCCOCCOCCOC(=O)c2ccc(-c3c4nc(c(-c5c(F)cc(S(=O)(=O)[O-])cc5F)c5ccc([nH]5)c(-c5c(F)cc(S(=O)(=O)[O-])cc5F)c5nc(c(-c6c(F)cc(S(=O)(=O)[O-])cc6F)c6ccc3[nH]6)C=C5)C=C4)cc2)N1C(=O)c1ccc(F)c(F)c1F
REMARK SMILES IDX 14 1 13 2 12 3 11 4 10 5 9 6 7 7 8 8 6 9 3 10 4 11 87 12
REMARK SMILES IDX 5 13 2 14 1 15 88 16 89 17 90 18 91 19 97 20 92 21 95 22
REMARK SMILES IDX 98 23 93 24 96 25 94 26 15 27 16 28 17 29 18 30 19 31 20 32
REMARK SMILES IDX 21 33 22 34 86 35 23 36 85 37 24 38 25 39 26 40 79 41 27 42
REMARK SMILES IDX 84 43 78 44 80 45 28 46 83 47 77 48 76 49 29 51 63 52 42 53
REMARK SMILES IDX 62 54 43 55 46 56 61 57 81 58 44 59 45 60 60 62 82 63 47 64
REMARK SMILES IDX 30 65 31 66 40 67 32 68 33 69 39 70 41 71 34 72 35 73 36 74
REMARK SMILES IDX 37 75 38 76 64 77 65 78 74 79 66 80 67 81 73 82 75 83 68 84
REMARK SMILES IDX 69 85 70 86 71 87 72 88 48 89 49 90 58 91 50 92 51 93 57 94
REMARK SMILES IDX 59 95 52 96 53 97 54 98 55 99 56 100
REMARK H PARENT 80 50 46 61
REMARK Flexibility Score: inf
ROOT
ATOM      1  C   UNL     1       4.950   3.518   1.123  1.00  0.00     0.188 C 
ENDROOT
BRANCH   1   2
ATOM      2  C   UNL     1       5.203   3.919   2.583  1.00  0.00     0.188 C 
BRANCH   2   3
ATOM      3  O   UNL     1       6.506   3.684   3.103  1.00  0.00    -0.376 OA
BRANCH   3   4
ATOM      4  C   UNL     1       6.997   2.343   3.036  1.00  0.00     0.202 C 
BRANCH   4   5
ATOM      5  C   UNL     1       6.042   1.211   3.458  1.00  0.00     0.261 C 
BRANCH   5   6
ATOM      6  O   UNL     1       4.827   1.144   2.673  1.00  0.00    -0.462 OA
BRANCH   6   7
ATOM      7  C   UNL     1       3.686   0.896   3.357  1.00  0.00     0.329 C 
ATOM      8  O   UNL     1       3.656   0.656   4.564  1.00  0.00    -0.250 OA
BRANCH   7   9
ATOM      9  C   UNL     1       2.371   1.030   2.554  1.00  0.00     0.206 C 
ATOM     10  C   UNL     1       0.893   1.784   0.765  1.00  0.00     0.144 C 
ATOM     11  S   UNL     1       0.595   3.037   2.030  1.00  0.00    -0.134 SA
ATOM     12  N   UNL     1       2.216   1.245   1.092  1.00  0.00    -0.312 N 
ATOM     13  C   UNL     1       1.634   2.202   3.255  1.00  0.00     0.109 C 
BRANCH  10  14
ATOM     14  C   UNL     1      -0.240   0.737   0.870  1.00  0.00     0.033 C 
ATOM     15  C   UNL     1      -0.092  -0.448  -0.072  1.00  0.00     0.007 C 
ENDBRANCH  10  14
BRANCH  12  16
ATOM     16  C   UNL     1       2.980   0.522   0.178  1.00  0.00     0.258 C 
ATOM     17  O   UNL     1       3.724  -0.390   0.537  1.00  0.00    -0.269 OA
BRANCH  16  18
ATOM     18  C   UNL     1       2.871   0.778  -1.294  1.00  0.00     0.079 A 
ATOM     19  C   UNL     1       2.936  -0.324  -2.163  1.00  0.00     0.020 A 
ATOM     20  C   UNL     1       2.736   2.053  -1.849  1.00  0.00     0.174 A 
ATOM     21  C   UNL     1       2.807  -0.151  -3.546  1.00  0.00     0.043 A 
ATOM     22  C   UNL     1       2.589   2.226  -3.224  1.00  0.00     0.195 A 
ATOM     23  F   UNL     1       2.722   3.134  -1.064  1.00  0.00    -0.203 F 
ATOM     24  C   UNL     1       2.622   1.125  -4.067  1.00  0.00     0.161 A 
ATOM     25  F   UNL     1       2.387   3.449  -3.733  1.00  0.00    -0.200 F 
ATOM     26  F   UNL     1       2.471   1.278  -5.390  1.00  0.00    -0.204 F 
ENDBRANCH  16  18
ENDBRANCH  12  16
ENDBRANCH   7   9
ENDBRANCH   6   7
ENDBRANCH   5   6
ENDBRANCH   4   5
ENDBRANCH   3   4
ENDBRANCH   2   3
ENDBRANCH   1   2
BRANCH   1  27
ATOM     27  O   UNL     1       5.910   2.628   0.599  1.00  0.00    -0.376 OA
BRANCH  27  28
ATOM     28  C   UNL     1       6.442   2.839  -0.697  1.00  0.00     0.202 C 
BRANCH  28  29
ATOM     29  C   UNL     1       7.100   4.195  -1.030  1.00  0.00     0.261 C 
BRANCH  29  30
ATOM     30  O   UNL     1       6.347   5.386  -0.738  1.00  0.00    -0.460 OA
BRANCH  30  31
ATOM     31  C   UNL     1       5.191   5.573  -1.422  1.00  0.00     0.338 C 
ATOM     32  O   UNL     1       4.790   4.891  -2.353  1.00  0.00    -0.246 OA
BRANCH  31  33
ATOM     33  C   UNL     1       4.372   6.559  -0.661  1.00  0.00     0.060 A 
ATOM     34  C   UNL     1       3.091   6.182  -0.227  1.00  0.00     0.016 A 
ATOM     35  C   UNL     1       4.880   7.807  -0.303  1.00  0.00     0.016 A 
ATOM     36  C   UNL     1       2.307   7.049   0.536  1.00  0.00     0.010 A 
ATOM     37  C   UNL     1       4.082   8.692   0.435  1.00  0.00     0.010 A 
ATOM     38  C   UNL     1       2.781   8.330   0.834  1.00  0.00    -0.014 A 
BRANCH  38  39
ATOM     39  C   UNL     1       1.849   9.361   1.359  1.00  0.00     0.031 A 
ATOM     40  C   UNL     1       1.276  10.350   0.378  1.00  0.00     0.074 A 
ATOM     41  C   UNL     1       1.496   9.419   2.656  1.00  0.00     0.049 A 
ATOM     42  N   UNL     1       0.555  11.418   0.596  1.00  0.00    -0.248 NA
ATOM     43  C   UNL     1       1.560  10.096  -1.046  1.00  0.00     0.031 C 
ATOM     44  C   UNL     1       1.914   8.478   3.694  1.00  0.00     0.029 A 
ATOM     45  N   UNL     1       0.712  10.329   3.325  1.00  0.00    -0.354 N 
ATOM     46  C   UNL     1       0.317  11.973  -0.656  1.00  0.00     0.074 A 
ATOM     47  C   UNL     1       0.988  11.139  -1.627  1.00  0.00     0.031 C 
ATOM     48  C   UNL     1       1.403   8.876   4.874  1.00  0.00     0.029 A 
ATOM     49  C   UNL     1       0.659  10.121   4.684  1.00  0.00     0.049 A 
ATOM     50  H   UNL     1       0.232  11.060   2.873  1.00  0.00     0.167 HD
ATOM     51  C   UNL     1      -0.401  13.077  -0.968  1.00  0.00     0.037 A 
ATOM     52  C   UNL     1       0.109  10.871   5.662  1.00  0.00     0.037 A 
ATOM     53  C   UNL     1      -1.075  13.900   0.001  1.00  0.00     0.049 A 
ATOM     54  C   UNL     1      -0.609  12.151   5.298  1.00  0.00     0.074 A 
ATOM     55  C   UNL     1      -1.826  15.042  -0.216  1.00  0.00     0.029 A 
ATOM     56  N   UNL     1      -1.080  13.672   1.369  1.00  0.00    -0.354 N 
ATOM     57  N   UNL     1      -0.819  12.674   4.112  1.00  0.00    -0.248 NA
ATOM     58  C   UNL     1      -1.162  12.945   6.406  1.00  0.00     0.031 C 
ATOM     59  C   UNL     1      -2.241  15.534   1.024  1.00  0.00     0.029 A 
ATOM     60  C   UNL     1      -1.804  14.664   2.010  1.00  0.00     0.049 A 
ATOM     61  H   UNL     1      -0.636  12.917   1.818  1.00  0.00     0.167 HD
ATOM     62  C   UNL     1      -1.561  13.833   4.332  1.00  0.00     0.074 A 
ATOM     63  C   UNL     1      -1.770  13.930   5.760  1.00  0.00     0.031 C 
ATOM     64  C   UNL     1      -2.027  14.736   3.432  1.00  0.00     0.037 A 
BRANCH  51  65
ATOM     65  C   UNL     1      -0.475  13.479  -2.415  1.00  0.00     0.058 A 
ATOM     66  C   UNL     1      -1.225  12.747  -3.349  1.00  0.00     0.135 A 
ATOM     67  C   UNL     1       0.170  14.644  -2.860  1.00  0.00     0.135 A 
ATOM     68  F   UNL     1      -1.841  11.612  -2.983  1.00  0.00    -0.206 F 
ATOM     69  C   UNL     1      -1.324  13.151  -4.676  1.00  0.00     0.059 A 
ATOM     70  C   UNL     1       0.061  15.083  -4.176  1.00  0.00     0.059 A 
ATOM     71  F   UNL     1       0.907  15.375  -2.010  1.00  0.00    -0.206 F 
ATOM     72  C   UNL     1      -0.683  14.325  -5.078  1.00  0.00     0.060 A 
BRANCH  72  73
ATOM     73  S   UNL     1      -0.854  14.854  -6.795  1.00  0.00     0.124 S 
ATOM     74  O   UNL     1      -0.060  13.846  -7.492  1.00  0.00    -0.237 OA
ATOM     75  O   UNL     1      -2.296  14.777  -7.002  1.00  0.00    -0.237 OA
ATOM     76  O   UNL     1      -0.294  16.202  -6.795  1.00  0.00    -0.744 OA
ENDBRANCH  72  73
ENDBRANCH  51  65
BRANCH  52  77
ATOM     77  C   UNL     1       0.239  10.467   7.091  1.00  0.00     0.058 A 
ATOM     78  C   UNL     1      -0.886  10.119   7.855  1.00  0.00     0.135 A 
ATOM     79  C   UNL     1       1.485  10.474   7.738  1.00  0.00     0.135 A 
ATOM     80  F   UNL     1      -2.104  10.113   7.292  1.00  0.00    -0.206 F 
ATOM     81  C   UNL     1      -0.786   9.821   9.212  1.00  0.00     0.059 A 
ATOM     82  C   UNL     1       1.616  10.148   9.085  1.00  0.00     0.059 A 
ATOM     83  F   UNL     1       2.596  10.795   7.057  1.00  0.00    -0.206 F 
ATOM     84  C   UNL     1       0.471   9.840   9.818  1.00  0.00     0.060 A 
BRANCH  84  85
ATOM     85  S   UNL     1       0.592   9.438  11.575  1.00  0.00     0.124 S 
ATOM     86  O   UNL     1       0.002  10.622  12.189  1.00  0.00    -0.237 OA
ATOM     87  O   UNL     1      -0.197   8.213  11.663  1.00  0.00    -0.237 OA
ATOM     88  O   UNL     1       2.027   9.267  11.783  1.00  0.00    -0.744 OA
ENDBRANCH  84  85
ENDBRANCH  52  77
BRANCH  64  89
ATOM     89  C   UNL     1      -2.864  15.877   3.949  1.00  0.00     0.058 A 
ATOM     90  C   UNL     1      -2.310  16.931   4.692  1.00  0.00     0.135 A 
ATOM     91  C   UNL     1      -4.233  15.946   3.639  1.00  0.00     0.135 A 
ATOM     92  F   UNL     1      -1.008  16.916   5.019  1.00  0.00    -0.206 F 
ATOM     93  C   UNL     1      -3.087  17.998   5.132  1.00  0.00     0.059 A 
ATOM     94  C   UNL     1      -5.022  17.019   4.040  1.00  0.00     0.059 A 
ATOM     95  F   UNL     1      -4.813  14.973   2.919  1.00  0.00    -0.206 F 
ATOM     96  C   UNL     1      -4.443  18.035   4.798  1.00  0.00     0.060 A 
BRANCH  96  97
ATOM     97  S   UNL     1      -5.431  19.444   5.345  1.00  0.00     0.124 S 
ATOM     98  O   UNL     1      -5.540  19.189   6.777  1.00  0.00    -0.237 OA
ATOM     99  O   UNL     1      -4.596  20.578   4.964  1.00  0.00    -0.237 OA
ATOM    100  O   UNL     1      -6.672  19.305   4.588  1.00  0.00    -0.744 OA
ENDBRANCH  96  97
ENDBRANCH  64  89
ENDBRANCH  38  39
ENDBRANCH  31  33
ENDBRANCH  30  31
ENDBRANCH  29  30
ENDBRANCH  28  29
ENDBRANCH  27  28
ENDBRANCH   1  27
TORSDOF 23
