REMARK SMILES COc1ccc2c(c1)[C@H]([NH2+][C@H]1CCC[C@H](C(=O)OCCOCCOCCOC(=O)c3ccc(-c4c5nc(c(-c6c(F)cc(S(=O)(=O)[O-])cc6F)c6ccc([nH]6)c(-c6c(F)cc(S(=O)(=O)[O-])cc6F)c6nc(c(-c7c(F)cc(S(=O)(=O)[O-])cc7F)c7ccc4[nH]7)C=C6)C=C5)cc3)C1)CC2
REMARK SMILES IDX 22 1 21 2 20 3 19 4 18 5 16 6 17 7 15 8 11 9 12 10 96 11
REMARK SMILES IDX 13 12 14 13 10 14 9 17 3 18 4 19 8 20 5 21 7 22 6 23 98 24
REMARK SMILES IDX 97 25 2 26 1 27 23 28 24 29 25 30 26 31 27 32 28 33 29 34
REMARK SMILES IDX 30 35 31 36 95 37 32 38 94 39 33 40 34 41 35 42 88 43 36 44
REMARK SMILES IDX 93 45 87 46 89 47 37 48 92 49 86 50 85 51 38 53 72 54 51 55
REMARK SMILES IDX 71 56 52 57 55 58 70 59 90 60 53 61 54 62 69 64 91 65 56 66
REMARK SMILES IDX 39 67 40 68 49 69 41 70 42 71 48 72 50 73 43 74 44 75 45 76
REMARK SMILES IDX 46 77 47 78 73 79 74 80 83 81 75 82 76 83 82 84 84 85 77 86
REMARK SMILES IDX 78 87 79 88 80 89 81 90 57 91 58 92 67 93 59 94 60 95 66 96
REMARK SMILES IDX 68 97 61 98 62 99 63 100 64 101 65 102
REMARK H PARENT 10 15 10 16 89 52 55 63
REMARK Flexibility Score: inf
ROOT
ATOM      1  C   UNL     1      -5.764   4.131  -2.163  1.00  0.00     0.188 C 
ENDROOT
BRANCH   1   2
ATOM      2  O   UNL     1      -6.418   5.360  -2.461  1.00  0.00    -0.376 OA
BRANCH   2   3
ATOM      3  C   UNL     1      -6.850   5.576  -3.806  1.00  0.00     0.202 C 
BRANCH   3   4
ATOM      4  C   UNL     1      -5.832   5.288  -4.917  1.00  0.00     0.261 C 
BRANCH   4   5
ATOM      5  O   UNL     1      -5.473   3.895  -4.948  1.00  0.00    -0.463 OA
BRANCH   5   6
ATOM      6  C   UNL     1      -4.232   3.629  -5.439  1.00  0.00     0.309 C 
ATOM      7  O   UNL     1      -3.554   4.431  -6.067  1.00  0.00    -0.252 OA
BRANCH   6   8
ATOM      8  C   UNL     1      -3.775   2.233  -5.020  1.00  0.00     0.105 C 
ATOM      9  C   UNL     1      -1.719   0.700  -4.999  1.00  0.00     0.183 C 
ATOM     10  C   UNL     1      -2.549  -0.390  -5.708  1.00  0.00     0.065 C 
ATOM     11  C   UNL     1      -2.286   2.078  -5.335  1.00  0.00     0.080 C 
ATOM     12  C   UNL     1      -4.066  -0.269  -5.584  1.00  0.00     0.007 C 
ATOM     13  C   UNL     1      -4.622   1.151  -5.691  1.00  0.00     0.016 C 
BRANCH   9  14
ATOM     14  N   UNL     1      -1.465   0.358  -3.616  1.00  0.00    -0.338 N 
ATOM     15  H   UNL     1      -1.994  -0.499  -3.457  1.00  0.00     0.347 HD
ATOM     16  H   UNL     1      -0.446   0.404  -3.623  1.00  0.00     0.347 HD
BRANCH  14  17
ATOM     17  C   UNL     1      -1.722   1.173  -2.453  1.00  0.00     0.214 C 
ATOM     18  C   UNL     1      -4.526  -0.886  -0.835  1.00  0.00     0.119 A 
ATOM     19  C   UNL     1      -4.037  -0.918   0.473  1.00  0.00     0.047 A 
ATOM     20  C   UNL     1      -3.857  -0.175  -1.825  1.00  0.00     0.056 A 
ATOM     21  C   UNL     1      -2.874  -0.212   0.803  1.00  0.00     0.008 A 
ATOM     22  C   UNL     1      -2.677   0.477  -1.513  1.00  0.00     0.016 A 
ATOM     23  C   UNL     1      -2.208   0.482  -0.198  1.00  0.00    -0.038 A 
ATOM     24  C   UNL     1      -0.966   1.308  -0.089  1.00  0.00     0.042 C 
ATOM     25  C   UNL     1      -0.465   1.256  -1.542  1.00  0.00     0.075 C 
BRANCH  18  26
ATOM     26  O   UNL     1      -5.589  -1.669  -1.194  1.00  0.00    -0.497 OA
ATOM     27  C   UNL     1      -6.818  -0.965  -1.040  1.00  0.00     0.278 C 
ENDBRANCH  18  26
ENDBRANCH  14  17
ENDBRANCH   9  14
ENDBRANCH   6   8
ENDBRANCH   5   6
ENDBRANCH   4   5
ENDBRANCH   3   4
ENDBRANCH   2   3
ENDBRANCH   1   2
BRANCH   1  28
ATOM     28  C   UNL     1      -6.521   2.818  -2.442  1.00  0.00     0.188 C 
BRANCH  28  29
ATOM     29  O   UNL     1      -7.734   2.964  -3.165  1.00  0.00    -0.376 OA
BRANCH  29  30
ATOM     30  C   UNL     1      -8.894   2.499  -2.477  1.00  0.00     0.202 C 
BRANCH  30  31
ATOM     31  C   UNL     1      -9.320   3.373  -1.288  1.00  0.00     0.261 C 
BRANCH  31  32
ATOM     32  O   UNL     1      -8.334   3.480  -0.243  1.00  0.00    -0.460 OA
BRANCH  32  33
ATOM     33  C   UNL     1      -8.223   2.429   0.596  1.00  0.00     0.338 C 
ATOM     34  O   UNL     1      -8.867   1.388   0.561  1.00  0.00    -0.246 OA
BRANCH  33  35
ATOM     35  C   UNL     1      -7.096   2.682   1.512  1.00  0.00     0.060 A 
ATOM     36  C   UNL     1      -5.818   2.254   1.150  1.00  0.00     0.016 A 
ATOM     37  C   UNL     1      -7.304   3.294   2.749  1.00  0.00     0.016 A 
ATOM     38  C   UNL     1      -4.750   2.424   2.026  1.00  0.00     0.010 A 
ATOM     39  C   UNL     1      -6.226   3.449   3.633  1.00  0.00     0.010 A 
ATOM     40  C   UNL     1      -4.944   2.986   3.290  1.00  0.00    -0.014 A 
BRANCH  40  41
ATOM     41  C   UNL     1      -3.840   2.923   4.285  1.00  0.00     0.031 A 
ATOM     42  C   UNL     1      -3.969   1.984   5.456  1.00  0.00     0.074 A 
ATOM     43  C   UNL     1      -2.693   3.607   4.111  1.00  0.00     0.049 A 
ATOM     44  N   UNL     1      -3.209   1.864   6.513  1.00  0.00    -0.248 NA
ATOM     45  C   UNL     1      -5.106   1.050   5.424  1.00  0.00     0.031 C 
ATOM     46  C   UNL     1      -2.377   4.455   2.961  1.00  0.00     0.029 A 
ATOM     47  N   UNL     1      -1.572   3.688   4.902  1.00  0.00    -0.354 N 
ATOM     48  C   UNL     1      -3.804   0.883   7.298  1.00  0.00     0.074 A 
ATOM     49  C   UNL     1      -4.982   0.431   6.589  1.00  0.00     0.031 C 
ATOM     50  C   UNL     1      -1.142   4.962   3.117  1.00  0.00     0.029 A 
ATOM     51  C   UNL     1      -0.609   4.537   4.410  1.00  0.00     0.049 A 
ATOM     52  H   UNL     1      -1.468   3.184   5.742  1.00  0.00     0.167 HD
ATOM     53  C   UNL     1      -3.409   0.408   8.503  1.00  0.00     0.037 A 
ATOM     54  C   UNL     1       0.547   4.962   4.958  1.00  0.00     0.037 A 
ATOM     55  C   UNL     1      -2.213   0.830   9.184  1.00  0.00     0.049 A 
ATOM     56  C   UNL     1       0.932   4.484   6.334  1.00  0.00     0.074 A 
ATOM     57  C   UNL     1      -1.734   0.423  10.418  1.00  0.00     0.029 A 
ATOM     58  N   UNL     1      -1.299   1.746   8.684  1.00  0.00    -0.354 N 
ATOM     59  N   UNL     1       0.313   3.628   7.112  1.00  0.00    -0.248 NA
ATOM     60  C   UNL     1       2.158   5.048   6.917  1.00  0.00     0.031 C 
ATOM     61  C   UNL     1      -0.549   1.121  10.679  1.00  0.00     0.029 A 
ATOM     62  C   UNL     1      -0.268   1.930   9.589  1.00  0.00     0.049 A 
ATOM     63  H   UNL     1      -1.373   2.198   7.812  1.00  0.00     0.167 HD
ATOM     64  C   UNL     1       1.078   3.544   8.271  1.00  0.00     0.074 A 
ATOM     65  C   UNL     1       2.215   4.423   8.085  1.00  0.00     0.031 C 
ATOM     66  C   UNL     1       0.857   2.809   9.389  1.00  0.00     0.037 A 
BRANCH  53  67
ATOM     67  C   UNL     1      -4.314  -0.575   9.190  1.00  0.00     0.058 A 
ATOM     68  C   UNL     1      -4.428  -1.909   8.771  1.00  0.00     0.135 A 
ATOM     69  C   UNL     1      -5.079  -0.167  10.295  1.00  0.00     0.135 A 
ATOM     70  F   UNL     1      -3.737  -2.345   7.706  1.00  0.00    -0.206 F 
ATOM     71  C   UNL     1      -5.291  -2.798   9.406  1.00  0.00     0.059 A 
ATOM     72  C   UNL     1      -5.930  -1.044  10.960  1.00  0.00     0.059 A 
ATOM     73  F   UNL     1      -5.011   1.100  10.733  1.00  0.00    -0.206 F 
ATOM     74  C   UNL     1      -6.042  -2.353  10.497  1.00  0.00     0.060 A 
BRANCH  74  75
ATOM     75  S   UNL     1      -7.170  -3.509  11.305  1.00  0.00     0.124 S 
ATOM     76  O   UNL     1      -8.262  -3.570  10.339  1.00  0.00    -0.237 OA
ATOM     77  O   UNL     1      -6.356  -4.715  11.417  1.00  0.00    -0.237 OA
ATOM     78  O   UNL     1      -7.485  -2.850  12.568  1.00  0.00    -0.744 OA
ENDBRANCH  74  75
ENDBRANCH  53  67
BRANCH  54  79
ATOM     79  C   UNL     1       1.397   5.943   4.230  1.00  0.00     0.058 A 
ATOM     80  C   UNL     1       2.650   5.580   3.716  1.00  0.00     0.135 A 
ATOM     81  C   UNL     1       0.964   7.263   4.023  1.00  0.00     0.135 A 
ATOM     82  F   UNL     1       3.118   4.337   3.904  1.00  0.00    -0.206 F 
ATOM     83  C   UNL     1       3.444   6.489   3.022  1.00  0.00     0.059 A 
ATOM     84  C   UNL     1       1.726   8.181   3.309  1.00  0.00     0.059 A 
ATOM     85  F   UNL     1      -0.229   7.660   4.493  1.00  0.00    -0.206 F 
ATOM     86  C   UNL     1       2.969   7.786   2.817  1.00  0.00     0.060 A 
BRANCH  86  87
ATOM     87  S   UNL     1       3.968   8.938   1.848  1.00  0.00     0.124 S 
ATOM     88  O   UNL     1       5.003   9.306   2.807  1.00  0.00    -0.237 OA
ATOM     89  O   UNL     1       4.399   8.105   0.730  1.00  0.00    -0.237 OA
ATOM     90  O   UNL     1       3.020   9.993   1.504  1.00  0.00    -0.744 OA
ENDBRANCH  86  87
ENDBRANCH  54  79
BRANCH  66  91
ATOM     91  C   UNL     1       1.875   2.904  10.492  1.00  0.00     0.058 A 
ATOM     92  C   UNL     1       1.952   4.030  11.326  1.00  0.00     0.135 A 
ATOM     93  C   UNL     1       2.748   1.835  10.748  1.00  0.00     0.135 A 
ATOM     94  F   UNL     1       1.143   5.081  11.119  1.00  0.00    -0.206 F 
ATOM     95  C   UNL     1       2.875   4.102  12.364  1.00  0.00     0.059 A 
ATOM     96  C   UNL     1       3.663   1.876  11.796  1.00  0.00     0.059 A 
ATOM     97  F   UNL     1       2.707   0.731   9.986  1.00  0.00    -0.206 F 
ATOM     98  C   UNL     1       3.728   3.019  12.591  1.00  0.00     0.060 A 
BRANCH  98  99
ATOM     99  S   UNL     1       4.902   3.111  13.959  1.00  0.00     0.124 S 
ATOM    100  O   UNL     1       5.918   4.006  13.415  1.00  0.00    -0.237 OA
ATOM    101  O   UNL     1       4.086   3.659  15.038  1.00  0.00    -0.237 OA
ATOM    102  O   UNL     1       5.320   1.724  14.141  1.00  0.00    -0.744 OA
ENDBRANCH  98  99
ENDBRANCH  66  91
ENDBRANCH  40  41
ENDBRANCH  33  35
ENDBRANCH  32  33
ENDBRANCH  31  32
ENDBRANCH  30  31
ENDBRANCH  29  30
ENDBRANCH  28  29
ENDBRANCH   1  28
TORSDOF 23
