REMARK SMILES O=C(OCCOCCOCCOC(=O)c1ccc(-c2c3nc(c(-c4c(F)cc(S(=O)(=O)[O-])cc4F)c4ccc([nH]4)c(-c4c(F)cc(S(=O)(=O)[O-])cc4F)c4nc(c(-c5c(F)cc(S(=O)(=O)[O-])cc5F)c5ccc2[nH]5)C=C4)C=C3)cc1)c1ccc(NC(=O)[C@@H]2CC=CC[C@H]2C(=O)Nc2cccc([N+](=O)[O-])c2)cc1
REMARK SMILES IDX 7 1 6 2 5 3 4 4 3 5 2 6 1 7 81 8 82 9 107 10 83 11 106 12
REMARK SMILES IDX 84 13 85 14 86 15 87 17 88 18 89 19 93 20 90 21 92 22 91 23
REMARK SMILES IDX 94 24 95 25 96 26 97 28 98 29 105 30 99 31 101 32 100 33
REMARK SMILES IDX 102 34 103 35 104 36 8 37 9 38 10 39 11 40 12 41 13 42 14 43
REMARK SMILES IDX 15 44 16 45 80 46 17 47 79 48 18 49 19 50 20 51 73 52 21 53
REMARK SMILES IDX 78 54 72 55 74 56 22 57 77 58 71 59 70 60 23 62 57 63 36 64
REMARK SMILES IDX 56 65 37 66 40 67 55 68 75 69 38 70 39 71 54 73 76 74 41 75
REMARK SMILES IDX 24 76 25 77 34 78 26 79 27 80 33 81 35 82 28 83 29 84 30 85
REMARK SMILES IDX 31 86 32 87 58 88 59 89 68 90 60 91 61 92 67 93 69 94 62 95
REMARK SMILES IDX 63 96 64 97 65 98 66 99 42 100 43 101 52 102 44 103 45 104
REMARK SMILES IDX 51 105 53 106 46 107 47 108 48 109 49 110 50 111
REMARK H PARENT 85 16 96 27 74 61 40 72
REMARK Flexibility Score: inf
ROOT
ATOM      1  C   UNL     1      13.071   1.830  -4.300  1.00  0.00     0.188 C 
ENDROOT
BRANCH   1   2
ATOM      2  O   UNL     1      13.221   2.612  -3.110  1.00  0.00    -0.376 OA
BRANCH   2   3
ATOM      3  C   UNL     1      12.126   2.450  -2.192  1.00  0.00     0.202 C 
BRANCH   3   4
ATOM      4  C   UNL     1      12.265   1.236  -1.248  1.00  0.00     0.261 C 
BRANCH   4   5
ATOM      5  O   UNL     1      12.780   0.044  -1.898  1.00  0.00    -0.460 OA
BRANCH   5   6
ATOM      6  C   UNL     1      12.136  -1.157  -1.912  1.00  0.00     0.338 C 
ATOM      7  O   UNL     1      12.722  -2.204  -1.675  1.00  0.00    -0.246 OA
BRANCH   6   8
ATOM      8  C   UNL     1      10.738  -1.166  -2.413  1.00  0.00     0.060 A 
ATOM      9  C   UNL     1      10.304  -0.137  -3.224  1.00  0.00     0.018 A 
ATOM     10  C   UNL     1       9.858  -2.223  -2.187  1.00  0.00     0.018 A 
ATOM     11  C   UNL     1       8.996  -0.040  -3.656  1.00  0.00     0.027 A 
ATOM     12  C   UNL     1       8.535  -2.153  -2.674  1.00  0.00     0.027 A 
ATOM     13  C   UNL     1       8.076  -1.021  -3.368  1.00  0.00     0.041 A 
BRANCH  13  14
ATOM     14  N   UNL     1       6.740  -0.967  -3.783  1.00  0.00    -0.326 N 
ATOM     15  C   UNL     1       5.934  -0.009  -4.316  1.00  0.00     0.228 C 
ATOM     16  H   UNL     1       6.273  -1.825  -3.661  1.00  0.00     0.169 HD
ATOM     17  O   UNL     1       4.793  -0.370  -4.633  1.00  0.00    -0.274 OA
BRANCH  15  18
ATOM     18  C   UNL     1       6.268   1.474  -4.467  1.00  0.00     0.095 C 
ATOM     19  C   UNL     1       7.109   1.857  -5.689  1.00  0.00     0.041 C 
ATOM     20  C   UNL     1       6.574   2.188  -3.143  1.00  0.00     0.095 C 
ATOM     21  C   UNL     1       7.618   3.272  -5.636  1.00  0.00    -0.030 C 
ATOM     22  C   UNL     1       6.825   3.696  -3.292  1.00  0.00     0.041 C 
ATOM     23  C   UNL     1       7.481   4.088  -4.582  1.00  0.00    -0.030 C 
BRANCH  20  24
ATOM     24  C   UNL     1       5.604   1.868  -1.991  1.00  0.00     0.228 C 
ATOM     25  O   UNL     1       6.040   1.238  -1.017  1.00  0.00    -0.274 OA
ATOM     26  N   UNL     1       4.321   2.337  -1.894  1.00  0.00    -0.326 N 
ATOM     27  H   UNL     1       3.834   2.050  -1.088  1.00  0.00     0.169 HD
BRANCH  26  28
ATOM     28  C   UNL     1       3.596   3.161  -2.761  1.00  0.00     0.048 A 
ATOM     29  C   UNL     1       3.163   4.402  -2.287  1.00  0.00     0.026 A 
ATOM     30  C   UNL     1       3.327   2.800  -4.075  1.00  0.00     0.111 A 
ATOM     31  C   UNL     1       2.632   5.343  -3.174  1.00  0.00     0.009 A 
ATOM     32  C   UNL     1       2.880   3.767  -4.979  1.00  0.00     0.271 A 
ATOM     33  C   UNL     1       2.532   5.045  -4.534  1.00  0.00     0.086 A 
BRANCH  32  34
ATOM     34  N   UNL     1       2.886   3.473  -6.417  1.00  0.00     0.062 N 
ATOM     35  O   UNL     1       2.321   4.281  -7.167  1.00  0.00    -0.258 OA
ATOM     36  O   UNL     1       3.512   2.475  -6.799  1.00  0.00    -0.258 OA
ENDBRANCH  32  34
ENDBRANCH  26  28
ENDBRANCH  20  24
ENDBRANCH  15  18
ENDBRANCH  13  14
ENDBRANCH   6   8
ENDBRANCH   5   6
ENDBRANCH   4   5
ENDBRANCH   3   4
ENDBRANCH   2   3
ENDBRANCH   1   2
BRANCH   1  37
ATOM     37  C   UNL     1      13.968   2.237  -5.473  1.00  0.00     0.188 C 
BRANCH  37  38
ATOM     38  O   UNL     1      14.053   3.605  -5.861  1.00  0.00    -0.376 OA
BRANCH  38  39
ATOM     39  C   UNL     1      12.990   4.477  -5.523  1.00  0.00     0.202 C 
BRANCH  39  40
ATOM     40  C   UNL     1      11.700   4.362  -6.341  1.00  0.00     0.261 C 
BRANCH  40  41
ATOM     41  O   UNL     1      11.209   3.025  -6.538  1.00  0.00    -0.460 OA
BRANCH  41  42
ATOM     42  C   UNL     1      11.227   2.599  -7.824  1.00  0.00     0.338 C 
ATOM     43  O   UNL     1      11.733   3.166  -8.784  1.00  0.00    -0.246 OA
BRANCH  42  44
ATOM     44  C   UNL     1      10.396   1.394  -7.975  1.00  0.00     0.060 A 
ATOM     45  C   UNL     1      10.886   0.121  -7.674  1.00  0.00     0.016 A 
ATOM     46  C   UNL     1       9.129   1.543  -8.546  1.00  0.00     0.016 A 
ATOM     47  C   UNL     1      10.109  -1.009  -7.974  1.00  0.00     0.010 A 
ATOM     48  C   UNL     1       8.341   0.417  -8.800  1.00  0.00     0.010 A 
ATOM     49  C   UNL     1       8.831  -0.875  -8.545  1.00  0.00    -0.014 A 
BRANCH  49  50
ATOM     50  C   UNL     1       8.000  -2.051  -8.941  1.00  0.00     0.031 A 
ATOM     51  C   UNL     1       7.695  -2.296 -10.398  1.00  0.00     0.074 A 
ATOM     52  C   UNL     1       7.451  -2.860  -8.013  1.00  0.00     0.049 A 
ATOM     53  N   UNL     1       6.855  -3.144 -10.936  1.00  0.00    -0.248 NA
ATOM     54  C   UNL     1       8.434  -1.483 -11.378  1.00  0.00     0.031 C 
ATOM     55  C   UNL     1       7.690  -2.777  -6.575  1.00  0.00     0.029 A 
ATOM     56  N   UNL     1       6.546  -3.890  -8.139  1.00  0.00    -0.354 N 
ATOM     57  C   UNL     1       6.949  -2.957 -12.310  1.00  0.00     0.074 A 
ATOM     58  C   UNL     1       7.915  -1.900 -12.525  1.00  0.00     0.031 C 
ATOM     59  C   UNL     1       6.917  -3.679  -5.948  1.00  0.00     0.029 A 
ATOM     60  C   UNL     1       6.089  -4.369  -6.931  1.00  0.00     0.049 A 
ATOM     61  H   UNL     1       6.255  -4.250  -9.007  1.00  0.00     0.167 HD
ATOM     62  C   UNL     1       6.298  -3.612 -13.300  1.00  0.00     0.037 A 
ATOM     63  C   UNL     1       5.087  -5.223  -6.636  1.00  0.00     0.037 A 
ATOM     64  C   UNL     1       5.360  -4.685 -13.091  1.00  0.00     0.049 A 
ATOM     65  C   UNL     1       4.306  -5.865  -7.753  1.00  0.00     0.074 A 
ATOM     66  C   UNL     1       4.722  -5.463 -14.043  1.00  0.00     0.029 A 
ATOM     67  N   UNL     1       4.909  -5.119 -11.855  1.00  0.00    -0.354 N 
ATOM     68  N   UNL     1       4.461  -5.729  -9.047  1.00  0.00    -0.248 NA
ATOM     69  C   UNL     1       3.221  -6.782  -7.372  1.00  0.00     0.031 C 
ATOM     70  C   UNL     1       3.841  -6.327 -13.385  1.00  0.00     0.029 A 
ATOM     71  C   UNL     1       3.968  -6.123 -12.021  1.00  0.00     0.049 A 
ATOM     72  H   UNL     1       5.213  -4.767 -10.987  1.00  0.00     0.167 HD
ATOM     73  C   UNL     1       3.514  -6.565  -9.632  1.00  0.00     0.074 A 
ATOM     74  C   UNL     1       2.800  -7.212  -8.553  1.00  0.00     0.031 C 
ATOM     75  C   UNL     1       3.264  -6.775 -10.947  1.00  0.00     0.037 A 
BRANCH  62  76
ATOM     76  C   UNL     1       6.560  -3.196 -14.720  1.00  0.00     0.058 A 
ATOM     77  C   UNL     1       7.744  -3.545 -15.386  1.00  0.00     0.135 A 
ATOM     78  C   UNL     1       5.563  -2.534 -15.457  1.00  0.00     0.135 A 
ATOM     79  F   UNL     1       8.733  -4.167 -14.724  1.00  0.00    -0.206 F 
ATOM     80  C   UNL     1       7.932  -3.253 -16.733  1.00  0.00     0.059 A 
ATOM     81  C   UNL     1       5.720  -2.252 -16.810  1.00  0.00     0.059 A 
ATOM     82  F   UNL     1       4.412  -2.177 -14.865  1.00  0.00    -0.206 F 
ATOM     83  C   UNL     1       6.910  -2.615 -17.439  1.00  0.00     0.060 A 
BRANCH  83  84
ATOM     84  S   UNL     1       7.148  -2.296 -19.200  1.00  0.00     0.124 S 
ATOM     85  O   UNL     1       8.141  -1.227 -19.172  1.00  0.00    -0.237 OA
ATOM     86  O   UNL     1       7.621  -3.588 -19.689  1.00  0.00    -0.237 OA
ATOM     87  O   UNL     1       5.819  -1.905 -19.659  1.00  0.00    -0.744 OA
ENDBRANCH  83  84
ENDBRANCH  62  76
BRANCH  63  88
ATOM     88  C   UNL     1       4.710  -5.481  -5.218  1.00  0.00     0.058 A 
ATOM     89  C   UNL     1       4.896  -6.738  -4.627  1.00  0.00     0.135 A 
ATOM     90  C   UNL     1       4.106  -4.480  -4.440  1.00  0.00     0.135 A 
ATOM     91  F   UNL     1       5.459  -7.732  -5.330  1.00  0.00    -0.206 F 
ATOM     92  C   UNL     1       4.470  -7.004  -3.329  1.00  0.00     0.059 A 
ATOM     93  C   UNL     1       3.696  -4.712  -3.131  1.00  0.00     0.059 A 
ATOM     94  F   UNL     1       3.918  -3.255  -4.952  1.00  0.00    -0.206 F 
ATOM     95  C   UNL     1       3.866  -5.984  -2.590  1.00  0.00     0.060 A 
BRANCH  95  96
ATOM     96  S   UNL     1       3.329  -6.336  -0.902  1.00  0.00     0.124 S 
ATOM     97  O   UNL     1       2.154  -7.168  -1.135  1.00  0.00    -0.237 OA
ATOM     98  O   UNL     1       4.495  -7.016  -0.348  1.00  0.00    -0.237 OA
ATOM     99  O   UNL     1       3.067  -5.010  -0.352  1.00  0.00    -0.744 OA
ENDBRANCH  95  96
ENDBRANCH  63  88
BRANCH  75 100
ATOM    100  C   UNL     1       2.196  -7.770 -11.307  1.00  0.00     0.058 A 
ATOM    101  C   UNL     1       0.833  -7.477 -11.144  1.00  0.00     0.135 A 
ATOM    102  C   UNL     1       2.536  -9.005 -11.883  1.00  0.00     0.135 A 
ATOM    103  F   UNL     1       0.454  -6.316 -10.588  1.00  0.00    -0.206 F 
ATOM    104  C   UNL     1      -0.155  -8.379 -11.529  1.00  0.00     0.059 A 
ATOM    105  C   UNL     1       1.564  -9.910 -12.299  1.00  0.00     0.059 A 
ATOM    106  F   UNL     1       3.825  -9.334 -12.067  1.00  0.00    -0.206 F 
ATOM    107  C   UNL     1       0.221  -9.591 -12.111  1.00  0.00     0.060 A 
BRANCH 107 108
ATOM    108  S   UNL     1      -1.073 -10.727 -12.654  1.00  0.00     0.124 S 
ATOM    109  O   UNL     1      -1.565 -11.245 -11.382  1.00  0.00    -0.237 OA
ATOM    110  O   UNL     1      -1.985  -9.844 -13.374  1.00  0.00    -0.237 OA
ATOM    111  O   UNL     1      -0.355 -11.688 -13.486  1.00  0.00    -0.744 OA
ENDBRANCH 107 108
ENDBRANCH  75 100
ENDBRANCH  49  50
ENDBRANCH  42  44
ENDBRANCH  41  42
ENDBRANCH  40  41
ENDBRANCH  39  40
ENDBRANCH  38  39
ENDBRANCH  37  38
ENDBRANCH   1  37
TORSDOF 25
