REMARK SMILES Cc1c(NC(=O)c2ccccc2NC(=O)[C@@H]2CCCO2)cccc1C(=O)OCCOCCOCCOC(=O)c1ccc(-c2c3nc(c(-c4c(F)cc(S(=O)(=O)[O-])cc4F)c4ccc([nH]4)c(-c4c(F)cc(S(=O)(=O)[O-])cc4F)c4nc(c(-c5c(F)cc(S(=O)(=O)[O-])cc5F)c5ccc2[nH]5)C=C4)C=C3)cc1
REMARK SMILES IDX 31 1 30 2 29 3 28 4 27 5 25 6 26 7 24 8 1 9 2 10 3 11 21 12
REMARK SMILES IDX 23 13 22 14 4 15 5 16 6 18 7 19 8 20 12 21 9 22 11 23 10 24
REMARK SMILES IDX 13 25 14 26 15 28 16 29 17 30 20 31 18 32 19 33 32 34 33 35
REMARK SMILES IDX 34 36 35 37 36 38 37 39 38 40 39 41 40 42 104 43 41 44
REMARK SMILES IDX 103 45 42 46 43 47 44 48 97 49 45 50 102 51 96 52 98 53
REMARK SMILES IDX 46 54 101 55 95 56 94 57 47 59 81 60 60 61 80 62 61 63 64 64
REMARK SMILES IDX 79 65 99 66 62 67 63 68 78 70 100 71 65 72 48 73 49 74 58 75
REMARK SMILES IDX 50 76 51 77 57 78 59 79 52 80 53 81 54 82 55 83 56 84 82 85
REMARK SMILES IDX 83 86 92 87 84 88 85 89 91 90 93 91 86 92 87 93 88 94 89 95
REMARK SMILES IDX 90 96 66 97 67 98 76 99 68 100 69 101 75 102 77 103 70 104
REMARK SMILES IDX 71 105 72 106 73 107 74 108
REMARK H PARENT 4 17 13 27 98 58 64 69
REMARK Flexibility Score: inf
ROOT
ATOM      1  C   UNL     1       3.109   5.517  -2.039  1.00  0.00     0.188 C 
ENDROOT
BRANCH   1   2
ATOM      2  O   UNL     1       3.936   4.778  -1.101  1.00  0.00    -0.376 OA
BRANCH   2   3
ATOM      3  C   UNL     1       4.718   3.596  -1.401  1.00  0.00     0.202 C 
BRANCH   3   4
ATOM      4  C   UNL     1       4.399   2.013  -0.826  1.00  0.00     0.261 C 
BRANCH   4   5
ATOM      5  O   UNL     1       3.202   0.917  -1.189  1.00  0.00    -0.460 OA
BRANCH   5   6
ATOM      6  C   UNL     1       1.945   0.586  -0.616  1.00  0.00     0.338 C 
ATOM      7  O   UNL     1       1.416   1.131   0.353  1.00  0.00    -0.246 OA
BRANCH   6   8
ATOM      8  C   UNL     1       1.029  -0.549  -0.816  1.00  0.00     0.065 A 
ATOM      9  C   UNL     1       2.938  -2.162  -0.868  1.00  0.00     0.047 C 
ATOM     10  C   UNL     1       1.496  -1.841  -0.632  1.00  0.00    -0.013 A 
ATOM     11  C   UNL     1       0.564  -2.814  -0.198  1.00  0.00     0.045 A 
ATOM     12  C   UNL     1      -0.744  -2.487   0.205  1.00  0.00     0.026 A 
ATOM     13  C   UNL     1      -0.358  -0.268  -0.533  1.00  0.00     0.016 A 
ATOM     14  C   UNL     1      -1.219  -1.207   0.021  1.00  0.00     0.003 A 
BRANCH  11  15
ATOM     15  N   UNL     1       0.944  -4.154  -0.304  1.00  0.00    -0.322 N 
ATOM     16  C   UNL     1       0.232  -5.206  -0.836  1.00  0.00     0.257 C 
ATOM     17  H   UNL     1       1.837  -4.375   0.045  1.00  0.00     0.170 HD
ATOM     18  O   UNL     1       0.744  -6.326  -0.841  1.00  0.00    -0.269 OA
BRANCH  16  19
ATOM     19  C   UNL     1      -1.129  -5.043  -1.434  1.00  0.00     0.063 A 
ATOM     20  C   UNL     1      -2.043  -6.020  -0.998  1.00  0.00     0.016 A 
ATOM     21  C   UNL     1      -1.535  -4.035  -2.353  1.00  0.00     0.054 A 
ATOM     22  C   UNL     1      -3.369  -5.987  -1.409  1.00  0.00     0.001 A 
ATOM     23  C   UNL     1      -2.892  -3.989  -2.687  1.00  0.00     0.027 A 
ATOM     24  C   UNL     1      -3.796  -4.957  -2.232  1.00  0.00     0.002 A 
BRANCH  21  25
ATOM     25  N   UNL     1      -0.573  -3.140  -2.880  1.00  0.00    -0.323 N 
ATOM     26  C   UNL     1      -0.563  -2.017  -3.659  1.00  0.00     0.253 C 
ATOM     27  H   UNL     1       0.338  -3.398  -2.612  1.00  0.00     0.170 HD
ATOM     28  O   UNL     1       0.545  -1.485  -3.820  1.00  0.00    -0.272 OA
BRANCH  26  29
ATOM     29  C   UNL     1      -1.806  -1.472  -4.359  1.00  0.00     0.207 C 
ATOM     30  C   UNL     1      -2.080  -2.317  -5.595  1.00  0.00     0.044 C 
ATOM     31  O   UNL     1      -1.643  -0.132  -4.839  1.00  0.00    -0.368 OA
ATOM     32  C   UNL     1      -2.770  -1.349  -6.516  1.00  0.00     0.032 C 
ATOM     33  C   UNL     1      -2.045  -0.058  -6.211  1.00  0.00     0.161 C 
ENDBRANCH  26  29
ENDBRANCH  21  25
ENDBRANCH  16  19
ENDBRANCH  11  15
ENDBRANCH   6   8
ENDBRANCH   5   6
ENDBRANCH   4   5
ENDBRANCH   3   4
ENDBRANCH   2   3
ENDBRANCH   1   2
BRANCH   1  34
ATOM     34  C   UNL     1       3.233   5.465  -3.577  1.00  0.00     0.188 C 
BRANCH  34  35
ATOM     35  O   UNL     1       3.544   4.170  -4.064  1.00  0.00    -0.376 OA
BRANCH  35  36
ATOM     36  C   UNL     1       3.456   3.995  -5.476  1.00  0.00     0.202 C 
BRANCH  36  37
ATOM     37  C   UNL     1       2.023   3.884  -6.061  1.00  0.00     0.261 C 
BRANCH  37  38
ATOM     38  O   UNL     1       1.338   2.664  -5.676  1.00  0.00    -0.460 OA
BRANCH  38  39
ATOM     39  C   UNL     1       0.101   2.802  -5.065  1.00  0.00     0.338 C 
ATOM     40  O   UNL     1      -0.925   2.904  -5.717  1.00  0.00    -0.246 OA
BRANCH  39  41
ATOM     41  C   UNL     1       0.239   2.757  -3.564  1.00  0.00     0.060 A 
ATOM     42  C   UNL     1      -0.658   3.088  -2.537  1.00  0.00     0.016 A 
ATOM     43  C   UNL     1       1.484   2.482  -3.129  1.00  0.00     0.016 A 
ATOM     44  C   UNL     1      -0.227   3.286  -1.136  1.00  0.00     0.010 A 
ATOM     45  C   UNL     1       1.847   2.914  -1.860  1.00  0.00     0.010 A 
ATOM     46  C   UNL     1       1.110   3.250  -0.736  1.00  0.00    -0.014 A 
BRANCH  46  47
ATOM     47  C   UNL     1       1.846   3.551   0.685  1.00  0.00     0.031 A 
ATOM     48  C   UNL     1       2.656   2.591   1.835  1.00  0.00     0.074 A 
ATOM     49  C   UNL     1       1.746   4.846   1.055  1.00  0.00     0.049 A 
ATOM     50  N   UNL     1       2.844   2.943   3.098  1.00  0.00    -0.248 NA
ATOM     51  C   UNL     1       3.233   1.197   1.743  1.00  0.00     0.031 C 
ATOM     52  C   UNL     1       2.387   5.529   2.170  1.00  0.00     0.029 A 
ATOM     53  N   UNL     1       0.794   5.761   0.592  1.00  0.00    -0.354 N 
ATOM     54  C   UNL     1       3.595   1.955   3.753  1.00  0.00     0.074 A 
ATOM     55  C   UNL     1       3.565   0.809   2.955  1.00  0.00     0.031 C 
ATOM     56  C   UNL     1       1.607   6.559   2.533  1.00  0.00     0.029 A 
ATOM     57  C   UNL     1       0.410   6.506   1.715  1.00  0.00     0.049 A 
ATOM     58  H   UNL     1       0.464   5.861  -0.330  1.00  0.00     0.167 HD
ATOM     59  C   UNL     1       4.306   2.112   4.898  1.00  0.00     0.037 A 
ATOM     60  C   UNL     1      -0.877   6.450   2.157  1.00  0.00     0.037 A 
ATOM     61  C   UNL     1       3.710   3.190   5.640  1.00  0.00     0.049 A 
ATOM     62  C   UNL     1      -0.989   5.935   3.575  1.00  0.00     0.074 A 
ATOM     63  C   UNL     1       3.976   4.538   5.737  1.00  0.00     0.029 A 
ATOM     64  N   UNL     1       2.389   3.008   6.041  1.00  0.00    -0.354 N 
ATOM     65  N   UNL     1      -0.003   5.411   4.261  1.00  0.00    -0.248 NA
ATOM     66  C   UNL     1      -2.227   5.987   4.345  1.00  0.00     0.031 C 
ATOM     67  C   UNL     1       2.726   5.186   5.981  1.00  0.00     0.029 A 
ATOM     68  C   UNL     1       1.736   4.223   6.121  1.00  0.00     0.049 A 
ATOM     69  H   UNL     1       1.978   2.136   6.239  1.00  0.00     0.167 HD
ATOM     70  C   UNL     1      -0.465   4.974   5.476  1.00  0.00     0.074 A 
ATOM     71  C   UNL     1      -1.847   5.418   5.502  1.00  0.00     0.031 C 
ATOM     72  C   UNL     1       0.293   4.250   6.357  1.00  0.00     0.037 A 
BRANCH  59  73
ATOM     73  C   UNL     1       5.539   1.260   5.258  1.00  0.00     0.058 A 
ATOM     74  C   UNL     1       6.159   1.354   6.520  1.00  0.00     0.135 A 
ATOM     75  C   UNL     1       6.248   0.419   4.347  1.00  0.00     0.135 A 
ATOM     76  F   UNL     1       5.658   2.167   7.461  1.00  0.00    -0.206 F 
ATOM     77  C   UNL     1       7.345   0.662   6.851  1.00  0.00     0.059 A 
ATOM     78  C   UNL     1       7.375  -0.339   4.678  1.00  0.00     0.059 A 
ATOM     79  F   UNL     1       5.944   0.350   3.043  1.00  0.00    -0.206 F 
ATOM     80  C   UNL     1       7.944  -0.188   5.925  1.00  0.00     0.060 A 
BRANCH  80  81
ATOM     81  S   UNL     1       9.499  -1.033   6.299  1.00  0.00     0.124 S 
ATOM     82  O   UNL     1      10.466   0.053   6.177  1.00  0.00    -0.237 OA
ATOM     83  O   UNL     1       9.275  -1.538   7.649  1.00  0.00    -0.237 OA
ATOM     84  O   UNL     1       9.588  -2.060   5.263  1.00  0.00    -0.744 OA
ENDBRANCH  80  81
ENDBRANCH  59  73
BRANCH  60  85
ATOM     85  C   UNL     1      -1.875   6.373   1.037  1.00  0.00     0.058 A 
ATOM     86  C   UNL     1      -1.821   7.405   0.070  1.00  0.00     0.135 A 
ATOM     87  C   UNL     1      -2.579   5.217   0.673  1.00  0.00     0.135 A 
ATOM     88  F   UNL     1      -1.188   8.555   0.356  1.00  0.00    -0.206 F 
ATOM     89  C   UNL     1      -2.278   7.239  -1.234  1.00  0.00     0.059 A 
ATOM     90  C   UNL     1      -3.081   5.041  -0.633  1.00  0.00     0.059 A 
ATOM     91  F   UNL     1      -2.666   4.182   1.521  1.00  0.00    -0.206 F 
ATOM     92  C   UNL     1      -2.859   6.031  -1.594  1.00  0.00     0.060 A 
BRANCH  92  93
ATOM     93  S   UNL     1      -3.148   5.748  -3.363  1.00  0.00     0.124 S 
ATOM     94  O   UNL     1      -4.022   6.864  -3.712  1.00  0.00    -0.237 OA
ATOM     95  O   UNL     1      -1.789   5.827  -3.894  1.00  0.00    -0.237 OA
ATOM     96  O   UNL     1      -3.774   4.431  -3.391  1.00  0.00    -0.744 OA
ENDBRANCH  92  93
ENDBRANCH  60  85
BRANCH  72  97
ATOM     97  C   UNL     1      -0.278   3.511   7.552  1.00  0.00     0.058 A 
ATOM     98  C   UNL     1      -1.577   2.970   7.592  1.00  0.00     0.135 A 
ATOM     99  C   UNL     1       0.539   3.205   8.666  1.00  0.00     0.135 A 
ATOM    100  F   UNL     1      -2.405   3.059   6.542  1.00  0.00    -0.206 F 
ATOM    101  C   UNL     1      -2.071   2.281   8.701  1.00  0.00     0.059 A 
ATOM    102  C   UNL     1       0.090   2.456   9.752  1.00  0.00     0.059 A 
ATOM    103  F   UNL     1       1.814   3.619   8.731  1.00  0.00    -0.206 F 
ATOM    104  C   UNL     1      -1.232   2.036   9.781  1.00  0.00     0.060 A 
BRANCH 104 105
ATOM    105  S   UNL     1      -1.843   1.150  11.226  1.00  0.00     0.124 S 
ATOM    106  O   UNL     1      -2.096   2.248  12.153  1.00  0.00    -0.237 OA
ATOM    107  O   UNL     1      -3.033   0.469  10.723  1.00  0.00    -0.237 OA
ATOM    108  O   UNL     1      -0.726   0.275  11.566  1.00  0.00    -0.744 OA
ENDBRANCH 104 105
ENDBRANCH  72  97
ENDBRANCH  46  47
ENDBRANCH  39  41
ENDBRANCH  38  39
ENDBRANCH  37  38
ENDBRANCH  36  37
ENDBRANCH  35  36
ENDBRANCH  34  35
ENDBRANCH   1  34
TORSDOF 24
