REMARK SMILES CN1C(=O)C(=Cc2ccc(OCc3cccc(C(=O)OCCOCCOCCOC(=O)c4ccc(-c5c6nc(c(-c7c(F)cc(S(=O)(=O)[O-])cc7F)c7ccc([nH]7)c(-c7c(F)cc(S(=O)(=O)[O-])cc7F)c7nc(c(-c8c(F)cc(S(=O)(=O)[O-])cc8F)c8ccc5[nH]8)C=C7)C=C6)cc4)c3)c(Cl)c2)C(=O)N(C)C1=S
REMARK SMILES IDX 24 1 23 2 22 3 21 4 20 5 18 6 19 7 17 8 13 9 14 10 98 11
REMARK SMILES IDX 15 12 16 13 12 14 11 15 10 16 7 17 8 18 101 19 9 20 99 21
REMARK SMILES IDX 100 22 6 23 1 24 2 25 3 26 106 27 4 28 5 29 104 30 107 31
REMARK SMILES IDX 102 32 105 33 103 34 25 35 26 36 27 37 28 38 29 39 30 40
REMARK SMILES IDX 31 41 32 42 33 43 97 44 34 45 96 46 35 47 36 48 37 49 90 50
REMARK SMILES IDX 38 51 95 52 89 53 91 54 39 55 94 56 88 57 87 58 40 60 74 61
REMARK SMILES IDX 53 62 73 63 54 64 57 65 72 66 92 67 55 68 56 69 71 71 93 72
REMARK SMILES IDX 58 73 41 74 42 75 51 76 43 77 44 78 50 79 52 80 45 81 46 82
REMARK SMILES IDX 47 83 48 84 49 85 75 86 76 87 85 88 77 89 78 90 84 91 86 92
REMARK SMILES IDX 79 93 80 94 81 95 82 96 83 97 59 98 60 99 69 100 61 101
REMARK SMILES IDX 62 102 68 103 70 104 63 105 64 106 65 107 66 108 67 109
REMARK H PARENT 91 59 57 70
REMARK Flexibility Score: inf
ROOT
ATOM      1  C   UNL     1      -7.459  -4.071  -2.870  1.00  0.00     0.188 C 
ENDROOT
BRANCH   1   2
ATOM      2  O   UNL     1      -6.590  -5.178  -3.088  1.00  0.00    -0.376 OA
BRANCH   2   3
ATOM      3  C   UNL     1      -5.188  -4.994  -2.953  1.00  0.00     0.202 C 
BRANCH   3   4
ATOM      4  C   UNL     1      -4.510  -4.077  -3.974  1.00  0.00     0.261 C 
BRANCH   4   5
ATOM      5  O   UNL     1      -5.021  -2.735  -3.935  1.00  0.00    -0.460 OA
BRANCH   5   6
ATOM      6  C   UNL     1      -5.532  -2.261  -5.101  1.00  0.00     0.338 C 
ATOM      7  O   UNL     1      -5.507  -2.804  -6.191  1.00  0.00    -0.246 OA
BRANCH   6   8
ATOM      8  C   UNL     1      -6.294  -1.024  -4.820  1.00  0.00     0.060 A 
ATOM      9  C   UNL     1      -6.502   1.116  -3.669  1.00  0.00    -0.010 A 
ATOM     10  C   UNL     1      -7.826   1.190  -4.141  1.00  0.00     0.007 A 
ATOM     11  C   UNL     1      -5.736   0.006  -4.053  1.00  0.00     0.023 A 
ATOM     12  C   UNL     1      -8.369   0.188  -4.950  1.00  0.00     0.001 A 
ATOM     13  C   UNL     1      -7.604  -0.924  -5.289  1.00  0.00     0.016 A 
BRANCH   9  14
ATOM     14  C   UNL     1      -6.014   2.251  -2.777  1.00  0.00     0.265 C 
BRANCH  14  15
ATOM     15  O   UNL     1      -4.678   2.262  -2.262  1.00  0.00    -0.487 OA
BRANCH  15  16
ATOM     16  C   UNL     1      -4.184   1.150  -1.645  1.00  0.00     0.138 A 
ATOM     17  C   UNL     1      -2.941  -1.226  -0.826  1.00  0.00    -0.023 A 
ATOM     18  C   UNL     1      -2.287  -0.355  -1.705  1.00  0.00     0.012 A 
ATOM     19  C   UNL     1      -4.201  -0.887  -0.330  1.00  0.00     0.032 A 
ATOM     20  C   UNL     1      -2.890   0.838  -2.082  1.00  0.00     0.048 A 
ATOM     21  C   UNL     1      -4.821   0.306  -0.726  1.00  0.00     0.083 A 
ATOM     22  Cl  UNL     1      -6.344   0.666  -0.001  1.00  0.00    -0.080 Cl
BRANCH  17  23
ATOM     23  C   UNL     1      -2.279  -2.474  -0.434  1.00  0.00     0.027 C 
ATOM     24  C   UNL     1       1.440   0.093   0.696  1.00  0.00     0.156 C 
ATOM     25  N   UNL     1       0.912  -1.273   0.618  1.00  0.00    -0.288 N 
ATOM     26  C   UNL     1      -0.470  -1.307   0.760  1.00  0.00     0.265 C 
ATOM     27  C   UNL     1       1.722  -2.415   0.459  1.00  0.00     0.185 C 
ATOM     28  O   UNL     1      -1.122  -0.408   1.283  1.00  0.00    -0.268 OA
ATOM     29  C   UNL     1      -1.104  -2.515   0.224  1.00  0.00     0.106 C 
ATOM     30  N   UNL     1       1.025  -3.639   0.307  1.00  0.00    -0.288 N 
ATOM     31  S   UNL     1       3.415  -2.323   0.477  1.00  0.00    -0.040 S 
ATOM     32  C   UNL     1      -0.367  -3.781   0.252  1.00  0.00     0.265 C 
ATOM     33  C   UNL     1       1.717  -4.919   0.127  1.00  0.00     0.156 C 
ATOM     34  O   UNL     1      -0.945  -4.862   0.161  1.00  0.00    -0.268 OA
ENDBRANCH  17  23
ENDBRANCH  15  16
ENDBRANCH  14  15
ENDBRANCH   9  14
ENDBRANCH   6   8
ENDBRANCH   5   6
ENDBRANCH   4   5
ENDBRANCH   3   4
ENDBRANCH   2   3
ENDBRANCH   1   2
BRANCH   1  35
ATOM     35  C   UNL     1      -7.177  -3.109  -1.700  1.00  0.00     0.188 C 
BRANCH  35  36
ATOM     36  O   UNL     1      -6.416  -3.690  -0.646  1.00  0.00    -0.376 OA
BRANCH  36  37
ATOM     37  C   UNL     1      -7.103  -3.872   0.585  1.00  0.00     0.202 C 
BRANCH  37  38
ATOM     38  C   UNL     1      -7.990  -5.119   0.610  1.00  0.00     0.261 C 
BRANCH  38  39
ATOM     39  O   UNL     1      -9.060  -5.117  -0.347  1.00  0.00    -0.460 OA
BRANCH  39  40
ATOM     40  C   UNL     1     -10.027  -4.187  -0.186  1.00  0.00     0.338 C 
ATOM     41  O   UNL     1     -10.094  -3.340   0.685  1.00  0.00    -0.246 OA
BRANCH  40  42
ATOM     42  C   UNL     1     -10.926  -4.269  -1.357  1.00  0.00     0.060 A 
ATOM     43  C   UNL     1     -11.183  -3.109  -2.098  1.00  0.00     0.016 A 
ATOM     44  C   UNL     1     -11.496  -5.490  -1.730  1.00  0.00     0.016 A 
ATOM     45  C   UNL     1     -12.034  -3.168  -3.205  1.00  0.00     0.010 A 
ATOM     46  C   UNL     1     -12.355  -5.543  -2.829  1.00  0.00     0.010 A 
ATOM     47  C   UNL     1     -12.648  -4.379  -3.558  1.00  0.00    -0.014 A 
BRANCH  47  48
ATOM     48  C   UNL     1     -13.717  -4.408  -4.586  1.00  0.00     0.031 A 
ATOM     49  C   UNL     1     -15.150  -4.318  -4.134  1.00  0.00     0.074 A 
ATOM     50  C   UNL     1     -13.428  -4.530  -5.894  1.00  0.00     0.049 A 
ATOM     51  N   UNL     1     -16.248  -4.370  -4.841  1.00  0.00    -0.248 NA
ATOM     52  C   UNL     1     -15.370  -4.150  -2.688  1.00  0.00     0.031 C 
ATOM     53  C   UNL     1     -12.082  -4.612  -6.459  1.00  0.00     0.029 A 
ATOM     54  N   UNL     1     -14.257  -4.620  -6.984  1.00  0.00    -0.354 N 
ATOM     55  C   UNL     1     -17.289  -4.240  -3.930  1.00  0.00     0.074 A 
ATOM     56  C   UNL     1     -16.692  -4.136  -2.616  1.00  0.00     0.031 C 
ATOM     57  C   UNL     1     -12.179  -4.755  -7.794  1.00  0.00     0.029 A 
ATOM     58  C   UNL     1     -13.591  -4.800  -8.173  1.00  0.00     0.049 A 
ATOM     59  H   UNL     1     -15.238  -4.560  -6.921  1.00  0.00     0.167 HD
ATOM     60  C   UNL     1     -18.622  -4.203  -4.166  1.00  0.00     0.037 A 
ATOM     61  C   UNL     1     -14.067  -4.997  -9.419  1.00  0.00     0.037 A 
ATOM     62  C   UNL     1     -19.217  -4.323  -5.470  1.00  0.00     0.049 A 
ATOM     63  C   UNL     1     -15.558  -5.015  -9.650  1.00  0.00     0.074 A 
ATOM     64  C   UNL     1     -20.557  -4.283  -5.812  1.00  0.00     0.029 A 
ATOM     65  N   UNL     1     -18.509  -4.518  -6.646  1.00  0.00    -0.354 N 
ATOM     66  N   UNL     1     -16.530  -4.853  -8.784  1.00  0.00    -0.248 NA
ATOM     67  C   UNL     1     -16.016  -5.242 -11.030  1.00  0.00     0.031 C 
ATOM     68  C   UNL     1     -20.663  -4.495  -7.191  1.00  0.00     0.029 A 
ATOM     69  C   UNL     1     -19.385  -4.622  -7.714  1.00  0.00     0.049 A 
ATOM     70  H   UNL     1     -17.529  -4.575  -6.713  1.00  0.00     0.167 HD
ATOM     71  C   UNL     1     -17.711  -4.932  -9.517  1.00  0.00     0.074 A 
ATOM     72  C   UNL     1     -17.333  -5.150 -10.898  1.00  0.00     0.031 C 
ATOM     73  C   UNL     1     -18.993  -4.830  -9.085  1.00  0.00     0.037 A 
BRANCH  60  74
ATOM     74  C   UNL     1     -19.526  -4.047  -2.977  1.00  0.00     0.058 A 
ATOM     75  C   UNL     1     -19.640  -2.825  -2.296  1.00  0.00     0.135 A 
ATOM     76  C   UNL     1     -20.296  -5.128  -2.519  1.00  0.00     0.135 A 
ATOM     77  F   UNL     1     -18.909  -1.766  -2.681  1.00  0.00    -0.206 F 
ATOM     78  C   UNL     1     -20.465  -2.686  -1.186  1.00  0.00     0.059 A 
ATOM     79  C   UNL     1     -21.146  -5.005  -1.424  1.00  0.00     0.059 A 
ATOM     80  F   UNL     1     -20.221  -6.319  -3.132  1.00  0.00    -0.206 F 
ATOM     81  C   UNL     1     -21.212  -3.784  -0.755  1.00  0.00     0.060 A 
BRANCH  81  82
ATOM     82  S   UNL     1     -22.273  -3.592   0.693  1.00  0.00     0.124 S 
ATOM     83  O   UNL     1     -21.292  -3.593   1.774  1.00  0.00    -0.237 OA
ATOM     84  O   UNL     1     -22.929  -2.315   0.434  1.00  0.00    -0.237 OA
ATOM     85  O   UNL     1     -23.143  -4.763   0.634  1.00  0.00    -0.744 OA
ENDBRANCH  81  82
ENDBRANCH  60  74
BRANCH  61  86
ATOM     86  C   UNL     1     -13.126  -5.203 -10.553  1.00  0.00     0.058 A 
ATOM     87  C   UNL     1     -12.959  -4.222 -11.541  1.00  0.00     0.135 A 
ATOM     88  C   UNL     1     -12.384  -6.388 -10.675  1.00  0.00     0.135 A 
ATOM     89  F   UNL     1     -13.658  -3.078 -11.476  1.00  0.00    -0.206 F 
ATOM     90  C   UNL     1     -12.098  -4.412 -12.618  1.00  0.00     0.059 A 
ATOM     91  C   UNL     1     -11.500  -6.591 -11.730  1.00  0.00     0.059 A 
ATOM     92  F   UNL     1     -12.505  -7.355  -9.753  1.00  0.00    -0.206 F 
ATOM     93  C   UNL     1     -11.371  -5.601 -12.703  1.00  0.00     0.060 A 
BRANCH  93  94
ATOM     94  S   UNL     1     -10.222  -5.819 -14.080  1.00  0.00     0.124 S 
ATOM     95  O   UNL     1     -11.135  -6.091 -15.183  1.00  0.00    -0.237 OA
ATOM     96  O   UNL     1      -9.540  -4.529 -14.120  1.00  0.00    -0.237 OA
ATOM     97  O   UNL     1      -9.396  -6.944 -13.651  1.00  0.00    -0.744 OA
ENDBRANCH  93  94
ENDBRANCH  61  86
BRANCH  73  98
ATOM     98  C   UNL     1     -20.085  -4.915 -10.116  1.00  0.00     0.058 A 
ATOM     99  C   UNL     1     -20.453  -6.136 -10.702  1.00  0.00     0.135 A 
ATOM    100  C   UNL     1     -20.815  -3.770 -10.474  1.00  0.00     0.135 A 
ATOM    101  F   UNL     1     -19.785  -7.260 -10.397  1.00  0.00    -0.206 F 
ATOM    102  C   UNL     1     -21.496  -6.216 -11.620  1.00  0.00     0.059 A 
ATOM    103  C   UNL     1     -21.876  -3.830 -11.372  1.00  0.00     0.059 A 
ATOM    104  F   UNL     1     -20.511  -2.579  -9.934  1.00  0.00    -0.206 F 
ATOM    105  C   UNL     1     -22.203  -5.057 -11.948  1.00  0.00     0.060 A 
BRANCH 105 106
ATOM    106  S   UNL     1     -23.580  -5.178 -13.110  1.00  0.00     0.124 S 
ATOM    107  O   UNL     1     -22.880  -5.295 -14.385  1.00  0.00    -0.237 OA
ATOM    108  O   UNL     1     -24.272  -6.379 -12.654  1.00  0.00    -0.237 OA
ATOM    109  O   UNL     1     -24.307  -3.928 -12.905  1.00  0.00    -0.744 OA
ENDBRANCH 105 106
ENDBRANCH  73  98
ENDBRANCH  47  48
ENDBRANCH  40  42
ENDBRANCH  39  40
ENDBRANCH  38  39
ENDBRANCH  37  38
ENDBRANCH  36  37
ENDBRANCH  35  36
ENDBRANCH   1  35
TORSDOF 24
