REMARK SMILES CCC[C@@]1(C(=O)OCCOCCOCCOC(=O)c2ccc(-c3c4nc(c(-c5c(F)cc(S(=O)(=O)[O-])cc5F)c5ccc([nH]5)c(-c5c(F)cc(S(=O)(=O)[O-])cc5F)c5nc(c(-c6c(F)cc(S(=O)(=O)[O-])cc6F)c6ccc3[nH]6)C=C5)C=C4)cc2)CCCN(C(=O)CCn2cncn2)C1
REMARK SMILES IDX 11 1 10 2 9 3 8 4 7 5 5 6 6 7 4 8 85 9 98 10 86 11 88 12
REMARK SMILES IDX 87 13 3 14 2 15 1 16 89 17 90 18 91 19 92 20 93 21 94 22
REMARK SMILES IDX 97 23 95 24 96 25 12 26 13 27 14 28 15 29 16 30 17 31 18 32
REMARK SMILES IDX 19 33 20 34 84 35 21 36 83 37 22 38 23 39 24 40 77 41 25 42
REMARK SMILES IDX 82 43 76 44 78 45 26 46 81 47 75 48 74 49 27 51 61 52 40 53
REMARK SMILES IDX 60 54 41 55 44 56 59 57 79 58 42 59 43 60 58 62 80 63 45 64
REMARK SMILES IDX 28 65 29 66 38 67 30 68 31 69 37 70 39 71 32 72 33 73 34 74
REMARK SMILES IDX 35 75 36 76 62 77 63 78 72 79 64 80 65 81 71 82 73 83 66 84
REMARK SMILES IDX 67 85 68 86 69 87 70 88 46 89 47 90 56 91 48 92 49 93 55 94
REMARK SMILES IDX 57 95 50 96 51 97 52 98 53 99 54 100
REMARK H PARENT 78 50 44 61
REMARK Flexibility Score: inf
ROOT
ATOM      1  C   UNL     1       0.673   4.230  -1.370  1.00  0.00     0.188 C 
ENDROOT
BRANCH   1   2
ATOM      2  O   UNL     1       1.174   4.329  -0.045  1.00  0.00    -0.376 OA
BRANCH   2   3
ATOM      3  C   UNL     1       2.359   3.597   0.253  1.00  0.00     0.202 C 
BRANCH   3   4
ATOM      4  C   UNL     1       2.331   2.069   0.074  1.00  0.00     0.261 C 
BRANCH   4   5
ATOM      5  O   UNL     1       1.994   1.560  -1.240  1.00  0.00    -0.463 OA
BRANCH   5   6
ATOM      6  C   UNL     1       0.734   1.057  -1.351  1.00  0.00     0.313 C 
ATOM      7  O   UNL     1      -0.122   1.223  -0.486  1.00  0.00    -0.252 OA
BRANCH   6   8
ATOM      8  C   UNL     1       0.460   0.261  -2.654  1.00  0.00     0.086 C 
ATOM      9  C   UNL     1      -0.930  -0.413  -2.437  1.00  0.00     0.022 C 
ATOM     10  C   UNL     1       1.567  -0.795  -2.816  1.00  0.00     0.138 C 
ATOM     11  C   UNL     1      -0.900  -1.557  -1.426  1.00  0.00     0.023 C 
ATOM     12  N   UNL     1       1.524  -1.764  -1.723  1.00  0.00    -0.341 N 
ATOM     13  C   UNL     1       0.267  -2.507  -1.661  1.00  0.00     0.119 C 
BRANCH   8  14
ATOM     14  C   UNL     1       0.411   1.196  -3.896  1.00  0.00     0.020 C 
BRANCH  14  15
ATOM     15  C   UNL     1       0.357   0.567  -5.313  1.00  0.00    -0.002 C 
ATOM     16  C   UNL     1      -0.799  -0.369  -5.641  1.00  0.00     0.004 C 
ENDBRANCH  14  15
ENDBRANCH   8  14
BRANCH  12  17
ATOM     17  C   UNL     1       2.571  -1.789  -0.821  1.00  0.00     0.224 C 
ATOM     18  O   UNL     1       3.592  -1.113  -0.977  1.00  0.00    -0.275 OA
BRANCH  17  19
ATOM     19  C   UNL     1       2.479  -2.644   0.421  1.00  0.00     0.124 C 
BRANCH  19  20
ATOM     20  C   UNL     1       1.995  -1.824   1.614  1.00  0.00     0.156 C 
BRANCH  20  21
ATOM     21  N   UNL     1       0.566  -1.834   1.830  1.00  0.00    -0.252 N 
ATOM     22  C   UNL     1      -0.291  -2.891   1.818  1.00  0.00     0.219 A 
ATOM     23  N   UNL     1      -0.078  -0.706   2.170  1.00  0.00    -0.160 NA
ATOM     24  N   UNL     1      -1.518  -2.465   2.006  1.00  0.00    -0.224 NA
ATOM     25  C   UNL     1      -1.348  -1.121   2.200  1.00  0.00     0.246 A 
ENDBRANCH  20  21
ENDBRANCH  19  20
ENDBRANCH  17  19
ENDBRANCH  12  17
ENDBRANCH   6   8
ENDBRANCH   5   6
ENDBRANCH   4   5
ENDBRANCH   3   4
ENDBRANCH   2   3
ENDBRANCH   1   2
BRANCH   1  26
ATOM     26  C   UNL     1       1.657   4.551  -2.490  1.00  0.00     0.188 C 
BRANCH  26  27
ATOM     27  O   UNL     1       2.959   4.013  -2.352  1.00  0.00    -0.376 OA
BRANCH  27  28
ATOM     28  C   UNL     1       3.993   4.534  -3.186  1.00  0.00     0.202 C 
BRANCH  28  29
ATOM     29  C   UNL     1       4.023   6.051  -3.483  1.00  0.00     0.261 C 
BRANCH  29  30
ATOM     30  O   UNL     1       2.817   6.636  -4.024  1.00  0.00    -0.460 OA
BRANCH  30  31
ATOM     31  C   UNL     1       2.248   6.018  -5.091  1.00  0.00     0.338 C 
ATOM     32  O   UNL     1       2.788   5.209  -5.810  1.00  0.00    -0.246 OA
BRANCH  31  33
ATOM     33  C   UNL     1       0.770   6.277  -5.080  1.00  0.00     0.060 A 
ATOM     34  C   UNL     1      -0.064   5.239  -5.522  1.00  0.00     0.016 A 
ATOM     35  C   UNL     1       0.193   7.456  -4.594  1.00  0.00     0.016 A 
ATOM     36  C   UNL     1      -1.451   5.406  -5.569  1.00  0.00     0.010 A 
ATOM     37  C   UNL     1      -1.202   7.631  -4.655  1.00  0.00     0.010 A 
ATOM     38  C   UNL     1      -2.026   6.629  -5.203  1.00  0.00    -0.014 A 
BRANCH  38  39
ATOM     39  C   UNL     1      -3.403   6.939  -5.685  1.00  0.00     0.031 A 
ATOM     40  C   UNL     1      -3.531   7.733  -6.966  1.00  0.00     0.074 A 
ATOM     41  C   UNL     1      -4.515   6.462  -5.092  1.00  0.00     0.049 A 
ATOM     42  N   UNL     1      -4.602   8.094  -7.625  1.00  0.00    -0.248 NA
ATOM     43  C   UNL     1      -2.271   8.172  -7.589  1.00  0.00     0.031 C 
ATOM     44  C   UNL     1      -4.550   5.641  -3.884  1.00  0.00     0.029 A 
ATOM     45  N   UNL     1      -5.839   6.599  -5.441  1.00  0.00    -0.354 N 
ATOM     46  C   UNL     1      -4.145   8.803  -8.731  1.00  0.00     0.074 A 
ATOM     47  C   UNL     1      -2.704   8.857  -8.634  1.00  0.00     0.031 C 
ATOM     48  C   UNL     1      -5.831   5.349  -3.591  1.00  0.00     0.029 A 
ATOM     49  C   UNL     1      -6.712   5.980  -4.576  1.00  0.00     0.049 A 
ATOM     50  H   UNL     1      -6.135   7.096  -6.237  1.00  0.00     0.167 HD
ATOM     51  C   UNL     1      -4.852   9.347  -9.750  1.00  0.00     0.037 A 
ATOM     52  C   UNL     1      -8.062   5.934  -4.573  1.00  0.00     0.037 A 
ATOM     53  C   UNL     1      -6.286   9.298  -9.859  1.00  0.00     0.049 A 
ATOM     54  C   UNL     1      -8.836   6.609  -5.682  1.00  0.00     0.074 A 
ATOM     55  C   UNL     1      -7.090   9.819 -10.857  1.00  0.00     0.029 A 
ATOM     56  N   UNL     1      -7.131   8.699  -8.937  1.00  0.00    -0.354 N 
ATOM     57  N   UNL     1      -8.387   7.263  -6.729  1.00  0.00    -0.248 NA
ATOM     58  C   UNL     1     -10.303   6.529  -5.614  1.00  0.00     0.031 C 
ATOM     59  C   UNL     1      -8.425   9.584 -10.512  1.00  0.00     0.029 A 
ATOM     60  C   UNL     1      -8.450   8.858  -9.332  1.00  0.00     0.049 A 
ATOM     61  H   UNL     1      -6.838   8.230  -8.123  1.00  0.00     0.167 HD
ATOM     62  C   UNL     1      -9.514   7.639  -7.458  1.00  0.00     0.074 A 
ATOM     63  C   UNL     1     -10.663   7.127  -6.741  1.00  0.00     0.031 C 
ATOM     64  C   UNL     1      -9.591   8.342  -8.617  1.00  0.00     0.037 A 
BRANCH  51  65
ATOM     65  C   UNL     1      -4.079  10.075 -10.817  1.00  0.00     0.058 A 
ATOM     66  C   UNL     1      -3.256   9.398 -11.732  1.00  0.00     0.135 A 
ATOM     67  C   UNL     1      -4.176  11.471 -10.935  1.00  0.00     0.135 A 
ATOM     68  F   UNL     1      -3.106   8.066 -11.650  1.00  0.00    -0.206 F 
ATOM     69  C   UNL     1      -2.535  10.081 -12.706  1.00  0.00     0.059 A 
ATOM     70  C   UNL     1      -3.490  12.172 -11.922  1.00  0.00     0.059 A 
ATOM     71  F   UNL     1      -4.944  12.169 -10.084  1.00  0.00    -0.206 F 
ATOM     72  C   UNL     1      -2.660  11.469 -12.793  1.00  0.00     0.060 A 
BRANCH  72  73
ATOM     73  S   UNL     1      -1.721  12.340 -14.065  1.00  0.00     0.124 S 
ATOM     74  O   UNL     1      -0.360  12.231 -13.549  1.00  0.00    -0.237 OA
ATOM     75  O   UNL     1      -2.011  11.553 -15.259  1.00  0.00    -0.237 OA
ATOM     76  O   UNL     1      -2.292  13.684 -14.049  1.00  0.00    -0.744 OA
ENDBRANCH  72  73
ENDBRANCH  51  65
BRANCH  52  77
ATOM     77  C   UNL     1      -8.789   5.231  -3.477  1.00  0.00     0.058 A 
ATOM     78  C   UNL     1      -9.534   4.066  -3.721  1.00  0.00     0.135 A 
ATOM     79  C   UNL     1      -8.781   5.732  -2.165  1.00  0.00     0.135 A 
ATOM     80  F   UNL     1      -9.594   3.556  -4.961  1.00  0.00    -0.206 F 
ATOM     81  C   UNL     1     -10.256   3.434  -2.712  1.00  0.00     0.059 A 
ATOM     82  C   UNL     1      -9.470   5.101  -1.133  1.00  0.00     0.059 A 
ATOM     83  F   UNL     1      -8.087   6.843  -1.875  1.00  0.00    -0.206 F 
ATOM     84  C   UNL     1     -10.214   3.957  -1.419  1.00  0.00     0.060 A 
BRANCH  84  85
ATOM     85  S   UNL     1     -11.116   3.102  -0.108  1.00  0.00     0.124 S 
ATOM     86  O   UNL     1     -12.500   3.406  -0.454  1.00  0.00    -0.237 OA
ATOM     87  O   UNL     1     -10.699   1.717  -0.304  1.00  0.00    -0.237 OA
ATOM     88  O   UNL     1     -10.617   3.733   1.110  1.00  0.00    -0.744 OA
ENDBRANCH  84  85
ENDBRANCH  52  77
BRANCH  64  89
ATOM     89  C   UNL     1     -10.959   8.559  -9.215  1.00  0.00     0.058 A 
ATOM     90  C   UNL     1     -11.911   9.400  -8.617  1.00  0.00     0.135 A 
ATOM     91  C   UNL     1     -11.314   7.930 -10.421  1.00  0.00     0.135 A 
ATOM     92  F   UNL     1     -11.628  10.031  -7.466  1.00  0.00    -0.206 F 
ATOM     93  C   UNL     1     -13.181   9.569  -9.163  1.00  0.00     0.059 A 
ATOM     94  C   UNL     1     -12.565   8.113 -11.004  1.00  0.00     0.059 A 
ATOM     95  F   UNL     1     -10.438   7.131 -11.051  1.00  0.00    -0.206 F 
ATOM     96  C   UNL     1     -13.500   8.916 -10.355  1.00  0.00     0.060 A 
BRANCH  96  97
ATOM     97  S   UNL     1     -15.154   9.132 -11.048  1.00  0.00     0.124 S 
ATOM     98  O   UNL     1     -15.961   8.327 -10.137  1.00  0.00    -0.237 OA
ATOM     99  O   UNL     1     -15.345  10.576 -10.958  1.00  0.00    -0.237 OA
ATOM    100  O   UNL     1     -15.026   8.607 -12.404  1.00  0.00    -0.744 OA
ENDBRANCH  96  97
ENDBRANCH  64  89
ENDBRANCH  38  39
ENDBRANCH  31  33
ENDBRANCH  30  31
ENDBRANCH  29  30
ENDBRANCH  28  29
ENDBRANCH  27  28
ENDBRANCH  26  27
ENDBRANCH   1  26
TORSDOF 26
