REMARK SMILES C[N@@H+]1CC[N@H+](Cc2ccc(C#CC(C)(C)O)s2)C[C@H]1C(=O)OCCOCCOCCOC(=O)c1ccc(-c2c3nc(c(-c4c(F)cc(S(=O)(=O)[O-])cc4F)c4ccc([nH]4)c(-c4c(F)cc(S(=O)(=O)[O-])cc4F)c4nc(c(-c5c(F)cc(S(=O)(=O)[O-])cc5F)c5ccc2[nH]5)C=C4)C=C3)cc1
REMARK SMILES IDX 26 1 25 2 24 3 23 4 22 5 20 6 21 7 19 8 1 9 2 10 3 11 4 13
REMARK SMILES IDX 18 14 5 15 6 17 7 18 8 19 17 20 9 21 10 22 11 23 12 24 13 25
REMARK SMILES IDX 14 26 15 27 16 28 27 30 28 31 29 32 30 33 31 34 32 35 33 36
REMARK SMILES IDX 34 37 35 38 99 39 36 40 98 41 37 42 38 43 39 44 92 45 40 46
REMARK SMILES IDX 97 47 91 48 93 49 41 50 96 51 90 52 89 53 42 55 76 56 55 57
REMARK SMILES IDX 75 58 56 59 59 60 74 61 94 62 57 63 58 64 73 66 95 67 60 68
REMARK SMILES IDX 43 69 44 70 53 71 45 72 46 73 52 74 54 75 47 76 48 77 49 78
REMARK SMILES IDX 50 79 51 80 77 81 78 82 87 83 79 84 80 85 86 86 88 87 81 88
REMARK SMILES IDX 82 89 83 90 84 91 85 92 61 93 62 94 71 95 63 96 64 97 70 98
REMARK SMILES IDX 72 99 65 100 66 101 67 102 68 103 69 104
REMARK H PARENT 2 12 5 16 16 29 93 54 59 65
REMARK Flexibility Score: inf
ROOT
ATOM      1  C   UNL     1       2.862  -3.658   0.354  1.00  0.00     0.188 C 
ENDROOT
BRANCH   1   2
ATOM      2  O   UNL     1       2.374  -4.914  -0.111  1.00  0.00    -0.376 OA
BRANCH   2   3
ATOM      3  C   UNL     1       2.125  -5.022  -1.506  1.00  0.00     0.202 C 
BRANCH   3   4
ATOM      4  C   UNL     1       0.980  -4.181  -2.115  1.00  0.00     0.261 C 
BRANCH   4   5
ATOM      5  O   UNL     1       0.843  -2.809  -1.677  1.00  0.00    -0.459 OA
BRANCH   5   6
ATOM      6  C   UNL     1      -0.097  -2.599  -0.723  1.00  0.00     0.371 C 
ATOM      7  O   UNL     1      -0.748  -3.521  -0.226  1.00  0.00    -0.245 OA
BRANCH   6   8
ATOM      8  C   UNL     1      -0.285  -1.147  -0.230  1.00  0.00     0.350 C 
ATOM      9  C   UNL     1       1.797   0.003  -0.811  1.00  0.00     0.333 C 
ATOM     10  N   UNL     1       0.341  -0.026  -1.011  1.00  0.00    -0.316 N 
ATOM     11  C   UNL     1      -0.159   1.287  -0.530  1.00  0.00     0.325 C 
ATOM     12  H   UNL     1       0.104  -0.184  -1.991  1.00  0.00     0.348 HD
ATOM     13  C   UNL     1      -1.685   1.409  -0.362  1.00  0.00     0.324 C 
ATOM     14  C   UNL     1      -1.831  -0.982  -0.141  1.00  0.00     0.341 C 
ATOM     15  N   UNL     1      -2.337   0.308   0.342  1.00  0.00    -0.320 N 
ATOM     16  H   UNL     1      -3.324   0.373   0.091  1.00  0.00     0.348 HD
BRANCH  15  17
ATOM     17  C   UNL     1      -2.448   0.422   1.802  1.00  0.00     0.310 C 
BRANCH  17  18
ATOM     18  C   UNL     1      -1.181   0.330   2.607  1.00  0.00     0.060 A 
ATOM     19  C   UNL     1      -0.286   1.334   2.929  1.00  0.00     0.022 A 
ATOM     20  S   UNL     1      -0.730  -1.148   3.367  1.00  0.00    -0.126 S 
ATOM     21  C   UNL     1       0.856   0.843   3.629  1.00  0.00     0.029 A 
ATOM     22  C   UNL     1       0.765  -0.505   3.889  1.00  0.00     0.077 A 
BRANCH  22  23
ATOM     23  C   UNL     1       1.729  -1.265   4.614  1.00  0.00    -0.053 C 
ATOM     24  C   UNL     1       2.456  -1.930   5.468  1.00  0.00    -0.063 C 
BRANCH  24  25
ATOM     25  C   UNL     1       3.304  -2.705   6.463  1.00  0.00     0.120 C 
ATOM     26  C   UNL     1       4.225  -1.746   7.214  1.00  0.00     0.056 C 
ATOM     27  C   UNL     1       2.402  -3.478   7.423  1.00  0.00     0.056 C 
BRANCH  25  28
ATOM     28  O   UNL     1       4.093  -3.638   5.731  1.00  0.00    -0.378 OA
ATOM     29  H   UNL     1       4.672  -3.160   5.117  1.00  0.00     0.212 HD
ENDBRANCH  25  28
ENDBRANCH  24  25
ENDBRANCH  22  23
ENDBRANCH  17  18
ENDBRANCH  15  17
ENDBRANCH   6   8
ENDBRANCH   5   6
ENDBRANCH   4   5
ENDBRANCH   3   4
ENDBRANCH   2   3
ENDBRANCH   1   2
BRANCH   1  30
ATOM     30  C   UNL     1       3.931  -2.955  -0.503  1.00  0.00     0.188 C 
BRANCH  30  31
ATOM     31  O   UNL     1       3.543  -2.805  -1.863  1.00  0.00    -0.376 OA
BRANCH  31  32
ATOM     32  C   UNL     1       4.237  -1.937  -2.750  1.00  0.00     0.202 C 
BRANCH  32  33
ATOM     33  C   UNL     1       5.755  -1.978  -2.734  1.00  0.00     0.261 C 
BRANCH  33  34
ATOM     34  O   UNL     1       6.335  -1.573  -1.499  1.00  0.00    -0.460 OA
BRANCH  34  35
ATOM     35  C   UNL     1       5.846  -0.523  -0.805  1.00  0.00     0.338 C 
ATOM     36  O   UNL     1       5.107   0.366  -1.183  1.00  0.00    -0.246 OA
BRANCH  35  37
ATOM     37  C   UNL     1       6.354  -0.704   0.564  1.00  0.00     0.060 A 
ATOM     38  C   UNL     1       6.515   0.424   1.363  1.00  0.00     0.016 A 
ATOM     39  C   UNL     1       6.835  -1.971   0.952  1.00  0.00     0.016 A 
ATOM     40  C   UNL     1       7.417   0.338   2.401  1.00  0.00     0.010 A 
ATOM     41  C   UNL     1       7.717  -2.064   1.988  1.00  0.00     0.010 A 
ATOM     42  C   UNL     1       8.093  -0.874   2.592  1.00  0.00    -0.014 A 
BRANCH  42  43
ATOM     43  C   UNL     1       9.414  -0.818   3.169  1.00  0.00     0.031 A 
ATOM     44  C   UNL     1       9.512  -1.078   4.612  1.00  0.00     0.074 A 
ATOM     45  C   UNL     1      10.479  -0.699   2.351  1.00  0.00     0.049 A 
ATOM     46  N   UNL     1       9.848  -0.250   5.541  1.00  0.00    -0.248 NA
ATOM     47  C   UNL     1       9.068  -2.392   5.097  1.00  0.00     0.031 C 
ATOM     48  C   UNL     1      10.521  -0.839   0.887  1.00  0.00     0.029 A 
ATOM     49  N   UNL     1      11.784  -0.549   2.680  1.00  0.00    -0.354 N 
ATOM     50  C   UNL     1       9.854  -0.994   6.714  1.00  0.00     0.074 A 
ATOM     51  C   UNL     1       9.190  -2.236   6.414  1.00  0.00     0.031 C 
ATOM     52  C   UNL     1      11.806  -0.987   0.495  1.00  0.00     0.029 A 
ATOM     53  C   UNL     1      12.668  -0.835   1.654  1.00  0.00     0.049 A 
ATOM     54  H   UNL     1      12.079  -0.260   3.574  1.00  0.00     0.167 HD
ATOM     55  C   UNL     1      10.603  -0.629   7.788  1.00  0.00     0.037 A 
ATOM     56  C   UNL     1      13.998  -1.053   1.800  1.00  0.00     0.037 A 
ATOM     57  C   UNL     1      11.069   0.730   7.676  1.00  0.00     0.049 A 
ATOM     58  C   UNL     1      14.395  -0.472   3.116  1.00  0.00     0.074 A 
ATOM     59  C   UNL     1      10.440   1.954   7.553  1.00  0.00     0.029 A 
ATOM     60  N   UNL     1      12.375   0.941   7.301  1.00  0.00    -0.354 N 
ATOM     61  N   UNL     1      14.364   0.805   3.399  1.00  0.00    -0.248 NA
ATOM     62  C   UNL     1      14.393  -1.357   4.274  1.00  0.00     0.031 C 
ATOM     63  C   UNL     1      11.268   2.713   6.676  1.00  0.00     0.029 A 
ATOM     64  C   UNL     1      12.369   1.923   6.340  1.00  0.00     0.049 A 
ATOM     65  H   UNL     1      13.167   0.475   7.655  1.00  0.00     0.167 HD
ATOM     66  C   UNL     1      13.945   0.878   4.723  1.00  0.00     0.074 A 
ATOM     67  C   UNL     1      14.067  -0.485   5.232  1.00  0.00     0.031 C 
ATOM     68  C   UNL     1      13.271   1.966   5.206  1.00  0.00     0.037 A 
BRANCH  55  69
ATOM     69  C   UNL     1      11.163  -1.603   8.788  1.00  0.00     0.058 A 
ATOM     70  C   UNL     1      11.670  -1.126  10.011  1.00  0.00     0.135 A 
ATOM     71  C   UNL     1      11.443  -2.957   8.492  1.00  0.00     0.135 A 
ATOM     72  F   UNL     1      11.473   0.149  10.381  1.00  0.00    -0.206 F 
ATOM     73  C   UNL     1      12.450  -1.920  10.851  1.00  0.00     0.059 A 
ATOM     74  C   UNL     1      12.162  -3.783   9.345  1.00  0.00     0.059 A 
ATOM     75  F   UNL     1      11.122  -3.512   7.316  1.00  0.00    -0.206 F 
ATOM     76  C   UNL     1      12.703  -3.242  10.498  1.00  0.00     0.060 A 
BRANCH  76  77
ATOM     77  S   UNL     1      13.818  -4.233  11.507  1.00  0.00     0.124 S 
ATOM     78  O   UNL     1      15.110  -3.662  11.147  1.00  0.00    -0.237 OA
ATOM     79  O   UNL     1      13.345  -3.948  12.857  1.00  0.00    -0.237 OA
ATOM     80  O   UNL     1      13.572  -5.593  11.037  1.00  0.00    -0.744 OA
ENDBRANCH  76  77
ENDBRANCH  55  69
BRANCH  56  81
ATOM     81  C   UNL     1      14.799  -2.071   1.069  1.00  0.00     0.058 A 
ATOM     82  C   UNL     1      16.202  -2.052   1.094  1.00  0.00     0.135 A 
ATOM     83  C   UNL     1      14.206  -3.230   0.519  1.00  0.00     0.135 A 
ATOM     84  F   UNL     1      16.851  -1.008   1.632  1.00  0.00    -0.206 F 
ATOM     85  C   UNL     1      16.971  -3.124   0.624  1.00  0.00     0.059 A 
ATOM     86  C   UNL     1      14.948  -4.299   0.026  1.00  0.00     0.059 A 
ATOM     87  F   UNL     1      12.876  -3.403   0.524  1.00  0.00    -0.206 F 
ATOM     88  C   UNL     1      16.332  -4.250   0.101  1.00  0.00     0.060 A 
BRANCH  88  89
ATOM     89  S   UNL     1      17.309  -5.693  -0.376  1.00  0.00     0.124 S 
ATOM     90  O   UNL     1      18.032  -5.196  -1.541  1.00  0.00    -0.237 OA
ATOM     91  O   UNL     1      18.109  -5.930   0.821  1.00  0.00    -0.237 OA
ATOM     92  O   UNL     1      16.298  -6.710  -0.657  1.00  0.00    -0.744 OA
ENDBRANCH  88  89
ENDBRANCH  56  81
BRANCH  68  93
ATOM     93  C   UNL     1      13.223   3.218   4.364  1.00  0.00     0.058 A 
ATOM     94  C   UNL     1      12.577   3.295   3.118  1.00  0.00     0.135 A 
ATOM     95  C   UNL     1      13.672   4.425   4.924  1.00  0.00     0.135 A 
ATOM     96  F   UNL     1      12.018   2.211   2.565  1.00  0.00    -0.206 F 
ATOM     97  C   UNL     1      12.414   4.507   2.444  1.00  0.00     0.059 A 
ATOM     98  C   UNL     1      13.492   5.651   4.284  1.00  0.00     0.059 A 
ATOM     99  F   UNL     1      14.237   4.431   6.143  1.00  0.00    -0.206 F 
ATOM    100  C   UNL     1      12.869   5.682   3.038  1.00  0.00     0.060 A 
BRANCH 100 101
ATOM    101  S   UNL     1      12.544   7.260   2.219  1.00  0.00     0.124 S 
ATOM    102  O   UNL     1      13.512   7.242   1.127  1.00  0.00    -0.237 OA
ATOM    103  O   UNL     1      11.143   7.133   1.826  1.00  0.00    -0.237 OA
ATOM    104  O   UNL     1      12.800   8.246   3.265  1.00  0.00    -0.744 OA
ENDBRANCH 100 101
ENDBRANCH  68  93
ENDBRANCH  42  43
ENDBRANCH  35  37
ENDBRANCH  34  35
ENDBRANCH  33  34
ENDBRANCH  32  33
ENDBRANCH  31  32
ENDBRANCH  30  31
ENDBRANCH   1  30
TORSDOF 25
