REMARK SMILES CC(=O)N[C@@H](Cc1c(OCC(C)C)ccc2ccccc12)C(=O)OCCOCCOCCOC(=O)c1ccc(-c2c3nc(c(-c4c(F)cc(S(=O)(=O)[O-])cc4F)c4ccc([nH]4)c(-c4c(F)cc(S(=O)(=O)[O-])cc4F)c4nc(c(-c5c(F)cc(S(=O)(=O)[O-])cc5F)c5ccc2[nH]5)C=C4)C=C3)cc1
REMARK SMILES IDX 28 1 27 2 26 3 25 4 24 5 22 6 23 7 5 8 4 9 1 10 2 11 3 12
REMARK SMILES IDX 6 14 7 15 8 16 21 17 14 18 16 19 20 20 15 21 17 22 19 23
REMARK SMILES IDX 18 24 9 25 10 26 11 27 12 28 13 29 29 30 30 31 31 32 32 33
REMARK SMILES IDX 33 34 34 35 35 36 36 37 37 38 101 39 38 40 100 41 39 42
REMARK SMILES IDX 40 43 41 44 94 45 42 46 99 47 93 48 95 49 43 50 98 51 92 52
REMARK SMILES IDX 91 53 44 55 78 56 57 57 77 58 58 59 61 60 76 61 96 62 59 63
REMARK SMILES IDX 60 64 75 66 97 67 62 68 45 69 46 70 55 71 47 72 48 73 54 74
REMARK SMILES IDX 56 75 49 76 50 77 51 78 52 79 53 80 79 81 80 82 89 83 81 84
REMARK SMILES IDX 82 85 88 86 90 87 83 88 84 89 85 90 86 91 87 92 63 93 64 94
REMARK SMILES IDX 73 95 65 96 66 97 72 98 74 99 67 100 68 101 69 102 70 103
REMARK SMILES IDX 71 104
REMARK H PARENT 4 13 95 54 61 65
REMARK Flexibility Score: inf
ROOT
ATOM      1  C   UNL     1      -1.091  -2.679  -3.143  1.00  0.00     0.188 C 
ENDROOT
BRANCH   1   2
ATOM      2  O   UNL     1      -1.246  -3.764  -4.050  1.00  0.00    -0.376 OA
BRANCH   2   3
ATOM      3  C   UNL     1      -0.904  -5.079  -3.632  1.00  0.00     0.202 C 
BRANCH   3   4
ATOM      4  C   UNL     1       0.474  -5.336  -3.000  1.00  0.00     0.261 C 
BRANCH   4   5
ATOM      5  O   UNL     1       0.820  -4.488  -1.885  1.00  0.00    -0.462 OA
BRANCH   5   6
ATOM      6  C   UNL     1       1.889  -3.663  -2.054  1.00  0.00     0.329 C 
ATOM      7  O   UNL     1       2.567  -3.612  -3.077  1.00  0.00    -0.250 OA
BRANCH   6   8
ATOM      8  C   UNL     1       2.272  -2.865  -0.790  1.00  0.00     0.196 C 
BRANCH   8   9
ATOM      9  N   UNL     1       1.220  -2.551   0.179  1.00  0.00    -0.343 N 
ATOM     10  C   UNL     1       1.447  -0.096   0.134  1.00  0.00     0.114 C 
ATOM     11  C   UNL     1       0.852  -1.351   0.708  1.00  0.00     0.217 C 
ATOM     12  O   UNL     1       0.027  -1.315   1.619  1.00  0.00    -0.275 OA
ATOM     13  H   UNL     1       0.701  -3.324   0.496  1.00  0.00     0.164 HD
ENDBRANCH   8   9
BRANCH   8  14
ATOM     14  C   UNL     1       3.425  -3.577  -0.062  1.00  0.00     0.077 C 
BRANCH  14  15
ATOM     15  C   UNL     1       3.148  -5.012   0.394  1.00  0.00     0.005 A 
ATOM     16  C   UNL     1       2.491  -5.248   1.628  1.00  0.00     0.123 A 
ATOM     17  C   UNL     1       3.531  -6.127  -0.424  1.00  0.00    -0.011 A 
ATOM     18  C   UNL     1       2.433  -6.539   2.140  1.00  0.00     0.047 A 
ATOM     19  C   UNL     1       3.295  -7.436   0.062  1.00  0.00    -0.018 A 
ATOM     20  C   UNL     1       4.099  -6.029  -1.719  1.00  0.00     0.009 A 
ATOM     21  C   UNL     1       2.808  -7.623   1.356  1.00  0.00     0.012 A 
ATOM     22  C   UNL     1       3.541  -8.557  -0.747  1.00  0.00     0.009 A 
ATOM     23  C   UNL     1       4.325  -7.149  -2.522  1.00  0.00     0.001 A 
ATOM     24  C   UNL     1       4.031  -8.415  -2.041  1.00  0.00     0.001 A 
BRANCH  16  25
ATOM     25  O   UNL     1       1.882  -4.181   2.228  1.00  0.00    -0.493 OA
BRANCH  25  26
ATOM     26  C   UNL     1       0.994  -4.352   3.341  1.00  0.00     0.232 C 
BRANCH  26  27
ATOM     27  C   UNL     1      -0.470  -4.742   3.006  1.00  0.00     0.020 C 
ATOM     28  C   UNL     1      -0.654  -6.116   2.360  1.00  0.00     0.011 C 
ATOM     29  C   UNL     1      -1.307  -4.701   4.292  1.00  0.00     0.011 C 
ENDBRANCH  26  27
ENDBRANCH  25  26
ENDBRANCH  16  25
ENDBRANCH  14  15
ENDBRANCH   8  14
ENDBRANCH   6   8
ENDBRANCH   5   6
ENDBRANCH   4   5
ENDBRANCH   3   4
ENDBRANCH   2   3
ENDBRANCH   1   2
BRANCH   1  30
ATOM     30  C   UNL     1      -1.485  -2.870  -1.668  1.00  0.00     0.188 C 
BRANCH  30  31
ATOM     31  O   UNL     1      -2.045  -4.120  -1.359  1.00  0.00    -0.376 OA
BRANCH  31  32
ATOM     32  C   UNL     1      -3.429  -4.196  -1.094  1.00  0.00     0.202 C 
BRANCH  32  33
ATOM     33  C   UNL     1      -4.463  -3.343  -1.853  1.00  0.00     0.261 C 
BRANCH  33  34
ATOM     34  O   UNL     1      -4.027  -2.105  -2.433  1.00  0.00    -0.460 OA
BRANCH  34  35
ATOM     35  C   UNL     1      -4.068  -1.001  -1.649  1.00  0.00     0.338 C 
ATOM     36  O   UNL     1      -4.431  -0.944  -0.483  1.00  0.00    -0.246 OA
BRANCH  35  37
ATOM     37  C   UNL     1      -3.406   0.102  -2.382  1.00  0.00     0.060 A 
ATOM     38  C   UNL     1      -2.181   0.615  -1.922  1.00  0.00     0.016 A 
ATOM     39  C   UNL     1      -3.998   0.623  -3.531  1.00  0.00     0.016 A 
ATOM     40  C   UNL     1      -1.554   1.663  -2.604  1.00  0.00     0.010 A 
ATOM     41  C   UNL     1      -3.387   1.691  -4.192  1.00  0.00     0.010 A 
ATOM     42  C   UNL     1      -2.178   2.236  -3.719  1.00  0.00    -0.014 A 
BRANCH  42  43
ATOM     43  C   UNL     1      -1.725   3.535  -4.276  1.00  0.00     0.031 A 
ATOM     44  C   UNL     1      -2.471   4.772  -3.856  1.00  0.00     0.074 A 
ATOM     45  C   UNL     1      -0.729   3.622  -5.176  1.00  0.00     0.049 A 
ATOM     46  N   UNL     1      -2.441   5.977  -4.359  1.00  0.00    -0.248 NA
ATOM     47  C   UNL     1      -3.392   4.614  -2.717  1.00  0.00     0.031 C 
ATOM     48  C   UNL     1       0.120   2.517  -5.612  1.00  0.00     0.029 A 
ATOM     49  N   UNL     1      -0.288   4.698  -5.909  1.00  0.00    -0.354 N 
ATOM     50  C   UNL     1      -3.359   6.715  -3.620  1.00  0.00     0.074 A 
ATOM     51  C   UNL     1      -3.942   5.816  -2.648  1.00  0.00     0.031 C 
ATOM     52  C   UNL     1       0.963   2.965  -6.561  1.00  0.00     0.029 A 
ATOM     53  C   UNL     1       0.673   4.372  -6.838  1.00  0.00     0.049 A 
ATOM     54  H   UNL     1      -0.627   5.613  -5.782  1.00  0.00     0.167 HD
ATOM     55  C   UNL     1      -3.690   8.022  -3.745  1.00  0.00     0.037 A 
ATOM     56  C   UNL     1       1.220   5.114  -7.824  1.00  0.00     0.037 A 
ATOM     57  C   UNL     1      -3.110   8.904  -4.723  1.00  0.00     0.049 A 
ATOM     58  C   UNL     1       0.770   6.543  -8.014  1.00  0.00     0.074 A 
ATOM     59  C   UNL     1      -3.376  10.244  -4.940  1.00  0.00     0.029 A 
ATOM     60  N   UNL     1      -2.150   8.532  -5.655  1.00  0.00    -0.354 N 
ATOM     61  N   UNL     1      -0.112   7.231  -7.327  1.00  0.00    -0.248 NA
ATOM     62  C   UNL     1       1.385   7.296  -9.117  1.00  0.00     0.031 C 
ATOM     63  C   UNL     1      -2.620  10.668  -6.037  1.00  0.00     0.029 A 
ATOM     64  C   UNL     1      -1.829   9.611  -6.460  1.00  0.00     0.049 A 
ATOM     65  H   UNL     1      -1.757   7.633  -5.731  1.00  0.00     0.167 HD
ATOM     66  C   UNL     1      -0.123   8.507  -7.885  1.00  0.00     0.074 A 
ATOM     67  C   UNL     1       0.835   8.494  -8.970  1.00  0.00     0.031 C 
ATOM     68  C   UNL     1      -0.852   9.592  -7.523  1.00  0.00     0.037 A 
BRANCH  55  69
ATOM     69  C   UNL     1      -4.760   8.557  -2.832  1.00  0.00     0.058 A 
ATOM     70  C   UNL     1      -4.554   8.703  -1.450  1.00  0.00     0.135 A 
ATOM     71  C   UNL     1      -6.011   8.931  -3.349  1.00  0.00     0.135 A 
ATOM     72  F   UNL     1      -3.384   8.343  -0.899  1.00  0.00    -0.206 F 
ATOM     73  C   UNL     1      -5.563   9.161  -0.609  1.00  0.00     0.059 A 
ATOM     74  C   UNL     1      -7.023   9.425  -2.531  1.00  0.00     0.059 A 
ATOM     75  F   UNL     1      -6.265   8.811  -4.662  1.00  0.00    -0.206 F 
ATOM     76  C   UNL     1      -6.796   9.517  -1.159  1.00  0.00     0.060 A 
BRANCH  76  77
ATOM     77  S   UNL     1      -8.099  10.095  -0.053  1.00  0.00     0.124 S 
ATOM     78  O   UNL     1      -8.465   8.861   0.636  1.00  0.00    -0.237 OA
ATOM     79  O   UNL     1      -7.402  11.089   0.757  1.00  0.00    -0.237 OA
ATOM     80  O   UNL     1      -9.108  10.628  -0.963  1.00  0.00    -0.744 OA
ENDBRANCH  76  77
ENDBRANCH  55  69
BRANCH  56  81
ATOM     81  C   UNL     1       2.246   4.517  -8.725  1.00  0.00     0.058 A 
ATOM     82  C   UNL     1       3.579   4.952  -8.683  1.00  0.00     0.135 A 
ATOM     83  C   UNL     1       1.920   3.503  -9.639  1.00  0.00     0.135 A 
ATOM     84  F   UNL     1       3.939   5.932  -7.840  1.00  0.00    -0.206 F 
ATOM     85  C   UNL     1       4.551   4.408  -9.517  1.00  0.00     0.059 A 
ATOM     86  C   UNL     1       2.880   2.923 -10.464  1.00  0.00     0.059 A 
ATOM     87  F   UNL     1       0.660   3.049  -9.720  1.00  0.00    -0.206 F 
ATOM     88  C   UNL     1       4.193   3.387 -10.399  1.00  0.00     0.060 A 
BRANCH  88  89
ATOM     89  S   UNL     1       5.480   2.645 -11.428  1.00  0.00     0.124 S 
ATOM     90  O   UNL     1       5.772   3.728 -12.361  1.00  0.00    -0.237 OA
ATOM     91  O   UNL     1       6.520   2.349 -10.447  1.00  0.00    -0.237 OA
ATOM     92  O   UNL     1       4.819   1.478 -12.003  1.00  0.00    -0.744 OA
ENDBRANCH  88  89
ENDBRANCH  56  81
BRANCH  68  93
ATOM     93  C   UNL     1      -0.601  10.889  -8.248  1.00  0.00     0.058 A 
ATOM     94  C   UNL     1      -1.030  11.106  -9.566  1.00  0.00     0.135 A 
ATOM     95  C   UNL     1       0.003  11.963  -7.572  1.00  0.00     0.135 A 
ATOM     96  F   UNL     1      -1.607  10.113 -10.262  1.00  0.00    -0.206 F 
ATOM     97  C   UNL     1      -0.859  12.338 -10.192  1.00  0.00     0.059 A 
ATOM     98  C   UNL     1       0.156  13.211  -8.167  1.00  0.00     0.059 A 
ATOM     99  F   UNL     1       0.423  11.814  -6.306  1.00  0.00    -0.206 F 
ATOM    100  C   UNL     1      -0.273  13.388  -9.481  1.00  0.00     0.060 A 
BRANCH 100 101
ATOM    101  S   UNL     1      -0.114  14.997 -10.285  1.00  0.00     0.124 S 
ATOM    102  O   UNL     1       0.939  14.737 -11.261  1.00  0.00    -0.237 OA
ATOM    103  O   UNL     1      -1.450  15.204 -10.833  1.00  0.00    -0.237 OA
ATOM    104  O   UNL     1       0.254  15.890  -9.190  1.00  0.00    -0.744 OA
ENDBRANCH 100 101
ENDBRANCH  68  93
ENDBRANCH  42  43
ENDBRANCH  35  37
ENDBRANCH  34  35
ENDBRANCH  33  34
ENDBRANCH  32  33
ENDBRANCH  31  32
ENDBRANCH  30  31
ENDBRANCH   1  30
TORSDOF 26
