REMARK SMILES NS(=O)(=O)c1ccc(-n2nc(C(=O)OCCOCCOCCOC(=O)c3ccc(-c4c5nc(c(-c6c(F)cc(S(=O)(=O)[O-])cc6F)c6ccc([nH]6)c(-c6c(F)cc(S(=O)(=O)[O-])cc6F)c6nc(c(-c7c(F)cc(S(=O)(=O)[O-])cc7F)c7ccc4[nH]7)C=C6)C=C5)cc3)cc2-c2cc3ccccc3s2)cc1
REMARK SMILES IDX 18 1 17 2 16 3 15 4 14 5 12 6 13 7 11 8 9 9 10 10 93 11
REMARK SMILES IDX 92 12 8 13 5 14 6 15 104 16 7 17 103 18 2 19 3 20 4 21 1 22
REMARK SMILES IDX 94 25 95 26 102 27 96 28 101 29 97 30 100 31 98 32 99 33
REMARK SMILES IDX 19 34 20 35 21 36 22 37 23 38 24 39 25 40 26 41 27 42 91 43
REMARK SMILES IDX 28 44 90 45 29 46 30 47 31 48 84 49 32 50 89 51 83 52 85 53
REMARK SMILES IDX 33 54 88 55 82 56 81 57 34 59 68 60 47 61 67 62 48 63 51 64
REMARK SMILES IDX 66 65 86 66 49 67 50 68 65 70 87 71 52 72 35 73 36 74 45 75
REMARK SMILES IDX 37 76 38 77 44 78 46 79 39 80 40 81 41 82 42 83 43 84 69 85
REMARK SMILES IDX 70 86 79 87 71 88 72 89 78 90 80 91 73 92 74 93 75 94 76 95
REMARK SMILES IDX 77 96 53 97 54 98 63 99 55 100 56 101 62 102 64 103 57 104
REMARK SMILES IDX 58 105 59 106 60 107 61 108
REMARK H PARENT 1 23 1 24 85 58 51 69
REMARK Flexibility Score: inf
ROOT
ATOM      1  C   UNL     1       1.323  -3.842  10.670  1.00  0.00     0.188 C 
ENDROOT
BRANCH   1   2
ATOM      2  O   UNL     1       0.599  -4.561  11.662  1.00  0.00    -0.376 OA
BRANCH   2   3
ATOM      3  C   UNL     1       0.591  -5.980  11.676  1.00  0.00     0.202 C 
BRANCH   3   4
ATOM      4  C   UNL     1       0.205  -6.777  10.416  1.00  0.00     0.261 C 
BRANCH   4   5
ATOM      5  O   UNL     1       0.817  -6.334   9.201  1.00  0.00    -0.458 OA
BRANCH   5   6
ATOM      6  C   UNL     1       0.055  -5.561   8.370  1.00  0.00     0.358 C 
ATOM      7  O   UNL     1      -1.150  -5.386   8.502  1.00  0.00    -0.244 OA
BRANCH   6   8
ATOM      8  C   UNL     1       0.873  -4.952   7.310  1.00  0.00     0.171 A 
ATOM      9  N   UNL     1       1.408  -3.803   5.583  1.00  0.00    -0.231 N 
ATOM     10  N   UNL     1       0.536  -3.843   6.628  1.00  0.00    -0.160 NA
ATOM     11  C   UNL     1       2.271  -4.875   5.607  1.00  0.00     0.085 A 
ATOM     12  C   UNL     1       2.127  -5.416   6.871  1.00  0.00     0.068 A 
BRANCH   9  13
ATOM     13  C   UNL     1       1.260  -2.793   4.615  1.00  0.00     0.065 A 
ATOM     14  C   UNL     1       0.795  -0.779   2.772  1.00  0.00     0.082 A 
ATOM     15  C   UNL     1       0.774  -2.118   2.361  1.00  0.00     0.024 A 
ATOM     16  C   UNL     1       1.063  -0.437   4.101  1.00  0.00     0.024 A 
ATOM     17  C   UNL     1       1.033  -3.132   3.281  1.00  0.00     0.030 A 
ATOM     18  C   UNL     1       1.262  -1.453   5.036  1.00  0.00     0.030 A 
BRANCH  14  19
ATOM     19  S   UNL     1       0.491   0.503   1.596  1.00  0.00     0.238 S 
ATOM     20  O   UNL     1       1.211   1.683   1.967  1.00  0.00    -0.207 OA
ATOM     21  O   UNL     1      -0.929   0.505   1.279  1.00  0.00    -0.207 OA
BRANCH  19  22
ATOM     22  N   UNL     1       1.259  -0.063   0.209  1.00  0.00    -0.225 NA
ATOM     23  H   UNL     1       1.143   0.614  -0.545  1.00  0.00     0.137 HD
ATOM     24  H   UNL     1       0.848  -0.955  -0.068  1.00  0.00     0.137 HD
ENDBRANCH  19  22
ENDBRANCH  14  19
ENDBRANCH   9  13
BRANCH  11  25
ATOM     25  C   UNL     1       3.032  -5.502   4.555  1.00  0.00     0.054 A 
ATOM     26  C   UNL     1       4.403  -5.754   4.551  1.00  0.00     0.031 A 
ATOM     27  S   UNL     1       2.339  -7.006   3.964  1.00  0.00    -0.134 S 
ATOM     28  C   UNL     1       4.582  -7.066   5.165  1.00  0.00    -0.007 A 
ATOM     29  C   UNL     1       3.388  -7.801   5.104  1.00  0.00     0.035 A 
ATOM     30  C   UNL     1       5.647  -7.596   5.925  1.00  0.00     0.009 A 
ATOM     31  C   UNL     1       3.150  -8.926   5.906  1.00  0.00     0.019 A 
ATOM     32  C   UNL     1       5.413  -8.706   6.747  1.00  0.00     0.001 A 
ATOM     33  C   UNL     1       4.167  -9.328   6.773  1.00  0.00     0.001 A 
ENDBRANCH  11  25
ENDBRANCH   6   8
ENDBRANCH   5   6
ENDBRANCH   4   5
ENDBRANCH   3   4
ENDBRANCH   2   3
ENDBRANCH   1   2
BRANCH   1  34
ATOM     34  C   UNL     1       2.702  -4.336  10.172  1.00  0.00     0.188 C 
BRANCH  34  35
ATOM     35  O   UNL     1       3.057  -5.639  10.593  1.00  0.00    -0.376 OA
BRANCH  35  36
ATOM     36  C   UNL     1       4.117  -5.815  11.524  1.00  0.00     0.202 C 
BRANCH  36  37
ATOM     37  C   UNL     1       4.148  -5.022  12.831  1.00  0.00     0.261 C 
BRANCH  37  38
ATOM     38  O   UNL     1       3.570  -3.736  12.757  1.00  0.00    -0.460 OA
BRANCH  38  39
ATOM     39  C   UNL     1       4.343  -2.799  12.174  1.00  0.00     0.338 C 
ATOM     40  O   UNL     1       5.396  -2.973  11.587  1.00  0.00    -0.246 OA
BRANCH  39  41
ATOM     41  C   UNL     1       3.693  -1.504  12.377  1.00  0.00     0.060 A 
ATOM     42  C   UNL     1       4.195  -0.425  11.646  1.00  0.00     0.016 A 
ATOM     43  C   UNL     1       2.921  -1.349  13.534  1.00  0.00     0.016 A 
ATOM     44  C   UNL     1       4.201   0.802  12.258  1.00  0.00     0.010 A 
ATOM     45  C   UNL     1       2.974  -0.142  14.165  1.00  0.00     0.010 A 
ATOM     46  C   UNL     1       3.711   0.876  13.563  1.00  0.00    -0.014 A 
BRANCH  46  47
ATOM     47  C   UNL     1       3.987   2.063  14.333  1.00  0.00     0.031 A 
ATOM     48  C   UNL     1       2.999   3.125  14.074  1.00  0.00     0.074 A 
ATOM     49  C   UNL     1       4.953   2.052  15.271  1.00  0.00     0.049 A 
ATOM     50  N   UNL     1       3.165   4.220  13.412  1.00  0.00    -0.248 NA
ATOM     51  C   UNL     1       1.588   2.808  14.364  1.00  0.00     0.031 C 
ATOM     52  C   UNL     1       5.728   0.896  15.744  1.00  0.00     0.029 A 
ATOM     53  N   UNL     1       5.364   3.046  16.098  1.00  0.00    -0.354 N 
ATOM     54  C   UNL     1       1.925   4.848  13.468  1.00  0.00     0.074 A 
ATOM     55  C   UNL     1       0.970   3.821  13.761  1.00  0.00     0.031 C 
ATOM     56  C   UNL     1       6.324   1.209  16.917  1.00  0.00     0.029 A 
ATOM     57  C   UNL     1       6.071   2.608  17.212  1.00  0.00     0.049 A 
ATOM     58  H   UNL     1       5.176   3.997  15.925  1.00  0.00     0.167 HD
ATOM     59  C   UNL     1       1.841   6.191  13.668  1.00  0.00     0.037 A 
ATOM     60  C   UNL     1       6.325   3.339  18.328  1.00  0.00     0.037 A 
ATOM     61  C   UNL     1       3.105   6.825  13.372  1.00  0.00     0.049 A 
ATOM     62  C   UNL     1       6.117   4.767  17.963  1.00  0.00     0.074 A 
ATOM     63  C   UNL     1       3.906   6.947  12.255  1.00  0.00     0.029 A 
ATOM     64  N   UNL     1       3.892   7.133  14.455  1.00  0.00    -0.354 N 
ATOM     65  N   UNL     1       6.860   5.418  17.109  1.00  0.00    -0.248 NA
ATOM     66  C   UNL     1       4.811   5.360  18.220  1.00  0.00     0.031 C 
ATOM     67  C   UNL     1       5.244   6.978  12.745  1.00  0.00     0.029 A 
ATOM     68  C   UNL     1       5.207   6.921  14.140  1.00  0.00     0.049 A 
ATOM     69  H   UNL     1       3.562   7.456  15.324  1.00  0.00     0.167 HD
ATOM     70  C   UNL     1       5.980   6.240  16.419  1.00  0.00     0.074 A 
ATOM     71  C   UNL     1       4.766   6.255  17.229  1.00  0.00     0.031 C 
ATOM     72  C   UNL     1       6.222   6.582  15.119  1.00  0.00     0.037 A 
BRANCH  59  73
ATOM     73  C   UNL     1       0.813   6.846  14.578  1.00  0.00     0.058 A 
ATOM     74  C   UNL     1       0.814   8.253  14.676  1.00  0.00     0.135 A 
ATOM     75  C   UNL     1       0.047   6.179  15.565  1.00  0.00     0.135 A 
ATOM     76  F   UNL     1       1.486   8.999  13.784  1.00  0.00    -0.206 F 
ATOM     77  C   UNL     1       0.208   8.931  15.734  1.00  0.00     0.059 A 
ATOM     78  C   UNL     1      -0.607   6.839  16.596  1.00  0.00     0.059 A 
ATOM     79  F   UNL     1      -0.049   4.849  15.652  1.00  0.00    -0.206 F 
ATOM     80  C   UNL     1      -0.479   8.209  16.703  1.00  0.00     0.060 A 
BRANCH  80  81
ATOM     81  S   UNL     1      -1.155   9.057  18.137  1.00  0.00     0.124 S 
ATOM     82  O   UNL     1       0.061   9.456  18.835  1.00  0.00    -0.237 OA
ATOM     83  O   UNL     1      -1.923  10.131  17.515  1.00  0.00    -0.237 OA
ATOM     84  O   UNL     1      -1.952   8.024  18.793  1.00  0.00    -0.744 OA
ENDBRANCH  80  81
ENDBRANCH  59  73
BRANCH  60  85
ATOM     85  C   UNL     1       6.362   2.869  19.740  1.00  0.00     0.058 A 
ATOM     86  C   UNL     1       6.886   3.677  20.765  1.00  0.00     0.135 A 
ATOM     87  C   UNL     1       5.640   1.732  20.159  1.00  0.00     0.135 A 
ATOM     88  F   UNL     1       7.566   4.793  20.461  1.00  0.00    -0.206 F 
ATOM     89  C   UNL     1       6.671   3.399  22.121  1.00  0.00     0.059 A 
ATOM     90  C   UNL     1       5.424   1.428  21.502  1.00  0.00     0.059 A 
ATOM     91  F   UNL     1       5.041   0.925  19.270  1.00  0.00    -0.206 F 
ATOM     92  C   UNL     1       5.922   2.279  22.480  1.00  0.00     0.060 A 
BRANCH  92  93
ATOM     93  S   UNL     1       5.508   1.999  24.218  1.00  0.00     0.124 S 
ATOM     94  O   UNL     1       6.806   1.653  24.786  1.00  0.00    -0.237 OA
ATOM     95  O   UNL     1       4.960   3.290  24.618  1.00  0.00    -0.237 OA
ATOM     96  O   UNL     1       4.540   0.905  24.164  1.00  0.00    -0.744 OA
ENDBRANCH  92  93
ENDBRANCH  60  85
BRANCH  72  97
ATOM     97  C   UNL     1       7.627   6.415  14.602  1.00  0.00     0.058 A 
ATOM     98  C   UNL     1       8.274   5.181  14.415  1.00  0.00     0.135 A 
ATOM     99  C   UNL     1       8.292   7.564  14.149  1.00  0.00     0.135 A 
ATOM    100  F   UNL     1       7.666   4.029  14.733  1.00  0.00    -0.206 F 
ATOM    101  C   UNL     1       9.542   5.099  13.835  1.00  0.00     0.059 A 
ATOM    102  C   UNL     1       9.540   7.503  13.539  1.00  0.00     0.059 A 
ATOM    103  F   UNL     1       7.700   8.765  14.248  1.00  0.00    -0.206 F 
ATOM    104  C   UNL     1      10.166   6.268  13.397  1.00  0.00     0.060 A 
BRANCH 104 105
ATOM    105  S   UNL     1      11.770   6.158  12.574  1.00  0.00     0.124 S 
ATOM    106  O   UNL     1      12.660   5.815  13.678  1.00  0.00    -0.237 OA
ATOM    107  O   UNL     1      11.549   5.105  11.587  1.00  0.00    -0.237 OA
ATOM    108  O   UNL     1      11.959   7.494  12.012  1.00  0.00    -0.744 OA
ENDBRANCH 104 105
ENDBRANCH  72  97
ENDBRANCH  46  47
ENDBRANCH  39  41
ENDBRANCH  38  39
ENDBRANCH  37  38
ENDBRANCH  36  37
ENDBRANCH  35  36
ENDBRANCH  34  35
ENDBRANCH   1  34
TORSDOF 24
