REMARK SMILES O=C(NC[C@@H]1CCOC1)NC[C@@H]1CC[C@H](C(=O)OCCOCCOCCOC(=O)c2ccc(-c3c4nc(c(-c5c(F)cc(S(=O)(=O)[O-])cc5F)c5ccc([nH]5)c(-c5c(F)cc(S(=O)(=O)[O-])cc5F)c5nc(c(-c6c(F)cc(S(=O)(=O)[O-])cc6F)c6ccc3[nH]6)C=C5)C=C4)cc2)O1
REMARK SMILES IDX 22 1 21 2 20 3 19 4 18 5 16 6 17 7 15 8 12 9 13 10 96 11
REMARK SMILES IDX 14 12 11 13 10 14 1 15 2 16 3 17 4 20 5 21 6 22 9 23 7 24
REMARK SMILES IDX 8 25 23 26 24 27 25 28 26 29 27 30 28 31 29 32 30 33 31 34
REMARK SMILES IDX 95 35 32 36 94 37 33 38 34 39 35 40 88 41 36 42 93 43 87 44
REMARK SMILES IDX 89 45 37 46 92 47 86 48 85 49 38 51 72 52 51 53 71 54 52 55
REMARK SMILES IDX 55 56 70 57 90 58 53 59 54 60 69 62 91 63 56 64 39 65 40 66
REMARK SMILES IDX 49 67 41 68 42 69 48 70 50 71 43 72 44 73 45 74 46 75 47 76
REMARK SMILES IDX 73 77 74 78 83 79 75 80 76 81 82 82 84 83 77 84 78 85 79 86
REMARK SMILES IDX 80 87 81 88 57 89 58 90 67 91 59 92 60 93 66 94 68 95 61 96
REMARK SMILES IDX 62 97 63 98 64 99 65 100
REMARK H PARENT 3 18 10 19 89 50 55 61
REMARK Flexibility Score: inf
ROOT
ATOM      1  C   UNL     1      -1.425   3.601  -4.621  1.00  0.00     0.188 C 
ENDROOT
BRANCH   1   2
ATOM      2  O   UNL     1      -2.509   3.567  -3.700  1.00  0.00    -0.376 OA
BRANCH   2   3
ATOM      3  C   UNL     1      -2.250   2.975  -2.423  1.00  0.00     0.202 C 
BRANCH   3   4
ATOM      4  C   UNL     1      -1.542   1.608  -2.410  1.00  0.00     0.261 C 
BRANCH   4   5
ATOM      5  O   UNL     1      -0.220   1.624  -2.999  1.00  0.00    -0.461 OA
BRANCH   5   6
ATOM      6  C   UNL     1       0.052   0.612  -3.865  1.00  0.00     0.335 C 
ATOM      7  O   UNL     1      -0.721  -0.313  -4.102  1.00  0.00    -0.249 OA
BRANCH   6   8
ATOM      8  C   UNL     1       1.412   0.736  -4.580  1.00  0.00     0.228 C 
ATOM      9  C   UNL     1       3.004  -0.376  -3.299  1.00  0.00     0.138 C 
ATOM     10  C   UNL     1       3.135   1.117  -3.008  1.00  0.00     0.037 C 
ATOM     11  O   UNL     1       2.126  -0.508  -4.432  1.00  0.00    -0.361 OA
ATOM     12  C   UNL     1       2.421   1.779  -4.150  1.00  0.00     0.047 C 
BRANCH   9  13
ATOM     13  C   UNL     1       2.470  -1.190  -2.107  1.00  0.00     0.149 C 
BRANCH  13  14
ATOM     14  N   UNL     1       3.102  -0.804  -0.856  1.00  0.00    -0.336 N 
ATOM     15  O   UNL     1       1.238   0.172   0.031  1.00  0.00    -0.249 OA
ATOM     16  C   UNL     1       2.441  -0.069   0.074  1.00  0.00     0.314 C 
ATOM     17  N   UNL     1       3.170   0.470   1.077  1.00  0.00    -0.338 N 
ATOM     18  H   UNL     1       2.652   1.051   1.680  1.00  0.00     0.165 HD
ATOM     19  H   UNL     1       4.030  -1.081  -0.680  1.00  0.00     0.165 HD
BRANCH  17  20
ATOM     20  C   UNL     1       4.571   0.353   1.433  1.00  0.00     0.123 C 
BRANCH  20  21
ATOM     21  C   UNL     1       5.351   1.674   1.418  1.00  0.00     0.036 C 
ATOM     22  C   UNL     1       4.666   2.859   2.080  1.00  0.00     0.036 C 
ATOM     23  C   UNL     1       5.696   2.171   0.019  1.00  0.00     0.165 C 
ATOM     24  C   UNL     1       4.286   3.757   0.924  1.00  0.00     0.160 C 
ATOM     25  O   UNL     1       5.280   3.536  -0.075  1.00  0.00    -0.381 OA
ENDBRANCH  20  21
ENDBRANCH  17  20
ENDBRANCH  13  14
ENDBRANCH   9  13
ENDBRANCH   6   8
ENDBRANCH   5   6
ENDBRANCH   4   5
ENDBRANCH   3   4
ENDBRANCH   2   3
ENDBRANCH   1   2
BRANCH   1  26
ATOM     26  C   UNL     1      -0.207   4.421  -4.183  1.00  0.00     0.188 C 
BRANCH  26  27
ATOM     27  O   UNL     1       0.048   4.378  -2.795  1.00  0.00    -0.376 OA
BRANCH  27  28
ATOM     28  C   UNL     1       0.452   5.543  -2.086  1.00  0.00     0.202 C 
BRANCH  28  29
ATOM     29  C   UNL     1      -0.151   6.934  -2.389  1.00  0.00     0.261 C 
BRANCH  29  30
ATOM     30  O   UNL     1      -0.197   7.370  -3.758  1.00  0.00    -0.460 OA
BRANCH  30  31
ATOM     31  C   UNL     1       0.966   7.394  -4.452  1.00  0.00     0.338 C 
ATOM     32  O   UNL     1       2.088   7.297  -3.982  1.00  0.00    -0.246 OA
BRANCH  31  33
ATOM     33  C   UNL     1       0.631   7.252  -5.898  1.00  0.00     0.060 A 
ATOM     34  C   UNL     1       1.316   6.279  -6.643  1.00  0.00     0.016 A 
ATOM     35  C   UNL     1      -0.412   7.970  -6.492  1.00  0.00     0.016 A 
ATOM     36  C   UNL     1       0.984   6.045  -7.982  1.00  0.00     0.010 A 
ATOM     37  C   UNL     1      -0.729   7.751  -7.840  1.00  0.00     0.010 A 
ATOM     38  C   UNL     1      -0.014   6.808  -8.602  1.00  0.00    -0.014 A 
BRANCH  38  39
ATOM     39  C   UNL     1      -0.170   6.787 -10.082  1.00  0.00     0.031 A 
ATOM     40  C   UNL     1       0.502   7.878 -10.874  1.00  0.00     0.074 A 
ATOM     41  C   UNL     1      -0.882   5.839 -10.720  1.00  0.00     0.049 A 
ATOM     42  N   UNL     1       0.437   8.142 -12.153  1.00  0.00    -0.248 NA
ATOM     43  C   UNL     1       1.361   8.800 -10.112  1.00  0.00     0.031 C 
ATOM     44  C   UNL     1      -1.539   4.698 -10.086  1.00  0.00     0.029 A 
ATOM     45  N   UNL     1      -1.183   5.700 -12.055  1.00  0.00    -0.354 N 
ATOM     46  C   UNL     1       1.233   9.265 -12.347  1.00  0.00     0.074 A 
ATOM     47  C   UNL     1       1.749   9.649 -11.052  1.00  0.00     0.031 C 
ATOM     48  C   UNL     1      -2.183   3.986 -11.030  1.00  0.00     0.029 A 
ATOM     49  C   UNL     1      -2.018   4.641 -12.329  1.00  0.00     0.049 A 
ATOM     50  H   UNL     1      -0.835   6.303 -12.751  1.00  0.00     0.167 HD
ATOM     51  C   UNL     1       1.515   9.916 -13.500  1.00  0.00     0.037 A 
ATOM     52  C   UNL     1      -2.604   4.263 -13.484  1.00  0.00     0.037 A 
ATOM     53  C   UNL     1       0.998   9.537 -14.789  1.00  0.00     0.049 A 
ATOM     54  C   UNL     1      -2.348   5.056 -14.745  1.00  0.00     0.074 A 
ATOM     55  C   UNL     1       1.236  10.129 -16.017  1.00  0.00     0.029 A 
ATOM     56  N   UNL     1       0.133   8.478 -15.017  1.00  0.00    -0.354 N 
ATOM     57  N   UNL     1      -1.582   6.107 -14.919  1.00  0.00    -0.248 NA
ATOM     58  C   UNL     1      -3.039   4.614 -15.966  1.00  0.00     0.031 C 
ATOM     59  C   UNL     1       0.469   9.464 -16.978  1.00  0.00     0.029 A 
ATOM     60  C   UNL     1      -0.196   8.417 -16.361  1.00  0.00     0.049 A 
ATOM     61  H   UNL     1      -0.199   7.861 -14.325  1.00  0.00     0.167 HD
ATOM     62  C   UNL     1      -1.674   6.430 -16.271  1.00  0.00     0.074 A 
ATOM     63  C   UNL     1      -2.563   5.459 -16.872  1.00  0.00     0.031 C 
ATOM     64  C   UNL     1      -1.073   7.437 -16.953  1.00  0.00     0.037 A 
BRANCH  51  65
ATOM     65  C   UNL     1       2.400  11.129 -13.415  1.00  0.00     0.058 A 
ATOM     66  C   UNL     1       3.771  11.029 -13.129  1.00  0.00     0.135 A 
ATOM     67  C   UNL     1       1.873  12.410 -13.650  1.00  0.00     0.135 A 
ATOM     68  F   UNL     1       4.323   9.832 -12.874  1.00  0.00    -0.206 F 
ATOM     69  C   UNL     1       4.582  12.156 -13.054  1.00  0.00     0.059 A 
ATOM     70  C   UNL     1       2.672  13.548 -13.611  1.00  0.00     0.059 A 
ATOM     71  F   UNL     1       0.567  12.564 -13.923  1.00  0.00    -0.206 F 
ATOM     72  C   UNL     1       4.023  13.412 -13.298  1.00  0.00     0.060 A 
BRANCH  72  73
ATOM     73  S   UNL     1       5.091  14.863 -13.202  1.00  0.00     0.124 S 
ATOM     74  O   UNL     1       5.334  14.952 -11.766  1.00  0.00    -0.237 OA
ATOM     75  O   UNL     1       6.236  14.461 -14.014  1.00  0.00    -0.237 OA
ATOM     76  O   UNL     1       4.270  15.930 -13.766  1.00  0.00    -0.744 OA
ENDBRANCH  72  73
ENDBRANCH  51  65
BRANCH  52  77
ATOM     77  C   UNL     1      -3.518   3.085 -13.512  1.00  0.00     0.058 A 
ATOM     78  C   UNL     1      -3.175   1.915 -14.208  1.00  0.00     0.135 A 
ATOM     79  C   UNL     1      -4.762   3.112 -12.861  1.00  0.00     0.135 A 
ATOM     80  F   UNL     1      -2.007   1.844 -14.865  1.00  0.00    -0.206 F 
ATOM     81  C   UNL     1      -4.034   0.822 -14.269  1.00  0.00     0.059 A 
ATOM     82  C   UNL     1      -5.626   2.021 -12.883  1.00  0.00     0.059 A 
ATOM     83  F   UNL     1      -5.141   4.205 -12.181  1.00  0.00    -0.206 F 
ATOM     84  C   UNL     1      -5.257   0.883 -13.599  1.00  0.00     0.060 A 
BRANCH  84  85
ATOM     85  S   UNL     1      -6.344  -0.560 -13.647  1.00  0.00     0.124 S 
ATOM     86  O   UNL     1      -6.808  -0.533 -15.029  1.00  0.00    -0.237 OA
ATOM     87  O   UNL     1      -5.428  -1.643 -13.303  1.00  0.00    -0.237 OA
ATOM     88  O   UNL     1      -7.352  -0.255 -12.636  1.00  0.00    -0.744 OA
ENDBRANCH  84  85
ENDBRANCH  52  77
BRANCH  64  89
ATOM     89  C   UNL     1      -1.312   7.526 -18.439  1.00  0.00     0.058 A 
ATOM     90  C   UNL     1      -2.542   7.945 -18.969  1.00  0.00     0.135 A 
ATOM     91  C   UNL     1      -0.268   7.262 -19.341  1.00  0.00     0.135 A 
ATOM     92  F   UNL     1      -3.576   8.207 -18.154  1.00  0.00    -0.206 F 
ATOM     93  C   UNL     1      -2.734   8.082 -20.342  1.00  0.00     0.059 A 
ATOM     94  C   UNL     1      -0.428   7.421 -20.715  1.00  0.00     0.059 A 
ATOM     95  F   UNL     1       0.934   6.870 -18.889  1.00  0.00    -0.206 F 
ATOM     96  C   UNL     1      -1.669   7.823 -21.207  1.00  0.00     0.060 A 
BRANCH  96  97
ATOM     97  S   UNL     1      -1.918   8.052 -22.981  1.00  0.00     0.124 S 
ATOM     98  O   UNL     1      -2.778   6.919 -23.306  1.00  0.00    -0.237 OA
ATOM     99  O   UNL     1      -2.551   9.366 -23.040  1.00  0.00    -0.237 OA
ATOM    100  O   UNL     1      -0.565   7.990 -23.526  1.00  0.00    -0.744 OA
ENDBRANCH  96  97
ENDBRANCH  64  89
ENDBRANCH  38  39
ENDBRANCH  31  33
ENDBRANCH  30  31
ENDBRANCH  29  30
ENDBRANCH  28  29
ENDBRANCH  27  28
ENDBRANCH  26  27
ENDBRANCH   1  26
TORSDOF 24
