REMARK SMILES O=C(OCCOCCOCCOC(=O)c1ccc(-n2cc(CSc3nc4ccccc4c(=O)n3-c3ccccc3)nn2)cc1)c1ccc(-c2c3nc(c(-c4c(F)cc(S(=O)(=O)[O-])cc4F)c4ccc([nH]4)c(-c4c(F)cc(S(=O)(=O)[O-])cc4F)c4nc(c(-c5c(F)cc(S(=O)(=O)[O-])cc5F)c5ccc2[nH]5)C=C4)C=C3)cc1
REMARK SMILES IDX 8 1 7 2 6 3 5 4 4 5 3 6 2 7 1 8 45 9 46 10 110 11 47 12
REMARK SMILES IDX 109 13 48 14 49 15 50 16 103 17 51 18 108 19 102 20 104 21
REMARK SMILES IDX 52 22 107 23 101 24 100 25 53 27 87 28 66 29 86 30 67 31
REMARK SMILES IDX 70 32 85 33 105 34 68 35 69 36 84 38 106 39 71 40 54 41
REMARK SMILES IDX 55 42 64 43 56 44 57 45 63 46 65 47 58 48 59 49 60 50 61 51
REMARK SMILES IDX 62 52 88 53 89 54 98 55 90 56 91 57 97 58 99 59 92 60 93 61
REMARK SMILES IDX 94 62 95 63 96 64 72 65 73 66 82 67 74 68 75 69 81 70 83 71
REMARK SMILES IDX 76 72 77 73 78 74 79 75 80 76 9 77 10 78 11 79 12 80 13 81
REMARK SMILES IDX 14 82 15 83 16 84 44 85 17 86 43 87 18 88 19 89 20 90 42 91
REMARK SMILES IDX 21 92 41 93 22 94 23 95 24 96 25 97 34 98 26 99 32 100
REMARK SMILES IDX 27 101 31 102 33 103 28 104 30 105 29 106 35 107 36 108
REMARK SMILES IDX 40 109 37 110 39 111 38 112
REMARK H PARENT 104 26 70 37
REMARK Flexibility Score: inf
ROOT
ATOM      1  C   UNL     1       2.536   2.560  -0.335  1.00  0.00     0.188 C 
ENDROOT
BRANCH   1   2
ATOM      2  C   UNL     1       3.490   1.680   0.506  1.00  0.00     0.188 C 
BRANCH   2   3
ATOM      3  O   UNL     1       4.833   1.716   0.068  1.00  0.00    -0.376 OA
BRANCH   3   4
ATOM      4  C   UNL     1       5.439   0.528  -0.400  1.00  0.00     0.202 C 
BRANCH   4   5
ATOM      5  C   UNL     1       4.822  -0.193  -1.608  1.00  0.00     0.261 C 
BRANCH   5   6
ATOM      6  O   UNL     1       3.412  -0.020  -1.799  1.00  0.00    -0.460 OA
BRANCH   6   7
ATOM      7  C   UNL     1       2.389  -0.797  -1.391  1.00  0.00     0.338 C 
ATOM      8  O   UNL     1       1.322  -0.751  -1.999  1.00  0.00    -0.246 OA
BRANCH   7   9
ATOM      9  C   UNL     1       2.428  -1.531  -0.098  1.00  0.00     0.060 A 
ATOM     10  C   UNL     1       3.566  -2.104   0.476  1.00  0.00     0.016 A 
ATOM     11  C   UNL     1       1.187  -1.662   0.556  1.00  0.00     0.016 A 
ATOM     12  C   UNL     1       3.453  -2.921   1.585  1.00  0.00     0.010 A 
ATOM     13  C   UNL     1       1.065  -2.474   1.669  1.00  0.00     0.010 A 
ATOM     14  C   UNL     1       2.187  -3.186   2.090  1.00  0.00    -0.014 A 
BRANCH  14  15
ATOM     15  C   UNL     1       2.043  -4.410   2.862  1.00  0.00     0.031 A 
ATOM     16  C   UNL     1       2.567  -4.397   4.253  1.00  0.00     0.074 A 
ATOM     17  C   UNL     1       1.400  -5.441   2.272  1.00  0.00     0.049 A 
ATOM     18  N   UNL     1       3.394  -5.219   4.819  1.00  0.00    -0.248 NA
ATOM     19  C   UNL     1       2.192  -3.252   5.100  1.00  0.00     0.031 C 
ATOM     20  C   UNL     1       0.692  -5.432   0.980  1.00  0.00     0.029 A 
ATOM     21  N   UNL     1       1.114  -6.676   2.752  1.00  0.00    -0.354 N 
ATOM     22  C   UNL     1       3.462  -4.823   6.155  1.00  0.00     0.074 A 
ATOM     23  C   UNL     1       2.833  -3.530   6.234  1.00  0.00     0.031 C 
ATOM     24  C   UNL     1      -0.152  -6.481   0.925  1.00  0.00     0.029 A 
ATOM     25  C   UNL     1       0.054  -7.295   2.104  1.00  0.00     0.049 A 
ATOM     26  H   UNL     1       1.612  -7.095   3.491  1.00  0.00     0.167 HD
ATOM     27  C   UNL     1       3.811  -5.679   7.154  1.00  0.00     0.037 A 
ATOM     28  C   UNL     1      -0.693  -8.312   2.597  1.00  0.00     0.037 A 
ATOM     29  C   UNL     1       4.564  -6.804   6.673  1.00  0.00     0.049 A 
ATOM     30  C   UNL     1       0.115  -8.958   3.666  1.00  0.00     0.074 A 
ATOM     31  C   UNL     1       5.780  -6.951   6.036  1.00  0.00     0.029 A 
ATOM     32  N   UNL     1       3.921  -8.009   6.524  1.00  0.00    -0.354 N 
ATOM     33  N   UNL     1       1.244  -9.581   3.445  1.00  0.00    -0.248 NA
ATOM     34  C   UNL     1      -0.085  -8.509   5.036  1.00  0.00     0.031 C 
ATOM     35  C   UNL     1       5.599  -8.040   5.135  1.00  0.00     0.029 A 
ATOM     36  C   UNL     1       4.298  -8.515   5.304  1.00  0.00     0.049 A 
ATOM     37  H   UNL     1       3.307  -8.429   7.168  1.00  0.00     0.167 HD
ATOM     38  C   UNL     1       2.054  -9.263   4.528  1.00  0.00     0.074 A 
ATOM     39  C   UNL     1       1.154  -8.665   5.510  1.00  0.00     0.031 C 
ATOM     40  C   UNL     1       3.418  -9.253   4.423  1.00  0.00     0.037 A 
BRANCH  27  41
ATOM     41  C   UNL     1       3.160  -5.649   8.515  1.00  0.00     0.058 A 
ATOM     42  C   UNL     1       3.725  -6.357   9.592  1.00  0.00     0.135 A 
ATOM     43  C   UNL     1       1.845  -5.168   8.720  1.00  0.00     0.135 A 
ATOM     44  F   UNL     1       4.958  -6.879   9.494  1.00  0.00    -0.206 F 
ATOM     45  C   UNL     1       3.013  -6.615  10.767  1.00  0.00     0.059 A 
ATOM     46  C   UNL     1       1.141  -5.363   9.901  1.00  0.00     0.059 A 
ATOM     47  F   UNL     1       1.145  -4.578   7.742  1.00  0.00    -0.206 F 
ATOM     48  C   UNL     1       1.714  -6.128  10.902  1.00  0.00     0.060 A 
BRANCH  48  49
ATOM     49  S   UNL     1       0.739  -6.577  12.348  1.00  0.00     0.124 S 
ATOM     50  O   UNL     1       0.487  -7.992  12.097  1.00  0.00    -0.237 OA
ATOM     51  O   UNL     1       1.656  -6.276  13.442  1.00  0.00    -0.237 OA
ATOM     52  O   UNL     1      -0.425  -5.701  12.255  1.00  0.00    -0.744 OA
ENDBRANCH  48  49
ENDBRANCH  27  41
BRANCH  28  53
ATOM     53  C   UNL     1      -2.177  -8.392   2.503  1.00  0.00     0.058 A 
ATOM     54  C   UNL     1      -2.867  -9.586   2.762  1.00  0.00     0.135 A 
ATOM     55  C   UNL     1      -2.976  -7.232   2.369  1.00  0.00     0.135 A 
ATOM     56  F   UNL     1      -2.188 -10.728   2.943  1.00  0.00    -0.206 F 
ATOM     57  C   UNL     1      -4.262  -9.626   2.893  1.00  0.00     0.059 A 
ATOM     58  C   UNL     1      -4.363  -7.251   2.474  1.00  0.00     0.059 A 
ATOM     59  F   UNL     1      -2.424  -6.019   2.213  1.00  0.00    -0.206 F 
ATOM     60  C   UNL     1      -5.001  -8.450   2.756  1.00  0.00     0.060 A 
BRANCH  60  61
ATOM     61  S   UNL     1      -6.784  -8.469   3.052  1.00  0.00     0.124 S 
ATOM     62  O   UNL     1      -7.268  -9.259   1.925  1.00  0.00    -0.237 OA
ATOM     63  O   UNL     1      -6.870  -9.106   4.362  1.00  0.00    -0.237 OA
ATOM     64  O   UNL     1      -7.150  -7.055   3.024  1.00  0.00    -0.744 OA
ENDBRANCH  60  61
ENDBRANCH  28  53
BRANCH  40  65
ATOM     65  C   UNL     1       4.040  -9.800   3.161  1.00  0.00     0.058 A 
ATOM     66  C   UNL     1       3.915  -9.175   1.906  1.00  0.00     0.135 A 
ATOM     67  C   UNL     1       4.945 -10.866   3.251  1.00  0.00     0.135 A 
ATOM     68  F   UNL     1       3.163  -8.078   1.761  1.00  0.00    -0.206 F 
ATOM     69  C   UNL     1       4.626  -9.609   0.787  1.00  0.00     0.059 A 
ATOM     70  C   UNL     1       5.690 -11.299   2.154  1.00  0.00     0.059 A 
ATOM     71  F   UNL     1       5.168 -11.459   4.436  1.00  0.00    -0.206 F 
ATOM     72  C   UNL     1       5.519 -10.670   0.921  1.00  0.00     0.060 A 
BRANCH  72  73
ATOM     73  S   UNL     1       6.524 -11.150  -0.501  1.00  0.00     0.124 S 
ATOM     74  O   UNL     1       5.547 -11.812  -1.359  1.00  0.00    -0.237 OA
ATOM     75  O   UNL     1       7.024  -9.866  -0.986  1.00  0.00    -0.237 OA
ATOM     76  O   UNL     1       7.541 -12.024   0.079  1.00  0.00    -0.744 OA
ENDBRANCH  72  73
ENDBRANCH  40  65
ENDBRANCH  14  15
ENDBRANCH   7   9
ENDBRANCH   6   7
ENDBRANCH   5   6
ENDBRANCH   4   5
ENDBRANCH   3   4
ENDBRANCH   2   3
ENDBRANCH   1   2
BRANCH   1  77
ATOM     77  O   UNL     1       3.054   3.429  -1.337  1.00  0.00    -0.376 OA
BRANCH  77  78
ATOM     78  C   UNL     1       4.300   4.073  -1.124  1.00  0.00     0.202 C 
BRANCH  78  79
ATOM     79  C   UNL     1       4.463   4.957   0.124  1.00  0.00     0.261 C 
BRANCH  79  80
ATOM     80  O   UNL     1       4.090   4.349   1.376  1.00  0.00    -0.460 OA
BRANCH  80  81
ATOM     81  C   UNL     1       3.064   4.931   2.047  1.00  0.00     0.338 C 
ATOM     82  O   UNL     1       2.451   5.934   1.736  1.00  0.00    -0.246 OA
BRANCH  81  83
ATOM     83  C   UNL     1       2.704   4.116   3.229  1.00  0.00     0.060 A 
ATOM     84  C   UNL     1       1.527   3.354   3.194  1.00  0.00     0.018 A 
ATOM     85  C   UNL     1       3.464   4.188   4.402  1.00  0.00     0.018 A 
ATOM     86  C   UNL     1       1.094   2.675   4.332  1.00  0.00     0.029 A 
ATOM     87  C   UNL     1       3.042   3.494   5.544  1.00  0.00     0.029 A 
ATOM     88  C   UNL     1       1.850   2.755   5.503  1.00  0.00     0.066 A 
BRANCH  88  89
ATOM     89  N   UNL     1       1.304   2.247   6.699  1.00  0.00    -0.220 N 
ATOM     90  C   UNL     1       0.188   2.768   7.323  1.00  0.00     0.141 A 
ATOM     91  N   UNL     1       1.993   1.483   7.561  1.00  0.00    -0.062 NA
ATOM     92  C   UNL     1       0.259   2.338   8.627  1.00  0.00     0.093 A 
ATOM     93  N   UNL     1       1.323   1.458   8.705  1.00  0.00    -0.134 NA
BRANCH  92  94
ATOM     94  C   UNL     1      -0.293   2.825   9.920  1.00  0.00     0.138 C 
BRANCH  94  95
ATOM     95  S   UNL     1      -1.933   3.398  10.300  1.00  0.00    -0.081 SA
BRANCH  95  96
ATOM     96  C   UNL     1      -2.870   3.941   8.946  1.00  0.00     0.176 A 
ATOM     97  N   UNL     1      -4.120   3.604   9.073  1.00  0.00    -0.223 NA
ATOM     98  N   UNL     1      -2.415   4.657   7.849  1.00  0.00    -0.255 N 
ATOM     99  C   UNL     1      -4.997   3.847   8.014  1.00  0.00     0.079 A 
ATOM    100  C   UNL     1      -3.056   4.313   6.649  1.00  0.00     0.266 A 
ATOM    101  C   UNL     1      -6.377   3.771   8.190  1.00  0.00     0.029 A 
ATOM    102  C   UNL     1      -4.497   4.048   6.739  1.00  0.00     0.066 A 
ATOM    103  O   UNL     1      -2.518   4.182   5.550  1.00  0.00    -0.268 OA
ATOM    104  C   UNL     1      -7.232   3.837   7.083  1.00  0.00     0.002 A 
ATOM    105  C   UNL     1      -5.329   4.059   5.617  1.00  0.00     0.016 A 
ATOM    106  C   UNL     1      -6.705   3.945   5.794  1.00  0.00     0.001 A 
BRANCH  98 107
ATOM    107  C   UNL     1      -1.328   5.624   7.803  1.00  0.00     0.051 A 
ATOM    108  C   UNL     1      -1.052   6.321   6.607  1.00  0.00     0.027 A 
ATOM    109  C   UNL     1      -0.502   5.943   8.886  1.00  0.00     0.027 A 
ATOM    110  C   UNL     1       0.094   7.104   6.440  1.00  0.00     0.002 A 
ATOM    111  C   UNL     1       0.674   6.690   8.719  1.00  0.00     0.002 A 
ATOM    112  C   UNL     1       0.989   7.244   7.486  1.00  0.00     0.000 A 
ENDBRANCH  98 107
ENDBRANCH  95  96
ENDBRANCH  94  95
ENDBRANCH  92  94
ENDBRANCH  88  89
ENDBRANCH  81  83
ENDBRANCH  80  81
ENDBRANCH  79  80
ENDBRANCH  78  79
ENDBRANCH  77  78
ENDBRANCH   1  77
TORSDOF 25
