REMARK SMILES COc1ccc(/C=C(/Sc2nc(C)n[nH]2)C(=O)OCCOCCOCCOC(=O)c2ccc(-c3c4nc(c(-c5c(F)cc(S(=O)(=O)[O-])cc5F)c5ccc([nH]5)c(-c5c(F)cc(S(=O)(=O)[O-])cc5F)c5nc(c(-c6c(F)cc(S(=O)(=O)[O-])cc6F)c6ccc3[nH]6)C=C5)C=C4)cc2)cc1OC
REMARK SMILES IDX 23 1 22 2 21 3 20 4 19 5 18 6 16 7 17 8 8 9 7 10 6 11 3 12
REMARK SMILES IDX 4 13 97 14 5 15 96 16 2 17 1 18 98 19 99 20 9 21 10 22 11 23
REMARK SMILES IDX 15 24 12 25 14 26 13 28 24 29 25 30 26 31 27 32 28 33 29 34
REMARK SMILES IDX 30 35 31 36 95 37 32 38 94 39 33 40 34 41 35 42 88 43 36 44
REMARK SMILES IDX 93 45 87 46 89 47 37 48 92 49 86 50 85 51 38 53 72 54 51 55
REMARK SMILES IDX 71 56 52 57 55 58 70 59 90 60 53 61 54 62 69 64 91 65 56 66
REMARK SMILES IDX 39 67 40 68 49 69 41 70 42 71 48 72 50 73 43 74 44 75 45 76
REMARK SMILES IDX 46 77 47 78 73 79 74 80 83 81 75 82 76 83 82 84 84 85 77 86
REMARK SMILES IDX 78 87 79 88 80 89 81 90 57 91 58 92 67 93 59 94 60 95 66 96
REMARK SMILES IDX 68 97 61 98 62 99 63 100 64 101 65 102
REMARK H PARENT 15 27 89 52 55 63
REMARK Flexibility Score: inf
ROOT
ATOM      1  C   UNL     1      -0.553  -7.146  -4.432  1.00  0.00     0.188 C 
ENDROOT
BRANCH   1   2
ATOM      2  C   UNL     1      -1.195  -6.129  -3.465  1.00  0.00     0.188 C 
BRANCH   2   3
ATOM      3  O   UNL     1      -2.614  -6.114  -3.434  1.00  0.00    -0.376 OA
BRANCH   3   4
ATOM      4  C   UNL     1      -3.227  -4.978  -4.039  1.00  0.00     0.202 C 
BRANCH   4   5
ATOM      5  C   UNL     1      -3.058  -4.894  -5.560  1.00  0.00     0.261 C 
BRANCH   5   6
ATOM      6  O   UNL     1      -1.674  -4.881  -5.941  1.00  0.00    -0.459 OA
BRANCH   6   7
ATOM      7  C   UNL     1      -1.036  -3.700  -6.116  1.00  0.00     0.345 C 
ATOM      8  O   UNL     1      -1.556  -2.592  -6.109  1.00  0.00    -0.246 OA
BRANCH   7   9
ATOM      9  C   UNL     1       0.429  -3.982  -6.217  1.00  0.00     0.101 C 
ATOM     10  C   UNL     1       1.307  -3.619  -5.254  1.00  0.00     0.031 C 
BRANCH  10  11
ATOM     11  C   UNL     1       1.172  -2.890  -3.962  1.00  0.00    -0.020 A 
ATOM     12  C   UNL     1       1.127  -1.659  -1.395  1.00  0.00     0.160 A 
ATOM     13  C   UNL     1      -0.058  -1.949  -2.074  1.00  0.00     0.051 A 
ATOM     14  C   UNL     1       2.349  -1.986  -1.986  1.00  0.00     0.161 A 
ATOM     15  C   UNL     1      -0.030  -2.537  -3.345  1.00  0.00     0.012 A 
ATOM     16  C   UNL     1       2.353  -2.604  -3.251  1.00  0.00     0.058 A 
BRANCH  12  17
ATOM     17  O   UNL     1       1.078  -1.157  -0.123  1.00  0.00    -0.493 OA
ATOM     18  C   UNL     1       0.328   0.052  -0.020  1.00  0.00     0.278 C 
ENDBRANCH  12  17
BRANCH  14  19
ATOM     19  O   UNL     1       3.607  -1.794  -1.477  1.00  0.00    -0.493 OA
ATOM     20  C   UNL     1       3.754  -0.872  -0.404  1.00  0.00     0.278 C 
ENDBRANCH  14  19
ENDBRANCH  10  11
BRANCH   9  21
ATOM     21  S   UNL     1       0.795  -5.028  -7.582  1.00  0.00    -0.043 SA
BRANCH  21  22
ATOM     22  C   UNL     1       2.496  -4.914  -7.743  1.00  0.00     0.188 A 
ATOM     23  N   UNL     1       3.227  -3.840  -7.901  1.00  0.00    -0.206 NA
ATOM     24  N   UNL     1       3.272  -6.028  -7.846  1.00  0.00    -0.254 N 
ATOM     25  C   UNL     1       4.478  -4.358  -8.120  1.00  0.00     0.148 A 
ATOM     26  N   UNL     1       4.554  -5.695  -8.091  1.00  0.00    -0.158 NA
ATOM     27  H   UNL     1       2.942  -6.950  -7.753  1.00  0.00     0.192 HD
ATOM     28  C   UNL     1       5.637  -3.491  -8.406  1.00  0.00     0.092 C 
ENDBRANCH  21  22
ENDBRANCH   9  21
ENDBRANCH   7   9
ENDBRANCH   6   7
ENDBRANCH   5   6
ENDBRANCH   4   5
ENDBRANCH   3   4
ENDBRANCH   2   3
ENDBRANCH   1   2
BRANCH   1  29
ATOM     29  O   UNL     1      -1.333  -8.027  -5.233  1.00  0.00    -0.376 OA
BRANCH  29  30
ATOM     30  C   UNL     1      -2.512  -8.639  -4.725  1.00  0.00     0.202 C 
BRANCH  30  31
ATOM     31  C   UNL     1      -2.410  -9.555  -3.511  1.00  0.00     0.261 C 
BRANCH  31  32
ATOM     32  O   UNL     1      -1.841  -8.899  -2.389  1.00  0.00    -0.460 OA
BRANCH  32  33
ATOM     33  C   UNL     1      -0.537  -9.162  -2.190  1.00  0.00     0.338 C 
ATOM     34  O   UNL     1       0.195  -9.849  -2.901  1.00  0.00    -0.246 OA
BRANCH  33  35
ATOM     35  C   UNL     1      -0.098  -8.530  -0.943  1.00  0.00     0.060 A 
ATOM     36  C   UNL     1       1.216  -8.794  -0.557  1.00  0.00     0.016 A 
ATOM     37  C   UNL     1      -1.042  -7.979  -0.061  1.00  0.00     0.016 A 
ATOM     38  C   UNL     1       1.488  -8.836   0.787  1.00  0.00     0.010 A 
ATOM     39  C   UNL     1      -0.770  -8.019   1.284  1.00  0.00     0.010 A 
ATOM     40  C   UNL     1       0.439  -8.588   1.676  1.00  0.00    -0.014 A 
BRANCH  40  41
ATOM     41  C   UNL     1       0.577  -9.151   3.000  1.00  0.00     0.031 A 
ATOM     42  C   UNL     1       1.395  -8.368   3.937  1.00  0.00     0.074 A 
ATOM     43  C   UNL     1      -0.057 -10.295   3.325  1.00  0.00     0.049 A 
ATOM     44  N   UNL     1       2.508  -8.701   4.499  1.00  0.00    -0.248 NA
ATOM     45  C   UNL     1       0.964  -6.987   4.192  1.00  0.00     0.031 C 
ATOM     46  C   UNL     1      -1.106 -10.988   2.565  1.00  0.00     0.029 A 
ATOM     47  N   UNL     1       0.024 -11.019   4.472  1.00  0.00    -0.354 N 
ATOM     48  C   UNL     1       2.805  -7.651   5.357  1.00  0.00     0.074 A 
ATOM     49  C   UNL     1       1.928  -6.563   5.006  1.00  0.00     0.031 C 
ATOM     50  C   UNL     1      -1.714 -11.884   3.373  1.00  0.00     0.029 A 
ATOM     51  C   UNL     1      -1.024 -11.907   4.651  1.00  0.00     0.049 A 
ATOM     52  H   UNL     1       0.761 -10.921   5.117  1.00  0.00     0.167 HD
ATOM     53  C   UNL     1       3.564  -7.831   6.468  1.00  0.00     0.037 A 
ATOM     54  C   UNL     1      -1.360 -12.521   5.811  1.00  0.00     0.037 A 
ATOM     55  C   UNL     1       4.368  -9.022   6.399  1.00  0.00     0.049 A 
ATOM     56  C   UNL     1      -0.165 -12.491   6.695  1.00  0.00     0.074 A 
ATOM     57  C   UNL     1       5.336  -9.487   5.530  1.00  0.00     0.029 A 
ATOM     58  N   UNL     1       3.988 -10.109   7.149  1.00  0.00    -0.354 N 
ATOM     59  N   UNL     1       0.942 -13.145   6.465  1.00  0.00    -0.248 NA
ATOM     60  C   UNL     1      -0.046 -11.399   7.652  1.00  0.00     0.031 C 
ATOM     61  C   UNL     1       5.168 -10.901   5.494  1.00  0.00     0.029 A 
ATOM     62  C   UNL     1       4.115 -11.221   6.353  1.00  0.00     0.049 A 
ATOM     63  H   UNL     1       3.680 -10.094   8.084  1.00  0.00     0.167 HD
ATOM     64  C   UNL     1       1.956 -12.315   6.923  1.00  0.00     0.074 A 
ATOM     65  C   UNL     1       1.283 -11.315   7.744  1.00  0.00     0.031 C 
ATOM     66  C   UNL     1       3.207 -12.349   6.375  1.00  0.00     0.037 A 
BRANCH  53  67
ATOM     67  C   UNL     1       3.284  -7.098   7.750  1.00  0.00     0.058 A 
ATOM     68  C   UNL     1       4.256  -7.059   8.763  1.00  0.00     0.135 A 
ATOM     69  C   UNL     1       1.989  -6.658   8.115  1.00  0.00     0.135 A 
ATOM     70  F   UNL     1       5.506  -7.484   8.524  1.00  0.00    -0.206 F 
ATOM     71  C   UNL     1       3.951  -6.656  10.063  1.00  0.00     0.059 A 
ATOM     72  C   UNL     1       1.680  -6.193   9.384  1.00  0.00     0.059 A 
ATOM     73  F   UNL     1       0.942  -6.756   7.285  1.00  0.00    -0.206 F 
ATOM     74  C   UNL     1       2.655  -6.241  10.365  1.00  0.00     0.060 A 
BRANCH  74  75
ATOM     75  S   UNL     1       2.217  -5.851  12.067  1.00  0.00     0.124 S 
ATOM     76  O   UNL     1       2.148  -7.184  12.654  1.00  0.00    -0.237 OA
ATOM     77  O   UNL     1       3.339  -5.021  12.491  1.00  0.00    -0.237 OA
ATOM     78  O   UNL     1       0.943  -5.151  11.931  1.00  0.00    -0.744 OA
ENDBRANCH  74  75
ENDBRANCH  53  67
BRANCH  54  79
ATOM     79  C   UNL     1      -2.737 -12.784   6.306  1.00  0.00     0.058 A 
ATOM     80  C   UNL     1      -2.969 -13.643   7.392  1.00  0.00     0.135 A 
ATOM     81  C   UNL     1      -3.837 -12.007   5.883  1.00  0.00     0.135 A 
ATOM     82  F   UNL     1      -1.971 -14.392   7.885  1.00  0.00    -0.206 F 
ATOM     83  C   UNL     1      -4.209 -13.707   8.039  1.00  0.00     0.059 A 
ATOM     84  C   UNL     1      -5.085 -12.069   6.496  1.00  0.00     0.059 A 
ATOM     85  F   UNL     1      -3.712 -11.088   4.914  1.00  0.00    -0.206 F 
ATOM     86  C   UNL     1      -5.259 -12.905   7.590  1.00  0.00     0.060 A 
BRANCH  86  87
ATOM     87  S   UNL     1      -6.815 -12.870   8.507  1.00  0.00     0.124 S 
ATOM     88  O   UNL     1      -7.351 -14.200   8.240  1.00  0.00    -0.237 OA
ATOM     89  O   UNL     1      -6.361 -12.627   9.872  1.00  0.00    -0.237 OA
ATOM     90  O   UNL     1      -7.548 -11.767   7.892  1.00  0.00    -0.744 OA
ENDBRANCH  86  87
ENDBRANCH  54  79
BRANCH  66  91
ATOM     91  C   UNL     1       3.558 -13.519   5.491  1.00  0.00     0.058 A 
ATOM     92  C   UNL     1       2.950 -13.764   4.247  1.00  0.00     0.135 A 
ATOM     93  C   UNL     1       4.651 -14.327   5.838  1.00  0.00     0.135 A 
ATOM     94  F   UNL     1       1.972 -12.969   3.792  1.00  0.00    -0.206 F 
ATOM     95  C   UNL     1       3.381 -14.791   3.406  1.00  0.00     0.059 A 
ATOM     96  C   UNL     1       5.118 -15.339   5.002  1.00  0.00     0.059 A 
ATOM     97  F   UNL     1       5.318 -14.100   6.982  1.00  0.00    -0.206 F 
ATOM     98  C   UNL     1       4.469 -15.574   3.790  1.00  0.00     0.060 A 
BRANCH  98  99
ATOM     99  S   UNL     1       5.086 -16.835   2.654  1.00  0.00     0.124 S 
ATOM    100  O   UNL     1       4.083 -17.886   2.786  1.00  0.00    -0.237 OA
ATOM    101  O   UNL     1       5.103 -16.133   1.374  1.00  0.00    -0.237 OA
ATOM    102  O   UNL     1       6.406 -17.161   3.191  1.00  0.00    -0.744 OA
ENDBRANCH  98  99
ENDBRANCH  66  91
ENDBRANCH  40  41
ENDBRANCH  33  35
ENDBRANCH  32  33
ENDBRANCH  31  32
ENDBRANCH  30  31
ENDBRANCH  29  30
ENDBRANCH   1  29
TORSDOF 25
