REMARK SMILES Nc1c(-c2ccccc2)c[nH]c1C(=O)OCCOCCOCCOC(=O)c1ccc(-c2c3nc(c(-c4c(F)cc(S(=O)(=O)[O-])cc4F)c4ccc([nH]4)c(-c4c(F)cc(S(=O)(=O)[O-])cc4F)c4nc(c(-c5c(F)cc(S(=O)(=O)[O-])cc5F)c5ccc2[nH]5)C=C4)C=C3)cc1
REMARK SMILES IDX 20 1 19 2 18 3 17 4 16 5 15 6 13 7 14 8 12 9 2 10 3 11 10 12
REMARK SMILES IDX 11 13 1 15 4 18 5 19 9 20 6 21 8 22 7 23 21 24 22 25 23 26
REMARK SMILES IDX 24 27 25 28 26 29 27 30 28 31 92 32 29 33 91 34 30 35 31 36
REMARK SMILES IDX 32 37 85 38 33 39 90 40 84 41 86 42 34 43 89 44 83 45 82 46
REMARK SMILES IDX 35 48 69 49 48 50 68 51 49 52 52 53 67 54 87 55 50 56 51 57
REMARK SMILES IDX 66 59 88 60 53 61 36 62 37 63 46 64 38 65 39 66 45 67 47 68
REMARK SMILES IDX 40 69 41 70 42 71 43 72 44 73 70 74 71 75 80 76 72 77 73 78
REMARK SMILES IDX 79 79 81 80 74 81 75 82 76 83 77 84 78 85 54 86 55 87 64 88
REMARK SMILES IDX 56 89 57 90 63 91 65 92 58 93 59 94 60 95 61 96 62 97
REMARK H PARENT 11 14 1 16 1 17 86 47 52 58
REMARK Flexibility Score: inf
ROOT
ATOM      1  C   UNL     1       0.485   2.891   1.799  1.00  0.00     0.188 C 
ENDROOT
BRANCH   1   2
ATOM      2  C   UNL     1      -0.940   3.482   1.902  1.00  0.00     0.188 C 
BRANCH   2   3
ATOM      3  O   UNL     1      -1.766   3.244   3.037  1.00  0.00    -0.376 OA
BRANCH   3   4
ATOM      4  C   UNL     1      -1.728   2.000   3.719  1.00  0.00     0.202 C 
BRANCH   4   5
ATOM      5  C   UNL     1      -1.973   0.680   2.960  1.00  0.00     0.261 C 
BRANCH   5   6
ATOM      6  O   UNL     1      -1.262   0.517   1.726  1.00  0.00    -0.459 OA
BRANCH   6   7
ATOM      7  C   UNL     1      -1.959   0.790   0.591  1.00  0.00     0.357 C 
ATOM      8  O   UNL     1      -3.161   1.044   0.546  1.00  0.00    -0.244 OA
BRANCH   7   9
ATOM      9  C   UNL     1      -1.078   0.899  -0.546  1.00  0.00     0.148 A 
ATOM     10  C   UNL     1       0.156   0.353  -0.840  1.00  0.00     0.072 A 
ATOM     11  C   UNL     1       0.525   0.744  -2.156  1.00  0.00     0.023 A 
ATOM     12  C   UNL     1      -0.414   1.662  -2.574  1.00  0.00     0.094 A 
ATOM     13  N   UNL     1      -1.386   1.728  -1.609  1.00  0.00    -0.353 N 
ATOM     14  H   UNL     1      -2.193   2.288  -1.666  1.00  0.00     0.166 HD
BRANCH  10  15
ATOM     15  N   UNL     1       0.895  -0.418  -0.025  1.00  0.00    -0.396 N 
ATOM     16  H   UNL     1       1.767  -0.760  -0.329  1.00  0.00     0.156 HD
ATOM     17  H   UNL     1       0.565  -0.642   0.875  1.00  0.00     0.156 HD
ENDBRANCH  10  15
BRANCH  11  18
ATOM     18  C   UNL     1       1.573   0.217  -3.009  1.00  0.00    -0.015 A 
ATOM     19  C   UNL     1       1.571  -1.162  -3.262  1.00  0.00     0.009 A 
ATOM     20  C   UNL     1       2.555   1.022  -3.590  1.00  0.00     0.009 A 
ATOM     21  C   UNL     1       2.538  -1.737  -4.081  1.00  0.00     0.001 A 
ATOM     22  C   UNL     1       3.530   0.442  -4.409  1.00  0.00     0.001 A 
ATOM     23  C   UNL     1       3.521  -0.934  -4.654  1.00  0.00     0.000 A 
ENDBRANCH  11  18
ENDBRANCH   7   9
ENDBRANCH   6   7
ENDBRANCH   5   6
ENDBRANCH   4   5
ENDBRANCH   3   4
ENDBRANCH   2   3
ENDBRANCH   1   2
BRANCH   1  24
ATOM     24  O   UNL     1       0.810   1.954   2.809  1.00  0.00    -0.376 OA
BRANCH  24  25
ATOM     25  C   UNL     1       1.788   2.295   3.779  1.00  0.00     0.202 C 
BRANCH  25  26
ATOM     26  C   UNL     1       1.649   3.584   4.591  1.00  0.00     0.261 C 
BRANCH  26  27
ATOM     27  O   UNL     1       1.022   4.657   3.916  1.00  0.00    -0.460 OA
BRANCH  27  28
ATOM     28  C   UNL     1       1.817   5.328   3.060  1.00  0.00     0.338 C 
ATOM     29  O   UNL     1       2.923   4.998   2.668  1.00  0.00    -0.246 OA
BRANCH  28  30
ATOM     30  C   UNL     1       1.145   6.578   2.710  1.00  0.00     0.060 A 
ATOM     31  C   UNL     1       1.624   7.274   1.597  1.00  0.00     0.016 A 
ATOM     32  C   UNL     1       0.355   7.176   3.699  1.00  0.00     0.016 A 
ATOM     33  C   UNL     1       1.551   8.646   1.623  1.00  0.00     0.010 A 
ATOM     34  C   UNL     1       0.326   8.540   3.747  1.00  0.00     0.010 A 
ATOM     35  C   UNL     1       1.017   9.247   2.764  1.00  0.00    -0.014 A 
BRANCH  35  36
ATOM     36  C   UNL     1       1.195  10.668   2.948  1.00  0.00     0.031 A 
ATOM     37  C   UNL     1       0.139  11.455   2.284  1.00  0.00     0.074 A 
ATOM     38  C   UNL     1       2.136  11.132   3.794  1.00  0.00     0.049 A 
ATOM     39  N   UNL     1       0.238  12.177   1.217  1.00  0.00    -0.248 NA
ATOM     40  C   UNL     1      -1.251  11.211   2.714  1.00  0.00     0.031 C 
ATOM     41  C   UNL     1       2.991  10.358   4.703  1.00  0.00     0.029 A 
ATOM     42  N   UNL     1       2.442  12.414   4.115  1.00  0.00    -0.354 N 
ATOM     43  C   UNL     1      -1.040  12.693   1.027  1.00  0.00     0.074 A 
ATOM     44  C   UNL     1      -1.930  11.835   1.754  1.00  0.00     0.031 C 
ATOM     45  C   UNL     1       3.532  11.190   5.622  1.00  0.00     0.029 A 
ATOM     46  C   UNL     1       3.160  12.555   5.299  1.00  0.00     0.049 A 
ATOM     47  H   UNL     1       2.179  13.181   3.557  1.00  0.00     0.167 HD
ATOM     48  C   UNL     1      -1.220  13.975   0.607  1.00  0.00     0.037 A 
ATOM     49  C   UNL     1       3.316  13.714   5.992  1.00  0.00     0.037 A 
ATOM     50  C   UNL     1      -0.009  14.495   0.017  1.00  0.00     0.049 A 
ATOM     51  C   UNL     1       2.988  14.823   5.049  1.00  0.00     0.074 A 
ATOM     52  C   UNL     1       0.801  14.115  -1.035  1.00  0.00     0.029 A 
ATOM     53  N   UNL     1       0.740  15.362   0.778  1.00  0.00    -0.354 N 
ATOM     54  N   UNL     1       3.698  15.111   3.990  1.00  0.00    -0.248 NA
ATOM     55  C   UNL     1       1.609  15.290   5.014  1.00  0.00     0.031 C 
ATOM     56  C   UNL     1       2.129  14.412  -0.611  1.00  0.00     0.029 A 
ATOM     57  C   UNL     1       2.059  15.015   0.646  1.00  0.00     0.049 A 
ATOM     58  H   UNL     1       0.389  16.103   1.322  1.00  0.00     0.167 HD
ATOM     59  C   UNL     1       2.768  15.412   3.003  1.00  0.00     0.074 A 
ATOM     60  C   UNL     1       1.502  15.577   3.713  1.00  0.00     0.031 C 
ATOM     61  C   UNL     1       3.051  15.208   1.682  1.00  0.00     0.037 A 
BRANCH  48  62
ATOM     62  C   UNL     1      -2.323  14.880   1.121  1.00  0.00     0.058 A 
ATOM     63  C   UNL     1      -2.465  16.157   0.542  1.00  0.00     0.135 A 
ATOM     64  C   UNL     1      -3.053  14.678   2.317  1.00  0.00     0.135 A 
ATOM     65  F   UNL     1      -1.830  16.463  -0.601  1.00  0.00    -0.206 F 
ATOM     66  C   UNL     1      -3.187  17.181   1.156  1.00  0.00     0.059 A 
ATOM     67  C   UNL     1      -3.824  15.665   2.914  1.00  0.00     0.059 A 
ATOM     68  F   UNL     1      -2.993  13.552   3.034  1.00  0.00    -0.206 F 
ATOM     69  C   UNL     1      -3.846  16.928   2.354  1.00  0.00     0.060 A 
BRANCH  69  70
ATOM     70  S   UNL     1      -4.681  18.268   3.213  1.00  0.00     0.124 S 
ATOM     71  O   UNL     1      -3.551  19.086   3.636  1.00  0.00    -0.237 OA
ATOM     72  O   UNL     1      -5.519  18.825   2.156  1.00  0.00    -0.237 OA
ATOM     73  O   UNL     1      -5.402  17.583   4.282  1.00  0.00    -0.744 OA
ENDBRANCH  69  70
ENDBRANCH  48  62
BRANCH  49  74
ATOM     74  C   UNL     1       3.319  13.899   7.471  1.00  0.00     0.058 A 
ATOM     75  C   UNL     1       3.707  15.120   8.054  1.00  0.00     0.135 A 
ATOM     76  C   UNL     1       2.679  12.982   8.331  1.00  0.00     0.135 A 
ATOM     77  F   UNL     1       4.301  16.063   7.307  1.00  0.00    -0.206 F 
ATOM     78  C   UNL     1       3.438  15.430   9.394  1.00  0.00     0.059 A 
ATOM     79  C   UNL     1       2.411  13.264   9.671  1.00  0.00     0.059 A 
ATOM     80  F   UNL     1       2.208  11.813   7.873  1.00  0.00    -0.206 F 
ATOM     81  C   UNL     1       2.771  14.500  10.191  1.00  0.00     0.060 A 
BRANCH  81  82
ATOM     82  S   UNL     1       2.270  14.952  11.870  1.00  0.00     0.124 S 
ATOM     83  O   UNL     1       3.553  15.020  12.560  1.00  0.00    -0.237 OA
ATOM     84  O   UNL     1       1.591  16.226  11.658  1.00  0.00    -0.237 OA
ATOM     85  O   UNL     1       1.403  13.848  12.274  1.00  0.00    -0.744 OA
ENDBRANCH  81  82
ENDBRANCH  49  74
BRANCH  61  86
ATOM     86  C   UNL     1       4.485  14.956   1.292  1.00  0.00     0.058 A 
ATOM     87  C   UNL     1       5.227  13.820   1.664  1.00  0.00     0.135 A 
ATOM     88  C   UNL     1       5.073  15.830   0.366  1.00  0.00     0.135 A 
ATOM     89  F   UNL     1       4.697  12.884   2.465  1.00  0.00    -0.206 F 
ATOM     90  C   UNL     1       6.511  13.586   1.165  1.00  0.00     0.059 A 
ATOM     91  C   UNL     1       6.337  15.601  -0.168  1.00  0.00     0.059 A 
ATOM     92  F   UNL     1       4.390  16.899  -0.075  1.00  0.00    -0.206 F 
ATOM     93  C   UNL     1       7.056  14.482   0.245  1.00  0.00     0.060 A 
BRANCH  93  94
ATOM     94  S   UNL     1       8.683  14.143  -0.462  1.00  0.00     0.124 S 
ATOM     95  O   UNL     1       9.568  14.382   0.673  1.00  0.00    -0.237 OA
ATOM     96  O   UNL     1       8.560  12.752  -0.889  1.00  0.00    -0.237 OA
ATOM     97  O   UNL     1       8.791  15.112  -1.551  1.00  0.00    -0.744 OA
ENDBRANCH  93  94
ENDBRANCH  61  86
ENDBRANCH  35  36
ENDBRANCH  28  30
ENDBRANCH  27  28
ENDBRANCH  26  27
ENDBRANCH  25  26
ENDBRANCH  24  25
ENDBRANCH   1  24
TORSDOF 22
