REMARK SMILES Cc1ccc(C)c(S(=O)(=O)N[C@H](CC2=c3ccccc3=NC2)C(=O)OCCOCCOCCOC(=O)c2ccc(-c3c4nc(c(-c5c(F)cc(S(=O)(=O)[O-])cc5F)c5ccc([nH]5)c(-c5c(F)cc(S(=O)(=O)[O-])cc5F)c5nc(c(-c6c(F)cc(S(=O)(=O)[O-])cc6F)c6ccc3[nH]6)C=C5)C=C4)cc2)c1
REMARK SMILES IDX 29 1 28 2 27 3 26 4 25 5 23 6 24 7 12 8 11 9 8 11 9 12 10 13
REMARK SMILES IDX 7 14 1 15 2 16 3 17 103 18 4 19 5 20 6 21 13 22 14 23 15 24
REMARK SMILES IDX 22 25 16 26 20 27 21 28 17 29 19 30 18 31 30 32 31 33 32 34
REMARK SMILES IDX 33 35 34 36 35 37 36 38 37 39 38 40 102 41 39 42 101 43
REMARK SMILES IDX 40 44 41 45 42 46 95 47 43 48 100 49 94 50 96 51 44 52 99 53
REMARK SMILES IDX 93 54 92 55 45 57 79 58 58 59 78 60 59 61 62 62 77 63 97 64
REMARK SMILES IDX 60 65 61 66 76 68 98 69 63 70 46 71 47 72 56 73 48 74 49 75
REMARK SMILES IDX 55 76 57 77 50 78 51 79 52 80 53 81 54 82 80 83 81 84 90 85
REMARK SMILES IDX 82 86 83 87 89 88 91 89 84 90 85 91 86 92 87 93 88 94 64 95
REMARK SMILES IDX 65 96 74 97 66 98 67 99 73 100 75 101 68 102 69 103 70 104
REMARK SMILES IDX 71 105 72 106
REMARK H PARENT 11 10 96 56 62 67
REMARK Flexibility Score: inf
ROOT
ATOM      1  C   UNL     1       4.958   6.306   0.863  1.00  0.00     0.188 C 
ENDROOT
BRANCH   1   2
ATOM      2  O   UNL     1       5.893   6.717  -0.118  1.00  0.00    -0.376 OA
BRANCH   2   3
ATOM      3  C   UNL     1       5.370   7.421  -1.242  1.00  0.00     0.202 C 
BRANCH   3   4
ATOM      4  C   UNL     1       4.324   6.739  -2.189  1.00  0.00     0.261 C 
BRANCH   4   5
ATOM      5  O   UNL     1       3.767   5.441  -1.742  1.00  0.00    -0.462 OA
BRANCH   5   6
ATOM      6  C   UNL     1       2.965   4.598  -2.493  1.00  0.00     0.324 C 
ATOM      7  O   UNL     1       3.496   3.867  -3.328  1.00  0.00    -0.250 OA
BRANCH   6   8
ATOM      8  C   UNL     1       1.442   4.248  -1.950  1.00  0.00     0.183 C 
BRANCH   8   9
ATOM      9  N   UNL     1       0.393   4.000  -3.033  1.00  0.00    -0.197 NA
ATOM     10  H   UNL     1      -0.502   4.125  -2.562  1.00  0.00     0.142 HD
BRANCH   9  11
ATOM     11  S   UNL     1       0.194   2.622  -3.969  1.00  0.00     0.241 S 
ATOM     12  O   UNL     1       1.460   2.340  -4.597  1.00  0.00    -0.207 OA
ATOM     13  O   UNL     1      -0.997   2.863  -4.760  1.00  0.00    -0.207 OA
BRANCH  11  14
ATOM     14  C   UNL     1      -0.239   1.171  -2.978  1.00  0.00     0.085 A 
ATOM     15  C   UNL     1      -1.603   0.205   0.487  1.00  0.00     0.044 C 
ATOM     16  C   UNL     1      -1.049   0.139  -0.909  1.00  0.00    -0.050 A 
ATOM     17  C   UNL     1      -0.771  -1.128  -1.431  1.00  0.00     0.004 A 
ATOM     18  C   UNL     1      -0.800   1.289  -1.693  1.00  0.00     0.025 A 
ATOM     19  C   UNL     1      -0.285  -1.257  -2.725  1.00  0.00     0.005 A 
ATOM     20  C   UNL     1      -0.037  -0.124  -3.523  1.00  0.00    -0.031 A 
ATOM     21  C   UNL     1       0.416  -0.414  -4.930  1.00  0.00     0.046 C 
ENDBRANCH  11  14
ENDBRANCH   9  11
ENDBRANCH   8   9
BRANCH   8  22
ATOM     22  C   UNL     1       0.364   4.878  -0.572  1.00  0.00     0.065 C 
BRANCH  22  23
ATOM     23  C   UNL     1       0.346   6.261   1.143  1.00  0.00    -0.037 C 
ATOM     24  C   UNL     1       0.106   6.158   2.597  1.00  0.00     0.001 A 
ATOM     25  C   UNL     1      -0.129   7.947   1.137  1.00  0.00     0.174 C 
ATOM     26  C   UNL     1      -0.121   5.072   3.622  1.00  0.00     0.010 A 
ATOM     27  C   UNL     1      -0.012   7.488   3.228  1.00  0.00     0.065 A 
ATOM     28  N   UNL     1      -0.216   8.506   2.485  1.00  0.00    -0.280 NA
ATOM     29  C   UNL     1       0.145   5.247   4.924  1.00  0.00     0.001 A 
ATOM     30  C   UNL     1       0.229   7.635   4.683  1.00  0.00     0.028 A 
ATOM     31  C   UNL     1       0.427   6.551   5.441  1.00  0.00     0.002 A 
ENDBRANCH  22  23
ENDBRANCH   8  22
ENDBRANCH   6   8
ENDBRANCH   5   6
ENDBRANCH   4   5
ENDBRANCH   3   4
ENDBRANCH   2   3
ENDBRANCH   1   2
BRANCH   1  32
ATOM     32  C   UNL     1       3.784   7.252   1.061  1.00  0.00     0.188 C 
BRANCH  32  33
ATOM     33  O   UNL     1       4.046   8.279   1.980  1.00  0.00    -0.376 OA
BRANCH  33  34
ATOM     34  C   UNL     1       3.163   8.083   3.088  1.00  0.00     0.202 C 
BRANCH  34  35
ATOM     35  C   UNL     1       3.304   6.645   3.729  1.00  0.00     0.261 C 
BRANCH  35  36
ATOM     36  O   UNL     1       2.695   5.220   3.194  1.00  0.00    -0.460 OA
BRANCH  36  37
ATOM     37  C   UNL     1       2.045   4.136   2.595  1.00  0.00     0.338 C 
ATOM     38  O   UNL     1       2.283   3.002   3.005  1.00  0.00    -0.246 OA
BRANCH  37  39
ATOM     39  C   UNL     1       1.044   4.250   1.331  1.00  0.00     0.060 A 
ATOM     40  C   UNL     1      -0.793   4.556   1.056  1.00  0.00     0.016 A 
ATOM     41  C   UNL     1       2.140   5.152   0.383  1.00  0.00     0.016 A 
ATOM     42  C   UNL     1      -1.306   5.961  -0.067  1.00  0.00     0.010 A 
ATOM     43  C   UNL     1       1.625   6.482  -0.662  1.00  0.00     0.010 A 
ATOM     44  C   UNL     1       0.021   6.945  -0.920  1.00  0.00    -0.014 A 
BRANCH  44  45
ATOM     45  C   UNL     1       0.188   8.223  -1.923  1.00  0.00     0.031 A 
ATOM     46  C   UNL     1      -0.892   7.896  -2.812  1.00  0.00     0.074 A 
ATOM     47  C   UNL     1       1.120   9.271  -2.229  1.00  0.00     0.049 A 
ATOM     48  N   UNL     1      -0.765   6.944  -3.679  1.00  0.00    -0.248 NA
ATOM     49  C   UNL     1      -2.270   8.186  -2.402  1.00  0.00     0.031 C 
ATOM     50  C   UNL     1       2.244   9.828  -1.416  1.00  0.00     0.029 A 
ATOM     51  N   UNL     1       1.313  10.113  -3.402  1.00  0.00    -0.354 N 
ATOM     52  C   UNL     1      -1.987   6.987  -4.299  1.00  0.00     0.074 A 
ATOM     53  C   UNL     1      -2.922   7.422  -3.286  1.00  0.00     0.031 C 
ATOM     54  C   UNL     1       2.830  10.929  -1.972  1.00  0.00     0.029 A 
ATOM     55  C   UNL     1       2.247  11.239  -3.262  1.00  0.00     0.049 A 
ATOM     56  H   UNL     1       0.841   9.936  -4.248  1.00  0.00     0.167 HD
ATOM     57  C   UNL     1      -1.952   7.309  -5.617  1.00  0.00     0.037 A 
ATOM     58  C   UNL     1       2.659  12.258  -4.135  1.00  0.00     0.037 A 
ATOM     59  C   UNL     1      -0.657   7.042  -6.202  1.00  0.00     0.049 A 
ATOM     60  C   UNL     1       2.468  11.774  -5.510  1.00  0.00     0.074 A 
ATOM     61  C   UNL     1       0.117   5.916  -6.409  1.00  0.00     0.029 A 
ATOM     62  N   UNL     1       0.201   8.110  -6.216  1.00  0.00    -0.354 N 
ATOM     63  N   UNL     1       3.233  10.881  -6.063  1.00  0.00    -0.248 NA
ATOM     64  C   UNL     1       1.152  11.961  -6.088  1.00  0.00     0.031 C 
ATOM     65  C   UNL     1       1.463   6.351  -6.551  1.00  0.00     0.029 A 
ATOM     66  C   UNL     1       1.476   7.739  -6.555  1.00  0.00     0.049 A 
ATOM     67  H   UNL     1      -0.066   9.034  -6.008  1.00  0.00     0.167 HD
ATOM     68  C   UNL     1       2.318  10.043  -6.657  1.00  0.00     0.074 A 
ATOM     69  C   UNL     1       1.068  10.801  -6.736  1.00  0.00     0.031 C 
ATOM     70  C   UNL     1       2.542   8.703  -6.657  1.00  0.00     0.037 A 
BRANCH  57  71
ATOM     71  C   UNL     1      -2.896   8.333  -6.158  1.00  0.00     0.058 A 
ATOM     72  C   UNL     1      -3.293   8.259  -7.492  1.00  0.00     0.135 A 
ATOM     73  C   UNL     1      -3.307   9.485  -5.443  1.00  0.00     0.135 A 
ATOM     74  F   UNL     1      -2.851   7.262  -8.273  1.00  0.00    -0.206 F 
ATOM     75  C   UNL     1      -4.120   9.226  -8.056  1.00  0.00     0.059 A 
ATOM     76  C   UNL     1      -4.200  10.409  -5.948  1.00  0.00     0.059 A 
ATOM     77  F   UNL     1      -2.785   9.808  -4.254  1.00  0.00    -0.206 F 
ATOM     78  C   UNL     1      -4.596  10.274  -7.264  1.00  0.00     0.060 A 
BRANCH  78  79
ATOM     79  S   UNL     1      -5.712  11.483  -7.981  1.00  0.00     0.124 S 
ATOM     80  O   UNL     1      -4.843  12.138  -8.951  1.00  0.00    -0.237 OA
ATOM     81  O   UNL     1      -6.760  10.627  -8.527  1.00  0.00    -0.237 OA
ATOM     82  O   UNL     1      -6.110  12.294  -6.834  1.00  0.00    -0.744 OA
ENDBRANCH  78  79
ENDBRANCH  57  71
BRANCH  58  83
ATOM     83  C   UNL     1       3.004  13.765  -3.994  1.00  0.00     0.058 A 
ATOM     84  C   UNL     1       3.225  14.652  -5.106  1.00  0.00     0.135 A 
ATOM     85  C   UNL     1       2.758  14.432  -2.791  1.00  0.00     0.135 A 
ATOM     86  F   UNL     1       3.562  14.166  -6.314  1.00  0.00    -0.206 F 
ATOM     87  C   UNL     1       3.039  16.058  -5.044  1.00  0.00     0.059 A 
ATOM     88  C   UNL     1       2.561  15.823  -2.706  1.00  0.00     0.059 A 
ATOM     89  F   UNL     1       2.623  13.734  -1.658  1.00  0.00    -0.206 F 
ATOM     90  C   UNL     1       2.641  16.628  -3.840  1.00  0.00     0.060 A 
BRANCH  90  91
ATOM     91  S   UNL     1       2.064  18.358  -3.765  1.00  0.00     0.124 S 
ATOM     92  O   UNL     1       3.293  19.116  -3.974  1.00  0.00    -0.237 OA
ATOM     93  O   UNL     1       1.091  18.416  -4.851  1.00  0.00    -0.237 OA
ATOM     94  O   UNL     1       1.494  18.461  -2.423  1.00  0.00    -0.744 OA
ENDBRANCH  90  91
ENDBRANCH  58  83
BRANCH  70  95
ATOM     95  C   UNL     1       3.956   8.213  -6.777  1.00  0.00     0.058 A 
ATOM     96  C   UNL     1       4.955   8.286  -5.794  1.00  0.00     0.135 A 
ATOM     97  C   UNL     1       4.272   7.535  -7.967  1.00  0.00     0.135 A 
ATOM     98  F   UNL     1       4.716   8.876  -4.610  1.00  0.00    -0.206 F 
ATOM     99  C   UNL     1       6.213   7.698  -5.990  1.00  0.00     0.059 A 
ATOM    100  C   UNL     1       5.500   6.925  -8.173  1.00  0.00     0.059 A 
ATOM    101  F   UNL     1       3.352   7.428  -8.941  1.00  0.00    -0.206 F 
ATOM    102  C   UNL     1       6.472   7.015  -7.184  1.00  0.00     0.060 A 
BRANCH 102 103
ATOM    103  S   UNL     1       8.084   6.238  -7.444  1.00  0.00     0.124 S 
ATOM    104  O   UNL     1       8.982   7.388  -7.436  1.00  0.00    -0.237 OA
ATOM    105  O   UNL     1       8.190   5.344  -6.296  1.00  0.00    -0.237 OA
ATOM    106  O   UNL     1       7.940   5.572  -8.737  1.00  0.00    -0.744 OA
ENDBRANCH 102 103
ENDBRANCH  70  95
ENDBRANCH  44  45
ENDBRANCH  37  39
ENDBRANCH  36  37
ENDBRANCH  35  36
ENDBRANCH  34  35
ENDBRANCH  33  34
ENDBRANCH  32  33
ENDBRANCH   1  32
TORSDOF 25
