REMARK SMILES O=C(OCCOCCOCCOC(=O)[C@H]1CCCN(C(=O)C2CCN(S(=O)(=O)c3ccccc3)CC2)C1)c1ccc(-c2c3nc(c(-c4c(F)cc(S(=O)(=O)[O-])cc4F)c4ccc([nH]4)c(-c4c(F)cc(S(=O)(=O)[O-])cc4F)c4nc(c(-c5c(F)cc(S(=O)(=O)[O-])cc5F)c5ccc2[nH]5)C=C4)C=C3)cc1
REMARK SMILES IDX 8 1 7 2 6 3 5 4 4 5 3 6 2 7 1 8 38 9 39 10 103 11 40 12
REMARK SMILES IDX 102 13 41 14 42 15 43 16 96 17 44 18 101 19 95 20 97 21
REMARK SMILES IDX 45 22 100 23 94 24 93 25 46 27 80 28 59 29 79 30 60 31 63 32
REMARK SMILES IDX 78 33 98 34 61 35 62 36 77 38 99 39 64 40 47 41 48 42 57 43
REMARK SMILES IDX 49 44 50 45 56 46 58 47 51 48 52 49 53 50 54 51 55 52 81 53
REMARK SMILES IDX 82 54 91 55 83 56 84 57 90 58 92 59 85 60 86 61 87 62 88 63
REMARK SMILES IDX 89 64 65 65 66 66 75 67 67 68 68 69 74 70 76 71 69 72 70 73
REMARK SMILES IDX 71 74 72 75 73 76 9 77 10 78 11 79 12 80 13 81 14 82 15 83
REMARK SMILES IDX 16 84 37 85 17 86 19 87 18 88 20 89 21 90 22 91 23 92 36 93
REMARK SMILES IDX 24 94 35 95 25 96 26 97 27 98 28 99 29 100 30 101 34 102
REMARK SMILES IDX 31 103 33 104 32 105
REMARK H PARENT 97 26 63 37
REMARK Flexibility Score: inf
ROOT
ATOM      1  C   UNL     1       6.735  -2.793  -3.262  1.00  0.00     0.188 C 
ENDROOT
BRANCH   1   2
ATOM      2  C   UNL     1       6.680  -1.547  -2.375  1.00  0.00     0.188 C 
BRANCH   2   3
ATOM      3  O   UNL     1       5.606  -0.670  -2.735  1.00  0.00    -0.376 OA
BRANCH   3   4
ATOM      4  C   UNL     1       5.946   0.717  -2.626  1.00  0.00     0.202 C 
BRANCH   4   5
ATOM      5  C   UNL     1       5.882   1.290  -1.201  1.00  0.00     0.261 C 
BRANCH   5   6
ATOM      6  O   UNL     1       6.136   0.300  -0.191  1.00  0.00    -0.460 OA
BRANCH   6   7
ATOM      7  C   UNL     1       5.229  -0.414   0.526  1.00  0.00     0.338 C 
ATOM      8  O   UNL     1       5.638  -1.151   1.422  1.00  0.00    -0.246 OA
BRANCH   7   9
ATOM      9  C   UNL     1       3.752  -0.320   0.311  1.00  0.00     0.060 A 
ATOM     10  C   UNL     1       3.142   0.046  -0.888  1.00  0.00     0.016 A 
ATOM     11  C   UNL     1       2.918  -0.659   1.390  1.00  0.00     0.016 A 
ATOM     12  C   UNL     1       1.770   0.243  -0.977  1.00  0.00     0.010 A 
ATOM     13  C   UNL     1       1.527  -0.548   1.283  1.00  0.00     0.010 A 
ATOM     14  C   UNL     1       0.950  -0.037   0.110  1.00  0.00    -0.014 A 
BRANCH  14  15
ATOM     15  C   UNL     1      -0.476   0.361   0.066  1.00  0.00     0.031 A 
ATOM     16  C   UNL     1      -0.917   1.454   0.995  1.00  0.00     0.074 A 
ATOM     17  C   UNL     1      -1.328  -0.190  -0.822  1.00  0.00     0.049 A 
ATOM     18  N   UNL     1      -2.122   1.829   1.319  1.00  0.00    -0.248 NA
ATOM     19  C   UNL     1       0.152   2.232   1.649  1.00  0.00     0.031 C 
ATOM     20  C   UNL     1      -0.956  -1.158  -1.851  1.00  0.00     0.029 A 
ATOM     21  N   UNL     1      -2.682  -0.056  -0.988  1.00  0.00    -0.354 N 
ATOM     22  C   UNL     1      -1.957   2.899   2.192  1.00  0.00     0.074 A 
ATOM     23  C   UNL     1      -0.540   3.064   2.411  1.00  0.00     0.031 C 
ATOM     24  C   UNL     1      -2.055  -1.597  -2.486  1.00  0.00     0.029 A 
ATOM     25  C   UNL     1      -3.213  -0.944  -1.904  1.00  0.00     0.049 A 
ATOM     26  H   UNL     1      -3.223   0.607  -0.502  1.00  0.00     0.167 HD
ATOM     27  C   UNL     1      -2.914   3.692   2.726  1.00  0.00     0.037 A 
ATOM     28  C   UNL     1      -4.497  -1.235  -2.183  1.00  0.00     0.037 A 
ATOM     29  C   UNL     1      -4.314   3.490   2.471  1.00  0.00     0.049 A 
ATOM     30  C   UNL     1      -5.546  -0.507  -1.398  1.00  0.00     0.074 A 
ATOM     31  C   UNL     1      -5.399   4.185   2.970  1.00  0.00     0.029 A 
ATOM     32  N   UNL     1      -4.817   2.510   1.622  1.00  0.00    -0.354 N 
ATOM     33  N   UNL     1      -5.388   0.408  -0.469  1.00  0.00    -0.248 NA
ATOM     34  C   UNL     1      -6.942  -0.841  -1.696  1.00  0.00     0.031 C 
ATOM     35  C   UNL     1      -6.559   3.602   2.447  1.00  0.00     0.029 A 
ATOM     36  C   UNL     1      -6.195   2.572   1.592  1.00  0.00     0.049 A 
ATOM     37  H   UNL     1      -4.269   1.867   1.116  1.00  0.00     0.167 HD
ATOM     38  C   UNL     1      -6.666   0.775  -0.082  1.00  0.00     0.074 A 
ATOM     39  C   UNL     1      -7.585  -0.035  -0.862  1.00  0.00     0.031 C 
ATOM     40  C   UNL     1      -7.053   1.717   0.812  1.00  0.00     0.037 A 
BRANCH  27  41
ATOM     41  C   UNL     1      -2.469   4.821   3.615  1.00  0.00     0.058 A 
ATOM     42  C   UNL     1      -1.795   5.941   3.098  1.00  0.00     0.135 A 
ATOM     43  C   UNL     1      -2.704   4.785   4.998  1.00  0.00     0.135 A 
ATOM     44  F   UNL     1      -1.518   6.016   1.786  1.00  0.00    -0.206 F 
ATOM     45  C   UNL     1      -1.346   6.968   3.922  1.00  0.00     0.059 A 
ATOM     46  C   UNL     1      -2.285   5.814   5.839  1.00  0.00     0.059 A 
ATOM     47  F   UNL     1      -3.333   3.735   5.549  1.00  0.00    -0.206 F 
ATOM     48  C   UNL     1      -1.592   6.894   5.293  1.00  0.00     0.060 A 
BRANCH  48  49
ATOM     49  S   UNL     1      -0.992   8.230   6.350  1.00  0.00     0.124 S 
ATOM     50  O   UNL     1       0.444   7.967   6.363  1.00  0.00    -0.237 OA
ATOM     51  O   UNL     1      -1.411   9.420   5.617  1.00  0.00    -0.237 OA
ATOM     52  O   UNL     1      -1.684   7.999   7.614  1.00  0.00    -0.744 OA
ENDBRANCH  48  49
ENDBRANCH  27  41
BRANCH  28  53
ATOM     53  C   UNL     1      -4.859  -2.325  -3.132  1.00  0.00     0.058 A 
ATOM     54  C   UNL     1      -4.832  -2.164  -4.522  1.00  0.00     0.135 A 
ATOM     55  C   UNL     1      -5.246  -3.579  -2.640  1.00  0.00     0.135 A 
ATOM     56  F   UNL     1      -4.498  -0.978  -5.054  1.00  0.00    -0.206 F 
ATOM     57  C   UNL     1      -5.153  -3.213  -5.388  1.00  0.00     0.059 A 
ATOM     58  C   UNL     1      -5.549  -4.648  -3.477  1.00  0.00     0.059 A 
ATOM     59  F   UNL     1      -5.366  -3.758  -1.320  1.00  0.00    -0.206 F 
ATOM     60  C   UNL     1      -5.500  -4.456  -4.854  1.00  0.00     0.060 A 
BRANCH  60  61
ATOM     61  S   UNL     1      -5.867  -5.856  -5.938  1.00  0.00     0.124 S 
ATOM     62  O   UNL     1      -7.318  -5.952  -5.818  1.00  0.00    -0.237 OA
ATOM     63  O   UNL     1      -5.372  -5.410  -7.237  1.00  0.00    -0.237 OA
ATOM     64  O   UNL     1      -5.103  -6.939  -5.328  1.00  0.00    -0.744 OA
ENDBRANCH  60  61
ENDBRANCH  28  53
BRANCH  40  65
ATOM     65  C   UNL     1      -8.526   1.935   0.936  1.00  0.00     0.058 A 
ATOM     66  C   UNL     1      -9.332   1.084   1.702  1.00  0.00     0.135 A 
ATOM     67  C   UNL     1      -9.121   3.032   0.296  1.00  0.00     0.135 A 
ATOM     68  F   UNL     1      -8.798   0.015   2.314  1.00  0.00    -0.206 F 
ATOM     69  C   UNL     1     -10.696   1.309   1.821  1.00  0.00     0.059 A 
ATOM     70  C   UNL     1     -10.479   3.287   0.419  1.00  0.00     0.059 A 
ATOM     71  F   UNL     1      -8.378   3.869  -0.445  1.00  0.00    -0.206 F 
ATOM     72  C   UNL     1     -11.259   2.414   1.177  1.00  0.00     0.060 A 
BRANCH  72  73
ATOM     73  S   UNL     1     -13.026   2.718   1.366  1.00  0.00     0.124 S 
ATOM     74  O   UNL     1     -13.592   1.701   0.486  1.00  0.00    -0.237 OA
ATOM     75  O   UNL     1     -13.227   2.505   2.796  1.00  0.00    -0.237 OA
ATOM     76  O   UNL     1     -13.181   4.098   0.916  1.00  0.00    -0.744 OA
ENDBRANCH  72  73
ENDBRANCH  40  65
ENDBRANCH  14  15
ENDBRANCH   7   9
ENDBRANCH   6   7
ENDBRANCH   5   6
ENDBRANCH   4   5
ENDBRANCH   3   4
ENDBRANCH   2   3
ENDBRANCH   1   2
BRANCH   1  77
ATOM     77  O   UNL     1       7.062  -2.587  -4.637  1.00  0.00    -0.376 OA
BRANCH  77  78
ATOM     78  C   UNL     1       6.217  -1.725  -5.396  1.00  0.00     0.202 C 
BRANCH  78  79
ATOM     79  C   UNL     1       4.812  -2.235  -5.742  1.00  0.00     0.261 C 
BRANCH  79  80
ATOM     80  O   UNL     1       4.066  -2.679  -4.601  1.00  0.00    -0.463 OA
BRANCH  80  81
ATOM     81  C   UNL     1       3.862  -4.028  -4.511  1.00  0.00     0.310 C 
ATOM     82  O   UNL     1       4.248  -4.847  -5.334  1.00  0.00    -0.252 OA
BRANCH  81  83
ATOM     83  C   UNL     1       3.156  -4.377  -3.210  1.00  0.00     0.119 C 
ATOM     84  C   UNL     1       1.857  -3.566  -3.106  1.00  0.00     0.019 C 
ATOM     85  C   UNL     1       2.961  -5.910  -3.133  1.00  0.00     0.134 C 
ATOM     86  C   UNL     1       0.917  -4.150  -2.070  1.00  0.00     0.022 C 
ATOM     87  N   UNL     1       1.915  -6.330  -2.189  1.00  0.00    -0.342 N 
ATOM     88  C   UNL     1       0.684  -5.612  -2.378  1.00  0.00     0.119 C 
BRANCH  87  89
ATOM     89  C   UNL     1       2.140  -7.339  -1.274  1.00  0.00     0.225 C 
ATOM     90  O   UNL     1       3.281  -7.811  -1.157  1.00  0.00    -0.275 OA
BRANCH  89  91
ATOM     91  C   UNL     1       1.037  -7.930  -0.348  1.00  0.00     0.081 C 
ATOM     92  C   UNL     1      -0.162  -8.623  -0.981  1.00  0.00     0.030 C 
ATOM     93  C   UNL     1       0.632  -7.122   0.875  1.00  0.00     0.030 C 
ATOM     94  C   UNL     1      -1.465  -7.840  -1.066  1.00  0.00     0.103 C 
ATOM     95  C   UNL     1      -0.558  -6.204   0.682  1.00  0.00     0.103 C 
ATOM     96  N   UNL     1      -1.729  -6.835   0.030  1.00  0.00    -0.198 NA
BRANCH  96  97
ATOM     97  S   UNL     1      -2.928  -5.701  -0.571  1.00  0.00     0.243 S 
ATOM     98  O   UNL     1      -2.294  -4.981  -1.667  1.00  0.00    -0.207 OA
ATOM     99  O   UNL     1      -4.125  -6.473  -0.790  1.00  0.00    -0.207 OA
BRANCH  97 100
ATOM    100  C   UNL     1      -3.243  -4.494   0.698  1.00  0.00     0.082 A 
ATOM    101  C   UNL     1      -4.524  -4.411   1.253  1.00  0.00     0.022 A 
ATOM    102  C   UNL     1      -2.328  -3.453   0.905  1.00  0.00     0.022 A 
ATOM    103  C   UNL     1      -4.890  -3.280   1.988  1.00  0.00     0.001 A 
ATOM    104  C   UNL     1      -2.681  -2.356   1.690  1.00  0.00     0.001 A 
ATOM    105  C   UNL     1      -3.969  -2.256   2.207  1.00  0.00     0.000 A 
ENDBRANCH  97 100
ENDBRANCH  96  97
ENDBRANCH  89  91
ENDBRANCH  87  89
ENDBRANCH  81  83
ENDBRANCH  80  81
ENDBRANCH  79  80
ENDBRANCH  78  79
ENDBRANCH  77  78
ENDBRANCH   1  77
TORSDOF 24
