REMARK SMILES COc1cc([C@H]([NH3+])CC(=O)OCCOCCOCCOC(=O)c2ccc(-c3c4nc(c(-c5c(F)cc(S(=O)(=O)[O-])cc5F)c5ccc([nH]5)c(-c5c(F)cc(S(=O)(=O)[O-])cc5F)c5nc(c(-c6c(F)cc(S(=O)(=O)[O-])cc6F)c6ccc3[nH]6)C=C5)C=C4)cc2)c([N+](=O)[O-])cc1OC
REMARK SMILES IDX 15 1 14 2 13 3 12 4 11 5 9 6 10 7 8 8 6 9 5 10 3 11 4 12
REMARK SMILES IDX 94 13 93 14 89 15 2 16 1 17 95 18 96 19 90 20 91 21 92 22
REMARK SMILES IDX 7 23 16 27 17 28 18 29 19 30 20 31 21 32 22 33 23 34 24 35
REMARK SMILES IDX 88 36 25 37 87 38 26 39 27 40 28 41 81 42 29 43 86 44 80 45
REMARK SMILES IDX 82 46 30 47 85 48 79 49 78 50 31 52 65 53 44 54 64 55 45 56
REMARK SMILES IDX 48 57 63 58 83 59 46 60 47 61 62 63 84 64 49 65 32 66 33 67
REMARK SMILES IDX 42 68 34 69 35 70 41 71 43 72 36 73 37 74 38 75 39 76 40 77
REMARK SMILES IDX 66 78 67 79 76 80 68 81 69 82 75 83 77 84 70 85 71 86 72 87
REMARK SMILES IDX 73 88 74 89 50 90 51 91 60 92 52 93 53 94 59 95 61 96 54 97
REMARK SMILES IDX 55 98 56 99 57 100 58 101
REMARK H PARENT 7 24 7 25 7 26 82 51 48 62
REMARK Flexibility Score: inf
ROOT
ATOM      1  C   UNL     1      -0.948  -4.621   6.956  1.00  0.00     0.188 C 
ENDROOT
BRANCH   1   2
ATOM      2  O   UNL     1      -0.999  -5.899   6.325  1.00  0.00    -0.376 OA
BRANCH   2   3
ATOM      3  C   UNL     1      -0.298  -6.030   5.087  1.00  0.00     0.202 C 
BRANCH   3   4
ATOM      4  C   UNL     1      -0.790  -5.126   3.944  1.00  0.00     0.261 C 
BRANCH   4   5
ATOM      5  O   UNL     1      -0.772  -3.716   4.272  1.00  0.00    -0.463 OA
BRANCH   5   6
ATOM      6  C   UNL     1      -1.891  -3.029   3.922  1.00  0.00     0.312 C 
ATOM      7  O   UNL     1      -2.774  -3.473   3.195  1.00  0.00    -0.252 OA
BRANCH   6   8
ATOM      8  C   UNL     1      -2.065  -1.716   4.660  1.00  0.00     0.193 C 
BRANCH   8   9
ATOM      9  C   UNL     1      -0.839  -0.877   5.092  1.00  0.00     0.230 C 
BRANCH   9  10
ATOM     10  C   UNL     1      -1.333   0.455   5.707  1.00  0.00     0.091 A 
ATOM     11  C   UNL     1      -2.986   1.518   7.224  1.00  0.00     0.161 A 
ATOM     12  C   UNL     1      -2.317   0.382   6.727  1.00  0.00     0.067 A 
ATOM     13  C   UNL     1      -2.657   2.789   6.755  1.00  0.00     0.167 A 
ATOM     14  C   UNL     1      -1.608   2.907   5.845  1.00  0.00     0.136 A 
ATOM     15  C   UNL     1      -0.948   1.764   5.345  1.00  0.00     0.282 A 
BRANCH  11  16
ATOM     16  O   UNL     1      -3.875   1.374   8.254  1.00  0.00    -0.493 OA
ATOM     17  C   UNL     1      -5.024   0.600   7.905  1.00  0.00     0.278 C 
ENDBRANCH  11  16
BRANCH  13  18
ATOM     18  O   UNL     1      -3.211   3.985   7.122  1.00  0.00    -0.493 OA
ATOM     19  C   UNL     1      -4.569   3.963   7.550  1.00  0.00     0.278 C 
ENDBRANCH  13  18
BRANCH  15  20
ATOM     20  N   UNL     1       0.225   2.047   4.527  1.00  0.00     0.063 N 
ATOM     21  O   UNL     1       1.300   1.538   4.884  1.00  0.00    -0.258 OA
ATOM     22  O   UNL     1       0.089   2.844   3.587  1.00  0.00    -0.258 OA
ENDBRANCH  15  20
ENDBRANCH   9  10
BRANCH   9  23
ATOM     23  N   UNL     1       0.047  -0.717   3.939  1.00  0.00    -0.351 N 
ATOM     24  H   UNL     1      -0.460  -0.255   3.183  1.00  0.00     0.345 HD
ATOM     25  H   UNL     1       0.365  -1.633   3.624  1.00  0.00     0.345 HD
ATOM     26  H   UNL     1       0.852  -0.149   4.205  1.00  0.00     0.345 HD
ENDBRANCH   9  23
ENDBRANCH   8   9
ENDBRANCH   6   8
ENDBRANCH   5   6
ENDBRANCH   4   5
ENDBRANCH   3   4
ENDBRANCH   2   3
ENDBRANCH   1   2
BRANCH   1  27
ATOM     27  C   UNL     1       0.458  -4.110   7.279  1.00  0.00     0.188 C 
BRANCH  27  28
ATOM     28  O   UNL     1       1.350  -4.104   6.173  1.00  0.00    -0.376 OA
BRANCH  28  29
ATOM     29  C   UNL     1       2.731  -3.845   6.438  1.00  0.00     0.202 C 
BRANCH  29  30
ATOM     30  C   UNL     1       3.403  -4.603   7.604  1.00  0.00     0.261 C 
BRANCH  30  31
ATOM     31  O   UNL     1       2.822  -4.410   8.909  1.00  0.00    -0.460 OA
BRANCH  31  32
ATOM     32  C   UNL     1       2.600  -3.139   9.320  1.00  0.00     0.338 C 
ATOM     33  O   UNL     1       3.056  -2.129   8.810  1.00  0.00    -0.246 OA
BRANCH  32  34
ATOM     34  C   UNL     1       1.490  -3.149  10.312  1.00  0.00     0.060 A 
ATOM     35  C   UNL     1       0.541  -2.117  10.246  1.00  0.00     0.016 A 
ATOM     36  C   UNL     1       1.327  -4.181  11.242  1.00  0.00     0.016 A 
ATOM     37  C   UNL     1      -0.541  -2.092  11.130  1.00  0.00     0.010 A 
ATOM     38  C   UNL     1       0.250  -4.147  12.138  1.00  0.00     0.010 A 
ATOM     39  C   UNL     1      -0.671  -3.084  12.110  1.00  0.00    -0.014 A 
BRANCH  39  40
ATOM     40  C   UNL     1      -1.630  -2.893  13.230  1.00  0.00     0.031 A 
ATOM     41  C   UNL     1      -1.106  -2.326  14.524  1.00  0.00     0.074 A 
ATOM     42  C   UNL     1      -2.939  -3.183  13.112  1.00  0.00     0.049 A 
ATOM     43  N   UNL     1      -1.734  -2.097  15.648  1.00  0.00    -0.248 NA
ATOM     44  C   UNL     1       0.323  -1.974  14.550  1.00  0.00     0.031 C 
ATOM     45  C   UNL     1      -3.589  -3.702  11.910  1.00  0.00     0.029 A 
ATOM     46  N   UNL     1      -3.959  -3.086  14.030  1.00  0.00    -0.354 N 
ATOM     47  C   UNL     1      -0.777  -1.582  16.516  1.00  0.00     0.074 A 
ATOM     48  C   UNL     1       0.479  -1.562  15.798  1.00  0.00     0.031 C 
ATOM     49  C   UNL     1      -4.896  -3.892  12.169  1.00  0.00     0.029 A 
ATOM     50  C   UNL     1      -5.171  -3.537  13.562  1.00  0.00     0.049 A 
ATOM     51  H   UNL     1      -3.832  -2.728  14.938  1.00  0.00     0.167 HD
ATOM     52  C   UNL     1      -0.928  -1.155  17.792  1.00  0.00     0.037 A 
ATOM     53  C   UNL     1      -6.358  -3.668  14.191  1.00  0.00     0.037 A 
ATOM     54  C   UNL     1      -2.175  -1.174  18.511  1.00  0.00     0.049 A 
ATOM     55  C   UNL     1      -6.492  -3.249  15.635  1.00  0.00     0.074 A 
ATOM     56  C   UNL     1      -2.429  -0.741  19.800  1.00  0.00     0.029 A 
ATOM     57  N   UNL     1      -3.372  -1.663  18.010  1.00  0.00    -0.354 N 
ATOM     58  N   UNL     1      -5.586  -2.736  16.434  1.00  0.00    -0.248 NA
ATOM     59  C   UNL     1      -7.810  -3.425  16.263  1.00  0.00     0.031 C 
ATOM     60  C   UNL     1      -3.767  -1.019  20.099  1.00  0.00     0.029 A 
ATOM     61  C   UNL     1      -4.362  -1.569  18.976  1.00  0.00     0.049 A 
ATOM     62  H   UNL     1      -3.500  -2.023  17.103  1.00  0.00     0.167 HD
ATOM     63  C   UNL     1      -6.232  -2.502  17.646  1.00  0.00     0.074 A 
ATOM     64  C   UNL     1      -7.607  -2.920  17.473  1.00  0.00     0.031 C 
ATOM     65  C   UNL     1      -5.732  -1.983  18.795  1.00  0.00     0.037 A 
BRANCH  52  66
ATOM     66  C   UNL     1       0.300  -0.663  18.506  1.00  0.00     0.058 A 
ATOM     67  C   UNL     1       0.919   0.552  18.170  1.00  0.00     0.135 A 
ATOM     68  C   UNL     1       0.856  -1.413  19.556  1.00  0.00     0.135 A 
ATOM     69  F   UNL     1       0.441   1.298  17.161  1.00  0.00    -0.206 F 
ATOM     70  C   UNL     1       2.063   0.991  18.828  1.00  0.00     0.059 A 
ATOM     71  C   UNL     1       1.983  -0.978  20.247  1.00  0.00     0.059 A 
ATOM     72  F   UNL     1       0.307  -2.583  19.916  1.00  0.00    -0.206 F 
ATOM     73  C   UNL     1       2.589   0.217  19.864  1.00  0.00     0.060 A 
BRANCH  73  74
ATOM     74  S   UNL     1       4.078   0.796  20.703  1.00  0.00     0.124 S 
ATOM     75  O   UNL     1       5.096   0.560  19.683  1.00  0.00    -0.237 OA
ATOM     76  O   UNL     1       3.761   2.195  20.971  1.00  0.00    -0.237 OA
ATOM     77  O   UNL     1       4.161  -0.062  21.881  1.00  0.00    -0.744 OA
ENDBRANCH  73  74
ENDBRANCH  52  66
BRANCH  53  78
ATOM     78  C   UNL     1      -7.525  -4.239  13.463  1.00  0.00     0.058 A 
ATOM     79  C   UNL     1      -8.635  -3.448  13.130  1.00  0.00     0.135 A 
ATOM     80  C   UNL     1      -7.555  -5.593  13.090  1.00  0.00     0.135 A 
ATOM     81  F   UNL     1      -8.665  -2.153  13.479  1.00  0.00    -0.206 F 
ATOM     82  C   UNL     1      -9.734  -3.977  12.459  1.00  0.00     0.059 A 
ATOM     83  C   UNL     1      -8.630  -6.139  12.396  1.00  0.00     0.059 A 
ATOM     84  F   UNL     1      -6.518  -6.393  13.383  1.00  0.00    -0.206 F 
ATOM     85  C   UNL     1      -9.718  -5.324  12.089  1.00  0.00     0.060 A 
BRANCH  85  86
ATOM     86  S   UNL     1     -11.117  -5.981  11.155  1.00  0.00     0.124 S 
ATOM     87  O   UNL     1     -12.157  -6.030  12.177  1.00  0.00    -0.237 OA
ATOM     88  O   UNL     1     -11.290  -4.970  10.116  1.00  0.00    -0.237 OA
ATOM     89  O   UNL     1     -10.629  -7.274  10.686  1.00  0.00    -0.744 OA
ENDBRANCH  85  86
ENDBRANCH  53  78
BRANCH  65  90
ATOM     90  C   UNL     1      -6.677  -1.797  19.954  1.00  0.00     0.058 A 
ATOM     91  C   UNL     1      -7.173  -2.884  20.691  1.00  0.00     0.135 A 
ATOM     92  C   UNL     1      -7.043  -0.505  20.371  1.00  0.00     0.135 A 
ATOM     93  F   UNL     1      -6.859  -4.140  20.336  1.00  0.00    -0.206 F 
ATOM     94  C   UNL     1      -8.017  -2.699  21.782  1.00  0.00     0.059 A 
ATOM     95  C   UNL     1      -7.862  -0.296  21.477  1.00  0.00     0.059 A 
ATOM     96  F   UNL     1      -6.587   0.572  19.712  1.00  0.00    -0.206 F 
ATOM     97  C   UNL     1      -8.355  -1.401  22.169  1.00  0.00     0.060 A 
BRANCH  97  98
ATOM     98  S   UNL     1      -9.427  -1.174  23.604  1.00  0.00     0.124 S 
ATOM     99  O   UNL     1     -10.721  -1.588  23.073  1.00  0.00    -0.237 OA
ATOM    100  O   UNL     1      -8.829  -2.072  24.587  1.00  0.00    -0.237 OA
ATOM    101  O   UNL     1      -9.298   0.249  23.904  1.00  0.00    -0.744 OA
ENDBRANCH  97  98
ENDBRANCH  65  90
ENDBRANCH  39  40
ENDBRANCH  32  34
ENDBRANCH  31  32
ENDBRANCH  30  31
ENDBRANCH  29  30
ENDBRANCH  28  29
ENDBRANCH  27  28
ENDBRANCH   1  27
TORSDOF 26
