REMARK SMILES Cc1cccc(C(=O)OCCOCCOCCOC(=O)c2ccc(-c3c4nc(c(-c5c(F)cc(S(=O)(=O)[O-])cc5F)c5ccc([nH]5)c(-c5c(F)cc(S(=O)(=O)[O-])cc5F)c5nc(c(-c6c(F)cc(S(=O)(=O)[O-])cc6F)c6ccc3[nH]6)C=C5)C=C4)cc2)c1OC[C@@H]1C[C@H]2CC[C@@H]1C2
REMARK SMILES IDX 13 1 12 2 11 3 10 4 9 5 7 6 8 7 6 8 1 9 2 10 3 11 87 12 4 13
REMARK SMILES IDX 5 14 88 15 89 16 90 17 91 18 95 19 92 20 94 21 96 22 93 23
REMARK SMILES IDX 14 24 15 25 16 26 17 27 18 28 19 29 20 30 21 31 22 32 86 33
REMARK SMILES IDX 23 34 85 35 24 36 25 37 26 38 79 39 27 40 84 41 78 42 80 43
REMARK SMILES IDX 28 44 83 45 77 46 76 47 29 49 63 50 42 51 62 52 43 53 46 54
REMARK SMILES IDX 61 55 81 56 44 57 45 58 60 60 82 61 47 62 30 63 31 64 40 65
REMARK SMILES IDX 32 66 33 67 39 68 41 69 34 70 35 71 36 72 37 73 38 74 64 75
REMARK SMILES IDX 65 76 74 77 66 78 67 79 73 80 75 81 68 82 69 83 70 84 71 85
REMARK SMILES IDX 72 86 48 87 49 88 58 89 50 90 51 91 57 92 59 93 52 94 53 95
REMARK SMILES IDX 54 96 55 97 56 98
REMARK H PARENT 80 48 46 59
REMARK Flexibility Score: inf
ROOT
ATOM      1  C   UNL     1      -3.893   5.165  -2.006  1.00  0.00     0.188 C 
ENDROOT
BRANCH   1   2
ATOM      2  O   UNL     1      -2.778   5.328  -1.116  1.00  0.00    -0.376 OA
BRANCH   2   3
ATOM      3  C   UNL     1      -1.606   6.107  -1.330  1.00  0.00     0.202 C 
BRANCH   3   4
ATOM      4  C   UNL     1       0.006   5.504  -1.335  1.00  0.00     0.261 C 
BRANCH   4   5
ATOM      5  O   UNL     1       0.570   3.905  -1.138  1.00  0.00    -0.460 OA
BRANCH   5   6
ATOM      6  C   UNL     1       0.902   2.877  -0.233  1.00  0.00     0.342 C 
ATOM      7  O   UNL     1       1.391   3.022   0.880  1.00  0.00    -0.246 OA
BRANCH   6   8
ATOM      8  C   UNL     1       0.721   1.401  -0.533  1.00  0.00     0.102 A 
ATOM      9  C   UNL     1       2.665  -1.508  -2.101  1.00  0.00     0.048 C 
ATOM     10  C   UNL     1       1.617  -0.726  -1.362  1.00  0.00    -0.008 A 
ATOM     11  C   UNL     1       0.540  -1.434  -0.811  1.00  0.00     0.007 A 
ATOM     12  C   UNL     1       1.736   0.674  -1.153  1.00  0.00     0.136 A 
ATOM     13  C   UNL     1      -0.381  -0.766  -0.023  1.00  0.00     0.001 A 
ATOM     14  C   UNL     1      -0.259   0.623   0.146  1.00  0.00     0.019 A 
BRANCH  12  15
ATOM     15  O   UNL     1       2.951   1.221  -1.468  1.00  0.00    -0.492 OA
BRANCH  15  16
ATOM     16  C   UNL     1       3.642   1.855  -0.375  1.00  0.00     0.233 C 
BRANCH  16  17
ATOM     17  C   UNL     1       3.596   1.187   1.026  1.00  0.00     0.030 C 
ATOM     18  C   UNL     1       4.431   2.014   2.028  1.00  0.00     0.011 C 
ATOM     19  C   UNL     1       4.248  -0.206   1.129  1.00  0.00    -0.004 C 
ATOM     20  C   UNL     1       5.483   1.011   2.523  1.00  0.00    -0.010 C 
ATOM     21  C   UNL     1       3.918  -0.804   2.518  1.00  0.00     0.004 C 
ATOM     22  C   UNL     1       5.722   0.145   1.288  1.00  0.00     0.007 C 
ATOM     23  C   UNL     1       4.792   0.023   3.474  1.00  0.00     0.004 C 
ENDBRANCH  16  17
ENDBRANCH  15  16
ENDBRANCH  12  15
ENDBRANCH   6   8
ENDBRANCH   5   6
ENDBRANCH   4   5
ENDBRANCH   3   4
ENDBRANCH   2   3
ENDBRANCH   1   2
BRANCH   1  24
ATOM     24  C   UNL     1      -3.709   5.316  -3.512  1.00  0.00     0.188 C 
BRANCH  24  25
ATOM     25  O   UNL     1      -2.364   5.039  -3.853  1.00  0.00    -0.376 OA
BRANCH  25  26
ATOM     26  C   UNL     1      -2.056   5.092  -5.231  1.00  0.00     0.202 C 
BRANCH  26  27
ATOM     27  C   UNL     1      -2.537   3.855  -6.012  1.00  0.00     0.261 C 
BRANCH  27  28
ATOM     28  O   UNL     1      -1.911   2.651  -5.509  1.00  0.00    -0.460 OA
BRANCH  28  29
ATOM     29  C   UNL     1      -2.742   1.711  -4.896  1.00  0.00     0.338 C 
ATOM     30  O   UNL     1      -3.553   1.090  -5.480  1.00  0.00    -0.246 OA
BRANCH  29  31
ATOM     31  C   UNL     1      -2.429   1.690  -3.401  1.00  0.00     0.060 A 
ATOM     32  C   UNL     1      -3.262   1.302  -2.342  1.00  0.00     0.016 A 
ATOM     33  C   UNL     1      -1.346   2.389  -3.019  1.00  0.00     0.016 A 
ATOM     34  C   UNL     1      -3.072   1.786  -0.951  1.00  0.00     0.010 A 
ATOM     35  C   UNL     1      -1.469   3.035  -1.786  1.00  0.00     0.010 A 
ATOM     36  C   UNL     1      -2.139   2.768  -0.593  1.00  0.00    -0.014 A 
BRANCH  36  37
ATOM     37  C   UNL     1      -1.997   3.659   0.806  1.00  0.00     0.031 A 
ATOM     38  C   UNL     1      -0.762   4.227   1.775  1.00  0.00     0.074 A 
ATOM     39  C   UNL     1      -3.158   4.058   1.371  1.00  0.00     0.049 A 
ATOM     40  N   UNL     1      -0.649   4.027   3.088  1.00  0.00    -0.248 NA
ATOM     41  C   UNL     1       0.345   5.144   1.392  1.00  0.00     0.031 C 
ATOM     42  C   UNL     1      -3.333   5.031   2.451  1.00  0.00     0.029 A 
ATOM     43  N   UNL     1      -4.443   3.594   1.118  1.00  0.00    -0.354 N 
ATOM     44  C   UNL     1       0.502   4.708   3.570  1.00  0.00     0.074 A 
ATOM     45  C   UNL     1       1.136   5.266   2.448  1.00  0.00     0.031 C 
ATOM     46  C   UNL     1      -4.578   4.919   2.932  1.00  0.00     0.029 A 
ATOM     47  C   UNL     1      -5.204   3.791   2.272  1.00  0.00     0.049 A 
ATOM     48  H   UNL     1      -4.760   3.196   0.275  1.00  0.00     0.167 HD
ATOM     49  C   UNL     1       0.868   5.050   4.843  1.00  0.00     0.037 A 
ATOM     50  C   UNL     1      -5.802   2.738   2.893  1.00  0.00     0.037 A 
ATOM     51  C   UNL     1      -0.303   5.057   5.661  1.00  0.00     0.049 A 
ATOM     52  C   UNL     1      -5.323   2.525   4.308  1.00  0.00     0.074 A 
ATOM     53  C   UNL     1      -1.240   6.057   5.847  1.00  0.00     0.029 A 
ATOM     54  N   UNL     1      -0.878   3.866   6.038  1.00  0.00    -0.354 N 
ATOM     55  N   UNL     1      -4.270   3.099   4.827  1.00  0.00    -0.248 NA
ATOM     56  C   UNL     1      -5.995   1.643   5.257  1.00  0.00     0.031 C 
ATOM     57  C   UNL     1      -2.449   5.433   6.226  1.00  0.00     0.029 A 
ATOM     58  C   UNL     1      -2.201   4.079   6.367  1.00  0.00     0.049 A 
ATOM     59  H   UNL     1      -0.418   2.996   6.069  1.00  0.00     0.167 HD
ATOM     60  C   UNL     1      -4.077   2.633   6.102  1.00  0.00     0.074 A 
ATOM     61  C   UNL     1      -5.208   1.760   6.340  1.00  0.00     0.031 C 
ATOM     62  C   UNL     1      -2.995   2.977   6.858  1.00  0.00     0.037 A 
BRANCH  49  63
ATOM     63  C   UNL     1       2.179   5.817   5.130  1.00  0.00     0.058 A 
ATOM     64  C   UNL     1       2.253   6.967   5.935  1.00  0.00     0.135 A 
ATOM     65  C   UNL     1       3.407   5.459   4.520  1.00  0.00     0.135 A 
ATOM     66  F   UNL     1       1.204   7.364   6.668  1.00  0.00    -0.206 F 
ATOM     67  C   UNL     1       3.400   7.784   5.992  1.00  0.00     0.059 A 
ATOM     68  C   UNL     1       4.546   6.279   4.515  1.00  0.00     0.059 A 
ATOM     69  F   UNL     1       3.504   4.313   3.834  1.00  0.00    -0.206 F 
ATOM     70  C   UNL     1       4.526   7.462   5.237  1.00  0.00     0.060 A 
BRANCH  70  71
ATOM     71  S   UNL     1       5.907   8.632   5.136  1.00  0.00     0.124 S 
ATOM     72  O   UNL     1       5.227   9.912   4.958  1.00  0.00    -0.237 OA
ATOM     73  O   UNL     1       6.569   8.440   6.422  1.00  0.00    -0.237 OA
ATOM     74  O   UNL     1       6.659   8.174   3.970  1.00  0.00    -0.744 OA
ENDBRANCH  70  71
ENDBRANCH  49  63
BRANCH  50  75
ATOM     75  C   UNL     1      -6.320   1.713   1.941  1.00  0.00     0.058 A 
ATOM     76  C   UNL     1      -7.353   2.122   1.072  1.00  0.00     0.135 A 
ATOM     77  C   UNL     1      -5.599   0.565   1.580  1.00  0.00     0.135 A 
ATOM     78  F   UNL     1      -8.080   3.214   1.363  1.00  0.00    -0.206 F 
ATOM     79  C   UNL     1      -7.563   1.522  -0.164  1.00  0.00     0.059 A 
ATOM     80  C   UNL     1      -5.809  -0.071   0.346  1.00  0.00     0.059 A 
ATOM     81  F   UNL     1      -4.580   0.141   2.342  1.00  0.00    -0.206 F 
ATOM     82  C   UNL     1      -6.752   0.457  -0.541  1.00  0.00     0.060 A 
BRANCH  82  83
ATOM     83  S   UNL     1      -6.831  -0.060  -2.276  1.00  0.00     0.124 S 
ATOM     84  O   UNL     1      -8.210  -0.518  -2.397  1.00  0.00    -0.237 OA
ATOM     85  O   UNL     1      -6.521   1.195  -2.959  1.00  0.00    -0.237 OA
ATOM     86  O   UNL     1      -5.809  -1.097  -2.363  1.00  0.00    -0.744 OA
ENDBRANCH  82  83
ENDBRANCH  50  75
BRANCH  62  87
ATOM     87  C   UNL     1      -2.581   2.355   8.167  1.00  0.00     0.058 A 
ATOM     88  C   UNL     1      -2.795   1.007   8.486  1.00  0.00     0.135 A 
ATOM     89  C   UNL     1      -1.782   3.087   9.083  1.00  0.00     0.135 A 
ATOM     90  F   UNL     1      -3.437   0.186   7.643  1.00  0.00    -0.206 F 
ATOM     91  C   UNL     1      -2.318   0.440   9.667  1.00  0.00     0.059 A 
ATOM     92  C   UNL     1      -1.241   2.524  10.232  1.00  0.00     0.059 A 
ATOM     93  F   UNL     1      -1.486   4.381   8.881  1.00  0.00    -0.206 F 
ATOM     94  C   UNL     1      -1.544   1.206  10.535  1.00  0.00     0.060 A 
BRANCH  94  95
ATOM     95  S   UNL     1      -0.899   0.485  12.053  1.00  0.00     0.124 S 
ATOM     96  O   UNL     1      -1.893   0.927  13.026  1.00  0.00    -0.237 OA
ATOM     97  O   UNL     1      -0.897  -0.946  11.764  1.00  0.00    -0.237 OA
ATOM     98  O   UNL     1       0.421   1.095  12.171  1.00  0.00    -0.744 OA
ENDBRANCH  94  95
ENDBRANCH  62  87
ENDBRANCH  36  37
ENDBRANCH  29  31
ENDBRANCH  28  29
ENDBRANCH  27  28
ENDBRANCH  26  27
ENDBRANCH  25  26
ENDBRANCH  24  25
ENDBRANCH   1  24
TORSDOF 23
