REMARK SMILES CC[N@@H+]1CC[C@H](C[NH2+]Cc2cc(C(=O)OCCOCCOCCOC(=O)c3ccc(-c4c5nc(c(-c6c(F)cc(S(=O)(=O)[O-])cc6F)c6ccc([nH]6)c(-c6c(F)cc(S(=O)(=O)[O-])cc6F)c6nc(c(-c7c(F)cc(S(=O)(=O)[O-])cc7F)c7ccc4[nH]7)C=C6)C=C5)cc3)cs2)C1
REMARK SMILES IDX 19 1 18 2 17 3 16 4 15 5 13 6 14 7 12 8 10 9 11 10 94 11
REMARK SMILES IDX 93 12 9 13 8 14 7 17 6 18 3 19 4 20 95 21 5 23 2 24 1 25
REMARK SMILES IDX 20 26 21 27 22 28 23 29 24 30 25 31 26 32 27 33 28 34 92 35
REMARK SMILES IDX 29 36 91 37 30 38 31 39 32 40 85 41 33 42 90 43 84 44 86 45
REMARK SMILES IDX 34 46 89 47 83 48 82 49 35 51 69 52 48 53 68 54 49 55 52 56
REMARK SMILES IDX 67 57 87 58 50 59 51 60 66 62 88 63 53 64 36 65 37 66 46 67
REMARK SMILES IDX 38 68 39 69 45 70 47 71 40 72 41 73 42 74 43 75 44 76 70 77
REMARK SMILES IDX 71 78 80 79 72 80 73 81 79 82 81 83 74 84 75 85 76 86 77 87
REMARK SMILES IDX 78 88 54 89 55 90 64 91 56 92 57 93 63 94 65 95 58 96 59 97
REMARK SMILES IDX 60 98 61 99 62 100
REMARK H PARENT 8 15 8 16 3 22 86 50 52 61
REMARK Flexibility Score: inf
ROOT
ATOM      1  C   UNL     1      -5.998  -4.579  -5.817  1.00  0.00     0.188 C 
ENDROOT
BRANCH   1   2
ATOM      2  O   UNL     1      -6.421  -4.855  -7.150  1.00  0.00    -0.376 OA
BRANCH   2   3
ATOM      3  C   UNL     1      -6.268  -6.162  -7.689  1.00  0.00     0.202 C 
BRANCH   3   4
ATOM      4  C   UNL     1      -4.850  -6.729  -7.801  1.00  0.00     0.261 C 
BRANCH   4   5
ATOM      5  O   UNL     1      -4.160  -6.787  -6.542  1.00  0.00    -0.460 OA
BRANCH   5   6
ATOM      6  C   UNL     1      -2.997  -6.076  -6.494  1.00  0.00     0.339 C 
ATOM      7  O   UNL     1      -2.448  -5.565  -7.464  1.00  0.00    -0.246 OA
BRANCH   6   8
ATOM      8  C   UNL     1      -2.529  -5.854  -5.131  1.00  0.00     0.071 A 
ATOM      9  C   UNL     1      -1.991  -6.210  -2.862  1.00  0.00     0.059 A 
ATOM     10  C   UNL     1      -2.514  -6.768  -4.021  1.00  0.00     0.037 A 
ATOM     11  S   UNL     1      -1.633  -4.549  -3.110  1.00  0.00    -0.142 S 
ATOM     12  C   UNL     1      -2.040  -4.620  -4.753  1.00  0.00     0.081 A 
BRANCH   9  13
ATOM     13  C   UNL     1      -1.770  -6.884  -1.523  1.00  0.00     0.308 C 
BRANCH  13  14
ATOM     14  N   UNL     1      -0.541  -6.467  -0.828  1.00  0.00    -0.341 N 
ATOM     15  H   UNL     1      -0.173  -7.260  -0.303  1.00  0.00     0.346 HD
ATOM     16  H   UNL     1       0.128  -6.150  -1.530  1.00  0.00     0.346 HD
BRANCH  14  17
ATOM     17  C   UNL     1      -0.788  -5.356   0.099  1.00  0.00     0.270 C 
BRANCH  17  18
ATOM     18  C   UNL     1       0.492  -4.643   0.557  1.00  0.00     0.105 C 
ATOM     19  N   UNL     1       1.088  -2.294   0.832  1.00  0.00    -0.335 N 
ATOM     20  C   UNL     1       2.138  -2.996   0.076  1.00  0.00     0.262 C 
ATOM     21  C   UNL     1       0.170  -3.344   1.314  1.00  0.00     0.271 C 
ATOM     22  H   UNL     1       1.478  -1.765   1.612  1.00  0.00     0.348 HD
ATOM     23  C   UNL     1       1.436  -4.188  -0.549  1.00  0.00     0.076 C 
BRANCH  19  24
ATOM     24  C   UNL     1       0.396  -1.297  -0.006  1.00  0.00     0.258 C 
ATOM     25  C   UNL     1       1.148   0.030   0.011  1.00  0.00     0.071 C 
ENDBRANCH  19  24
ENDBRANCH  17  18
ENDBRANCH  14  17
ENDBRANCH  13  14
ENDBRANCH   9  13
ENDBRANCH   6   8
ENDBRANCH   5   6
ENDBRANCH   4   5
ENDBRANCH   3   4
ENDBRANCH   2   3
ENDBRANCH   1   2
BRANCH   1  26
ATOM     26  C   UNL     1      -6.319  -5.585  -4.694  1.00  0.00     0.188 C 
BRANCH  26  27
ATOM     27  O   UNL     1      -7.219  -6.604  -5.091  1.00  0.00    -0.376 OA
BRANCH  27  28
ATOM     28  C   UNL     1      -8.529  -6.573  -4.553  1.00  0.00     0.202 C 
BRANCH  28  29
ATOM     29  C   UNL     1      -9.418  -5.364  -4.880  1.00  0.00     0.261 C 
BRANCH  29  30
ATOM     30  O   UNL     1      -8.837  -4.069  -4.681  1.00  0.00    -0.460 OA
BRANCH  30  31
ATOM     31  C   UNL     1      -8.716  -3.638  -3.406  1.00  0.00     0.338 C 
ATOM     32  O   UNL     1      -8.984  -4.261  -2.396  1.00  0.00    -0.246 OA
BRANCH  31  33
ATOM     33  C   UNL     1      -8.054  -2.315  -3.438  1.00  0.00     0.060 A 
ATOM     34  C   UNL     1      -6.879  -2.126  -2.703  1.00  0.00     0.016 A 
ATOM     35  C   UNL     1      -8.602  -1.262  -4.179  1.00  0.00     0.016 A 
ATOM     36  C   UNL     1      -6.267  -0.869  -2.680  1.00  0.00     0.010 A 
ATOM     37  C   UNL     1      -7.996  -0.002  -4.143  1.00  0.00     0.010 A 
ATOM     38  C   UNL     1      -6.843   0.208  -3.369  1.00  0.00    -0.014 A 
BRANCH  38  39
ATOM     39  C   UNL     1      -6.341   1.587  -3.146  1.00  0.00     0.031 A 
ATOM     40  C   UNL     1      -7.009   2.434  -2.096  1.00  0.00     0.074 A 
ATOM     41  C   UNL     1      -5.310   2.080  -3.855  1.00  0.00     0.049 A 
ATOM     42  N   UNL     1      -6.761   3.667  -1.742  1.00  0.00    -0.248 NA
ATOM     43  C   UNL     1      -8.108   1.801  -1.347  1.00  0.00     0.031 C 
ATOM     44  C   UNL     1      -4.568   1.356  -4.886  1.00  0.00     0.029 A 
ATOM     45  N   UNL     1      -4.716   3.317  -3.819  1.00  0.00    -0.354 N 
ATOM     46  C   UNL     1      -7.666   3.959  -0.729  1.00  0.00     0.074 A 
ATOM     47  C   UNL     1      -8.489   2.783  -0.544  1.00  0.00     0.031 C 
ATOM     48  C   UNL     1      -3.623   2.168  -5.394  1.00  0.00     0.029 A 
ATOM     49  C   UNL     1      -3.708   3.474  -4.740  1.00  0.00     0.049 A 
ATOM     50  H   UNL     1      -4.987   4.026  -3.191  1.00  0.00     0.167 HD
ATOM     51  C   UNL     1      -7.797   5.100  -0.011  1.00  0.00     0.037 A 
ATOM     52  C   UNL     1      -2.953   4.552  -5.030  1.00  0.00     0.037 A 
ATOM     53  C   UNL     1      -6.990   6.275  -0.203  1.00  0.00     0.049 A 
ATOM     54  C   UNL     1      -3.151   5.830  -4.255  1.00  0.00     0.074 A 
ATOM     55  C   UNL     1      -7.043   7.478   0.479  1.00  0.00     0.029 A 
ATOM     56  N   UNL     1      -5.987   6.397  -1.153  1.00  0.00    -0.354 N 
ATOM     57  N   UNL     1      -3.992   6.081  -3.280  1.00  0.00    -0.248 NA
ATOM     58  C   UNL     1      -2.296   6.969  -4.618  1.00  0.00     0.031 C 
ATOM     59  C   UNL     1      -6.094   8.340  -0.082  1.00  0.00     0.029 A 
ATOM     60  C   UNL     1      -5.425   7.660  -1.087  1.00  0.00     0.049 A 
ATOM     61  H   UNL     1      -5.716   5.690  -1.782  1.00  0.00     0.167 HD
ATOM     62  C   UNL     1      -3.748   7.396  -2.895  1.00  0.00     0.074 A 
ATOM     63  C   UNL     1      -2.678   7.886  -3.739  1.00  0.00     0.031 C 
ATOM     64  C   UNL     1      -4.352   8.129  -1.927  1.00  0.00     0.037 A 
BRANCH  51  65
ATOM     65  C   UNL     1      -8.873   5.131   1.036  1.00  0.00     0.058 A 
ATOM     66  C   UNL     1      -8.736   4.437   2.248  1.00  0.00     0.135 A 
ATOM     67  C   UNL     1     -10.048   5.870   0.830  1.00  0.00     0.135 A 
ATOM     68  F   UNL     1      -7.640   3.699   2.484  1.00  0.00    -0.206 F 
ATOM     69  C   UNL     1      -9.741   4.451   3.210  1.00  0.00     0.059 A 
ATOM     70  C   UNL     1     -11.057   5.915   1.788  1.00  0.00     0.059 A 
ATOM     71  F   UNL     1     -10.229   6.547  -0.314  1.00  0.00    -0.206 F 
ATOM     72  C   UNL     1     -10.900   5.189   2.968  1.00  0.00     0.060 A 
BRANCH  72  73
ATOM     73  S   UNL     1     -12.202   5.191   4.218  1.00  0.00     0.124 S 
ATOM     74  O   UNL     1     -12.800   3.875   4.015  1.00  0.00    -0.237 OA
ATOM     75  O   UNL     1     -11.450   5.360   5.457  1.00  0.00    -0.237 OA
ATOM     76  O   UNL     1     -13.037   6.326   3.837  1.00  0.00    -0.744 OA
ENDBRANCH  72  73
ENDBRANCH  51  65
BRANCH  52  77
ATOM     77  C   UNL     1      -1.936   4.478  -6.112  1.00  0.00     0.058 A 
ATOM     78  C   UNL     1      -0.565   4.464  -5.817  1.00  0.00     0.135 A 
ATOM     79  C   UNL     1      -2.316   4.426  -7.462  1.00  0.00     0.135 A 
ATOM     80  F   UNL     1      -0.153   4.525  -4.542  1.00  0.00    -0.206 F 
ATOM     81  C   UNL     1       0.396   4.415  -6.823  1.00  0.00     0.059 A 
ATOM     82  C   UNL     1      -1.375   4.355  -8.484  1.00  0.00     0.059 A 
ATOM     83  F   UNL     1      -3.616   4.428  -7.794  1.00  0.00    -0.206 F 
ATOM     84  C   UNL     1      -0.020   4.360  -8.154  1.00  0.00     0.060 A 
BRANCH  84  85
ATOM     85  S   UNL     1       1.231   4.249  -9.452  1.00  0.00     0.124 S 
ATOM     86  O   UNL     1       1.717   5.622  -9.510  1.00  0.00    -0.237 OA
ATOM     87  O   UNL     1       2.160   3.266  -8.903  1.00  0.00    -0.237 OA
ATOM     88  O   UNL     1       0.469   3.798 -10.613  1.00  0.00    -0.744 OA
ENDBRANCH  84  85
ENDBRANCH  52  77
BRANCH  64  89
ATOM     89  C   UNL     1      -3.849   9.527  -1.700  1.00  0.00     0.058 A 
ATOM     90  C   UNL     1      -4.163  10.576  -2.578  1.00  0.00     0.135 A 
ATOM     91  C   UNL     1      -3.091   9.831  -0.557  1.00  0.00     0.135 A 
ATOM     92  F   UNL     1      -4.882  10.336  -3.686  1.00  0.00    -0.206 F 
ATOM     93  C   UNL     1      -3.726  11.876  -2.341  1.00  0.00     0.059 A 
ATOM     94  C   UNL     1      -2.662  11.127  -0.290  1.00  0.00     0.059 A 
ATOM     95  F   UNL     1      -2.773   8.865   0.319  1.00  0.00    -0.206 F 
ATOM     96  C   UNL     1      -2.975  12.141  -1.194  1.00  0.00     0.060 A 
BRANCH  96  97
ATOM     97  S   UNL     1      -2.443  13.838  -0.875  1.00  0.00     0.124 S 
ATOM     98  O   UNL     1      -1.313  13.967  -1.789  1.00  0.00    -0.237 OA
ATOM     99  O   UNL     1      -3.631  14.612  -1.222  1.00  0.00    -0.237 OA
ATOM    100  O   UNL     1      -2.105  13.825   0.545  1.00  0.00    -0.744 OA
ENDBRANCH  96  97
ENDBRANCH  64  89
ENDBRANCH  38  39
ENDBRANCH  31  33
ENDBRANCH  30  31
ENDBRANCH  29  30
ENDBRANCH  28  29
ENDBRANCH  27  28
ENDBRANCH  26  27
ENDBRANCH   1  26
TORSDOF 25
