REMARK SMILES CNS(=O)(=O)c1cc(C(=O)OCCOCCOCCOC(=O)c2ccc(-c3c4nc(c(-c5c(F)cc(S(=O)(=O)[O-])cc5F)c5ccc([nH]5)c(-c5c(F)cc(S(=O)(=O)[O-])cc5F)c5nc(c(-c6c(F)cc(S(=O)(=O)[O-])cc6F)c6ccc3[nH]6)C=C5)C=C4)cc2)ccc1N(C)C
REMARK SMILES IDX 16 1 15 2 14 3 13 4 12 5 11 6 9 7 10 8 8 9 6 10 7 11 91 12
REMARK SMILES IDX 90 13 89 14 3 15 4 16 5 17 2 18 1 19 92 21 93 22 94 23 17 24
REMARK SMILES IDX 18 25 19 26 20 27 21 28 22 29 23 30 24 31 88 32 25 33 87 34
REMARK SMILES IDX 26 35 27 36 28 37 81 38 29 39 86 40 80 41 82 42 30 43 85 44
REMARK SMILES IDX 79 45 78 46 31 48 65 49 44 50 64 51 45 52 48 53 63 54 83 55
REMARK SMILES IDX 46 56 47 57 62 59 84 60 49 61 32 62 33 63 42 64 34 65 35 66
REMARK SMILES IDX 41 67 43 68 36 69 37 70 38 71 39 72 40 73 66 74 67 75 76 76
REMARK SMILES IDX 68 77 69 78 75 79 77 80 70 81 71 82 72 83 73 84 74 85 50 86
REMARK SMILES IDX 51 87 60 88 52 89 53 90 59 91 61 92 54 93 55 94 56 95 57 96
REMARK SMILES IDX 58 97
REMARK H PARENT 2 20 82 47 48 58
REMARK Flexibility Score: inf
ROOT
ATOM      1  C   UNL     1       0.916   3.771   2.224  1.00  0.00     0.188 C 
ENDROOT
BRANCH   1   2
ATOM      2  C   UNL     1       1.136   3.890   0.704  1.00  0.00     0.188 C 
BRANCH   2   3
ATOM      3  O   UNL     1       1.522   5.132   0.154  1.00  0.00    -0.376 OA
BRANCH   3   4
ATOM      4  C   UNL     1       0.645   6.246   0.194  1.00  0.00     0.202 C 
BRANCH   4   5
ATOM      5  C   UNL     1      -0.892   6.148   0.223  1.00  0.00     0.261 C 
BRANCH   5   6
ATOM      6  O   UNL     1      -1.454   5.068   0.977  1.00  0.00    -0.460 OA
BRANCH   6   7
ATOM      7  C   UNL     1      -2.107   4.124   0.251  1.00  0.00     0.338 C 
ATOM      8  O   UNL     1      -2.284   4.126  -0.955  1.00  0.00    -0.246 OA
BRANCH   7   9
ATOM      9  C   UNL     1      -2.423   2.958   1.111  1.00  0.00     0.061 A 
ATOM     10  C   UNL     1      -2.435   0.495   1.390  1.00  0.00     0.106 A 
ATOM     11  C   UNL     1      -2.237   1.676   0.605  1.00  0.00     0.039 A 
ATOM     12  C   UNL     1      -2.966   0.585   2.705  1.00  0.00     0.056 A 
ATOM     13  C   UNL     1      -3.047   1.930   3.186  1.00  0.00     0.028 A 
ATOM     14  C   UNL     1      -2.798   3.087   2.429  1.00  0.00     0.018 A 
BRANCH  10  15
ATOM     15  S   UNL     1      -1.899  -0.949   0.459  1.00  0.00     0.242 S 
ATOM     16  O   UNL     1      -2.584  -0.926  -0.816  1.00  0.00    -0.207 OA
ATOM     17  O   UNL     1      -1.820  -2.155   1.240  1.00  0.00    -0.207 OA
BRANCH  15  18
ATOM     18  N   UNL     1      -0.258  -0.620   0.224  1.00  0.00    -0.214 NA
ATOM     19  C   UNL     1       0.197  -0.069  -1.046  1.00  0.00     0.120 C 
ATOM     20  H   UNL     1       0.016   0.044   0.949  1.00  0.00     0.141 HD
ENDBRANCH  15  18
ENDBRANCH  10  15
BRANCH  12  21
ATOM     21  N   UNL     1      -3.437  -0.418   3.550  1.00  0.00    -0.377 N 
ATOM     22  C   UNL     1      -4.234  -0.164   4.759  1.00  0.00     0.143 C 
ATOM     23  C   UNL     1      -3.344  -1.850   3.287  1.00  0.00     0.143 C 
ENDBRANCH  12  21
ENDBRANCH   7   9
ENDBRANCH   6   7
ENDBRANCH   5   6
ENDBRANCH   4   5
ENDBRANCH   3   4
ENDBRANCH   2   3
ENDBRANCH   1   2
BRANCH   1  24
ATOM     24  O   UNL     1       0.806   4.953   2.982  1.00  0.00    -0.376 OA
BRANCH  24  25
ATOM     25  C   UNL     1       1.962   5.715   3.291  1.00  0.00     0.202 C 
BRANCH  25  26
ATOM     26  C   UNL     1       3.428   5.266   3.111  1.00  0.00     0.261 C 
BRANCH  26  27
ATOM     27  O   UNL     1       3.707   4.188   2.215  1.00  0.00    -0.460 OA
BRANCH  27  28
ATOM     28  C   UNL     1       4.051   3.011   2.800  1.00  0.00     0.338 C 
ATOM     29  O   UNL     1       4.117   2.776   3.993  1.00  0.00    -0.246 OA
BRANCH  28  30
ATOM     30  C   UNL     1       4.136   1.972   1.753  1.00  0.00     0.060 A 
ATOM     31  C   UNL     1       3.220   0.915   1.787  1.00  0.00     0.016 A 
ATOM     32  C   UNL     1       5.097   2.039   0.741  1.00  0.00     0.016 A 
ATOM     33  C   UNL     1       3.250  -0.063   0.791  1.00  0.00     0.010 A 
ATOM     34  C   UNL     1       5.138   1.042  -0.242  1.00  0.00     0.010 A 
ATOM     35  C   UNL     1       4.211  -0.012  -0.231  1.00  0.00    -0.014 A 
BRANCH  35  36
ATOM     36  C   UNL     1       4.301  -1.118  -1.221  1.00  0.00     0.031 A 
ATOM     37  C   UNL     1       5.008  -2.386  -0.835  1.00  0.00     0.074 A 
ATOM     38  C   UNL     1       3.732  -1.019  -2.438  1.00  0.00     0.049 A 
ATOM     39  N   UNL     1       5.239  -3.455  -1.551  1.00  0.00    -0.248 NA
ATOM     40  C   UNL     1       5.529  -2.450   0.538  1.00  0.00     0.031 C 
ATOM     41  C   UNL     1       2.966   0.130  -2.917  1.00  0.00     0.029 A 
ATOM     42  N   UNL     1       3.670  -1.916  -3.477  1.00  0.00    -0.354 N 
ATOM     43  C   UNL     1       5.959  -4.311  -0.728  1.00  0.00     0.074 A 
ATOM     44  C   UNL     1       6.113  -3.639   0.546  1.00  0.00     0.031 C 
ATOM     45  C   UNL     1       2.448  -0.163  -4.122  1.00  0.00     0.029 A 
ATOM     46  C   UNL     1       2.934  -1.473  -4.553  1.00  0.00     0.049 A 
ATOM     47  H   UNL     1       4.112  -2.796  -3.455  1.00  0.00     0.167 HD
ATOM     48  C   UNL     1       6.473  -5.531  -1.016  1.00  0.00     0.037 A 
ATOM     49  C   UNL     1       2.709  -2.040  -5.758  1.00  0.00     0.037 A 
ATOM     50  C   UNL     1       6.359  -6.178  -2.298  1.00  0.00     0.049 A 
ATOM     51  C   UNL     1       3.381  -3.352  -6.091  1.00  0.00     0.074 A 
ATOM     52  C   UNL     1       6.882  -7.396  -2.695  1.00  0.00     0.029 A 
ATOM     53  N   UNL     1       5.698  -5.651  -3.398  1.00  0.00    -0.354 N 
ATOM     54  N   UNL     1       4.084  -4.141  -5.314  1.00  0.00    -0.248 NA
ATOM     55  C   UNL     1       3.272  -3.824  -7.480  1.00  0.00     0.031 C 
ATOM     56  C   UNL     1       6.594  -7.575  -4.051  1.00  0.00     0.029 A 
ATOM     57  C   UNL     1       5.834  -6.501  -4.486  1.00  0.00     0.049 A 
ATOM     58  H   UNL     1       5.205  -4.799  -3.406  1.00  0.00     0.167 HD
ATOM     59  C   UNL     1       4.501  -5.199  -6.119  1.00  0.00     0.074 A 
ATOM     60  C   UNL     1       3.946  -4.965  -7.436  1.00  0.00     0.031 C 
ATOM     61  C   UNL     1       5.284  -6.260  -5.798  1.00  0.00     0.037 A 
BRANCH  48  62
ATOM     62  C   UNL     1       7.282  -6.199   0.061  1.00  0.00     0.058 A 
ATOM     63  C   UNL     1       6.695  -6.697   1.235  1.00  0.00     0.135 A 
ATOM     64  C   UNL     1       8.676  -6.314  -0.073  1.00  0.00     0.135 A 
ATOM     65  F   UNL     1       5.369  -6.594   1.424  1.00  0.00    -0.206 F 
ATOM     66  C   UNL     1       7.465  -7.239   2.259  1.00  0.00     0.059 A 
ATOM     67  C   UNL     1       9.462  -6.882   0.923  1.00  0.00     0.059 A 
ATOM     68  F   UNL     1       9.290  -5.853  -1.173  1.00  0.00    -0.206 F 
ATOM     69  C   UNL     1       8.850  -7.319   2.096  1.00  0.00     0.060 A 
BRANCH  69  70
ATOM     70  S   UNL     1       9.840  -7.976   3.454  1.00  0.00     0.124 S 
ATOM     71  O   UNL     1       9.743  -6.897   4.433  1.00  0.00    -0.237 OA
ATOM     72  O   UNL     1       9.128  -9.204   3.793  1.00  0.00    -0.237 OA
ATOM     73  O   UNL     1      11.158  -8.163   2.856  1.00  0.00    -0.744 OA
ENDBRANCH  69  70
ENDBRANCH  48  62
BRANCH  49  74
ATOM     74  C   UNL     1       1.863  -1.350  -6.777  1.00  0.00     0.058 A 
ATOM     75  C   UNL     1       0.667  -1.923  -7.238  1.00  0.00     0.135 A 
ATOM     76  C   UNL     1       2.240  -0.112  -7.324  1.00  0.00     0.135 A 
ATOM     77  F   UNL     1       0.275  -3.119  -6.775  1.00  0.00    -0.206 F 
ATOM     78  C   UNL     1      -0.124  -1.295  -8.197  1.00  0.00     0.059 A 
ATOM     79  C   UNL     1       1.449   0.552  -8.256  1.00  0.00     0.059 A 
ATOM     80  F   UNL     1       3.379   0.479  -6.931  1.00  0.00    -0.206 F 
ATOM     81  C   UNL     1       0.271  -0.051  -8.693  1.00  0.00     0.060 A 
BRANCH  81  82
ATOM     82  S   UNL     1      -0.792   0.788  -9.889  1.00  0.00     0.124 S 
ATOM     83  O   UNL     1      -0.612  -0.040 -11.076  1.00  0.00    -0.237 OA
ATOM     84  O   UNL     1      -2.099   0.707  -9.245  1.00  0.00    -0.237 OA
ATOM     85  O   UNL     1      -0.220   2.129  -9.963  1.00  0.00    -0.744 OA
ENDBRANCH  81  82
ENDBRANCH  49  74
BRANCH  61  86
ATOM     86  C   UNL     1       5.598  -7.261  -6.881  1.00  0.00     0.058 A 
ATOM     87  C   UNL     1       6.483  -6.960  -7.928  1.00  0.00     0.135 A 
ATOM     88  C   UNL     1       5.082  -8.567  -6.819  1.00  0.00     0.135 A 
ATOM     89  F   UNL     1       6.999  -5.726  -8.043  1.00  0.00    -0.206 F 
ATOM     90  C   UNL     1       6.842  -7.914  -8.877  1.00  0.00     0.059 A 
ATOM     91  C   UNL     1       5.450  -9.545  -7.739  1.00  0.00     0.059 A 
ATOM     92  F   UNL     1       4.237  -8.914  -5.835  1.00  0.00    -0.206 F 
ATOM     93  C   UNL     1       6.329  -9.208  -8.767  1.00  0.00     0.060 A 
BRANCH  93  94
ATOM     94  S   UNL     1       6.864 -10.453  -9.961  1.00  0.00     0.124 S 
ATOM     95  O   UNL     1       6.210  -9.993 -11.182  1.00  0.00    -0.237 OA
ATOM     96  O   UNL     1       8.316 -10.312  -9.928  1.00  0.00    -0.237 OA
ATOM     97  O   UNL     1       6.349 -11.702  -9.407  1.00  0.00    -0.744 OA
ENDBRANCH  93  94
ENDBRANCH  61  86
ENDBRANCH  35  36
ENDBRANCH  28  30
ENDBRANCH  27  28
ENDBRANCH  26  27
ENDBRANCH  25  26
ENDBRANCH  24  25
ENDBRANCH   1  24
TORSDOF 23
