REMARK SMILES CN(C(=O)N[C@@](C)(C(=O)OCCOCCOCCOC(=O)c1ccc(-c2c3nc(c(-c4c(F)cc(S(=O)(=O)[O-])cc4F)c4ccc([nH]4)c(-c4c(F)cc(S(=O)(=O)[O-])cc4F)c4nc(c(-c5c(F)cc(S(=O)(=O)[O-])cc5F)c5ccc2[nH]5)C=C4)C=C3)cc1)C(F)(F)F)c1ccc(F)cc1
REMARK SMILES IDX 14 1 13 2 12 3 11 4 10 5 8 6 9 7 6 8 7 9 5 10 3 11 4 12 2 14
REMARK SMILES IDX 1 15 92 16 93 17 98 18 94 19 97 20 95 21 96 22 88 23 89 24
REMARK SMILES IDX 90 25 91 26 15 27 16 28 17 29 18 30 19 31 20 32 21 33 22 34
REMARK SMILES IDX 23 35 87 36 24 37 86 38 25 39 26 40 27 41 80 42 28 43 85 44
REMARK SMILES IDX 79 45 81 46 29 47 84 48 78 49 77 50 30 52 64 53 43 54 63 55
REMARK SMILES IDX 44 56 47 57 62 58 82 59 45 60 46 61 61 63 83 64 48 65 31 66
REMARK SMILES IDX 32 67 41 68 33 69 34 70 40 71 42 72 35 73 36 74 37 75 38 76
REMARK SMILES IDX 39 77 65 78 66 79 75 80 67 81 68 82 74 83 76 84 69 85 70 86
REMARK SMILES IDX 71 87 72 88 73 89 49 90 50 91 59 92 51 93 52 94 58 95 60 96
REMARK SMILES IDX 53 97 54 98 55 99 56 100 57 101
REMARK H PARENT 5 13 81 51 47 62
REMARK Flexibility Score: inf
ROOT
ATOM      1  C   UNL     1       2.622  -3.343  -1.801  1.00  0.00     0.188 C 
ENDROOT
BRANCH   1   2
ATOM      2  O   UNL     1       2.990  -4.653  -1.375  1.00  0.00    -0.376 OA
BRANCH   2   3
ATOM      3  C   UNL     1       2.063  -5.714  -1.518  1.00  0.00     0.202 C 
BRANCH   3   4
ATOM      4  C   UNL     1       0.718  -5.577  -0.792  1.00  0.00     0.261 C 
BRANCH   4   5
ATOM      5  O   UNL     1       0.230  -4.223  -0.684  1.00  0.00    -0.461 OA
BRANCH   5   6
ATOM      6  C   UNL     1      -0.271  -3.855   0.528  1.00  0.00     0.341 C 
ATOM      7  O   UNL     1      -0.445  -4.654   1.442  1.00  0.00    -0.249 OA
BRANCH   6   8
ATOM      8  C   UNL     1      -0.665  -2.356   0.608  1.00  0.00     0.232 C 
ATOM      9  C   UNL     1      -2.192  -2.342   0.804  1.00  0.00     0.058 C 
BRANCH   8  10
ATOM     10  N   UNL     1      -0.379  -1.632  -0.711  1.00  0.00    -0.314 N 
ATOM     11  C   UNL     1      -0.325  -0.379  -1.239  1.00  0.00     0.322 C 
ATOM     12  O   UNL     1      -0.979  -0.304  -2.285  1.00  0.00    -0.248 OA
ATOM     13  H   UNL     1      -0.161  -2.292  -1.408  1.00  0.00     0.166 HD
BRANCH  11  14
ATOM     14  N   UNL     1       0.532   0.612  -0.782  1.00  0.00    -0.298 N 
ATOM     15  C   UNL     1       1.516   0.345   0.254  1.00  0.00     0.155 C 
BRANCH  14  16
ATOM     16  C   UNL     1       0.649   1.931  -1.440  1.00  0.00     0.045 A 
ATOM     17  C   UNL     1      -0.240   2.385  -2.431  1.00  0.00     0.029 A 
ATOM     18  C   UNL     1       1.713   2.816  -1.131  1.00  0.00     0.029 A 
ATOM     19  C   UNL     1      -0.035   3.596  -3.122  1.00  0.00     0.041 A 
ATOM     20  C   UNL     1       1.945   4.005  -1.842  1.00  0.00     0.041 A 
ATOM     21  C   UNL     1       1.068   4.383  -2.838  1.00  0.00     0.123 A 
ATOM     22  F   UNL     1       1.274   5.518  -3.517  1.00  0.00    -0.207 F 
ENDBRANCH  14  16
ENDBRANCH  11  14
ENDBRANCH   8  10
BRANCH   8  23
ATOM     23  C   UNL     1       0.006  -1.901   1.909  1.00  0.00     0.422 C 
ATOM     24  F   UNL     1       1.344  -2.087   1.891  1.00  0.00    -0.168 F 
ATOM     25  F   UNL     1      -0.233  -0.590   2.139  1.00  0.00    -0.168 F 
ATOM     26  F   UNL     1      -0.466  -2.555   2.996  1.00  0.00    -0.168 F 
ENDBRANCH   8  23
ENDBRANCH   6   8
ENDBRANCH   5   6
ENDBRANCH   4   5
ENDBRANCH   3   4
ENDBRANCH   2   3
ENDBRANCH   1   2
BRANCH   1  27
ATOM     27  C   UNL     1       1.637  -3.142  -2.973  1.00  0.00     0.188 C 
BRANCH  27  28
ATOM     28  O   UNL     1       1.461  -4.283  -3.794  1.00  0.00    -0.376 OA
BRANCH  28  29
ATOM     29  C   UNL     1       1.776  -4.090  -5.163  1.00  0.00     0.202 C 
BRANCH  29  30
ATOM     30  C   UNL     1       3.283  -4.064  -5.438  1.00  0.00     0.261 C 
BRANCH  30  31
ATOM     31  O   UNL     1       4.031  -3.113  -4.656  1.00  0.00    -0.460 OA
BRANCH  31  32
ATOM     32  C   UNL     1       3.913  -1.816  -5.004  1.00  0.00     0.338 C 
ATOM     33  O   UNL     1       3.224  -1.365  -5.915  1.00  0.00    -0.246 OA
BRANCH  32  34
ATOM     34  C   UNL     1       4.624  -0.993  -4.008  1.00  0.00     0.060 A 
ATOM     35  C   UNL     1       3.884  -0.169  -3.153  1.00  0.00     0.016 A 
ATOM     36  C   UNL     1       6.020  -0.993  -3.949  1.00  0.00     0.016 A 
ATOM     37  C   UNL     1       4.545   0.679  -2.265  1.00  0.00     0.010 A 
ATOM     38  C   UNL     1       6.678  -0.122  -3.068  1.00  0.00     0.010 A 
ATOM     39  C   UNL     1       5.942   0.747  -2.244  1.00  0.00    -0.014 A 
BRANCH  39  40
ATOM     40  C   UNL     1       6.592   1.904  -1.569  1.00  0.00     0.031 A 
ATOM     41  C   UNL     1       7.011   3.071  -2.428  1.00  0.00     0.074 A 
ATOM     42  C   UNL     1       6.728   1.982  -0.232  1.00  0.00     0.049 A 
ATOM     43  N   UNL     1       7.677   4.147  -2.103  1.00  0.00    -0.248 NA
ATOM     44  C   UNL     1       6.613   3.014  -3.845  1.00  0.00     0.031 C 
ATOM     45  C   UNL     1       6.267   0.984   0.731  1.00  0.00     0.029 A 
ATOM     46  N   UNL     1       7.297   2.961   0.549  1.00  0.00    -0.354 N 
ATOM     47  C   UNL     1       7.816   4.873  -3.281  1.00  0.00     0.074 A 
ATOM     48  C   UNL     1       7.161   4.119  -4.327  1.00  0.00     0.031 C 
ATOM     49  C   UNL     1       6.577   1.399   1.974  1.00  0.00     0.029 A 
ATOM     50  C   UNL     1       7.303   2.667   1.894  1.00  0.00     0.049 A 
ATOM     51  H   UNL     1       7.666   3.796   0.180  1.00  0.00     0.167 HD
ATOM     52  C   UNL     1       8.438   6.059  -3.478  1.00  0.00     0.037 A 
ATOM     53  C   UNL     1       7.860   3.327   2.931  1.00  0.00     0.037 A 
ATOM     54  C   UNL     1       9.057   6.830  -2.435  1.00  0.00     0.049 A 
ATOM     55  C   UNL     1       8.612   4.614   2.677  1.00  0.00     0.074 A 
ATOM     56  C   UNL     1       9.721   8.040  -2.540  1.00  0.00     0.029 A 
ATOM     57  N   UNL     1       9.082   6.474  -1.096  1.00  0.00    -0.354 N 
ATOM     58  N   UNL     1       8.784   5.263   1.550  1.00  0.00    -0.248 NA
ATOM     59  C   UNL     1       9.254   5.253   3.837  1.00  0.00     0.031 C 
ATOM     60  C   UNL     1      10.181   8.398  -1.269  1.00  0.00     0.029 A 
ATOM     61  C   UNL     1       9.759   7.436  -0.365  1.00  0.00     0.049 A 
ATOM     62  H   UNL     1       8.677   5.659  -0.720  1.00  0.00     0.167 HD
ATOM     63  C   UNL     1       9.520   6.401   1.872  1.00  0.00     0.074 A 
ATOM     64  C   UNL     1       9.757   6.355   3.299  1.00  0.00     0.031 C 
ATOM     65  C   UNL     1       9.961   7.394   1.060  1.00  0.00     0.037 A 
BRANCH  52  66
ATOM     66  C   UNL     1       8.523   6.574  -4.886  1.00  0.00     0.058 A 
ATOM     67  C   UNL     1       7.415   7.121  -5.550  1.00  0.00     0.135 A 
ATOM     68  C   UNL     1       9.751   6.549  -5.567  1.00  0.00     0.135 A 
ATOM     69  F   UNL     1       6.213   7.143  -4.953  1.00  0.00    -0.206 F 
ATOM     70  C   UNL     1       7.518   7.614  -6.847  1.00  0.00     0.059 A 
ATOM     71  C   UNL     1       9.884   7.059  -6.853  1.00  0.00     0.059 A 
ATOM     72  F   UNL     1      10.839   6.027  -4.978  1.00  0.00    -0.206 F 
ATOM     73  C   UNL     1       8.758   7.581  -7.489  1.00  0.00     0.060 A 
BRANCH  73  74
ATOM     74  S   UNL     1       8.886   8.246  -9.162  1.00  0.00     0.124 S 
ATOM     75  O   UNL     1       8.216   7.209  -9.940  1.00  0.00    -0.237 OA
ATOM     76  O   UNL     1       8.173   9.515  -9.050  1.00  0.00    -0.237 OA
ATOM     77  O   UNL     1      10.326   8.358  -9.375  1.00  0.00    -0.744 OA
ENDBRANCH  73  74
ENDBRANCH  52  66
BRANCH  53  78
ATOM     78  C   UNL     1       7.779   2.776   4.314  1.00  0.00     0.058 A 
ATOM     79  C   UNL     1       7.067   3.441   5.324  1.00  0.00     0.135 A 
ATOM     80  C   UNL     1       8.461   1.601   4.667  1.00  0.00     0.135 A 
ATOM     81  F   UNL     1       6.412   4.579   5.044  1.00  0.00    -0.206 F 
ATOM     82  C   UNL     1       7.054   2.978   6.636  1.00  0.00     0.059 A 
ATOM     83  C   UNL     1       8.439   1.101   5.965  1.00  0.00     0.059 A 
ATOM     84  F   UNL     1       9.157   0.923   3.741  1.00  0.00    -0.206 F 
ATOM     85  C   UNL     1       7.746   1.806   6.948  1.00  0.00     0.060 A 
BRANCH  85  86
ATOM     86  S   UNL     1       7.708   1.198   8.648  1.00  0.00     0.124 S 
ATOM     87  O   UNL     1       8.620   2.122   9.311  1.00  0.00    -0.237 OA
ATOM     88  O   UNL     1       6.296   1.335   8.992  1.00  0.00    -0.237 OA
ATOM     89  O   UNL     1       8.183  -0.177   8.521  1.00  0.00    -0.744 OA
ENDBRANCH  85  86
ENDBRANCH  53  78
BRANCH  65  90
ATOM     90  C   UNL     1      10.684   8.551   1.694  1.00  0.00     0.058 A 
ATOM     91  C   UNL     1      11.997   8.435   2.174  1.00  0.00     0.135 A 
ATOM     92  C   UNL     1      10.069   9.813   1.766  1.00  0.00     0.135 A 
ATOM     93  F   UNL     1      12.630   7.252   2.131  1.00  0.00    -0.206 F 
ATOM     94  C   UNL     1      12.667   9.523   2.727  1.00  0.00     0.059 A 
ATOM     95  C   UNL     1      10.730  10.920   2.290  1.00  0.00     0.059 A 
ATOM     96  F   UNL     1       8.819   9.982   1.307  1.00  0.00    -0.206 F 
ATOM     97  C   UNL     1      12.024  10.762   2.781  1.00  0.00     0.060 A 
BRANCH  97  98
ATOM     98  S   UNL     1      12.913  12.172   3.475  1.00  0.00     0.124 S 
ATOM     99  O   UNL     1      12.853  11.883   4.904  1.00  0.00    -0.237 OA
ATOM    100  O   UNL     1      14.229  12.050   2.857  1.00  0.00    -0.237 OA
ATOM    101  O   UNL     1      12.125  13.320   3.033  1.00  0.00    -0.744 OA
ENDBRANCH  97  98
ENDBRANCH  65  90
ENDBRANCH  39  40
ENDBRANCH  32  34
ENDBRANCH  31  32
ENDBRANCH  30  31
ENDBRANCH  29  30
ENDBRANCH  28  29
ENDBRANCH  27  28
ENDBRANCH   1  27
TORSDOF 24
