REMARK SMILES CS(=O)(=O)c1ccc(/C=C(/C(=O)OCCOCCOCCOC(=O)c2ccc(-c3c4nc(c(-c5c(F)cc(S(=O)(=O)[O-])cc5F)c5ccc([nH]5)c(-c5c(F)cc(S(=O)(=O)[O-])cc5F)c5nc(c(-c6c(F)cc(S(=O)(=O)[O-])cc6F)c6ccc3[nH]6)C=C5)C=C4)cc2)c2ccc(-c3ccc(F)cc3F)cc2)cc1
REMARK SMILES IDX 18 1 17 2 16 3 15 4 14 5 13 6 11 7 12 8 10 9 9 10 8 11 5 12
REMARK SMILES IDX 6 13 106 14 7 15 105 16 2 17 1 18 3 19 4 20 91 21 92 22
REMARK SMILES IDX 104 23 93 24 103 25 94 26 95 27 96 28 101 29 97 30 100 31
REMARK SMILES IDX 102 32 98 33 99 34 19 35 20 36 21 37 22 38 23 39 24 40 25 41
REMARK SMILES IDX 26 42 90 43 27 44 89 45 28 46 29 47 30 48 83 49 31 50 88 51
REMARK SMILES IDX 82 52 84 53 32 54 87 55 81 56 80 57 33 59 67 60 46 61 66 62
REMARK SMILES IDX 47 63 50 64 65 65 85 66 48 67 49 68 64 70 86 71 51 72 34 73
REMARK SMILES IDX 35 74 44 75 36 76 37 77 43 78 45 79 38 80 39 81 40 82 41 83
REMARK SMILES IDX 42 84 68 85 69 86 78 87 70 88 71 89 77 90 79 91 72 92 73 93
REMARK SMILES IDX 74 94 75 95 76 96 52 97 53 98 62 99 54 100 55 101 61 102
REMARK SMILES IDX 63 103 56 104 57 105 58 106 59 107 60 108
REMARK H PARENT 84 58 50 69
REMARK Flexibility Score: inf
ROOT
ATOM      1  C   UNL     1       0.254   7.067   6.543  1.00  0.00     0.188 C 
ENDROOT
BRANCH   1   2
ATOM      2  C   UNL     1       1.327   7.135   7.651  1.00  0.00     0.188 C 
BRANCH   2   3
ATOM      3  O   UNL     1       1.639   8.457   8.029  1.00  0.00    -0.376 OA
BRANCH   3   4
ATOM      4  C   UNL     1       2.858   9.004   7.561  1.00  0.00     0.202 C 
BRANCH   4   5
ATOM      5  C   UNL     1       3.296   8.874   6.085  1.00  0.00     0.261 C 
BRANCH   5   6
ATOM      6  O   UNL     1       2.795   7.756   5.334  1.00  0.00    -0.460 OA
BRANCH   6   7
ATOM      7  C   UNL     1       3.590   6.660   5.230  1.00  0.00     0.338 C 
ATOM      8  O   UNL     1       4.698   6.550   5.731  1.00  0.00    -0.246 OA
BRANCH   7   9
ATOM      9  C   UNL     1       2.883   5.541   4.511  1.00  0.00     0.067 C 
ATOM     10  C   UNL     1       2.122   5.812   3.422  1.00  0.00     0.024 C 
BRANCH  10  11
ATOM     11  C   UNL     1       1.462   4.858   2.490  1.00  0.00    -0.025 A 
ATOM     12  C   UNL     1       0.625   2.984   0.561  1.00  0.00     0.067 A 
ATOM     13  C   UNL     1       0.554   2.662   1.912  1.00  0.00     0.021 A 
ATOM     14  C   UNL     1       0.998   4.270   0.168  1.00  0.00     0.021 A 
ATOM     15  C   UNL     1       0.937   3.613   2.867  1.00  0.00     0.009 A 
ATOM     16  C   UNL     1       1.409   5.201   1.130  1.00  0.00     0.009 A 
BRANCH  12  17
ATOM     17  S   UNL     1       0.311   1.753  -0.683  1.00  0.00     0.175 S 
ATOM     18  C   UNL     1       1.064   0.258  -0.093  1.00  0.00     0.163 C 
ATOM     19  O   UNL     1       1.048   2.152  -1.869  1.00  0.00    -0.224 OA
ATOM     20  O   UNL     1      -1.125   1.560  -0.730  1.00  0.00    -0.224 OA
ENDBRANCH  12  17
ENDBRANCH  10  11
BRANCH   9  21
ATOM     21  C   UNL     1       3.055   4.173   5.040  1.00  0.00    -0.011 A 
ATOM     22  C   UNL     1       2.357   3.796   6.194  1.00  0.00     0.009 A 
ATOM     23  C   UNL     1       3.792   3.205   4.355  1.00  0.00     0.009 A 
ATOM     24  C   UNL     1       2.368   2.473   6.636  1.00  0.00     0.009 A 
ATOM     25  C   UNL     1       3.788   1.875   4.796  1.00  0.00     0.009 A 
ATOM     26  C   UNL     1       3.072   1.482   5.940  1.00  0.00    -0.015 A 
BRANCH  26  27
ATOM     27  C   UNL     1       3.053   0.086   6.413  1.00  0.00     0.018 A 
ATOM     28  C   UNL     1       1.850  -0.530   6.816  1.00  0.00     0.015 A 
ATOM     29  C   UNL     1       4.232  -0.673   6.507  1.00  0.00     0.133 A 
ATOM     30  C   UNL     1       1.840  -1.844   7.292  1.00  0.00     0.040 A 
ATOM     31  C   UNL     1       4.231  -1.981   6.979  1.00  0.00     0.079 A 
ATOM     32  F   UNL     1       5.407  -0.138   6.139  1.00  0.00    -0.206 F 
ATOM     33  C   UNL     1       3.030  -2.557   7.362  1.00  0.00     0.126 A 
ATOM     34  F   UNL     1       3.012  -3.824   7.793  1.00  0.00    -0.207 F 
ENDBRANCH  26  27
ENDBRANCH   9  21
ENDBRANCH   7   9
ENDBRANCH   6   7
ENDBRANCH   5   6
ENDBRANCH   4   5
ENDBRANCH   3   4
ENDBRANCH   2   3
ENDBRANCH   1   2
BRANCH   1  35
ATOM     35  O   UNL     1      -0.363   8.256   6.066  1.00  0.00    -0.376 OA
BRANCH  35  36
ATOM     36  C   UNL     1      -0.767   9.250   6.996  1.00  0.00     0.202 C 
BRANCH  36  37
ATOM     37  C   UNL     1      -1.628   8.883   8.219  1.00  0.00     0.261 C 
BRANCH  37  38
ATOM     38  O   UNL     1      -1.329   7.640   8.873  1.00  0.00    -0.460 OA
BRANCH  38  39
ATOM     39  C   UNL     1      -2.185   6.624   8.613  1.00  0.00     0.338 C 
ATOM     40  O   UNL     1      -3.176   6.664   7.888  1.00  0.00    -0.246 OA
BRANCH  39  41
ATOM     41  C   UNL     1      -1.663   5.365   9.180  1.00  0.00     0.060 A 
ATOM     42  C   UNL     1      -1.421   4.291   8.310  1.00  0.00     0.016 A 
ATOM     43  C   UNL     1      -1.473   5.213  10.555  1.00  0.00     0.016 A 
ATOM     44  C   UNL     1      -1.015   3.056   8.814  1.00  0.00     0.010 A 
ATOM     45  C   UNL     1      -1.090   3.964  11.061  1.00  0.00     0.010 A 
ATOM     46  C   UNL     1      -0.888   2.873  10.196  1.00  0.00    -0.014 A 
BRANCH  46  47
ATOM     47  C   UNL     1      -0.741   1.498  10.738  1.00  0.00     0.031 A 
ATOM     48  C   UNL     1      -1.982   0.760  11.166  1.00  0.00     0.074 A 
ATOM     49  C   UNL     1       0.461   0.900  10.819  1.00  0.00     0.049 A 
ATOM     50  N   UNL     1      -2.099  -0.433  11.687  1.00  0.00    -0.248 NA
ATOM     51  C   UNL     1      -3.260   1.467  10.981  1.00  0.00     0.031 C 
ATOM     52  C   UNL     1       1.730   1.498  10.411  1.00  0.00     0.029 A 
ATOM     53  N   UNL     1       0.810  -0.345  11.283  1.00  0.00    -0.354 N 
ATOM     54  C   UNL     1      -3.461  -0.619  11.901  1.00  0.00     0.074 A 
ATOM     55  C   UNL     1      -4.126   0.593  11.474  1.00  0.00     0.031 C 
ATOM     56  C   UNL     1       2.721   0.619  10.643  1.00  0.00     0.029 A 
ATOM     57  C   UNL     1       2.165  -0.583  11.262  1.00  0.00     0.049 A 
ATOM     58  H   UNL     1       0.152  -1.005  11.600  1.00  0.00     0.167 HD
ATOM     59  C   UNL     1      -4.099  -1.701  12.406  1.00  0.00     0.037 A 
ATOM     60  C   UNL     1       2.873  -1.635  11.722  1.00  0.00     0.037 A 
ATOM     61  C   UNL     1      -3.432  -2.898  12.848  1.00  0.00     0.049 A 
ATOM     62  C   UNL     1       2.145  -2.800  12.351  1.00  0.00     0.074 A 
ATOM     63  C   UNL     1      -3.992  -4.052  13.367  1.00  0.00     0.029 A 
ATOM     64  N   UNL     1      -2.058  -3.090  12.838  1.00  0.00    -0.354 N 
ATOM     65  N   UNL     1       0.855  -2.974  12.521  1.00  0.00    -0.248 NA
ATOM     66  C   UNL     1       2.969  -3.910  12.851  1.00  0.00     0.031 C 
ATOM     67  C   UNL     1      -2.954  -4.919  13.723  1.00  0.00     0.029 A 
ATOM     68  C   UNL     1      -1.751  -4.334  13.364  1.00  0.00     0.049 A 
ATOM     69  H   UNL     1      -1.399  -2.438  12.507  1.00  0.00     0.167 HD
ATOM     70  C   UNL     1       0.713  -4.226  13.114  1.00  0.00     0.074 A 
ATOM     71  C   UNL     1       2.047  -4.769  13.266  1.00  0.00     0.031 C 
ATOM     72  C   UNL     1      -0.418  -4.871  13.495  1.00  0.00     0.037 A 
BRANCH  59  73
ATOM     73  C   UNL     1      -5.595  -1.627  12.540  1.00  0.00     0.058 A 
ATOM     74  C   UNL     1      -6.441  -1.643  11.419  1.00  0.00     0.135 A 
ATOM     75  C   UNL     1      -6.193  -1.569  13.810  1.00  0.00     0.135 A 
ATOM     76  F   UNL     1      -5.923  -1.677  10.181  1.00  0.00    -0.206 F 
ATOM     77  C   UNL     1      -7.824  -1.577  11.552  1.00  0.00     0.059 A 
ATOM     78  C   UNL     1      -7.575  -1.533  13.967  1.00  0.00     0.059 A 
ATOM     79  F   UNL     1      -5.431  -1.547  14.915  1.00  0.00    -0.206 F 
ATOM     80  C   UNL     1      -8.382  -1.524  12.831  1.00  0.00     0.060 A 
BRANCH  80  81
ATOM     81  S   UNL     1     -10.178  -1.443  12.984  1.00  0.00     0.124 S 
ATOM     82  O   UNL     1     -10.450  -0.087  12.517  1.00  0.00    -0.237 OA
ATOM     83  O   UNL     1     -10.614  -2.518  12.099  1.00  0.00    -0.237 OA
ATOM     84  O   UNL     1     -10.409  -1.674  14.407  1.00  0.00    -0.744 OA
ENDBRANCH  80  81
ENDBRANCH  59  73
BRANCH  60  85
ATOM     85  C   UNL     1       4.361  -1.635  11.630  1.00  0.00     0.058 A 
ATOM     86  C   UNL     1       5.038  -2.550  10.811  1.00  0.00     0.135 A 
ATOM     87  C   UNL     1       5.137  -0.732  12.373  1.00  0.00     0.135 A 
ATOM     88  F   UNL     1       4.348  -3.458  10.107  1.00  0.00    -0.206 F 
ATOM     89  C   UNL     1       6.427  -2.576  10.734  1.00  0.00     0.059 A 
ATOM     90  C   UNL     1       6.527  -0.721  12.295  1.00  0.00     0.059 A 
ATOM     91  F   UNL     1       4.543   0.164  13.177  1.00  0.00    -0.206 F 
ATOM     92  C   UNL     1       7.163  -1.654  11.478  1.00  0.00     0.060 A 
BRANCH  92  93
ATOM     93  S   UNL     1       8.963  -1.675  11.340  1.00  0.00     0.124 S 
ATOM     94  O   UNL     1       9.297  -2.909  12.040  1.00  0.00    -0.237 OA
ATOM     95  O   UNL     1       9.157  -1.689   9.894  1.00  0.00    -0.237 OA
ATOM     96  O   UNL     1       9.365  -0.441  12.009  1.00  0.00    -0.744 OA
ENDBRANCH  92  93
ENDBRANCH  60  85
BRANCH  72  97
ATOM     97  C   UNL     1      -0.280  -6.261  14.060  1.00  0.00     0.058 A 
ATOM     98  C   UNL     1       0.256  -6.499  15.336  1.00  0.00     0.135 A 
ATOM     99  C   UNL     1      -0.754  -7.368  13.335  1.00  0.00     0.135 A 
ATOM    100  F   UNL     1       0.727  -5.479  16.072  1.00  0.00    -0.206 F 
ATOM    101  C   UNL     1       0.339  -7.785  15.862  1.00  0.00     0.059 A 
ATOM    102  C   UNL     1      -0.709  -8.658  13.854  1.00  0.00     0.059 A 
ATOM    103  F   UNL     1      -1.289  -7.198  12.115  1.00  0.00    -0.206 F 
ATOM    104  C   UNL     1      -0.150  -8.859  15.114  1.00  0.00     0.060 A 
BRANCH 104 105
ATOM    105  S   UNL     1      -0.070 -10.517  15.824  1.00  0.00     0.124 S 
ATOM    106  O   UNL     1       1.359 -10.804  15.742  1.00  0.00    -0.237 OA
ATOM    107  O   UNL     1      -0.598 -10.307  17.168  1.00  0.00    -0.237 OA
ATOM    108  O   UNL     1      -0.920 -11.308  14.939  1.00  0.00    -0.744 OA
ENDBRANCH 104 105
ENDBRANCH  72  97
ENDBRANCH  46  47
ENDBRANCH  39  41
ENDBRANCH  38  39
ENDBRANCH  37  38
ENDBRANCH  36  37
ENDBRANCH  35  36
ENDBRANCH   1  35
TORSDOF 24
