REMARK SMILES O=C(CSc1ccc2ccccc2n1)NCc1ccc(C(=O)OCCOCCOCCOC(=O)c2ccc(-c3c4nc(c(-c5c(F)cc(S(=O)(=O)[O-])cc5F)c5ccc([nH]5)c(-c5c(F)cc(S(=O)(=O)[O-])cc5F)c5nc(c(-c6c(F)cc(S(=O)(=O)[O-])cc6F)c6ccc3[nH]6)C=C5)C=C4)cc2)cc1
REMARK SMILES IDX 27 1 26 2 25 3 24 4 23 5 21 6 22 7 20 8 17 9 18 10 102 11
REMARK SMILES IDX 19 12 101 13 16 14 15 15 1 16 2 17 3 19 4 20 5 21 6 22 14 23
REMARK SMILES IDX 7 24 13 25 8 26 12 27 9 28 11 29 10 30 28 31 29 32 30 33
REMARK SMILES IDX 31 34 32 35 33 36 34 37 35 38 36 39 100 40 37 41 99 42 38 43
REMARK SMILES IDX 39 44 40 45 93 46 41 47 98 48 92 49 94 50 42 51 97 52 91 53
REMARK SMILES IDX 90 54 43 56 77 57 56 58 76 59 57 60 60 61 75 62 95 63 58 64
REMARK SMILES IDX 59 65 74 67 96 68 61 69 44 70 45 71 54 72 46 73 47 74 53 75
REMARK SMILES IDX 55 76 48 77 49 78 50 79 51 80 52 81 78 82 79 83 88 84 80 85
REMARK SMILES IDX 81 86 87 87 89 88 82 89 83 90 84 91 85 92 86 93 62 94 63 95
REMARK SMILES IDX 72 96 64 97 65 98 71 99 73 100 66 101 67 102 68 103 69 104
REMARK SMILES IDX 70 105
REMARK H PARENT 15 18 94 55 60 66
REMARK Flexibility Score: inf
ROOT
ATOM      1  C   UNL     1       2.094   8.044   2.095  1.00  0.00     0.188 C 
ENDROOT
BRANCH   1   2
ATOM      2  O   UNL     1       2.622   9.333   2.353  1.00  0.00    -0.376 OA
BRANCH   2   3
ATOM      3  C   UNL     1       3.225  10.085   1.314  1.00  0.00     0.202 C 
BRANCH   3   4
ATOM      4  C   UNL     1       4.171   9.456   0.281  1.00  0.00     0.261 C 
BRANCH   4   5
ATOM      5  O   UNL     1       3.751   8.194  -0.250  1.00  0.00    -0.460 OA
BRANCH   5   6
ATOM      6  C   UNL     1       4.593   7.160   0.013  1.00  0.00     0.338 C 
ATOM      7  O   UNL     1       5.666   7.213   0.575  1.00  0.00    -0.246 OA
BRANCH   6   8
ATOM      8  C   UNL     1       3.938   5.882  -0.340  1.00  0.00     0.060 A 
ATOM      9  C   UNL     1       2.800   3.385  -0.918  1.00  0.00    -0.029 A 
ATOM     10  C   UNL     1       3.375   3.631   0.337  1.00  0.00     0.006 A 
ATOM     11  C   UNL     1       2.747   4.431  -1.857  1.00  0.00     0.006 A 
ATOM     12  C   UNL     1       3.963   4.863   0.617  1.00  0.00     0.016 A 
ATOM     13  C   UNL     1       3.309   5.680  -1.569  1.00  0.00     0.016 A 
BRANCH   9  14
ATOM     14  C   UNL     1       2.190   2.044  -1.249  1.00  0.00     0.151 C 
BRANCH  14  15
ATOM     15  N   UNL     1       2.842   0.950  -0.562  1.00  0.00    -0.351 N 
ATOM     16  O   UNL     1       0.913  -0.175  -0.067  1.00  0.00    -0.274 OA
ATOM     17  C   UNL     1       2.139  -0.109  -0.030  1.00  0.00     0.230 C 
ATOM     18  H   UNL     1       3.822   0.963  -0.471  1.00  0.00     0.163 HD
BRANCH  17  19
ATOM     19  C   UNL     1       2.993  -1.196   0.598  1.00  0.00     0.176 C 
BRANCH  19  20
ATOM     20  S   UNL     1       4.209  -1.854  -0.595  1.00  0.00    -0.096 SA
BRANCH  20  21
ATOM     21  C   UNL     1       3.129  -2.717  -1.720  1.00  0.00     0.097 A 
ATOM     22  C   UNL     1       2.287  -2.026  -2.578  1.00  0.00     0.036 A 
ATOM     23  N   UNL     1       3.258  -4.061  -1.753  1.00  0.00    -0.241 NA
ATOM     24  C   UNL     1       1.523  -2.742  -3.491  1.00  0.00     0.013 A 
ATOM     25  C   UNL     1       2.537  -4.755  -2.654  1.00  0.00     0.072 A 
ATOM     26  C   UNL     1       1.648  -4.130  -3.553  1.00  0.00     0.000 A 
ATOM     27  C   UNL     1       2.672  -6.135  -2.731  1.00  0.00     0.029 A 
ATOM     28  C   UNL     1       0.928  -4.888  -4.492  1.00  0.00     0.010 A 
ATOM     29  C   UNL     1       1.966  -6.894  -3.670  1.00  0.00     0.002 A 
ATOM     30  C   UNL     1       1.093  -6.269  -4.553  1.00  0.00     0.001 A 
ENDBRANCH  20  21
ENDBRANCH  19  20
ENDBRANCH  17  19
ENDBRANCH  14  15
ENDBRANCH   9  14
ENDBRANCH   6   8
ENDBRANCH   5   6
ENDBRANCH   4   5
ENDBRANCH   3   4
ENDBRANCH   2   3
ENDBRANCH   1   2
BRANCH   1  31
ATOM     31  C   UNL     1       1.050   7.837   0.979  1.00  0.00     0.188 C 
BRANCH  31  32
ATOM     32  O   UNL     1       0.728   8.935   0.158  1.00  0.00    -0.376 OA
BRANCH  32  33
ATOM     33  C   UNL     1      -0.139   9.962   0.607  1.00  0.00     0.202 C 
BRANCH  33  34
ATOM     34  C   UNL     1      -0.932   9.992   1.927  1.00  0.00     0.261 C 
BRANCH  34  35
ATOM     35  O   UNL     1      -0.614   9.036   2.935  1.00  0.00    -0.460 OA
BRANCH  35  36
ATOM     36  C   UNL     1      -1.493   8.010   3.048  1.00  0.00     0.338 C 
ATOM     37  O   UNL     1      -2.465   7.791   2.348  1.00  0.00    -0.246 OA
BRANCH  36  38
ATOM     38  C   UNL     1      -0.997   7.075   4.072  1.00  0.00     0.060 A 
ATOM     39  C   UNL     1      -0.660   5.774   3.680  1.00  0.00     0.016 A 
ATOM     40  C   UNL     1      -0.919   7.461   5.412  1.00  0.00     0.016 A 
ATOM     41  C   UNL     1      -0.276   4.839   4.639  1.00  0.00     0.010 A 
ATOM     42  C   UNL     1      -0.550   6.517   6.373  1.00  0.00     0.010 A 
ATOM     43  C   UNL     1      -0.261   5.194   5.994  1.00  0.00    -0.014 A 
BRANCH  43  44
ATOM     44  C   UNL     1      -0.126   4.138   7.027  1.00  0.00     0.031 A 
ATOM     45  C   UNL     1      -1.377   3.595   7.664  1.00  0.00     0.074 A 
ATOM     46  C   UNL     1       1.080   3.658   7.378  1.00  0.00     0.049 A 
ATOM     47  N   UNL     1      -1.505   2.706   8.613  1.00  0.00    -0.248 NA
ATOM     48  C   UNL     1      -2.653   4.133   7.165  1.00  0.00     0.031 C 
ATOM     49  C   UNL     1       2.357   4.080   6.807  1.00  0.00     0.029 A 
ATOM     50  N   UNL     1       1.423   2.712   8.311  1.00  0.00    -0.354 N 
ATOM     51  C   UNL     1      -2.873   2.579   8.829  1.00  0.00     0.074 A 
ATOM     52  C   UNL     1      -3.531   3.505   7.933  1.00  0.00     0.031 C 
ATOM     53  C   UNL     1       3.349   3.405   7.414  1.00  0.00     0.029 A 
ATOM     54  C   UNL     1       2.779   2.525   8.434  1.00  0.00     0.049 A 
ATOM     55  H   UNL     1       0.760   2.214   8.842  1.00  0.00     0.167 HD
ATOM     56  C   UNL     1      -3.522   1.760   9.689  1.00  0.00     0.037 A 
ATOM     57  C   UNL     1       3.477   1.749   9.287  1.00  0.00     0.037 A 
ATOM     58  C   UNL     1      -2.862   0.842  10.579  1.00  0.00     0.049 A 
ATOM     59  C   UNL     1       2.736   0.889  10.280  1.00  0.00     0.074 A 
ATOM     60  C   UNL     1      -3.430  -0.042  11.480  1.00  0.00     0.029 A 
ATOM     61  N   UNL     1      -1.487   0.694  10.687  1.00  0.00    -0.354 N 
ATOM     62  N   UNL     1       1.442   0.762  10.458  1.00  0.00    -0.248 NA
ATOM     63  C   UNL     1       3.549   0.064  11.185  1.00  0.00     0.031 C 
ATOM     64  C   UNL     1      -2.397  -0.690  12.166  1.00  0.00     0.029 A 
ATOM     65  C   UNL     1      -1.187  -0.251  11.654  1.00  0.00     0.049 A 
ATOM     66  H   UNL     1      -0.822   1.187  10.154  1.00  0.00     0.167 HD
ATOM     67  C   UNL     1       1.286  -0.180  11.471  1.00  0.00     0.074 A 
ATOM     68  C   UNL     1       2.618  -0.594  11.863  1.00  0.00     0.031 C 
ATOM     69  C   UNL     1       0.145  -0.662  12.024  1.00  0.00     0.037 A 
BRANCH  56  70
ATOM     70  C   UNL     1      -5.022   1.839   9.725  1.00  0.00     0.058 A 
ATOM     71  C   UNL     1      -5.815   1.347   8.676  1.00  0.00     0.135 A 
ATOM     72  C   UNL     1      -5.678   2.392  10.837  1.00  0.00     0.135 A 
ATOM     73  F   UNL     1      -5.239   0.827   7.580  1.00  0.00    -0.206 F 
ATOM     74  C   UNL     1      -7.203   1.423   8.716  1.00  0.00     0.059 A 
ATOM     75  C   UNL     1      -7.066   2.453  10.911  1.00  0.00     0.059 A 
ATOM     76  F   UNL     1      -4.968   2.880  11.867  1.00  0.00    -0.206 F 
ATOM     77  C   UNL     1      -7.820   1.979   9.838  1.00  0.00     0.060 A 
BRANCH  77  78
ATOM     78  S   UNL     1      -9.623   2.068   9.878  1.00  0.00     0.124 S 
ATOM     79  O   UNL     1      -9.883   3.139   8.921  1.00  0.00    -0.237 OA
ATOM     80  O   UNL     1     -10.011   0.728   9.450  1.00  0.00    -0.237 OA
ATOM     81  O   UNL     1      -9.917   2.388  11.271  1.00  0.00    -0.744 OA
ENDBRANCH  77  78
ENDBRANCH  56  70
BRANCH  57  82
ATOM     82  C   UNL     1       4.964   1.753   9.249  1.00  0.00     0.058 A 
ATOM     83  C   UNL     1       5.681   0.634   8.803  1.00  0.00     0.135 A 
ATOM     84  C   UNL     1       5.697   2.877   9.662  1.00  0.00     0.135 A 
ATOM     85  F   UNL     1       5.026  -0.469   8.409  1.00  0.00    -0.206 F 
ATOM     86  C   UNL     1       7.072   0.621   8.781  1.00  0.00     0.059 A 
ATOM     87  C   UNL     1       7.088   2.898   9.624  1.00  0.00     0.059 A 
ATOM     88  F   UNL     1       5.059   3.977  10.089  1.00  0.00    -0.206 F 
ATOM     89  C   UNL     1       7.767   1.760   9.191  1.00  0.00     0.060 A 
BRANCH  89  90
ATOM     90  S   UNL     1       9.572   1.750   9.111  1.00  0.00     0.124 S 
ATOM     91  O   UNL     1       9.910   0.877  10.229  1.00  0.00    -0.237 OA
ATOM     92  O   UNL     1       9.815   1.206   7.779  1.00  0.00    -0.237 OA
ATOM     93  O   UNL     1       9.922   3.157   9.279  1.00  0.00    -0.744 OA
ENDBRANCH  89  90
ENDBRANCH  57  82
BRANCH  69  94
ATOM     94  C   UNL     1       0.276  -1.726  13.080  1.00  0.00     0.058 A 
ATOM     95  C   UNL     1       0.728  -1.434  14.376  1.00  0.00     0.135 A 
ATOM     96  C   UNL     1      -0.118  -3.047  12.806  1.00  0.00     0.135 A 
ATOM     97  F   UNL     1       1.120  -0.189  14.690  1.00  0.00    -0.206 F 
ATOM     98  C   UNL     1       0.806  -2.417  15.357  1.00  0.00     0.059 A 
ATOM     99  C   UNL     1      -0.073  -4.040  13.780  1.00  0.00     0.059 A 
ATOM    100  F   UNL     1      -0.570  -3.379  11.586  1.00  0.00    -0.206 F 
ATOM    101  C   UNL     1       0.401  -3.718  15.050  1.00  0.00     0.060 A 
BRANCH 101 102
ATOM    102  S   UNL     1       0.473  -4.977  16.342  1.00  0.00     0.124 S 
ATOM    103  O   UNL     1       1.907  -5.233  16.423  1.00  0.00    -0.237 OA
ATOM    104  O   UNL     1      -0.113  -4.286  17.486  1.00  0.00    -0.237 OA
ATOM    105  O   UNL     1      -0.330  -6.069  15.799  1.00  0.00    -0.744 OA
ENDBRANCH 101 102
ENDBRANCH  69  94
ENDBRANCH  43  44
ENDBRANCH  36  38
ENDBRANCH  35  36
ENDBRANCH  34  35
ENDBRANCH  33  34
ENDBRANCH  32  33
ENDBRANCH  31  32
ENDBRANCH   1  31
TORSDOF 25
