REMARK SMILES CS(=O)(=O)c1ccc(/C=C(/C(=O)OCCOCCOCCOC(=O)c2ccc(-c3c4nc(c(-c5c(F)cc(S(=O)(=O)[O-])cc5F)c5ccc([nH]5)c(-c5c(F)cc(S(=O)(=O)[O-])cc5F)c5nc(c(-c6c(F)cc(S(=O)(=O)[O-])cc6F)c6ccc3[nH]6)C=C5)C=C4)cc2)c2cccc(-c3ccc(S(C)(=O)=O)cc3)c2)cc1
REMARK SMILES IDX 17 1 16 2 15 3 14 4 13 5 11 6 12 7 10 8 9 9 8 10 5 11 6 12
REMARK SMILES IDX 108 13 7 14 107 15 2 16 1 17 3 18 4 19 91 20 92 21 106 22
REMARK SMILES IDX 93 23 95 24 94 25 96 26 97 27 105 28 98 29 104 30 99 31
REMARK SMILES IDX 100 32 101 33 102 34 103 35 18 36 19 37 20 38 21 39 22 40
REMARK SMILES IDX 23 41 24 42 25 43 26 44 90 45 27 46 89 47 28 48 29 49 30 50
REMARK SMILES IDX 83 51 31 52 88 53 82 54 84 55 32 56 87 57 81 58 80 59 33 61
REMARK SMILES IDX 67 62 46 63 66 64 47 65 50 66 65 67 85 68 48 69 49 70 64 72
REMARK SMILES IDX 86 73 51 74 34 75 35 76 44 77 36 78 37 79 43 80 45 81 38 82
REMARK SMILES IDX 39 83 40 84 41 85 42 86 68 87 69 88 78 89 70 90 71 91 77 92
REMARK SMILES IDX 79 93 72 94 73 95 74 96 75 97 76 98 52 99 53 100 62 101
REMARK SMILES IDX 54 102 55 103 61 104 63 105 56 106 57 107 58 108 59 109
REMARK SMILES IDX 60 110
REMARK H PARENT 84 60 50 71
REMARK Flexibility Score: inf
ROOT
ATOM      1  C   UNL     1       1.258   4.215   9.669  1.00  0.00     0.188 C 
ENDROOT
BRANCH   1   2
ATOM      2  O   UNL     1       1.790   5.388  10.266  1.00  0.00    -0.376 OA
BRANCH   2   3
ATOM      3  C   UNL     1       3.154   5.657   9.981  1.00  0.00     0.202 C 
BRANCH   3   4
ATOM      4  C   UNL     1       3.401   6.224   8.578  1.00  0.00     0.261 C 
BRANCH   4   5
ATOM      5  O   UNL     1       2.868   5.432   7.504  1.00  0.00    -0.460 OA
BRANCH   5   6
ATOM      6  C   UNL     1       3.548   4.309   7.166  1.00  0.00     0.338 C 
ATOM      7  O   UNL     1       4.588   3.940   7.687  1.00  0.00    -0.246 OA
BRANCH   6   8
ATOM      8  C   UNL     1       2.797   3.525   6.126  1.00  0.00     0.067 C 
ATOM      9  C   UNL     1       2.109   4.186   5.161  1.00  0.00     0.024 C 
BRANCH   9  10
ATOM     10  C   UNL     1       1.436   3.644   3.953  1.00  0.00    -0.025 A 
ATOM     11  C   UNL     1       0.539   2.594   1.502  1.00  0.00     0.067 A 
ATOM     12  C   UNL     1       0.346   1.870   2.676  1.00  0.00     0.021 A 
ATOM     13  C   UNL     1       1.072   3.882   1.551  1.00  0.00     0.021 A 
ATOM     14  C   UNL     1       0.769   2.410   3.897  1.00  0.00     0.009 A 
ATOM     15  C   UNL     1       1.515   4.400   2.773  1.00  0.00     0.009 A 
BRANCH  11  16
ATOM     16  S   UNL     1       0.156   1.860  -0.071  1.00  0.00     0.175 S 
ATOM     17  C   UNL     1       0.997   0.295  -0.063  1.00  0.00     0.163 C 
ATOM     18  O   UNL     1       0.785   2.678  -1.094  1.00  0.00    -0.224 OA
ATOM     19  O   UNL     1      -1.273   1.620  -0.089  1.00  0.00    -0.224 OA
ENDBRANCH  11  16
ENDBRANCH   9  10
BRANCH   8  20
ATOM     20  C   UNL     1       2.881   2.052   6.176  1.00  0.00    -0.010 A 
ATOM     21  C   UNL     1       2.180   1.337   7.156  1.00  0.00     0.009 A 
ATOM     22  C   UNL     1       3.541   1.347   5.165  1.00  0.00     0.017 A 
ATOM     23  C   UNL     1       2.126  -0.055   7.112  1.00  0.00     0.001 A 
ATOM     24  C   UNL     1       3.453  -0.052   5.079  1.00  0.00    -0.018 A 
ATOM     25  C   UNL     1       2.752  -0.744   6.077  1.00  0.00     0.009 A 
BRANCH  24  26
ATOM     26  C   UNL     1       4.000  -0.742   3.908  1.00  0.00    -0.018 A 
ATOM     27  C   UNL     1       3.173  -1.557   3.114  1.00  0.00     0.010 A 
ATOM     28  C   UNL     1       5.332  -0.543   3.512  1.00  0.00     0.010 A 
ATOM     29  C   UNL     1       3.657  -2.143   1.947  1.00  0.00     0.021 A 
ATOM     30  C   UNL     1       5.827  -1.128   2.347  1.00  0.00     0.021 A 
ATOM     31  C   UNL     1       4.985  -1.926   1.575  1.00  0.00     0.067 A 
BRANCH  31  32
ATOM     32  S   UNL     1       5.581  -2.659   0.075  1.00  0.00     0.175 S 
ATOM     33  C   UNL     1       5.689  -4.382   0.480  1.00  0.00     0.163 C 
ATOM     34  O   UNL     1       4.544  -2.478  -0.923  1.00  0.00    -0.224 OA
ATOM     35  O   UNL     1       6.926  -2.164  -0.161  1.00  0.00    -0.224 OA
ENDBRANCH  31  32
ENDBRANCH  24  26
ENDBRANCH   8  20
ENDBRANCH   6   8
ENDBRANCH   5   6
ENDBRANCH   4   5
ENDBRANCH   3   4
ENDBRANCH   2   3
ENDBRANCH   1   2
BRANCH   1  36
ATOM     36  C   UNL     1       0.198   4.495   8.584  1.00  0.00     0.188 C 
BRANCH  36  37
ATOM     37  O   UNL     1      -0.525   5.719   8.570  1.00  0.00    -0.376 OA
BRANCH  37  38
ATOM     38  C   UNL     1      -0.855   6.344   9.799  1.00  0.00     0.202 C 
BRANCH  38  39
ATOM     39  C   UNL     1      -1.805   5.611  10.752  1.00  0.00     0.261 C 
BRANCH  39  40
ATOM     40  O   UNL     1      -1.512   4.219  10.953  1.00  0.00    -0.460 OA
BRANCH  40  41
ATOM     41  C   UNL     1      -2.347   3.360  10.315  1.00  0.00     0.338 C 
ATOM     42  O   UNL     1      -3.312   3.647   9.629  1.00  0.00    -0.246 OA
BRANCH  41  43
ATOM     43  C   UNL     1      -1.828   1.978  10.422  1.00  0.00     0.060 A 
ATOM     44  C   UNL     1      -1.671   1.244   9.239  1.00  0.00     0.016 A 
ATOM     45  C   UNL     1      -1.561   1.386  11.658  1.00  0.00     0.016 A 
ATOM     46  C   UNL     1      -1.271  -0.091   9.289  1.00  0.00     0.010 A 
ATOM     47  C   UNL     1      -1.184   0.038  11.709  1.00  0.00     0.010 A 
ATOM     48  C   UNL     1      -1.062  -0.714  10.527  1.00  0.00    -0.014 A 
BRANCH  48  49
ATOM     49  C   UNL     1      -0.886  -2.186  10.580  1.00  0.00     0.031 A 
ATOM     50  C   UNL     1      -2.108  -3.056  10.695  1.00  0.00     0.074 A 
ATOM     51  C   UNL     1       0.334  -2.747  10.497  1.00  0.00     0.049 A 
ATOM     52  N   UNL     1      -2.195  -4.359  10.749  1.00  0.00    -0.248 NA
ATOM     53  C   UNL     1      -3.404  -2.361  10.758  1.00  0.00     0.031 C 
ATOM     54  C   UNL     1       1.592  -2.017  10.366  1.00  0.00     0.029 A 
ATOM     55  N   UNL     1       0.711  -4.067  10.511  1.00  0.00    -0.354 N 
ATOM     56  C   UNL     1      -3.552  -4.643  10.854  1.00  0.00     0.074 A 
ATOM     57  C   UNL     1      -4.249  -3.374  10.874  1.00  0.00     0.031 C 
ATOM     58  C   UNL     1       2.604  -2.900  10.299  1.00  0.00     0.029 A 
ATOM     59  C   UNL     1       2.071  -4.255  10.429  1.00  0.00     0.049 A 
ATOM     60  H   UNL     1       0.068  -4.810  10.574  1.00  0.00     0.167 HD
ATOM     61  C   UNL     1      -4.163  -5.849  10.929  1.00  0.00     0.037 A 
ATOM     62  C   UNL     1       2.800  -5.389  10.477  1.00  0.00     0.037 A 
ATOM     63  C   UNL     1      -3.470  -7.110  10.936  1.00  0.00     0.049 A 
ATOM     64  C   UNL     1       2.101  -6.717  10.632  1.00  0.00     0.074 A 
ATOM     65  C   UNL     1      -4.006  -8.385  11.006  1.00  0.00     0.029 A 
ATOM     66  N   UNL     1      -2.093  -7.258  10.889  1.00  0.00    -0.354 N 
ATOM     67  N   UNL     1       0.815  -6.971  10.694  1.00  0.00    -0.248 NA
ATOM     68  C   UNL     1       2.953  -7.912  10.730  1.00  0.00     0.031 C 
ATOM     69  C   UNL     1      -2.949  -9.301  11.048  1.00  0.00     0.029 A 
ATOM     70  C   UNL     1      -1.758  -8.600  10.953  1.00  0.00     0.049 A 
ATOM     71  H   UNL     1      -1.448  -6.517  10.820  1.00  0.00     0.167 HD
ATOM     72  C   UNL     1       0.705  -8.354  10.818  1.00  0.00     0.074 A 
ATOM     73  C   UNL     1       2.053  -8.883  10.806  1.00  0.00     0.031 C 
ATOM     74  C   UNL     1      -0.411  -9.116  10.931  1.00  0.00     0.037 A 
BRANCH  61  75
ATOM     75  C   UNL     1      -5.661  -5.856  11.045  1.00  0.00     0.058 A 
ATOM     76  C   UNL     1      -6.485  -5.541   9.953  1.00  0.00     0.135 A 
ATOM     77  C   UNL     1      -6.279  -6.203  12.257  1.00  0.00     0.135 A 
ATOM     78  F   UNL     1      -5.943  -5.184   8.778  1.00  0.00    -0.206 F 
ATOM     79  C   UNL     1      -7.871  -5.543  10.067  1.00  0.00     0.059 A 
ATOM     80  C   UNL     1      -7.663  -6.235  12.386  1.00  0.00     0.059 A 
ATOM     81  F   UNL     1      -5.535  -6.508  13.332  1.00  0.00    -0.206 F 
ATOM     82  C   UNL     1      -8.451  -5.889  11.289  1.00  0.00     0.060 A 
BRANCH  82  83
ATOM     83  S   UNL     1     -10.251  -5.884  11.423  1.00  0.00     0.124 S 
ATOM     84  O   UNL     1     -10.535  -4.452  11.443  1.00  0.00    -0.237 OA
ATOM     85  O   UNL     1     -10.656  -6.593  10.214  1.00  0.00    -0.237 OA
ATOM     86  O   UNL     1     -10.501  -6.590  12.675  1.00  0.00    -0.744 OA
ENDBRANCH  82  83
ENDBRANCH  61  75
BRANCH  62  87
ATOM     87  C   UNL     1       4.284  -5.327  10.400  1.00  0.00     0.058 A 
ATOM     88  C   UNL     1       4.972  -5.825   9.284  1.00  0.00     0.135 A 
ATOM     89  C   UNL     1       5.044  -4.785  11.449  1.00  0.00     0.135 A 
ATOM     90  F   UNL     1       4.291  -6.363   8.261  1.00  0.00    -0.206 F 
ATOM     91  C   UNL     1       6.362  -5.804   9.216  1.00  0.00     0.059 A 
ATOM     92  C   UNL     1       6.433  -4.729  11.393  1.00  0.00     0.059 A 
ATOM     93  F   UNL     1       4.433  -4.290  12.536  1.00  0.00    -0.206 F 
ATOM     94  C   UNL     1       7.083  -5.252  10.276  1.00  0.00     0.060 A 
BRANCH  94  95
ATOM     95  S   UNL     1       8.884  -5.188  10.158  1.00  0.00     0.124 S 
ATOM     96  O   UNL     1       9.242  -6.581  10.396  1.00  0.00    -0.237 OA
ATOM     97  O   UNL     1       9.084  -4.701   8.796  1.00  0.00    -0.237 OA
ATOM     98  O   UNL     1       9.255  -4.250  11.213  1.00  0.00    -0.744 OA
ENDBRANCH  94  95
ENDBRANCH  62  87
BRANCH  74  99
ATOM     99  C   UNL     1      -0.235 -10.608  11.019  1.00  0.00     0.058 A 
ATOM    100  C   UNL     1       0.245 -11.229  12.183  1.00  0.00     0.135 A 
ATOM    101  C   UNL     1      -0.616 -11.432   9.947  1.00  0.00     0.135 A 
ATOM    102  F   UNL     1       0.627 -10.488  13.235  1.00  0.00    -0.206 F 
ATOM    103  C   UNL     1       0.359 -12.613  12.274  1.00  0.00     0.059 A 
ATOM    104  C   UNL     1      -0.534 -12.819  10.026  1.00  0.00     0.059 A 
ATOM    105  F   UNL     1      -1.091 -10.891   8.814  1.00  0.00    -0.206 F 
ATOM    106  C   UNL     1      -0.036 -13.400  11.191  1.00  0.00     0.060 A 
BRANCH 106 107
ATOM    107  S   UNL     1       0.079 -15.197  11.336  1.00  0.00     0.124 S 
ATOM    108  O   UNL     1       1.516 -15.410  11.204  1.00  0.00    -0.237 OA
ATOM    109  O   UNL     1      -0.480 -15.440  12.662  1.00  0.00    -0.237 OA
ATOM    110  O   UNL     1      -0.732 -15.679  10.222  1.00  0.00    -0.744 OA
ENDBRANCH 106 107
ENDBRANCH  74  99
ENDBRANCH  48  49
ENDBRANCH  41  43
ENDBRANCH  40  41
ENDBRANCH  39  40
ENDBRANCH  38  39
ENDBRANCH  37  38
ENDBRANCH  36  37
ENDBRANCH   1  36
TORSDOF 25
