REMARK SMILES CN1C(=O)C[C@@H](C(=O)OCCOCCOCCOC(=O)c2ccc(-c3c4nc(c(-c5c(F)cc(S(=O)(=O)[O-])cc5F)c5ccc([nH]5)c(-c5c(F)cc(S(=O)(=O)[O-])cc5F)c5nc(c(-c6c(F)cc(S(=O)(=O)[O-])cc6F)c6ccc3[nH]6)C=C5)C=C4)cc2)C12CCN(c1ccc(Cl)cn1)CC2
REMARK SMILES IDX 14 1 13 2 12 3 11 4 10 5 9 6 7 7 8 8 6 9 1 10 2 11 3 12
REMARK SMILES IDX 87 13 4 14 5 15 88 16 99 17 89 18 98 19 90 20 91 21 92 22
REMARK SMILES IDX 97 23 93 24 96 25 94 26 95 27 15 28 16 29 17 30 18 31 19 32
REMARK SMILES IDX 20 33 21 34 22 35 86 36 23 37 85 38 24 39 25 40 26 41 79 42
REMARK SMILES IDX 27 43 84 44 78 45 80 46 28 47 83 48 77 49 76 50 29 52 63 53
REMARK SMILES IDX 42 54 62 55 43 56 46 57 61 58 81 59 44 60 45 61 60 63 82 64
REMARK SMILES IDX 47 65 30 66 31 67 40 68 32 69 33 70 39 71 41 72 34 73 35 74
REMARK SMILES IDX 36 75 37 76 38 77 64 78 65 79 74 80 66 81 67 82 73 83 75 84
REMARK SMILES IDX 68 85 69 86 70 87 71 88 72 89 48 90 49 91 58 92 50 93 51 94
REMARK SMILES IDX 57 95 59 96 52 97 53 98 54 99 55 100 56 101
REMARK H PARENT 80 51 46 62
REMARK Flexibility Score: inf
ROOT
ATOM      1  C   UNL     1      -2.764   0.477   3.688  1.00  0.00     0.188 C 
ENDROOT
BRANCH   1   2
ATOM      2  C   UNL     1      -4.128   1.142   3.573  1.00  0.00     0.188 C 
BRANCH   2   3
ATOM      3  O   UNL     1      -5.141   0.501   2.813  1.00  0.00    -0.376 OA
BRANCH   3   4
ATOM      4  C   UNL     1      -4.782  -0.460   1.833  1.00  0.00     0.202 C 
BRANCH   4   5
ATOM      5  C   UNL     1      -4.092   0.048   0.554  1.00  0.00     0.261 C 
BRANCH   5   6
ATOM      6  O   UNL     1      -2.746   0.593   0.679  1.00  0.00    -0.463 OA
BRANCH   6   7
ATOM      7  C   UNL     1      -2.672   1.946   0.654  1.00  0.00     0.311 C 
ATOM      8  O   UNL     1      -3.668   2.667   0.632  1.00  0.00    -0.252 OA
BRANCH   7   9
ATOM      9  C   UNL     1      -1.288   2.591   0.541  1.00  0.00     0.134 C 
ATOM     10  C   UNL     1       1.343   0.206  -0.552  1.00  0.00     0.147 C 
ATOM     11  N   UNL     1       0.422   1.320  -0.419  1.00  0.00    -0.339 N 
ATOM     12  C   UNL     1      -0.287   1.838  -1.493  1.00  0.00     0.223 C 
ATOM     13  C   UNL     1       0.122   1.995   0.854  1.00  0.00     0.060 C 
ATOM     14  O   UNL     1      -0.210   1.490  -2.649  1.00  0.00    -0.275 OA
ATOM     15  C   UNL     1      -1.175   2.936  -0.963  1.00  0.00     0.118 C 
ATOM     16  C   UNL     1       0.325   1.025   2.028  1.00  0.00     0.051 C 
ATOM     17  C   UNL     1       1.130   3.200   1.075  1.00  0.00     0.051 C 
ATOM     18  C   UNL     1       0.253   1.711   3.371  1.00  0.00     0.120 C 
ATOM     19  C   UNL     1       1.111   3.815   2.497  1.00  0.00     0.120 C 
ATOM     20  N   UNL     1       1.280   2.736   3.462  1.00  0.00    -0.356 N 
BRANCH  20  21
ATOM     21  C   UNL     1       1.665   3.054   4.770  1.00  0.00     0.128 A 
ATOM     22  C   UNL     1       2.224   2.051   5.573  1.00  0.00     0.048 A 
ATOM     23  N   UNL     1       1.439   4.286   5.272  1.00  0.00    -0.238 NA
ATOM     24  C   UNL     1       2.494   2.282   6.921  1.00  0.00     0.026 A 
ATOM     25  C   UNL     1       1.718   4.497   6.594  1.00  0.00     0.134 A 
ATOM     26  C   UNL     1       2.224   3.530   7.449  1.00  0.00     0.059 A 
ATOM     27  Cl  UNL     1       2.511   3.840   9.110  1.00  0.00    -0.083 Cl
ENDBRANCH  20  21
ENDBRANCH   7   9
ENDBRANCH   6   7
ENDBRANCH   5   6
ENDBRANCH   4   5
ENDBRANCH   3   4
ENDBRANCH   2   3
ENDBRANCH   1   2
BRANCH   1  28
ATOM     28  O   UNL     1      -2.796  -0.929   3.842  1.00  0.00    -0.376 OA
BRANCH  28  29
ATOM     29  C   UNL     1      -1.871  -1.430   4.797  1.00  0.00     0.202 C 
BRANCH  29  30
ATOM     30  C   UNL     1      -2.478  -1.321   6.199  1.00  0.00     0.261 C 
BRANCH  30  31
ATOM     31  O   UNL     1      -2.718   0.036   6.638  1.00  0.00    -0.460 OA
BRANCH  31  32
ATOM     32  C   UNL     1      -1.611   0.777   6.881  1.00  0.00     0.338 C 
ATOM     33  O   UNL     1      -0.457   0.398   6.775  1.00  0.00    -0.246 OA
BRANCH  32  34
ATOM     34  C   UNL     1      -1.996   2.187   7.105  1.00  0.00     0.060 A 
ATOM     35  C   UNL     1      -1.669   3.133   6.133  1.00  0.00     0.016 A 
ATOM     36  C   UNL     1      -2.558   2.608   8.304  1.00  0.00     0.016 A 
ATOM     37  C   UNL     1      -1.817   4.495   6.364  1.00  0.00     0.010 A 
ATOM     38  C   UNL     1      -2.736   3.982   8.533  1.00  0.00     0.010 A 
ATOM     39  C   UNL     1      -2.319   4.941   7.586  1.00  0.00    -0.014 A 
BRANCH  39  40
ATOM     40  C   UNL     1      -2.246   6.390   7.919  1.00  0.00     0.031 A 
ATOM     41  C   UNL     1      -1.329   6.843   9.028  1.00  0.00     0.074 A 
ATOM     42  C   UNL     1      -2.916   7.311   7.198  1.00  0.00     0.049 A 
ATOM     43  N   UNL     1      -1.163   8.035   9.540  1.00  0.00    -0.248 NA
ATOM     44  C   UNL     1      -0.472   5.811   9.632  1.00  0.00     0.031 C 
ATOM     45  C   UNL     1      -3.751   7.032   6.028  1.00  0.00     0.029 A 
ATOM     46  N   UNL     1      -3.002   8.674   7.349  1.00  0.00    -0.354 N 
ATOM     47  C   UNL     1      -0.201   7.891  10.534  1.00  0.00     0.074 A 
ATOM     48  C   UNL     1       0.171   6.495  10.566  1.00  0.00     0.031 C 
ATOM     49  C   UNL     1      -4.267   8.186   5.573  1.00  0.00     0.029 A 
ATOM     50  C   UNL     1      -3.863   9.273   6.460  1.00  0.00     0.049 A 
ATOM     51  H   UNL     1      -2.495   9.174   8.029  1.00  0.00     0.167 HD
ATOM     52  C   UNL     1       0.321   8.834  11.355  1.00  0.00     0.037 A 
ATOM     53  C   UNL     1      -4.318  10.541   6.397  1.00  0.00     0.037 A 
ATOM     54  C   UNL     1      -0.074  10.217  11.343  1.00  0.00     0.049 A 
ATOM     55  C   UNL     1      -3.841  11.543   7.415  1.00  0.00     0.074 A 
ATOM     56  C   UNL     1       0.360  11.243  12.162  1.00  0.00     0.029 A 
ATOM     57  N   UNL     1      -1.009  10.764  10.477  1.00  0.00    -0.354 N 
ATOM     58  N   UNL     1      -2.961  11.388   8.376  1.00  0.00    -0.248 NA
ATOM     59  C   UNL     1      -4.427  12.889   7.349  1.00  0.00     0.031 C 
ATOM     60  C   UNL     1      -0.363  12.396  11.837  1.00  0.00     0.029 A 
ATOM     61  C   UNL     1      -1.195  12.105  10.768  1.00  0.00     0.049 A 
ATOM     62  H   UNL     1      -1.472  10.272   9.761  1.00  0.00     0.167 HD
ATOM     63  C   UNL     1      -2.868  12.623   9.010  1.00  0.00     0.074 A 
ATOM     64  C   UNL     1      -3.775  13.516   8.319  1.00  0.00     0.031 C 
ATOM     65  C   UNL     1      -2.098  12.985  10.067  1.00  0.00     0.037 A 
BRANCH  52  66
ATOM     66  C   UNL     1       1.322   8.379  12.382  1.00  0.00     0.058 A 
ATOM     67  C   UNL     1       2.627   7.993  12.035  1.00  0.00     0.135 A 
ATOM     68  C   UNL     1       0.967   8.335  13.741  1.00  0.00     0.135 A 
ATOM     69  F   UNL     1       3.012   7.993  10.749  1.00  0.00    -0.206 F 
ATOM     70  C   UNL     1       3.535   7.555  12.995  1.00  0.00     0.059 A 
ATOM     71  C   UNL     1       1.866   7.927  14.720  1.00  0.00     0.059 A 
ATOM     72  F   UNL     1      -0.271   8.685  14.127  1.00  0.00    -0.206 F 
ATOM     73  C   UNL     1       3.144   7.524  14.336  1.00  0.00     0.060 A 
BRANCH  73  74
ATOM     74  S   UNL     1       4.328   6.946  15.570  1.00  0.00     0.124 S 
ATOM     75  O   UNL     1       4.389   5.518  15.270  1.00  0.00    -0.237 OA
ATOM     76  O   UNL     1       5.524   7.714  15.238  1.00  0.00    -0.237 OA
ATOM     77  O   UNL     1       3.696   7.292  16.839  1.00  0.00    -0.744 OA
ENDBRANCH  73  74
ENDBRANCH  52  66
BRANCH  53  78
ATOM     78  C   UNL     1      -5.326  10.919   5.367  1.00  0.00     0.058 A 
ATOM     79  C   UNL     1      -5.015  11.817   4.337  1.00  0.00     0.135 A 
ATOM     80  C   UNL     1      -6.624  10.381   5.392  1.00  0.00     0.135 A 
ATOM     81  F   UNL     1      -3.795  12.374   4.278  1.00  0.00    -0.206 F 
ATOM     82  C   UNL     1      -5.952  12.173   3.371  1.00  0.00     0.059 A 
ATOM     83  C   UNL     1      -7.568  10.697   4.421  1.00  0.00     0.059 A 
ATOM     84  F   UNL     1      -6.976   9.515   6.355  1.00  0.00    -0.206 F 
ATOM     85  C   UNL     1      -7.225  11.601   3.418  1.00  0.00     0.060 A 
BRANCH  85  86
ATOM     86  S   UNL     1      -8.414  12.024   2.126  1.00  0.00     0.124 S 
ATOM     87  O   UNL     1      -8.756  13.397   2.478  1.00  0.00    -0.237 OA
ATOM     88  O   UNL     1      -7.620  11.854   0.913  1.00  0.00    -0.237 OA
ATOM     89  O   UNL     1      -9.477  11.041   2.313  1.00  0.00    -0.744 OA
ENDBRANCH  85  86
ENDBRANCH  53  78
BRANCH  65  90
ATOM     90  C   UNL     1      -2.162  14.419  10.518  1.00  0.00     0.058 A 
ATOM     91  C   UNL     1      -3.280  14.938  11.188  1.00  0.00     0.135 A 
ATOM     92  C   UNL     1      -1.059  15.269  10.327  1.00  0.00     0.135 A 
ATOM     93  F   UNL     1      -4.362  14.171  11.392  1.00  0.00    -0.206 F 
ATOM     94  C   UNL     1      -3.312  16.256  11.633  1.00  0.00     0.059 A 
ATOM     95  C   UNL     1      -1.058  16.580  10.790  1.00  0.00     0.059 A 
ATOM     96  F   UNL     1       0.041  14.820   9.702  1.00  0.00    -0.206 F 
ATOM     97  C   UNL     1      -2.194  17.069  11.432  1.00  0.00     0.060 A 
BRANCH  97  98
ATOM     98  S   UNL     1      -2.236  18.766  12.046  1.00  0.00     0.124 S 
ATOM     99  O   UNL     1      -3.145  19.400  11.097  1.00  0.00    -0.237 OA
ATOM    100  O   UNL     1      -2.750  18.596  13.401  1.00  0.00    -0.237 OA
ATOM    101  O   UNL     1      -0.842  19.193  11.960  1.00  0.00    -0.744 OA
ENDBRANCH  97  98
ENDBRANCH  65  90
ENDBRANCH  39  40
ENDBRANCH  32  34
ENDBRANCH  31  32
ENDBRANCH  30  31
ENDBRANCH  29  30
ENDBRANCH  28  29
ENDBRANCH   1  28
TORSDOF 21
