REMARK SMILES COc1cc(F)ccc1-c1ccc(=O)n(CC(=O)NCc2ccc(C(=O)OCCOCCOCCOC(=O)c3ccc(-c4c5nc(c(-c6c(F)cc(S(=O)(=O)[O-])cc6F)c6ccc([nH]6)c(-c6c(F)cc(S(=O)(=O)[O-])cc6F)c6nc(c(-c7c(F)cc(S(=O)(=O)[O-])cc7F)c7ccc4[nH]7)C=C6)C=C5)cc3)cc2)n1
REMARK SMILES IDX 30 1 29 2 28 3 27 4 25 5 26 6 24 7 21 8 22 9 106 10 23 11
REMARK SMILES IDX 105 12 20 13 19 14 17 15 18 16 16 18 15 19 10 20 11 21
REMARK SMILES IDX 107 22 12 23 13 24 14 25 9 26 3 27 4 28 5 29 8 30 6 31 7 32
REMARK SMILES IDX 2 33 1 34 31 35 32 36 33 37 34 38 35 39 36 40 37 41 38 42
REMARK SMILES IDX 39 43 40 44 104 45 41 46 103 47 42 48 43 49 44 50 97 51
REMARK SMILES IDX 45 52 102 53 96 54 98 55 46 56 101 57 95 58 94 59 47 61
REMARK SMILES IDX 81 62 60 63 80 64 61 65 64 66 79 67 99 68 62 69 63 70 78 72
REMARK SMILES IDX 100 73 65 74 48 75 49 76 58 77 50 78 51 79 57 80 59 81 52 82
REMARK SMILES IDX 53 83 54 84 55 85 56 86 82 87 83 88 92 89 84 90 85 91 91 92
REMARK SMILES IDX 93 93 86 94 87 95 88 96 89 97 90 98 66 99 67 100 76 101
REMARK SMILES IDX 68 102 69 103 75 104 77 105 70 106 71 107 72 108 73 109
REMARK SMILES IDX 74 110
REMARK H PARENT 19 17 98 60 64 71
REMARK Flexibility Score: inf
ROOT
ATOM      1  O   UNL     1      -0.780  -0.854  10.259  1.00  0.00    -0.376 OA
ENDROOT
BRANCH   1   2
ATOM      2  C   UNL     1      -1.487  -1.670  11.176  1.00  0.00     0.202 C 
BRANCH   2   3
ATOM      3  C   UNL     1      -2.626  -2.647  10.819  1.00  0.00     0.261 C 
BRANCH   3   4
ATOM      4  O   UNL     1      -2.815  -2.981   9.440  1.00  0.00    -0.460 OA
BRANCH   4   5
ATOM      5  C   UNL     1      -3.967  -2.514   8.889  1.00  0.00     0.338 C 
ATOM      6  O   UNL     1      -4.834  -1.872   9.456  1.00  0.00    -0.246 OA
BRANCH   5   7
ATOM      7  C   UNL     1      -3.963  -2.726   7.423  1.00  0.00     0.060 A 
ATOM      8  C   UNL     1      -4.089  -3.055   4.632  1.00  0.00    -0.029 A 
ATOM      9  C   UNL     1      -4.459  -1.838   5.223  1.00  0.00     0.006 A 
ATOM     10  C   UNL     1      -3.582  -4.076   5.455  1.00  0.00     0.006 A 
ATOM     11  C   UNL     1      -4.411  -1.679   6.610  1.00  0.00     0.016 A 
ATOM     12  C   UNL     1      -3.520  -3.917   6.844  1.00  0.00     0.016 A 
BRANCH   8  13
ATOM     13  C   UNL     1      -4.217  -3.280   3.143  1.00  0.00     0.151 C 
BRANCH  13  14
ATOM     14  N   UNL     1      -5.426  -2.702   2.595  1.00  0.00    -0.350 N 
ATOM     15  C   UNL     1      -5.602  -1.887   1.516  1.00  0.00     0.242 C 
ATOM     16  O   UNL     1      -6.741  -1.841   1.038  1.00  0.00    -0.273 OA
ATOM     17  H   UNL     1      -6.252  -2.934   3.077  1.00  0.00     0.163 HD
BRANCH  15  18
ATOM     18  C   UNL     1      -4.428  -1.215   0.803  1.00  0.00     0.248 C 
BRANCH  18  19
ATOM     19  N   UNL     1      -3.516  -0.537   1.709  1.00  0.00    -0.220 N 
ATOM     20  C   UNL     1      -1.434  -0.436   2.626  1.00  0.00     0.095 A 
ATOM     21  C   UNL     1      -1.739   0.819   3.326  1.00  0.00     0.037 A 
ATOM     22  N   UNL     1      -2.249  -1.071   1.848  1.00  0.00    -0.169 NA
ATOM     23  C   UNL     1      -2.966   1.315   3.186  1.00  0.00     0.075 A 
ATOM     24  C   UNL     1      -3.945   0.637   2.317  1.00  0.00     0.267 A 
ATOM     25  O   UNL     1      -5.069   1.114   2.197  1.00  0.00    -0.268 OA
BRANCH  20  26
ATOM     26  C   UNL     1      -0.086  -0.970   2.881  1.00  0.00     0.044 A 
ATOM     27  C   UNL     1       0.985  -0.553   2.083  1.00  0.00     0.131 A 
ATOM     28  C   UNL     1       2.265  -1.036   2.351  1.00  0.00     0.086 A 
ATOM     29  C   UNL     1       2.451  -1.931   3.402  1.00  0.00     0.126 A 
ATOM     30  C   UNL     1       0.102  -1.874   3.935  1.00  0.00     0.017 A 
ATOM     31  F   UNL     1       3.682  -2.396   3.656  1.00  0.00    -0.207 F 
ATOM     32  C   UNL     1       1.386  -2.349   4.199  1.00  0.00     0.040 A 
BRANCH  27  33
ATOM     33  O   UNL     1       0.750   0.404   1.135  1.00  0.00    -0.496 OA
ATOM     34  C   UNL     1       1.202   0.030  -0.164  1.00  0.00     0.278 C 
ENDBRANCH  27  33
ENDBRANCH  20  26
ENDBRANCH  18  19
ENDBRANCH  15  18
ENDBRANCH  13  14
ENDBRANCH   8  13
ENDBRANCH   5   7
ENDBRANCH   4   5
ENDBRANCH   3   4
ENDBRANCH   2   3
ENDBRANCH   1   2
BRANCH   1  35
ATOM     35  C   UNL     1      -1.198  -0.762   8.919  1.00  0.00     0.188 C 
BRANCH  35  36
ATOM     36  C   UNL     1      -0.544  -1.766   7.942  1.00  0.00     0.188 C 
BRANCH  36  37
ATOM     37  O   UNL     1       0.189  -2.875   8.438  1.00  0.00    -0.376 OA
BRANCH  37  38
ATOM     38  C   UNL     1       1.283  -2.619   9.313  1.00  0.00     0.202 C 
BRANCH  38  39
ATOM     39  C   UNL     1       2.313  -1.516   9.001  1.00  0.00     0.261 C 
BRANCH  39  40
ATOM     40  O   UNL     1       1.764  -0.233   8.659  1.00  0.00    -0.460 OA
BRANCH  40  41
ATOM     41  C   UNL     1       2.096   0.252   7.438  1.00  0.00     0.338 C 
ATOM     42  O   UNL     1       2.812  -0.275   6.598  1.00  0.00    -0.246 OA
BRANCH  41  43
ATOM     43  C   UNL     1       1.327   1.482   7.185  1.00  0.00     0.060 A 
ATOM     44  C   UNL     1       1.802   2.718   7.613  1.00  0.00     0.016 A 
ATOM     45  C   UNL     1       0.122   1.399   6.481  1.00  0.00     0.016 A 
ATOM     46  C   UNL     1       1.055   3.871   7.339  1.00  0.00     0.010 A 
ATOM     47  C   UNL     1      -0.637   2.543   6.246  1.00  0.00     0.010 A 
ATOM     48  C   UNL     1      -0.168   3.793   6.646  1.00  0.00    -0.014 A 
BRANCH  48  49
ATOM     49  C   UNL     1      -0.886   5.015   6.205  1.00  0.00     0.031 A 
ATOM     50  C   UNL     1      -2.234   5.387   6.753  1.00  0.00     0.074 A 
ATOM     51  C   UNL     1      -0.331   5.756   5.226  1.00  0.00     0.049 A 
ATOM     52  N   UNL     1      -2.925   6.480   6.549  1.00  0.00    -0.248 NA
ATOM     53  C   UNL     1      -2.909   4.404   7.614  1.00  0.00     0.031 C 
ATOM     54  C   UNL     1       0.905   5.417   4.517  1.00  0.00     0.029 A 
ATOM     55  N   UNL     1      -0.722   6.944   4.663  1.00  0.00    -0.354 N 
ATOM     56  C   UNL     1      -4.098   6.333   7.278  1.00  0.00     0.074 A 
ATOM     57  C   UNL     1      -4.063   5.011   7.865  1.00  0.00     0.031 C 
ATOM     58  C   UNL     1       1.205   6.405   3.661  1.00  0.00     0.029 A 
ATOM     59  C   UNL     1       0.175   7.437   3.744  1.00  0.00     0.049 A 
ATOM     60  H   UNL     1      -1.562   7.401   4.895  1.00  0.00     0.167 HD
ATOM     61  C   UNL     1      -5.092   7.235   7.467  1.00  0.00     0.037 A 
ATOM     62  C   UNL     1       0.184   8.600   3.064  1.00  0.00     0.037 A 
ATOM     63  C   UNL     1      -5.112   8.547   6.867  1.00  0.00     0.049 A 
ATOM     64  C   UNL     1      -0.915   9.596   3.305  1.00  0.00     0.074 A 
ATOM     65  C   UNL     1      -6.028   9.567   7.062  1.00  0.00     0.029 A 
ATOM     66  N   UNL     1      -4.188   9.015   5.944  1.00  0.00    -0.354 N 
ATOM     67  N   UNL     1      -1.944   9.505   4.114  1.00  0.00    -0.248 NA
ATOM     68  C   UNL     1      -0.850  10.856   2.552  1.00  0.00     0.031 C 
ATOM     69  C   UNL     1      -5.690  10.627   6.216  1.00  0.00     0.029 A 
ATOM     70  C   UNL     1      -4.529  10.295   5.536  1.00  0.00     0.049 A 
ATOM     71  H   UNL     1      -3.404   8.512   5.625  1.00  0.00     0.167 HD
ATOM     72  C   UNL     1      -2.643  10.699   3.976  1.00  0.00     0.074 A 
ATOM     73  C   UNL     1      -1.905  11.506   3.025  1.00  0.00     0.031 C 
ATOM     74  C   UNL     1      -3.793  11.088   4.580  1.00  0.00     0.037 A 
BRANCH  61  75
ATOM     75  C   UNL     1      -6.223   6.866   8.391  1.00  0.00     0.058 A 
ATOM     76  C   UNL     1      -7.537   6.732   7.913  1.00  0.00     0.135 A 
ATOM     77  C   UNL     1      -6.019   6.741   9.776  1.00  0.00     0.135 A 
ATOM     78  F   UNL     1      -7.794   6.844   6.600  1.00  0.00    -0.206 F 
ATOM     79  C   UNL     1      -8.607   6.504   8.774  1.00  0.00     0.059 A 
ATOM     80  C   UNL     1      -7.071   6.486  10.652  1.00  0.00     0.059 A 
ATOM     81  F   UNL     1      -4.783   6.850  10.289  1.00  0.00    -0.206 F 
ATOM     82  C   UNL     1      -8.364   6.384  10.143  1.00  0.00     0.060 A 
BRANCH  82  83
ATOM     83  S   UNL     1      -9.759   6.073  11.247  1.00  0.00     0.124 S 
ATOM     84  O   UNL     1     -10.498   7.328  11.162  1.00  0.00    -0.237 OA
ATOM     85  O   UNL     1     -10.392   4.916  10.621  1.00  0.00    -0.237 OA
ATOM     86  O   UNL     1      -9.120   5.807  12.533  1.00  0.00    -0.744 OA
ENDBRANCH  82  83
ENDBRANCH  61  75
BRANCH  62  87
ATOM     87  C   UNL     1       1.317   8.901   2.150  1.00  0.00     0.058 A 
ATOM     88  C   UNL     1       1.502   8.184   0.958  1.00  0.00     0.135 A 
ATOM     89  C   UNL     1       2.275   9.871   2.484  1.00  0.00     0.135 A 
ATOM     90  F   UNL     1       0.624   7.233   0.601  1.00  0.00    -0.206 F 
ATOM     91  C   UNL     1       2.609   8.395   0.145  1.00  0.00     0.059 A 
ATOM     92  C   UNL     1       3.378  10.121   1.672  1.00  0.00     0.059 A 
ATOM     93  F   UNL     1       2.138  10.586   3.611  1.00  0.00    -0.206 F 
ATOM     94  C   UNL     1       3.545   9.363   0.514  1.00  0.00     0.060 A 
BRANCH  94  95
ATOM     95  S   UNL     1       4.990   9.600  -0.542  1.00  0.00     0.124 S 
ATOM     96  O   UNL     1       5.699   8.337  -0.353  1.00  0.00    -0.237 OA
ATOM     97  O   UNL     1       4.380   9.796  -1.853  1.00  0.00    -0.237 OA
ATOM     98  O   UNL     1       5.639  10.775   0.030  1.00  0.00    -0.744 OA
ENDBRANCH  94  95
ENDBRANCH  62  87
BRANCH  74  99
ATOM     99  C   UNL     1      -4.342  12.447   4.236  1.00  0.00     0.058 A 
ATOM    100  C   UNL     1      -4.361  13.475   5.192  1.00  0.00     0.135 A 
ATOM    101  C   UNL     1      -4.926  12.706   2.985  1.00  0.00     0.135 A 
ATOM    102  F   UNL     1      -3.820  13.281   6.405  1.00  0.00    -0.206 F 
ATOM    103  C   UNL     1      -4.962  14.701   4.931  1.00  0.00     0.059 A 
ATOM    104  C   UNL     1      -5.506  13.937   2.691  1.00  0.00     0.059 A 
ATOM    105  F   UNL     1      -4.923  11.762   2.030  1.00  0.00    -0.206 F 
ATOM    106  C   UNL     1      -5.535  14.922   3.678  1.00  0.00     0.060 A 
BRANCH 106 107
ATOM    107  S   UNL     1      -6.309  16.521   3.357  1.00  0.00     0.124 S 
ATOM    108  O   UNL     1      -7.472  16.474   4.236  1.00  0.00    -0.237 OA
ATOM    109  O   UNL     1      -5.256  17.455   3.746  1.00  0.00    -0.237 OA
ATOM    110  O   UNL     1      -6.601  16.478   1.927  1.00  0.00    -0.744 OA
ENDBRANCH 106 107
ENDBRANCH  74  99
ENDBRANCH  48  49
ENDBRANCH  41  43
ENDBRANCH  40  41
ENDBRANCH  39  40
ENDBRANCH  38  39
ENDBRANCH  37  38
ENDBRANCH  36  37
ENDBRANCH  35  36
ENDBRANCH   1  35
TORSDOF 26
