REMARK SMILES C[C@@H](Oc1ccc(/C=C2\C(=O)[NH+]=C(OCCOCCOCCOC(=O)c3ccc(-c4c5nc(c(-c6c(F)cc(S(=O)(=O)[O-])cc6F)c6ccc([nH]6)c(-c6c(F)cc(S(=O)(=O)[O-])cc6F)c6nc(c(-c7c(F)cc(S(=O)(=O)[O-])cc7F)c7ccc4[nH]7)C=C6)C=C5)cc3)N(c3ccc4c(c3)OCO4)C2=O)cc1)C(=O)[O-]
REMARK SMILES IDX 18 1 17 2 16 3 15 4 14 5 13 6 8 7 9 8 10 9 102 10 11 11
REMARK SMILES IDX 12 12 92 13 103 14 7 16 4 17 5 18 105 19 6 20 104 21 3 22
REMARK SMILES IDX 2 23 1 24 106 25 107 26 108 27 93 28 94 29 98 30 95 31 97 32
REMARK SMILES IDX 96 33 99 34 101 35 100 36 19 37 20 38 21 39 22 40 23 41
REMARK SMILES IDX 24 42 25 43 26 44 27 45 91 46 28 47 90 48 29 49 30 50 31 51
REMARK SMILES IDX 84 52 32 53 89 54 83 55 85 56 33 57 88 58 82 59 81 60 34 62
REMARK SMILES IDX 68 63 47 64 67 65 48 66 51 67 66 68 86 69 49 70 50 71 65 73
REMARK SMILES IDX 87 74 52 75 35 76 36 77 45 78 37 79 38 80 44 81 46 82 39 83
REMARK SMILES IDX 40 84 41 85 42 86 43 87 69 88 70 89 79 90 71 91 72 92 78 93
REMARK SMILES IDX 80 94 73 95 74 96 75 97 76 98 77 99 53 100 54 101 63 102
REMARK SMILES IDX 55 103 56 104 62 105 64 106 57 107 58 108 59 109 60 110
REMARK SMILES IDX 61 111
REMARK H PARENT 12 15 85 61 51 72
REMARK Flexibility Score: inf
ROOT
ATOM      1  C   UNL     1       8.272  -6.985  -3.122  1.00  0.00     0.188 C 
ENDROOT
BRANCH   1   2
ATOM      2  O   UNL     1       9.477  -7.400  -2.482  1.00  0.00    -0.376 OA
BRANCH   2   3
ATOM      3  C   UNL     1       9.479  -8.786  -2.138  1.00  0.00     0.202 C 
BRANCH   3   4
ATOM      4  C   UNL     1       9.643  -8.999  -0.627  1.00  0.00     0.266 C 
BRANCH   4   5
ATOM      5  O   UNL     1       8.615  -8.446   0.235  1.00  0.00    -0.428 OA
BRANCH   5   6
ATOM      6  C   UNL     1       8.141  -7.183   0.060  1.00  0.00     0.465 C 
ATOM      7  C   UNL     1       6.345  -3.608   0.403  1.00  0.00     0.032 C 
ATOM      8  C   UNL     1       7.008  -4.721   0.028  1.00  0.00     0.155 C 
ATOM      9  C   UNL     1       6.431  -5.872  -0.678  1.00  0.00     0.349 C 
ATOM     10  C   UNL     1       8.469  -4.805   0.286  1.00  0.00     0.357 C 
ATOM     11  O   UNL     1       5.690  -5.741  -1.641  1.00  0.00    -0.240 OA
ATOM     12  N   UNL     1       6.899  -7.089  -0.270  1.00  0.00    -0.171 N 
ATOM     13  N   UNL     1       8.984  -6.099   0.252  1.00  0.00    -0.123 N 
ATOM     14  O   UNL     1       9.122  -3.795   0.544  1.00  0.00    -0.240 OA
ATOM     15  H   UNL     1       6.304  -7.872  -0.230  1.00  0.00     0.319 HD
BRANCH   7  16
ATOM     16  C   UNL     1       4.924  -3.212   0.284  1.00  0.00    -0.024 A 
ATOM     17  C   UNL     1       2.250  -2.285   0.199  1.00  0.00     0.120 A 
ATOM     18  C   UNL     1       2.539  -3.624  -0.037  1.00  0.00     0.047 A 
ATOM     19  C   UNL     1       3.282  -1.411   0.510  1.00  0.00     0.047 A 
ATOM     20  C   UNL     1       3.861  -4.085   0.022  1.00  0.00     0.012 A 
ATOM     21  C   UNL     1       4.606  -1.867   0.535  1.00  0.00     0.012 A 
BRANCH  17  22
ATOM     22  O   UNL     1       0.933  -1.936   0.277  1.00  0.00    -0.485 OA
BRANCH  22  23
ATOM     23  C   UNL     1       0.512  -0.923  -0.646  1.00  0.00     0.216 C 
ATOM     24  C   UNL     1       0.672   0.483  -0.076  1.00  0.00     0.059 C 
BRANCH  23  25
ATOM     25  C   UNL     1      -0.972  -1.151  -0.912  1.00  0.00     0.082 C 
ATOM     26  O   UNL     1      -1.520  -1.137  -2.005  1.00  0.00    -0.546 OA
ATOM     27  O   UNL     1      -1.713  -1.330   0.203  1.00  0.00    -0.546 OA
ENDBRANCH  23  25
ENDBRANCH  22  23
ENDBRANCH  17  22
ENDBRANCH   7  16
BRANCH  13  28
ATOM     28  C   UNL     1      10.357  -6.243   0.575  1.00  0.00     0.144 A 
ATOM     29  C   UNL     1      11.331  -5.754  -0.328  1.00  0.00     0.056 A 
ATOM     30  C   UNL     1      10.741  -6.839   1.783  1.00  0.00     0.103 A 
ATOM     31  C   UNL     1      12.693  -5.870  -0.041  1.00  0.00     0.055 A 
ATOM     32  C   UNL     1      12.090  -6.891   2.057  1.00  0.00     0.170 A 
ATOM     33  C   UNL     1      13.037  -6.424   1.171  1.00  0.00     0.166 A 
ATOM     34  O   UNL     1      12.650  -7.370   3.201  1.00  0.00    -0.453 OA
ATOM     35  O   UNL     1      14.303  -6.561   1.653  1.00  0.00    -0.454 OA
ATOM     36  C   UNL     1      14.017  -6.950   3.013  1.00  0.00     0.468 C 
ENDBRANCH  13  28
ENDBRANCH   5   6
ENDBRANCH   4   5
ENDBRANCH   3   4
ENDBRANCH   2   3
ENDBRANCH   1   2
BRANCH   1  37
ATOM     37  C   UNL     1       8.205  -7.082  -4.647  1.00  0.00     0.188 C 
BRANCH  37  38
ATOM     38  O   UNL     1       9.177  -7.887  -5.291  1.00  0.00    -0.376 OA
BRANCH  38  39
ATOM     39  C   UNL     1      10.525  -7.413  -5.269  1.00  0.00     0.202 C 
BRANCH  39  40
ATOM     40  C   UNL     1      10.777  -5.991  -5.779  1.00  0.00     0.261 C 
BRANCH  40  41
ATOM     41  O   UNL     1      10.434  -4.982  -4.802  1.00  0.00    -0.460 OA
BRANCH  41  42
ATOM     42  C   UNL     1       9.631  -3.995  -5.265  1.00  0.00     0.338 C 
ATOM     43  O   UNL     1       9.111  -3.927  -6.370  1.00  0.00    -0.246 OA
BRANCH  42  44
ATOM     44  C   UNL     1       9.406  -2.960  -4.246  1.00  0.00     0.060 A 
ATOM     45  C   UNL     1       8.127  -2.815  -3.698  1.00  0.00     0.016 A 
ATOM     46  C   UNL     1      10.390  -1.993  -4.027  1.00  0.00     0.016 A 
ATOM     47  C   UNL     1       7.811  -1.658  -2.981  1.00  0.00     0.010 A 
ATOM     48  C   UNL     1      10.071  -0.839  -3.305  1.00  0.00     0.010 A 
ATOM     49  C   UNL     1       8.766  -0.641  -2.822  1.00  0.00    -0.014 A 
BRANCH  49  50
ATOM     50  C   UNL     1       8.369   0.678  -2.264  1.00  0.00     0.031 A 
ATOM     51  C   UNL     1       8.151   1.848  -3.190  1.00  0.00     0.074 A 
ATOM     52  C   UNL     1       8.204   0.833  -0.939  1.00  0.00     0.049 A 
ATOM     53  N   UNL     1       7.832   3.085  -2.904  1.00  0.00    -0.248 NA
ATOM     54  C   UNL     1       8.327   1.592  -4.629  1.00  0.00     0.031 C 
ATOM     55  C   UNL     1       8.403  -0.215   0.059  1.00  0.00     0.029 A 
ATOM     56  N   UNL     1       7.843   1.934  -0.204  1.00  0.00    -0.354 N 
ATOM     57  C   UNL     1       7.774   3.757  -4.121  1.00  0.00     0.074 A 
ATOM     58  C   UNL     1       8.123   2.796  -5.146  1.00  0.00     0.031 C 
ATOM     59  C   UNL     1       8.160   0.292   1.280  1.00  0.00     0.029 A 
ATOM     60  C   UNL     1       7.821   1.708   1.151  1.00  0.00     0.049 A 
ATOM     61  H   UNL     1       7.622   2.804  -0.609  1.00  0.00     0.167 HD
ATOM     62  C   UNL     1       7.452   5.051  -4.363  1.00  0.00     0.037 A 
ATOM     63  C   UNL     1       7.574   2.552   2.172  1.00  0.00     0.037 A 
ATOM     64  C   UNL     1       7.107   6.006  -3.340  1.00  0.00     0.049 A 
ATOM     65  C   UNL     1       7.239   3.991   1.881  1.00  0.00     0.074 A 
ATOM     66  C   UNL     1       6.745   7.335  -3.486  1.00  0.00     0.029 A 
ATOM     67  N   UNL     1       7.088   5.738  -1.979  1.00  0.00    -0.354 N 
ATOM     68  N   UNL     1       7.156   4.602   0.723  1.00  0.00    -0.248 NA
ATOM     69  C   UNL     1       6.958   4.854   3.037  1.00  0.00     0.031 C 
ATOM     70  C   UNL     1       6.546   7.880  -2.212  1.00  0.00     0.029 A 
ATOM     71  C   UNL     1       6.735   6.879  -1.274  1.00  0.00     0.049 A 
ATOM     72  H   UNL     1       7.295   4.866  -1.573  1.00  0.00     0.167 HD
ATOM     73  C   UNL     1       6.797   5.915   1.010  1.00  0.00     0.074 A 
ATOM     74  C   UNL     1       6.657   6.003   2.449  1.00  0.00     0.031 C 
ATOM     75  C   UNL     1       6.602   6.955   0.160  1.00  0.00     0.037 A 
BRANCH  62  76
ATOM     76  C   UNL     1       7.467   5.519  -5.795  1.00  0.00     0.058 A 
ATOM     77  C   UNL     1       6.487   5.111  -6.714  1.00  0.00     0.135 A 
ATOM     78  C   UNL     1       8.448   6.419  -6.244  1.00  0.00     0.135 A 
ATOM     79  F   UNL     1       5.533   4.243  -6.344  1.00  0.00    -0.206 F 
ATOM     80  C   UNL     1       6.494   5.557  -8.033  1.00  0.00     0.059 A 
ATOM     81  C   UNL     1       8.460   6.898  -7.551  1.00  0.00     0.059 A 
ATOM     82  F   UNL     1       9.408   6.844  -5.408  1.00  0.00    -0.206 F 
ATOM     83  C   UNL     1       7.486   6.450  -8.443  1.00  0.00     0.060 A 
BRANCH  83  84
ATOM     84  S   UNL     1       7.478   7.025 -10.155  1.00  0.00     0.124 S 
ATOM     85  O   UNL     1       7.942   5.835 -10.863  1.00  0.00    -0.237 OA
ATOM     86  O   UNL     1       6.077   7.378 -10.360  1.00  0.00    -0.237 OA
ATOM     87  O   UNL     1       8.409   8.149 -10.141  1.00  0.00    -0.744 OA
ENDBRANCH  83  84
ENDBRANCH  62  76
BRANCH  63  88
ATOM     88  C   UNL     1       7.635   2.053   3.571  1.00  0.00     0.058 A 
ATOM     89  C   UNL     1       6.470   1.914   4.340  1.00  0.00     0.135 A 
ATOM     90  C   UNL     1       8.857   1.696   4.163  1.00  0.00     0.135 A 
ATOM     91  F   UNL     1       5.280   2.251   3.820  1.00  0.00    -0.206 F 
ATOM     92  C   UNL     1       6.514   1.452   5.651  1.00  0.00     0.059 A 
ATOM     93  C   UNL     1       8.923   1.205   5.462  1.00  0.00     0.059 A 
ATOM     94  F   UNL     1       9.998   1.800   3.464  1.00  0.00    -0.206 F 
ATOM     95  C   UNL     1       7.747   1.095   6.202  1.00  0.00     0.060 A 
BRANCH  95  96
ATOM     96  S   UNL     1       7.788   0.441   7.885  1.00  0.00     0.124 S 
ATOM     97  O   UNL     1       7.577   1.648   8.675  1.00  0.00    -0.237 OA
ATOM     98  O   UNL     1       6.685  -0.515   7.869  1.00  0.00    -0.237 OA
ATOM     99  O   UNL     1       9.119  -0.153   7.980  1.00  0.00    -0.744 OA
ENDBRANCH  95  96
ENDBRANCH  63  88
BRANCH  75 100
ATOM    100  C   UNL     1       6.184   8.269   0.764  1.00  0.00     0.058 A 
ATOM    101  C   UNL     1       7.076   9.057   1.510  1.00  0.00     0.135 A 
ATOM    102  C   UNL     1       4.879   8.754   0.582  1.00  0.00     0.135 A 
ATOM    103  F   UNL     1       8.335   8.640   1.718  1.00  0.00    -0.206 F 
ATOM    104  C   UNL     1       6.676  10.258   2.088  1.00  0.00     0.059 A 
ATOM    105  C   UNL     1       4.466   9.966   1.127  1.00  0.00     0.059 A 
ATOM    106  F   UNL     1       3.989   8.048  -0.134  1.00  0.00    -0.206 F 
ATOM    107  C   UNL     1       5.366  10.702   1.896  1.00  0.00     0.060 A 
BRANCH 107 108
ATOM    108  S   UNL     1       4.856  12.259   2.654  1.00  0.00     0.124 S 
ATOM    109  O   UNL     1       4.699  11.867   4.051  1.00  0.00    -0.237 OA
ATOM    110  O   UNL     1       5.986  13.136   2.364  1.00  0.00    -0.237 OA
ATOM    111  O   UNL     1       3.619  12.589   1.952  1.00  0.00    -0.744 OA
ENDBRANCH 107 108
ENDBRANCH  75 100
ENDBRANCH  49  50
ENDBRANCH  42  44
ENDBRANCH  41  42
ENDBRANCH  40  41
ENDBRANCH  39  40
ENDBRANCH  38  39
ENDBRANCH  37  38
ENDBRANCH   1  37
TORSDOF 24
