REMARK SMILES CC(C)[NH2+][C@@]1(C(=O)OCCOCCOCCOC(=O)c2ccc(-c3c4nc(c(-c5c(F)cc(S(=O)(=O)[O-])cc5F)c5ccc([nH]5)c(-c5c(F)cc(S(=O)(=O)[O-])cc5F)c5nc(c(-c6c(F)cc(S(=O)(=O)[O-])cc6F)c6ccc3[nH]6)C=C5)C=C4)cc2)CCC[C@@H](Sc2nncn2C)C1
REMARK SMILES IDX 13 1 12 2 11 3 10 4 9 5 8 6 6 7 7 8 5 9 86 10 97 11 87 12
REMARK SMILES IDX 89 13 88 14 4 15 2 18 1 19 3 20 90 21 91 22 92 23 95 24
REMARK SMILES IDX 93 25 94 26 96 27 14 28 15 29 16 30 17 31 18 32 19 33 20 34
REMARK SMILES IDX 21 35 85 36 22 37 84 38 23 39 24 40 25 41 78 42 26 43 83 44
REMARK SMILES IDX 77 45 79 46 27 47 82 48 76 49 75 50 28 52 62 53 41 54 61 55
REMARK SMILES IDX 42 56 45 57 60 58 80 59 43 60 44 61 59 63 81 64 46 65 29 66
REMARK SMILES IDX 30 67 39 68 31 69 32 70 38 71 40 72 33 73 34 74 35 75 36 76
REMARK SMILES IDX 37 77 63 78 64 79 73 80 65 81 66 82 72 83 74 84 67 85 68 86
REMARK SMILES IDX 69 87 70 88 71 89 47 90 48 91 57 92 49 93 50 94 56 95 58 96
REMARK SMILES IDX 51 97 52 98 53 99 54 100 55 101
REMARK H PARENT 4 16 4 17 79 51 45 62
REMARK Flexibility Score: inf
ROOT
ATOM      1  C   UNL     1      -4.002  -1.363   2.844  1.00  0.00     0.188 C 
ENDROOT
BRANCH   1   2
ATOM      2  C   UNL     1      -4.524  -0.975   1.457  1.00  0.00     0.188 C 
BRANCH   2   3
ATOM      3  O   UNL     1      -5.832  -1.415   1.125  1.00  0.00    -0.376 OA
BRANCH   3   4
ATOM      4  C   UNL     1      -6.062  -2.822   1.150  1.00  0.00     0.202 C 
BRANCH   4   5
ATOM      5  C   UNL     1      -5.056  -3.722   0.414  1.00  0.00     0.261 C 
BRANCH   5   6
ATOM      6  O   UNL     1      -3.693  -3.668   0.911  1.00  0.00    -0.459 OA
BRANCH   6   7
ATOM      7  C   UNL     1      -2.748  -3.327  -0.010  1.00  0.00     0.368 C 
ATOM      8  O   UNL     1      -3.021  -3.067  -1.181  1.00  0.00    -0.245 OA
BRANCH   7   9
ATOM      9  C   UNL     1      -1.265  -3.307   0.531  1.00  0.00     0.195 C 
ATOM     10  C   UNL     1      -0.555  -4.387  -0.322  1.00  0.00     0.081 C 
ATOM     11  C   UNL     1      -1.041  -3.648   2.018  1.00  0.00     0.096 C 
ATOM     12  C   UNL     1      -1.054  -5.796   0.041  1.00  0.00     0.008 C 
ATOM     13  C   UNL     1      -1.405  -5.069   2.447  1.00  0.00     0.061 C 
ATOM     14  C   UNL     1      -0.806  -6.125   1.513  1.00  0.00     0.015 C 
BRANCH   9  15
ATOM     15  N   UNL     1      -0.796  -1.913   0.278  1.00  0.00    -0.330 N 
ATOM     16  H   UNL     1      -1.179  -1.647  -0.629  1.00  0.00     0.347 HD
ATOM     17  H   UNL     1      -1.111  -1.434   1.123  1.00  0.00     0.347 HD
BRANCH  15  18
ATOM     18  C   UNL     1       0.622  -1.545   0.242  1.00  0.00     0.176 C 
ATOM     19  C   UNL     1       0.689  -0.148  -0.398  1.00  0.00     0.075 C 
ATOM     20  C   UNL     1       1.308  -1.451   1.609  1.00  0.00     0.075 C 
ENDBRANCH  15  18
ENDBRANCH   9  15
BRANCH  13  21
ATOM     21  S   UNL     1      -0.951  -5.416   4.204  1.00  0.00    -0.082 SA
BRANCH  21  22
ATOM     22  C   UNL     1       0.760  -5.150   4.245  1.00  0.00     0.191 A 
ATOM     23  N   UNL     1       1.389  -4.022   4.013  1.00  0.00    -0.124 NA
ATOM     24  N   UNL     1       1.673  -6.110   4.568  1.00  0.00    -0.312 N 
ATOM     25  N   UNL     1       2.742  -4.262   4.101  1.00  0.00    -0.138 NA
ATOM     26  C   UNL     1       2.896  -5.522   4.436  1.00  0.00     0.226 A 
ATOM     27  C   UNL     1       1.431  -7.466   4.975  1.00  0.00     0.153 C 
ENDBRANCH  21  22
ENDBRANCH  13  21
ENDBRANCH   7   9
ENDBRANCH   6   7
ENDBRANCH   5   6
ENDBRANCH   4   5
ENDBRANCH   3   4
ENDBRANCH   2   3
ENDBRANCH   1   2
BRANCH   1  28
ATOM     28  O   UNL     1      -4.597  -2.514   3.421  1.00  0.00    -0.376 OA
BRANCH  28  29
ATOM     29  C   UNL     1      -4.569  -2.613   4.845  1.00  0.00     0.202 C 
BRANCH  29  30
ATOM     30  C   UNL     1      -5.376  -1.535   5.602  1.00  0.00     0.261 C 
BRANCH  30  31
ATOM     31  O   UNL     1      -4.919  -0.175   5.453  1.00  0.00    -0.460 OA
BRANCH  31  32
ATOM     32  C   UNL     1      -3.604   0.073   5.709  1.00  0.00     0.338 C 
ATOM     33  O   UNL     1      -2.834  -0.661   6.278  1.00  0.00    -0.246 OA
BRANCH  32  34
ATOM     34  C   UNL     1      -3.207   1.270   4.907  1.00  0.00     0.060 A 
ATOM     35  C   UNL     1      -2.008   1.214   4.176  1.00  0.00     0.016 A 
ATOM     36  C   UNL     1      -4.036   2.388   4.796  1.00  0.00     0.016 A 
ATOM     37  C   UNL     1      -1.612   2.298   3.382  1.00  0.00     0.010 A 
ATOM     38  C   UNL     1      -3.632   3.477   4.016  1.00  0.00     0.010 A 
ATOM     39  C   UNL     1      -2.398   3.457   3.339  1.00  0.00    -0.014 A 
BRANCH  39  40
ATOM     40  C   UNL     1      -1.837   4.739   2.834  1.00  0.00     0.031 A 
ATOM     41  C   UNL     1      -1.257   5.686   3.854  1.00  0.00     0.074 A 
ATOM     42  C   UNL     1      -1.859   5.088   1.535  1.00  0.00     0.049 A 
ATOM     43  N   UNL     1      -0.843   6.917   3.712  1.00  0.00    -0.248 NA
ATOM     44  C   UNL     1      -1.145   5.167   5.228  1.00  0.00     0.031 C 
ATOM     45  C   UNL     1      -2.340   4.255   0.437  1.00  0.00     0.029 A 
ATOM     46  N   UNL     1      -1.480   6.262   0.926  1.00  0.00    -0.354 N 
ATOM     47  C   UNL     1      -0.442   7.327   4.979  1.00  0.00     0.074 A 
ATOM     48  C   UNL     1      -0.686   6.223   5.880  1.00  0.00     0.031 C 
ATOM     49  C   UNL     1      -2.250   4.953  -0.711  1.00  0.00     0.029 A 
ATOM     50  C   UNL     1      -1.743   6.296  -0.424  1.00  0.00     0.049 A 
ATOM     51  H   UNL     1      -1.059   7.009   1.411  1.00  0.00     0.167 HD
ATOM     52  C   UNL     1       0.084   8.514   5.361  1.00  0.00     0.037 A 
ATOM     53  C   UNL     1      -1.620   7.303  -1.315  1.00  0.00     0.037 A 
ATOM     54  C   UNL     1       0.325   9.614   4.466  1.00  0.00     0.049 A 
ATOM     55  C   UNL     1      -1.099   8.646  -0.858  1.00  0.00     0.074 A 
ATOM     56  C   UNL     1       0.863  10.855   4.756  1.00  0.00     0.029 A 
ATOM     57  N   UNL     1       0.034   9.609   3.110  1.00  0.00    -0.354 N 
ATOM     58  N   UNL     1      -0.717   9.022   0.341  1.00  0.00    -0.248 NA
ATOM     59  C   UNL     1      -0.992   9.704  -1.875  1.00  0.00     0.031 C 
ATOM     60  C   UNL     1       0.849  11.620   3.585  1.00  0.00     0.029 A 
ATOM     61  C   UNL     1       0.361  10.834   2.553  1.00  0.00     0.049 A 
ATOM     62  H   UNL     1      -0.349   8.848   2.617  1.00  0.00     0.167 HD
ATOM     63  C   UNL     1      -0.291  10.342   0.212  1.00  0.00     0.074 A 
ATOM     64  C   UNL     1      -0.463  10.702  -1.179  1.00  0.00     0.031 C 
ATOM     65  C   UNL     1       0.204  11.177   1.161  1.00  0.00     0.037 A 
BRANCH  52  66
ATOM     66  C   UNL     1       0.396   8.692   6.822  1.00  0.00     0.058 A 
ATOM     67  C   UNL     1       1.448   8.004   7.446  1.00  0.00     0.135 A 
ATOM     68  C   UNL     1      -0.372   9.566   7.608  1.00  0.00     0.135 A 
ATOM     69  F   UNL     1       2.200   7.138   6.747  1.00  0.00    -0.206 F 
ATOM     70  C   UNL     1       1.706   8.148   8.805  1.00  0.00     0.059 A 
ATOM     71  C   UNL     1      -0.113   9.751   8.962  1.00  0.00     0.059 A 
ATOM     72  F   UNL     1      -1.394  10.246   7.063  1.00  0.00    -0.206 F 
ATOM     73  C   UNL     1       0.917   9.023   9.556  1.00  0.00     0.060 A 
BRANCH  73  74
ATOM     74  S   UNL     1       1.255   9.191  11.320  1.00  0.00     0.124 S 
ATOM     75  O   UNL     1       0.755   7.919  11.835  1.00  0.00    -0.237 OA
ATOM     76  O   UNL     1       2.704   9.359  11.346  1.00  0.00    -0.237 OA
ATOM     77  O   UNL     1       0.483  10.369  11.704  1.00  0.00    -0.744 OA
ENDBRANCH  73  74
ENDBRANCH  52  66
BRANCH  53  78
ATOM     78  C   UNL     1      -2.015   7.093  -2.736  1.00  0.00     0.058 A 
ATOM     79  C   UNL     1      -1.055   7.065  -3.760  1.00  0.00     0.135 A 
ATOM     80  C   UNL     1      -3.360   6.922  -3.101  1.00  0.00     0.135 A 
ATOM     81  F   UNL     1       0.242   7.247  -3.468  1.00  0.00    -0.206 F 
ATOM     82  C   UNL     1      -1.413   6.880  -5.092  1.00  0.00     0.059 A 
ATOM     83  C   UNL     1      -3.740   6.708  -4.424  1.00  0.00     0.059 A 
ATOM     84  F   UNL     1      -4.319   6.942  -2.163  1.00  0.00    -0.206 F 
ATOM     85  C   UNL     1      -2.759   6.695  -5.414  1.00  0.00     0.060 A 
BRANCH  85  86
ATOM     86  S   UNL     1      -3.204   6.395  -7.139  1.00  0.00     0.124 S 
ATOM     87  O   UNL     1      -2.985   7.709  -7.733  1.00  0.00    -0.237 OA
ATOM     88  O   UNL     1      -2.254   5.355  -7.523  1.00  0.00    -0.237 OA
ATOM     89  O   UNL     1      -4.596   5.963  -7.057  1.00  0.00    -0.744 OA
ENDBRANCH  85  86
ENDBRANCH  53  78
BRANCH  65  90
ATOM     90  C   UNL     1       0.658  12.548   0.732  1.00  0.00     0.058 A 
ATOM     91  C   UNL     1      -0.249  13.562   0.390  1.00  0.00     0.135 A 
ATOM     92  C   UNL     1       2.026  12.873   0.747  1.00  0.00     0.135 A 
ATOM     93  F   UNL     1      -1.567  13.307   0.357  1.00  0.00    -0.206 F 
ATOM     94  C   UNL     1       0.183  14.845   0.063  1.00  0.00     0.059 A 
ATOM     95  C   UNL     1       2.478  14.156   0.451  1.00  0.00     0.059 A 
ATOM     96  F   UNL     1       2.938  11.946   1.079  1.00  0.00    -0.206 F 
ATOM     97  C   UNL     1       1.549  15.134   0.101  1.00  0.00     0.060 A 
BRANCH  97  98
ATOM     98  S   UNL     1       2.092  16.814  -0.277  1.00  0.00     0.124 S 
ATOM     99  O   UNL     1       1.892  16.871  -1.722  1.00  0.00    -0.237 OA
ATOM    100  O   UNL     1       1.179  17.625   0.521  1.00  0.00    -0.237 OA
ATOM    101  O   UNL     1       3.484  16.830   0.164  1.00  0.00    -0.744 OA
ENDBRANCH  97  98
ENDBRANCH  65  90
ENDBRANCH  39  40
ENDBRANCH  32  34
ENDBRANCH  31  32
ENDBRANCH  30  31
ENDBRANCH  29  30
ENDBRANCH  28  29
ENDBRANCH   1  28
TORSDOF 24
