REMARK SMILES O=C(CSCc1ccc(C(=O)OCCOCCOCCOC(=O)c2ccc(-c3c4nc(c(-c5c(F)cc(S(=O)(=O)[O-])cc5F)c5ccc([nH]5)c(-c5c(F)cc(S(=O)(=O)[O-])cc5F)c5nc(c(-c6c(F)cc(S(=O)(=O)[O-])cc6F)c6ccc3[nH]6)C=C5)C=C4)cc2)cc1)Nc1ccc(Cl)cc1
REMARK SMILES IDX 16 1 15 2 14 3 13 4 12 5 10 6 11 7 9 8 6 9 7 10 91 11 8 12
REMARK SMILES IDX 90 13 5 14 4 15 3 16 2 17 1 18 92 19 93 21 94 22 99 23 95 24
REMARK SMILES IDX 98 25 96 26 97 27 17 28 18 29 19 30 20 31 21 32 22 33 23 34
REMARK SMILES IDX 24 35 25 36 89 37 26 38 88 39 27 40 28 41 29 42 82 43 30 44
REMARK SMILES IDX 87 45 81 46 83 47 31 48 86 49 80 50 79 51 32 53 66 54 45 55
REMARK SMILES IDX 65 56 46 57 49 58 64 59 84 60 47 61 48 62 63 64 85 65 50 66
REMARK SMILES IDX 33 67 34 68 43 69 35 70 36 71 42 72 44 73 37 74 38 75 39 76
REMARK SMILES IDX 40 77 41 78 67 79 68 80 77 81 69 82 70 83 76 84 78 85 71 86
REMARK SMILES IDX 72 87 73 88 74 89 75 90 51 91 52 92 61 93 53 94 54 95 60 96
REMARK SMILES IDX 62 97 55 98 56 99 57 100 58 101 59 102
REMARK H PARENT 92 20 83 52 49 63
REMARK Flexibility Score: inf
ROOT
ATOM      1  C   UNL     1      -1.853  -6.288  -0.956  1.00  0.00     0.188 C 
ENDROOT
BRANCH   1   2
ATOM      2  O   UNL     1      -2.599  -7.461  -1.193  1.00  0.00    -0.376 OA
BRANCH   2   3
ATOM      3  C   UNL     1      -2.302  -8.314  -2.284  1.00  0.00     0.202 C 
BRANCH   3   4
ATOM      4  C   UNL     1      -1.455  -7.936  -3.511  1.00  0.00     0.261 C 
BRANCH   4   5
ATOM      5  O   UNL     1      -0.454  -6.931  -3.329  1.00  0.00    -0.460 OA
BRANCH   5   6
ATOM      6  C   UNL     1      -0.670  -5.782  -4.016  1.00  0.00     0.338 C 
ATOM      7  O   UNL     1      -1.591  -5.555  -4.788  1.00  0.00    -0.246 OA
BRANCH   6   8
ATOM      8  C   UNL     1       0.283  -4.738  -3.587  1.00  0.00     0.060 A 
ATOM      9  C   UNL     1       2.016  -2.630  -2.917  1.00  0.00    -0.038 A 
ATOM     10  C   UNL     1       0.627  -2.432  -2.938  1.00  0.00     0.005 A 
ATOM     11  C   UNL     1       2.520  -3.919  -3.172  1.00  0.00     0.005 A 
ATOM     12  C   UNL     1      -0.233  -3.474  -3.285  1.00  0.00     0.016 A 
ATOM     13  C   UNL     1       1.657  -4.974  -3.497  1.00  0.00     0.016 A 
BRANCH   9  14
ATOM     14  C   UNL     1       2.925  -1.433  -2.778  1.00  0.00     0.105 C 
BRANCH  14  15
ATOM     15  S   UNL     1       4.106  -1.464  -1.401  1.00  0.00    -0.147 SA
BRANCH  15  16
ATOM     16  C   UNL     1       2.977  -1.386   0.025  1.00  0.00     0.170 C 
BRANCH  16  17
ATOM     17  C   UNL     1       2.037  -0.191   0.018  1.00  0.00     0.234 C 
ATOM     18  O   UNL     1       0.846  -0.349   0.274  1.00  0.00    -0.274 OA
ATOM     19  N   UNL     1       2.653   1.021  -0.254  1.00  0.00    -0.325 N 
ATOM     20  H   UNL     1       3.589   0.984  -0.558  1.00  0.00     0.169 HD
BRANCH  19  21
ATOM     21  C   UNL     1       2.071   2.301  -0.139  1.00  0.00     0.041 A 
ATOM     22  C   UNL     1       2.698   3.368  -0.795  1.00  0.00     0.027 A 
ATOM     23  C   UNL     1       0.924   2.553   0.619  1.00  0.00     0.027 A 
ATOM     24  C   UNL     1       2.160   4.658  -0.728  1.00  0.00     0.022 A 
ATOM     25  C   UNL     1       0.397   3.848   0.706  1.00  0.00     0.022 A 
ATOM     26  C   UNL     1       1.010   4.893   0.024  1.00  0.00     0.041 A 
ATOM     27  Cl  UNL     1       0.357   6.482   0.108  1.00  0.00    -0.084 Cl
ENDBRANCH  19  21
ENDBRANCH  16  17
ENDBRANCH  15  16
ENDBRANCH  14  15
ENDBRANCH   9  14
ENDBRANCH   6   8
ENDBRANCH   5   6
ENDBRANCH   4   5
ENDBRANCH   3   4
ENDBRANCH   2   3
ENDBRANCH   1   2
BRANCH   1  28
ATOM     28  C   UNL     1      -0.411  -6.420  -0.426  1.00  0.00     0.188 C 
BRANCH  28  29
ATOM     29  O   UNL     1       0.192  -7.689  -0.273  1.00  0.00    -0.376 OA
BRANCH  29  30
ATOM     30  C   UNL     1      -0.412  -8.672   0.551  1.00  0.00     0.202 C 
BRANCH  30  31
ATOM     31  C   UNL     1      -1.123  -8.356   1.877  1.00  0.00     0.261 C 
BRANCH  31  32
ATOM     32  O   UNL     1      -1.872  -7.139   1.935  1.00  0.00    -0.460 OA
BRANCH  32  33
ATOM     33  C   UNL     1      -1.338  -6.171   2.716  1.00  0.00     0.338 C 
ATOM     34  O   UNL     1      -0.289  -6.226   3.350  1.00  0.00    -0.246 OA
BRANCH  33  35
ATOM     35  C   UNL     1      -2.127  -4.938   2.571  1.00  0.00     0.060 A 
ATOM     36  C   UNL     1      -1.519  -3.815   1.993  1.00  0.00     0.016 A 
ATOM     37  C   UNL     1      -3.439  -4.875   3.041  1.00  0.00     0.016 A 
ATOM     38  C   UNL     1      -2.220  -2.615   1.897  1.00  0.00     0.010 A 
ATOM     39  C   UNL     1      -4.133  -3.664   2.964  1.00  0.00     0.010 A 
ATOM     40  C   UNL     1      -3.518  -2.523   2.415  1.00  0.00    -0.014 A 
BRANCH  40  41
ATOM     41  C   UNL     1      -4.179  -1.201   2.520  1.00  0.00     0.031 A 
ATOM     42  C   UNL     1      -4.137  -0.473   3.836  1.00  0.00     0.074 A 
ATOM     43  C   UNL     1      -4.803  -0.654   1.461  1.00  0.00     0.049 A 
ATOM     44  N   UNL     1      -4.684   0.665   4.172  1.00  0.00    -0.248 NA
ATOM     45  C   UNL     1      -3.377  -1.121   4.918  1.00  0.00     0.031 C 
ATOM     46  C   UNL     1      -4.883  -1.249   0.128  1.00  0.00     0.029 A 
ATOM     47  N   UNL     1      -5.499   0.523   1.348  1.00  0.00    -0.354 N 
ATOM     48  C   UNL     1      -4.341   0.870   5.503  1.00  0.00     0.074 A 
ATOM     49  C   UNL     1      -3.564  -0.276   5.922  1.00  0.00     0.031 C 
ATOM     50  C   UNL     1      -5.603  -0.438  -0.667  1.00  0.00     0.029 A 
ATOM     51  C   UNL     1      -6.058   0.716   0.107  1.00  0.00     0.049 A 
ATOM     52  H   UNL     1      -5.589   1.169   2.086  1.00  0.00     0.167 HD
ATOM     53  C   UNL     1      -4.640   1.923   6.301  1.00  0.00     0.037 A 
ATOM     54  C   UNL     1      -6.863   1.699  -0.342  1.00  0.00     0.037 A 
ATOM     55  C   UNL     1      -5.419   3.058   5.879  1.00  0.00     0.049 A 
ATOM     56  C   UNL     1      -7.238   2.829   0.584  1.00  0.00     0.074 A 
ATOM     57  C   UNL     1      -5.760   4.185   6.606  1.00  0.00     0.029 A 
ATOM     58  N   UNL     1      -5.988   3.207   4.622  1.00  0.00    -0.354 N 
ATOM     59  N   UNL     1      -6.882   3.027   1.832  1.00  0.00    -0.248 NA
ATOM     60  C   UNL     1      -8.121   3.870   0.040  1.00  0.00     0.031 C 
ATOM     61  C   UNL     1      -6.578   4.991   5.807  1.00  0.00     0.029 A 
ATOM     62  C   UNL     1      -6.700   4.394   4.562  1.00  0.00     0.049 A 
ATOM     63  H   UNL     1      -5.899   2.564   3.882  1.00  0.00     0.167 HD
ATOM     64  C   UNL     1      -7.474   4.229   2.211  1.00  0.00     0.074 A 
ATOM     65  C   UNL     1      -8.202   4.716   1.058  1.00  0.00     0.031 C 
ATOM     66  C   UNL     1      -7.417   4.872   3.405  1.00  0.00     0.037 A 
BRANCH  53  67
ATOM     67  C   UNL     1      -4.144   1.883   7.720  1.00  0.00     0.058 A 
ATOM     68  C   UNL     1      -2.784   2.036   8.033  1.00  0.00     0.135 A 
ATOM     69  C   UNL     1      -5.046   1.721   8.784  1.00  0.00     0.135 A 
ATOM     70  F   UNL     1      -1.876   2.176   7.054  1.00  0.00    -0.206 F 
ATOM     71  C   UNL     1      -2.333   2.003   9.349  1.00  0.00     0.059 A 
ATOM     72  C   UNL     1      -4.621   1.713  10.109  1.00  0.00     0.059 A 
ATOM     73  F   UNL     1      -6.358   1.568   8.541  1.00  0.00    -0.206 F 
ATOM     74  C   UNL     1      -3.259   1.841  10.380  1.00  0.00     0.060 A 
BRANCH  74  75
ATOM     75  S   UNL     1      -2.658   1.806  12.082  1.00  0.00     0.124 S 
ATOM     76  O   UNL     1      -2.004   0.502  12.133  1.00  0.00    -0.237 OA
ATOM     77  O   UNL     1      -1.769   2.962  12.123  1.00  0.00    -0.237 OA
ATOM     78  O   UNL     1      -3.876   1.927  12.877  1.00  0.00    -0.744 OA
ENDBRANCH  74  75
ENDBRANCH  53  67
BRANCH  54  79
ATOM     79  C   UNL     1      -7.380   1.657  -1.737  1.00  0.00     0.058 A 
ATOM     80  C   UNL     1      -6.953   2.586  -2.698  1.00  0.00     0.135 A 
ATOM     81  C   UNL     1      -8.316   0.690  -2.136  1.00  0.00     0.135 A 
ATOM     82  F   UNL     1      -6.070   3.539  -2.363  1.00  0.00    -0.206 F 
ATOM     83  C   UNL     1      -7.444   2.567  -3.999  1.00  0.00     0.059 A 
ATOM     84  C   UNL     1      -8.802   0.634  -3.438  1.00  0.00     0.059 A 
ATOM     85  F   UNL     1      -8.752  -0.226  -1.257  1.00  0.00    -0.206 F 
ATOM     86  C   UNL     1      -8.367   1.584  -4.361  1.00  0.00     0.060 A 
BRANCH  86  87
ATOM     87  S   UNL     1      -8.964   1.542  -6.065  1.00  0.00     0.124 S 
ATOM     88  O   UNL     1      -9.843   2.705  -6.098  1.00  0.00    -0.237 OA
ATOM     89  O   UNL     1      -7.724   1.656  -6.827  1.00  0.00    -0.237 OA
ATOM     90  O   UNL     1      -9.630   0.245  -6.156  1.00  0.00    -0.744 OA
ENDBRANCH  86  87
ENDBRANCH  54  79
BRANCH  66  91
ATOM     91  C   UNL     1      -8.130   6.193   3.520  1.00  0.00     0.058 A 
ATOM     92  C   UNL     1      -9.530   6.278   3.570  1.00  0.00     0.135 A 
ATOM     93  C   UNL     1      -7.397   7.386   3.639  1.00  0.00     0.135 A 
ATOM     94  F   UNL     1     -10.279   5.170   3.456  1.00  0.00    -0.206 F 
ATOM     95  C   UNL     1     -10.179   7.501   3.708  1.00  0.00     0.059 A 
ATOM     96  C   UNL     1      -8.025   8.617   3.807  1.00  0.00     0.059 A 
ATOM     97  F   UNL     1      -6.055   7.362   3.611  1.00  0.00    -0.206 F 
ATOM     98  C   UNL     1      -9.418   8.666   3.828  1.00  0.00     0.060 A 
BRANCH  98  99
ATOM     99  S   UNL     1     -10.273  10.242   4.040  1.00  0.00     0.124 S 
ATOM    100  O   UNL     1     -10.803  10.472   2.700  1.00  0.00    -0.237 OA
ATOM    101  O   UNL     1     -11.261   9.927   5.066  1.00  0.00    -0.237 OA
ATOM    102  O   UNL     1      -9.211  11.152   4.460  1.00  0.00    -0.744 OA
ENDBRANCH  98  99
ENDBRANCH  66  91
ENDBRANCH  40  41
ENDBRANCH  33  35
ENDBRANCH  32  33
ENDBRANCH  31  32
ENDBRANCH  30  31
ENDBRANCH  29  30
ENDBRANCH  28  29
ENDBRANCH   1  28
TORSDOF 25
