REMARK SMILES O=C(OCCOCCOCCOC(=O)c1ccc(-c2c3nc(c(-c4c(F)cc(S(=O)(=O)[O-])cc4F)c4ccc([nH]4)c(-c4c(F)cc(S(=O)(=O)[O-])cc4F)c4nc(c(-c5c(F)cc(S(=O)(=O)[O-])cc5F)c5ccc2[nH]5)C=C4)C=C3)cc1)C1=Cc2c(ccc(Cl)c2-c2ccccc2)O[C@H]1C(F)(F)F
REMARK SMILES IDX 8 1 7 2 6 3 5 4 4 5 3 6 2 7 1 8 81 9 82 10 97 11 83 12 96 13
REMARK SMILES IDX 84 14 89 15 85 16 87 17 86 18 88 19 98 20 99 21 100 22
REMARK SMILES IDX 101 23 90 24 91 25 95 26 92 27 94 28 93 29 9 30 10 31 11 32
REMARK SMILES IDX 12 33 13 34 14 35 15 36 16 37 80 38 17 39 79 40 18 41 19 42
REMARK SMILES IDX 20 43 73 44 21 45 78 46 72 47 74 48 22 49 77 50 71 51 70 52
REMARK SMILES IDX 23 54 57 55 36 56 56 57 37 58 40 59 55 60 75 61 38 62 39 63
REMARK SMILES IDX 54 65 76 66 41 67 24 68 25 69 34 70 26 71 27 72 33 73 35 74
REMARK SMILES IDX 28 75 29 76 30 77 31 78 32 79 58 80 59 81 68 82 60 83 61 84
REMARK SMILES IDX 67 85 69 86 62 87 63 88 64 89 65 90 66 91 42 92 43 93 52 94
REMARK SMILES IDX 44 95 45 96 51 97 53 98 46 99 47 100 48 101 49 102 50 103
REMARK H PARENT 74 53 40 64
REMARK Flexibility Score: inf
ROOT
ATOM      1  C   UNL     1       1.691  -1.249  -2.021  1.00  0.00     0.188 C 
ENDROOT
BRANCH   1   2
ATOM      2  C   UNL     1       0.547  -0.008  -2.015  1.00  0.00     0.188 C 
BRANCH   2   3
ATOM      3  O   UNL     1       0.801   1.284  -1.482  1.00  0.00    -0.376 OA
BRANCH   3   4
ATOM      4  C   UNL     1       1.660   1.392  -0.372  1.00  0.00     0.202 C 
BRANCH   4   5
ATOM      5  C   UNL     1       1.598   0.326   0.738  1.00  0.00     0.261 C 
BRANCH   5   6
ATOM      6  O   UNL     1       1.782   0.902   2.042  1.00  0.00    -0.460 OA
BRANCH   6   7
ATOM      7  C   UNL     1       2.920   1.489   2.474  1.00  0.00     0.338 C 
ATOM      8  O   UNL     1       2.955   2.010   3.583  1.00  0.00    -0.246 OA
BRANCH   7   9
ATOM      9  C   UNL     1       4.138   1.493   1.639  1.00  0.00     0.087 C 
ATOM     10  C   UNL     1       4.275   1.038   0.383  1.00  0.00     0.028 C 
ATOM     11  C   UNL     1       5.346   2.169   2.205  1.00  0.00     0.316 C 
ATOM     12  C   UNL     1       5.284  -0.003   0.264  1.00  0.00     0.027 A 
ATOM     13  O   UNL     1       6.563   1.421   1.835  1.00  0.00    -0.475 OA
ATOM     14  C   UNL     1       6.410   0.249   1.100  1.00  0.00     0.128 A 
ATOM     15  C   UNL     1       5.123  -1.134  -0.602  1.00  0.00     0.011 A 
ATOM     16  C   UNL     1       7.418  -0.687   1.160  1.00  0.00     0.049 A 
ATOM     17  C   UNL     1       6.194  -2.051  -0.496  1.00  0.00     0.049 A 
ATOM     18  C   UNL     1       7.298  -1.838   0.378  1.00  0.00     0.025 A 
ATOM     19  Cl  UNL     1       6.312  -3.489  -1.458  1.00  0.00    -0.084 Cl
BRANCH  11  20
ATOM     20  C   UNL     1       5.306   3.644   1.724  1.00  0.00     0.430 C 
ATOM     21  F   UNL     1       5.458   3.735   0.377  1.00  0.00    -0.167 F 
ATOM     22  F   UNL     1       4.109   4.217   2.006  1.00  0.00    -0.167 F 
ATOM     23  F   UNL     1       6.263   4.405   2.289  1.00  0.00    -0.167 F 
ENDBRANCH  11  20
BRANCH  15  24
ATOM     24  C   UNL     1       3.930  -1.341  -1.574  1.00  0.00    -0.016 A 
ATOM     25  C   UNL     1       3.178  -2.978  -1.762  1.00  0.00     0.009 A 
ATOM     26  C   UNL     1       3.303  -0.013  -2.644  1.00  0.00     0.009 A 
ATOM     27  C   UNL     1       1.926  -3.329  -3.012  1.00  0.00     0.001 A 
ATOM     28  C   UNL     1       2.032  -0.362  -3.937  1.00  0.00     0.001 A 
ATOM     29  C   UNL     1       1.339  -2.021  -4.099  1.00  0.00     0.000 A 
ENDBRANCH  15  24
ENDBRANCH   7   9
ENDBRANCH   6   7
ENDBRANCH   5   6
ENDBRANCH   4   5
ENDBRANCH   3   4
ENDBRANCH   2   3
ENDBRANCH   1   2
BRANCH   1  30
ATOM     30  O   UNL     1       3.087  -1.819  -3.320  1.00  0.00    -0.376 OA
BRANCH  30  31
ATOM     31  C   UNL     1       4.279  -1.520  -4.237  1.00  0.00     0.202 C 
BRANCH  31  32
ATOM     32  C   UNL     1       4.443  -0.363  -5.318  1.00  0.00     0.261 C 
BRANCH  32  33
ATOM     33  O   UNL     1       4.333   1.020  -4.863  1.00  0.00    -0.460 OA
BRANCH  33  34
ATOM     34  C   UNL     1       3.528   1.839  -5.604  1.00  0.00     0.338 C 
ATOM     35  O   UNL     1       3.048   1.579  -6.690  1.00  0.00    -0.246 OA
BRANCH  34  36
ATOM     36  C   UNL     1       3.137   3.077  -4.864  1.00  0.00     0.060 A 
ATOM     37  C   UNL     1       1.938   3.111  -4.132  1.00  0.00     0.016 A 
ATOM     38  C   UNL     1       3.815   4.272  -5.094  1.00  0.00     0.016 A 
ATOM     39  C   UNL     1       1.403   4.314  -3.656  1.00  0.00     0.010 A 
ATOM     40  C   UNL     1       3.274   5.484  -4.624  1.00  0.00     0.010 A 
ATOM     41  C   UNL     1       2.043   5.519  -3.938  1.00  0.00    -0.014 A 
BRANCH  41  42
ATOM     42  C   UNL     1       1.338   6.815  -3.722  1.00  0.00     0.031 A 
ATOM     43  C   UNL     1       0.712   7.495  -4.914  1.00  0.00     0.074 A 
ATOM     44  C   UNL     1       1.233   7.384  -2.506  1.00  0.00     0.049 A 
ATOM     45  N   UNL     1       0.215   8.700  -5.023  1.00  0.00    -0.248 NA
ATOM     46  C   UNL     1       0.640   6.702  -6.152  1.00  0.00     0.031 C 
ATOM     47  C   UNL     1       1.689   6.793  -1.251  1.00  0.00     0.029 A 
ATOM     48  N   UNL     1       0.725   8.608  -2.135  1.00  0.00    -0.354 N 
ATOM     49  C   UNL     1      -0.194   8.824  -6.347  1.00  0.00     0.074 A 
ATOM     50  C   UNL     1       0.119   7.573  -7.003  1.00  0.00     0.031 C 
ATOM     51  C   UNL     1       1.474   7.669  -0.253  1.00  0.00     0.029 A 
ATOM     52  C   UNL     1       0.916   8.904  -0.805  1.00  0.00     0.049 A 
ATOM     53  H   UNL     1       0.269   9.215  -2.762  1.00  0.00     0.167 HD
ATOM     54  C   UNL     1      -0.769   9.886  -6.962  1.00  0.00     0.037 A 
ATOM     55  C   UNL     1       0.710  10.050  -0.122  1.00  0.00     0.037 A 
ATOM     56  C   UNL     1      -1.083  11.127  -6.301  1.00  0.00     0.049 A 
ATOM     57  C   UNL     1       0.162  11.259  -0.847  1.00  0.00     0.074 A 
ATOM     58  C   UNL     1      -1.661  12.265  -6.837  1.00  0.00     0.029 A 
ATOM     59  N   UNL     1      -0.842  11.397  -4.962  1.00  0.00    -0.354 N 
ATOM     60  N   UNL     1      -0.189  11.380  -2.106  1.00  0.00    -0.248 NA
ATOM     61  C   UNL     1      -0.013  12.489  -0.059  1.00  0.00     0.031 C 
ATOM     62  C   UNL     1      -1.709  13.243  -5.840  1.00  0.00     0.029 A 
ATOM     63  C   UNL     1      -1.232  12.692  -4.661  1.00  0.00     0.049 A 
ATOM     64  H   UNL     1      -0.450  10.762  -4.319  1.00  0.00     0.167 HD
ATOM     65  C   UNL     1      -0.659  12.684  -2.250  1.00  0.00     0.074 A 
ATOM     66  C   UNL     1      -0.553  13.310  -0.949  1.00  0.00     0.031 C 
ATOM     67  C   UNL     1      -1.139  13.304  -3.358  1.00  0.00     0.037 A 
BRANCH  54  68
ATOM     68  C   UNL     1      -1.047   9.775  -8.438  1.00  0.00     0.058 A 
ATOM     69  C   UNL     1      -2.047   8.933  -8.952  1.00  0.00     0.135 A 
ATOM     70  C   UNL     1      -0.317  10.553  -9.354  1.00  0.00     0.135 A 
ATOM     71  F   UNL     1      -2.764   8.153  -8.127  1.00  0.00    -0.206 F 
ATOM     72  C   UNL     1      -2.293   8.845 -10.319  1.00  0.00     0.059 A 
ATOM     73  C   UNL     1      -0.569  10.506 -10.722  1.00  0.00     0.059 A 
ATOM     74  F   UNL     1       0.652  11.374  -8.921  1.00  0.00    -0.206 F 
ATOM     75  C   UNL     1      -1.549   9.637 -11.196  1.00  0.00     0.060 A 
BRANCH  75  76
ATOM     76  S   UNL     1      -1.886   9.516 -12.966  1.00  0.00     0.124 S 
ATOM     77  O   UNL     1      -1.369   8.185 -13.271  1.00  0.00    -0.237 OA
ATOM     78  O   UNL     1      -3.337   9.658 -13.016  1.00  0.00    -0.237 OA
ATOM     79  O   UNL     1      -1.129  10.627 -13.535  1.00  0.00    -0.744 OA
ENDBRANCH  75  76
ENDBRANCH  54  68
BRANCH  55  80
ATOM     80  C   UNL     1       1.061  10.136   1.325  1.00  0.00     0.058 A 
ATOM     81  C   UNL     1       0.074  10.316   2.306  1.00  0.00     0.135 A 
ATOM     82  C   UNL     1       2.396  10.059   1.756  1.00  0.00     0.135 A 
ATOM     83  F   UNL     1      -1.215  10.420   1.948  1.00  0.00    -0.206 F 
ATOM     84  C   UNL     1       0.395  10.428   3.656  1.00  0.00     0.059 A 
ATOM     85  C   UNL     1       2.739  10.136   3.104  1.00  0.00     0.059 A 
ATOM     86  F   UNL     1       3.383   9.892   0.863  1.00  0.00    -0.206 F 
ATOM     87  C   UNL     1       1.731  10.329   4.046  1.00  0.00     0.060 A 
BRANCH  87  88
ATOM     88  S   UNL     1       2.130  10.426   5.806  1.00  0.00     0.124 S 
ATOM     89  O   UNL     1       1.866  11.832   6.092  1.00  0.00    -0.237 OA
ATOM     90  O   UNL     1       1.192   9.470   6.385  1.00  0.00    -0.237 OA
ATOM     91  O   UNL     1       3.534  10.027   5.856  1.00  0.00    -0.744 OA
ENDBRANCH  87  88
ENDBRANCH  55  80
BRANCH  67  92
ATOM     92  C   UNL     1      -1.648  14.716  -3.214  1.00  0.00     0.058 A 
ATOM     93  C   UNL     1      -0.788  15.804  -3.001  1.00  0.00     0.135 A 
ATOM     94  C   UNL     1      -3.020  14.990  -3.360  1.00  0.00     0.135 A 
ATOM     95  F   UNL     1       0.531  15.604  -2.849  1.00  0.00    -0.206 F 
ATOM     96  C   UNL     1      -1.269  17.108  -2.915  1.00  0.00     0.059 A 
ATOM     97  C   UNL     1      -3.519  16.288  -3.312  1.00  0.00     0.059 A 
ATOM     98  F   UNL     1      -3.889  13.991  -3.578  1.00  0.00    -0.206 F 
ATOM     99  C   UNL     1      -2.637  17.341  -3.078  1.00  0.00     0.060 A 
BRANCH  99 100
ATOM    100  S   UNL     1      -3.241  19.041  -3.005  1.00  0.00     0.124 S 
ATOM    101  O   UNL     1      -3.089  19.348  -1.587  1.00  0.00    -0.237 OA
ATOM    102  O   UNL     1      -2.327  19.736  -3.906  1.00  0.00    -0.237 OA
ATOM    103  O   UNL     1      -4.618  18.935  -3.479  1.00  0.00    -0.744 OA
ENDBRANCH  99 100
ENDBRANCH  67  92
ENDBRANCH  41  42
ENDBRANCH  34  36
ENDBRANCH  33  34
ENDBRANCH  32  33
ENDBRANCH  31  32
ENDBRANCH  30  31
ENDBRANCH   1  30
TORSDOF 22
