REMARK SMILES Cc1cc(NC(=O)N2CCO[C@@H](CC(=O)OCCOCCOCCOC(=O)c3ccc(-c4c5nc(c(-c6c(F)cc(S(=O)(=O)[O-])cc6F)c6ccc([nH]6)c(-c6c(F)cc(S(=O)(=O)[O-])cc6F)c6nc(c(-c7c(F)cc(S(=O)(=O)[O-])cc7F)c7ccc4[nH]7)C=C6)C=C5)cc3)C2)ccc1F
REMARK SMILES IDX 20 1 19 2 18 3 17 4 16 5 14 6 15 7 13 8 12 9 8 10 9 11 94 12
REMARK SMILES IDX 10 13 11 14 6 15 5 16 7 18 4 19 1 20 2 21 3 22 97 23 96 24
REMARK SMILES IDX 98 25 95 26 21 27 22 28 23 29 24 30 25 31 26 32 27 33 28 34
REMARK SMILES IDX 29 35 93 36 30 37 92 38 31 39 32 40 33 41 86 42 34 43 91 44
REMARK SMILES IDX 85 45 87 46 35 47 90 48 84 49 83 50 36 52 70 53 49 54 69 55
REMARK SMILES IDX 50 56 53 57 68 58 88 59 51 60 52 61 67 63 89 64 54 65 37 66
REMARK SMILES IDX 38 67 47 68 39 69 40 70 46 71 48 72 41 73 42 74 43 75 44 76
REMARK SMILES IDX 45 77 71 78 72 79 81 80 73 81 74 82 80 83 82 84 75 85 76 86
REMARK SMILES IDX 77 87 78 88 79 89 55 90 56 91 65 92 57 93 58 94 64 95 66 96
REMARK SMILES IDX 59 97 60 98 61 99 62 100 63 101
REMARK H PARENT 5 17 87 51 53 62
REMARK Flexibility Score: inf
ROOT
ATOM      1  C   UNL     1      -6.839  -4.332  -3.503  1.00  0.00     0.188 C 
ENDROOT
BRANCH   1   2
ATOM      2  O   UNL     1      -8.170  -4.563  -3.973  1.00  0.00    -0.376 OA
BRANCH   2   3
ATOM      3  C   UNL     1      -9.186  -3.737  -3.435  1.00  0.00     0.202 C 
BRANCH   3   4
ATOM      4  C   UNL     1      -9.335  -3.739  -1.901  1.00  0.00     0.261 C 
BRANCH   4   5
ATOM      5  O   UNL     1      -8.107  -3.630  -1.131  1.00  0.00    -0.463 OA
BRANCH   5   6
ATOM      6  C   UNL     1      -7.732  -4.694  -0.390  1.00  0.00     0.308 C 
ATOM      7  O   UNL     1      -8.489  -5.632  -0.143  1.00  0.00    -0.252 OA
BRANCH   6   8
ATOM      8  C   UNL     1      -6.264  -4.779   0.016  1.00  0.00     0.156 C 
BRANCH   8   9
ATOM      9  C   UNL     1      -5.190  -3.678   0.102  1.00  0.00     0.149 C 
ATOM     10  N   UNL     1      -4.419  -1.378   0.698  1.00  0.00    -0.320 N 
ATOM     11  C   UNL     1      -3.516  -1.945   1.693  1.00  0.00     0.150 C 
ATOM     12  C   UNL     1      -5.606  -2.227   0.436  1.00  0.00     0.154 C 
ATOM     13  C   UNL     1      -3.128  -3.373   1.312  1.00  0.00     0.182 C 
ATOM     14  O   UNL     1      -4.302  -4.179   1.163  1.00  0.00    -0.374 OA
BRANCH  10  15
ATOM     15  C   UNL     1      -4.402  -0.072   0.267  1.00  0.00     0.322 C 
ATOM     16  N   UNL     1      -3.247   0.659   0.203  1.00  0.00    -0.308 N 
ATOM     17  H   UNL     1      -3.401   1.628   0.285  1.00  0.00     0.171 HD
ATOM     18  O   UNL     1      -5.462   0.525   0.037  1.00  0.00    -0.248 OA
BRANCH  16  19
ATOM     19  C   UNL     1      -1.883   0.329   0.044  1.00  0.00     0.043 A 
ATOM     20  C   UNL     1       1.512   2.095   0.173  1.00  0.00     0.047 C 
ATOM     21  C   UNL     1       0.456   1.041   0.052  1.00  0.00    -0.013 A 
ATOM     22  C   UNL     1      -0.917   1.339   0.168  1.00  0.00     0.032 A 
ATOM     23  C   UNL     1       0.846  -0.281  -0.172  1.00  0.00     0.126 A 
ATOM     24  C   UNL     1      -0.095  -1.275  -0.357  1.00  0.00     0.041 A 
ATOM     25  F   UNL     1       2.147  -0.594  -0.246  1.00  0.00    -0.207 F 
ATOM     26  C   UNL     1      -1.448  -0.947  -0.293  1.00  0.00     0.029 A 
ENDBRANCH  16  19
ENDBRANCH  10  15
ENDBRANCH   8   9
ENDBRANCH   6   8
ENDBRANCH   5   6
ENDBRANCH   4   5
ENDBRANCH   3   4
ENDBRANCH   2   3
ENDBRANCH   1   2
BRANCH   1  27
ATOM     27  C   UNL     1      -6.425  -2.875  -3.144  1.00  0.00     0.188 C 
BRANCH  27  28
ATOM     28  O   UNL     1      -7.229  -1.892  -3.771  1.00  0.00    -0.376 OA
BRANCH  28  29
ATOM     29  C   UNL     1      -6.502  -0.958  -4.532  1.00  0.00     0.202 C 
BRANCH  29  30
ATOM     30  C   UNL     1      -6.137  -1.397  -5.955  1.00  0.00     0.261 C 
BRANCH  30  31
ATOM     31  O   UNL     1      -6.083  -2.787  -6.326  1.00  0.00    -0.460 OA
BRANCH  31  32
ATOM     32  C   UNL     1      -5.036  -3.483  -5.845  1.00  0.00     0.338 C 
ATOM     33  O   UNL     1      -4.589  -3.491  -4.720  1.00  0.00    -0.246 OA
BRANCH  32  34
ATOM     34  C   UNL     1      -4.248  -4.224  -6.816  1.00  0.00     0.060 A 
ATOM     35  C   UNL     1      -3.236  -4.971  -6.159  1.00  0.00     0.016 A 
ATOM     36  C   UNL     1      -4.026  -3.502  -7.979  1.00  0.00     0.016 A 
ATOM     37  C   UNL     1      -1.930  -4.640  -6.410  1.00  0.00     0.010 A 
ATOM     38  C   UNL     1      -2.721  -3.247  -8.287  1.00  0.00     0.010 A 
ATOM     39  C   UNL     1      -1.704  -3.753  -7.454  1.00  0.00    -0.014 A 
BRANCH  39  40
ATOM     40  C   UNL     1      -0.384  -3.597  -7.992  1.00  0.00     0.031 A 
ATOM     41  C   UNL     1       0.098  -4.809  -8.695  1.00  0.00     0.074 A 
ATOM     42  C   UNL     1       0.094  -2.337  -8.036  1.00  0.00     0.049 A 
ATOM     43  N   UNL     1       1.316  -5.049  -9.017  1.00  0.00    -0.248 NA
ATOM     44  C   UNL     1      -0.792  -5.953  -8.994  1.00  0.00     0.031 C 
ATOM     45  C   UNL     1       1.012  -1.776  -9.007  1.00  0.00     0.029 A 
ATOM     46  N   UNL     1      -0.115  -1.276  -7.146  1.00  0.00    -0.354 N 
ATOM     47  C   UNL     1       1.266  -6.106  -9.909  1.00  0.00     0.074 A 
ATOM     48  C   UNL     1       0.014  -6.767  -9.674  1.00  0.00     0.031 C 
ATOM     49  C   UNL     1       1.503  -0.624  -8.514  1.00  0.00     0.029 A 
ATOM     50  C   UNL     1       1.082  -0.540  -7.123  1.00  0.00     0.049 A 
ATOM     51  H   UNL     1      -0.936  -1.085  -6.639  1.00  0.00     0.167 HD
ATOM     52  C   UNL     1       2.154  -6.130 -10.940  1.00  0.00     0.037 A 
ATOM     53  C   UNL     1       1.966  -0.569  -6.069  1.00  0.00     0.037 A 
ATOM     54  C   UNL     1       3.032  -4.967 -10.839  1.00  0.00     0.049 A 
ATOM     55  C   UNL     1       3.243  -1.329  -6.367  1.00  0.00     0.074 A 
ATOM     56  C   UNL     1       2.972  -3.686 -11.364  1.00  0.00     0.029 A 
ATOM     57  N   UNL     1       3.893  -4.895  -9.768  1.00  0.00    -0.354 N 
ATOM     58  N   UNL     1       3.487  -1.955  -7.483  1.00  0.00    -0.248 NA
ATOM     59  C   UNL     1       4.295  -1.524  -5.371  1.00  0.00     0.031 C 
ATOM     60  C   UNL     1       3.801  -2.843 -10.564  1.00  0.00     0.029 A 
ATOM     61  C   UNL     1       4.359  -3.614  -9.560  1.00  0.00     0.049 A 
ATOM     62  H   UNL     1       4.147  -5.668  -9.215  1.00  0.00     0.167 HD
ATOM     63  C   UNL     1       4.664  -2.634  -7.377  1.00  0.00     0.074 A 
ATOM     64  C   UNL     1       5.120  -2.357  -6.024  1.00  0.00     0.031 C 
ATOM     65  C   UNL     1       5.186  -3.386  -8.389  1.00  0.00     0.037 A 
BRANCH  52  66
ATOM     66  C   UNL     1       2.042  -6.992 -12.173  1.00  0.00     0.058 A 
ATOM     67  C   UNL     1       2.621  -6.545 -13.380  1.00  0.00     0.135 A 
ATOM     68  C   UNL     1       1.410  -8.252 -12.252  1.00  0.00     0.135 A 
ATOM     69  F   UNL     1       3.290  -5.386 -13.452  1.00  0.00    -0.206 F 
ATOM     70  C   UNL     1       2.547  -7.259 -14.571  1.00  0.00     0.059 A 
ATOM     71  C   UNL     1       1.286  -8.970 -13.449  1.00  0.00     0.059 A 
ATOM     72  F   UNL     1       0.934  -8.869 -11.162  1.00  0.00    -0.206 F 
ATOM     73  C   UNL     1       1.870  -8.468 -14.603  1.00  0.00     0.060 A 
BRANCH  73  74
ATOM     74  S   UNL     1       1.823  -9.372 -16.159  1.00  0.00     0.124 S 
ATOM     75  O   UNL     1       1.215  -8.398 -17.061  1.00  0.00    -0.237 OA
ATOM     76  O   UNL     1       3.237  -9.650 -16.387  1.00  0.00    -0.237 OA
ATOM     77  O   UNL     1       0.998 -10.536 -15.854  1.00  0.00    -0.744 OA
ENDBRANCH  73  74
ENDBRANCH  52  66
BRANCH  53  78
ATOM     78  C   UNL     1       1.330  -0.604  -4.728  1.00  0.00     0.058 A 
ATOM     79  C   UNL     1       0.589   0.531  -4.360  1.00  0.00     0.135 A 
ATOM     80  C   UNL     1       0.979  -1.853  -4.200  1.00  0.00     0.135 A 
ATOM     81  F   UNL     1       0.961   1.752  -4.775  1.00  0.00    -0.206 F 
ATOM     82  C   UNL     1      -0.650   0.387  -3.777  1.00  0.00     0.059 A 
ATOM     83  C   UNL     1      -0.269  -2.026  -3.643  1.00  0.00     0.059 A 
ATOM     84  F   UNL     1       1.728  -2.939  -4.438  1.00  0.00    -0.206 F 
ATOM     85  C   UNL     1      -1.101  -0.908  -3.550  1.00  0.00     0.060 A 
BRANCH  85  86
ATOM     86  S   UNL     1      -2.864  -1.172  -3.492  1.00  0.00     0.124 S 
ATOM     87  O   UNL     1      -3.370   0.033  -2.847  1.00  0.00    -0.237 OA
ATOM     88  O   UNL     1      -3.123  -1.251  -4.926  1.00  0.00    -0.237 OA
ATOM     89  O   UNL     1      -2.960  -2.396  -2.702  1.00  0.00    -0.744 OA
ENDBRANCH  85  86
ENDBRANCH  53  78
BRANCH  65  90
ATOM     90  C   UNL     1       6.544  -4.011  -8.285  1.00  0.00     0.058 A 
ATOM     91  C   UNL     1       7.618  -3.316  -7.705  1.00  0.00     0.135 A 
ATOM     92  C   UNL     1       6.847  -5.280  -8.823  1.00  0.00     0.135 A 
ATOM     93  F   UNL     1       7.483  -2.042  -7.305  1.00  0.00    -0.206 F 
ATOM     94  C   UNL     1       8.860  -3.905  -7.518  1.00  0.00     0.059 A 
ATOM     95  C   UNL     1       8.100  -5.860  -8.711  1.00  0.00     0.059 A 
ATOM     96  F   UNL     1       5.936  -6.033  -9.451  1.00  0.00    -0.206 F 
ATOM     97  C   UNL     1       9.083  -5.188  -8.006  1.00  0.00     0.060 A 
BRANCH  97  98
ATOM     98  S   UNL     1      10.669  -5.972  -7.716  1.00  0.00     0.124 S 
ATOM     99  O   UNL     1      11.606  -4.874  -7.934  1.00  0.00    -0.237 OA
ATOM    100  O   UNL     1      10.520  -6.413  -6.332  1.00  0.00    -0.237 OA
ATOM    101  O   UNL     1      10.711  -7.034  -8.716  1.00  0.00    -0.744 OA
ENDBRANCH  97  98
ENDBRANCH  65  90
ENDBRANCH  39  40
ENDBRANCH  32  34
ENDBRANCH  31  32
ENDBRANCH  30  31
ENDBRANCH  29  30
ENDBRANCH  28  29
ENDBRANCH  27  28
ENDBRANCH   1  27
TORSDOF 23
