REMARK SMILES Cc1cc(F)ccc1OC1(C(=O)OCCOCCOCCOC(=O)c2ccc(-c3c4nc(c(-c5c(F)cc(S(=O)(=O)[O-])cc5F)c5ccc([nH]5)c(-c5c(F)cc(S(=O)(=O)[O-])cc5F)c5nc(c(-c6c(F)cc(S(=O)(=O)[O-])cc6F)c6ccc3[nH]6)C=C5)C=C4)cc2)CCN(C(=O)[C@H]2CCOC2)CC1
REMARK SMILES IDX 18 1 17 2 16 3 15 4 14 5 13 6 11 7 12 8 10 9 91 10 102 11
REMARK SMILES IDX 92 12 101 13 93 14 94 15 95 16 9 17 8 18 1 19 2 20 3 21 4 22
REMARK SMILES IDX 7 23 5 24 6 25 96 26 97 27 100 28 98 29 99 30 19 31 20 32
REMARK SMILES IDX 21 33 22 34 23 35 24 36 25 37 26 38 90 39 27 40 89 41 28 42
REMARK SMILES IDX 29 43 30 44 83 45 31 46 88 47 82 48 84 49 32 50 87 51 81 52
REMARK SMILES IDX 80 53 33 55 67 56 46 57 66 58 47 59 50 60 65 61 85 62 48 63
REMARK SMILES IDX 49 64 64 66 86 67 51 68 34 69 35 70 44 71 36 72 37 73 43 74
REMARK SMILES IDX 45 75 38 76 39 77 40 78 41 79 42 80 68 81 69 82 78 83 70 84
REMARK SMILES IDX 71 85 77 86 79 87 72 88 73 89 74 90 75 91 76 92 52 93 53 94
REMARK SMILES IDX 62 95 54 96 55 97 61 98 63 99 56 100 57 101 58 102 59 103
REMARK SMILES IDX 60 104
REMARK H PARENT 84 54 50 65
REMARK Flexibility Score: inf
ROOT
ATOM      1  C   UNL     1      10.655  10.354  -0.553  1.00  0.00     0.188 C 
ENDROOT
BRANCH   1   2
ATOM      2  C   UNL     1       9.980  10.421   0.817  1.00  0.00     0.188 C 
BRANCH   2   3
ATOM      3  O   UNL     1      10.821  10.206   1.942  1.00  0.00    -0.376 OA
BRANCH   3   4
ATOM      4  C   UNL     1      11.432   8.921   2.051  1.00  0.00     0.202 C 
BRANCH   4   5
ATOM      5  C   UNL     1      10.485   7.717   2.181  1.00  0.00     0.261 C 
BRANCH   5   6
ATOM      6  O   UNL     1       9.659   7.496   1.014  1.00  0.00    -0.460 OA
BRANCH   6   7
ATOM      7  C   UNL     1       8.308   7.539   1.205  1.00  0.00     0.350 C 
ATOM      8  O   UNL     1       7.795   7.652   2.317  1.00  0.00    -0.247 OA
BRANCH   7   9
ATOM      9  C   UNL     1       7.451   7.450  -0.108  1.00  0.00     0.209 C 
ATOM     10  C   UNL     1       8.293   7.263  -1.367  1.00  0.00     0.082 C 
ATOM     11  C   UNL     1       6.464   6.333   0.244  1.00  0.00     0.082 C 
ATOM     12  C   UNL     1       8.111   5.964  -2.144  1.00  0.00     0.124 C 
ATOM     13  C   UNL     1       5.952   5.504  -0.905  1.00  0.00     0.124 C 
ATOM     14  N   UNL     1       6.987   5.081  -1.839  1.00  0.00    -0.342 N 
ATOM     15  C   UNL     1       6.889   3.950  -2.655  1.00  0.00     0.228 C 
ATOM     16  O   UNL     1       7.757   3.702  -3.497  1.00  0.00    -0.274 OA
BRANCH   9  17
ATOM     17  O   UNL     1       6.894   8.784  -0.068  1.00  0.00    -0.475 OA
BRANCH  17  18
ATOM     18  C   UNL     1       5.877   9.425  -0.695  1.00  0.00     0.124 A 
ATOM     19  C   UNL     1       5.444   8.155  -2.934  1.00  0.00     0.048 C 
ATOM     20  C   UNL     1       5.196   9.204  -1.901  1.00  0.00    -0.006 A 
ATOM     21  C   UNL     1       4.181  10.116  -2.294  1.00  0.00     0.046 A 
ATOM     22  C   UNL     1       3.868  11.233  -1.538  1.00  0.00     0.123 A 
ATOM     23  C   UNL     1       5.536  10.585   0.042  1.00  0.00     0.050 A 
ATOM     24  F   UNL     1       2.920  12.075  -1.966  1.00  0.00    -0.207 F 
ATOM     25  C   UNL     1       4.548  11.484  -0.368  1.00  0.00     0.043 A 
ENDBRANCH  17  18
ENDBRANCH   9  17
BRANCH  15  26
ATOM     26  C   UNL     1       5.679   3.039  -2.511  1.00  0.00     0.107 C 
ATOM     27  C   UNL     1       4.466   3.551  -3.259  1.00  0.00     0.044 C 
ATOM     28  C   UNL     1       5.906   1.693  -3.178  1.00  0.00     0.173 C 
ATOM     29  C   UNL     1       3.705   2.289  -3.616  1.00  0.00     0.161 C 
ATOM     30  O   UNL     1       4.613   1.186  -3.530  1.00  0.00    -0.381 OA
ENDBRANCH  15  26
ENDBRANCH   7   9
ENDBRANCH   6   7
ENDBRANCH   5   6
ENDBRANCH   4   5
ENDBRANCH   3   4
ENDBRANCH   2   3
ENDBRANCH   1   2
BRANCH   1  31
ATOM     31  O   UNL     1      11.498   9.227  -0.773  1.00  0.00    -0.376 OA
BRANCH  31  32
ATOM     32  C   UNL     1      12.056   9.123  -2.090  1.00  0.00     0.202 C 
BRANCH  32  33
ATOM     33  C   UNL     1      12.840  10.354  -2.591  1.00  0.00     0.261 C 
BRANCH  33  34
ATOM     34  O   UNL     1      12.046  11.548  -2.750  1.00  0.00    -0.460 OA
BRANCH  34  35
ATOM     35  C   UNL     1      10.938  11.460  -3.522  1.00  0.00     0.338 C 
ATOM     36  O   UNL     1      10.675  10.562  -4.306  1.00  0.00    -0.246 OA
BRANCH  35  37
ATOM     37  C   UNL     1       9.962  12.486  -3.064  1.00  0.00     0.060 A 
ATOM     38  C   UNL     1       8.601  12.146  -3.057  1.00  0.00     0.016 A 
ATOM     39  C   UNL     1      10.369  13.731  -2.570  1.00  0.00     0.016 A 
ATOM     40  C   UNL     1       7.647  13.063  -2.608  1.00  0.00     0.010 A 
ATOM     41  C   UNL     1       9.412  14.650  -2.126  1.00  0.00     0.010 A 
ATOM     42  C   UNL     1       8.044  14.335  -2.177  1.00  0.00    -0.014 A 
BRANCH  42  43
ATOM     43  C   UNL     1       7.027  15.402  -1.992  1.00  0.00     0.031 A 
ATOM     44  C   UNL     1       6.762  16.335  -3.144  1.00  0.00     0.074 A 
ATOM     45  C   UNL     1       6.331  15.539  -0.849  1.00  0.00     0.049 A 
ATOM     46  N   UNL     1       5.932  17.343  -3.227  1.00  0.00    -0.248 NA
ATOM     47  C   UNL     1       7.547  16.097  -4.366  1.00  0.00     0.031 C 
ATOM     48  C   UNL     1       6.459  14.687   0.330  1.00  0.00     0.029 A 
ATOM     49  N   UNL     1       5.369  16.456  -0.500  1.00  0.00    -0.354 N 
ATOM     50  C   UNL     1       6.097  17.861  -4.506  1.00  0.00     0.074 A 
ATOM     51  C   UNL     1       7.130  17.078  -5.150  1.00  0.00     0.031 C 
ATOM     52  C   UNL     1       5.599  15.116   1.272  1.00  0.00     0.029 A 
ATOM     53  C   UNL     1       4.883  16.293   0.775  1.00  0.00     0.049 A 
ATOM     54  H   UNL     1       5.057  17.166  -1.107  1.00  0.00     0.167 HD
ATOM     55  C   UNL     1       5.446  18.891  -5.098  1.00  0.00     0.037 A 
ATOM     56  C   UNL     1       3.975  17.015   1.464  1.00  0.00     0.037 A 
ATOM     57  C   UNL     1       4.430  19.683  -4.458  1.00  0.00     0.049 A 
ATOM     58  C   UNL     1       3.323  18.213   0.817  1.00  0.00     0.074 A 
ATOM     59  C   UNL     1       3.705  20.738  -4.983  1.00  0.00     0.029 A 
ATOM     60  N   UNL     1       4.007  19.519  -3.147  1.00  0.00    -0.354 N 
ATOM     61  N   UNL     1       3.468  18.677  -0.402  1.00  0.00    -0.248 NA
ATOM     62  C   UNL     1       2.386  18.989   1.644  1.00  0.00     0.031 C 
ATOM     63  C   UNL     1       2.883  21.248  -3.972  1.00  0.00     0.029 A 
ATOM     64  C   UNL     1       3.055  20.476  -2.834  1.00  0.00     0.049 A 
ATOM     65  H   UNL     1       4.335  18.826  -2.530  1.00  0.00     0.167 HD
ATOM     66  C   UNL     1       2.621  19.779  -0.496  1.00  0.00     0.074 A 
ATOM     67  C   UNL     1       1.965  19.911   0.788  1.00  0.00     0.031 C 
ATOM     68  C   UNL     1       2.404  20.602  -1.552  1.00  0.00     0.037 A 
BRANCH  55  69
ATOM     69  C   UNL     1       5.862  19.242  -6.499  1.00  0.00     0.058 A 
ATOM     70  C   UNL     1       5.572  18.406  -7.590  1.00  0.00     0.135 A 
ATOM     71  C   UNL     1       6.588  20.417  -6.748  1.00  0.00     0.135 A 
ATOM     72  F   UNL     1       4.897  17.260  -7.404  1.00  0.00    -0.206 F 
ATOM     73  C   UNL     1       6.031  18.698  -8.870  1.00  0.00     0.059 A 
ATOM     74  C   UNL     1       7.032  20.744  -8.025  1.00  0.00     0.059 A 
ATOM     75  F   UNL     1       6.893  21.250  -5.741  1.00  0.00    -0.206 F 
ATOM     76  C   UNL     1       6.770  19.865  -9.075  1.00  0.00     0.060 A 
BRANCH  76  77
ATOM     77  S   UNL     1       7.405  20.206 -10.729  1.00  0.00     0.124 S 
ATOM     78  O   UNL     1       8.505  19.250 -10.819  1.00  0.00    -0.237 OA
ATOM     79  O   UNL     1       6.250  19.924 -11.574  1.00  0.00    -0.237 OA
ATOM     80  O   UNL     1       7.798  21.610 -10.659  1.00  0.00    -0.744 OA
ENDBRANCH  76  77
ENDBRANCH  55  69
BRANCH  56  81
ATOM     81  C   UNL     1       3.618  16.624   2.855  1.00  0.00     0.058 A 
ATOM     82  C   UNL     1       2.355  16.089   3.151  1.00  0.00     0.135 A 
ATOM     83  C   UNL     1       4.530  16.769   3.911  1.00  0.00     0.135 A 
ATOM     84  F   UNL     1       1.441  15.950   2.179  1.00  0.00    -0.206 F 
ATOM     85  C   UNL     1       2.010  15.708   4.444  1.00  0.00     0.059 A 
ATOM     86  C   UNL     1       4.216  16.374   5.208  1.00  0.00     0.059 A 
ATOM     87  F   UNL     1       5.751  17.277   3.681  1.00  0.00    -0.206 F 
ATOM     88  C   UNL     1       2.951  15.846   5.465  1.00  0.00     0.060 A 
BRANCH  88  89
ATOM     89  S   UNL     1       2.518  15.276   7.123  1.00  0.00     0.124 S 
ATOM     90  O   UNL     1       1.560  16.291   7.544  1.00  0.00    -0.237 OA
ATOM     91  O   UNL     1       1.968  13.950   6.855  1.00  0.00    -0.237 OA
ATOM     92  O   UNL     1       3.797  15.285   7.826  1.00  0.00    -0.744 OA
ENDBRANCH  88  89
ENDBRANCH  56  81
BRANCH  68  93
ATOM     93  C   UNL     1       1.392  21.707  -1.389  1.00  0.00     0.058 A 
ATOM     94  C   UNL     1       1.656  22.845  -0.610  1.00  0.00     0.135 A 
ATOM     95  C   UNL     1       0.167  21.656  -2.076  1.00  0.00     0.135 A 
ATOM     96  F   UNL     1       2.808  22.945   0.071  1.00  0.00    -0.206 F 
ATOM     97  C   UNL     1       0.734  23.883  -0.503  1.00  0.00     0.059 A 
ATOM     98  C   UNL     1      -0.757  22.694  -2.004  1.00  0.00     0.059 A 
ATOM     99  F   UNL     1      -0.133  20.597  -2.845  1.00  0.00    -0.206 F 
ATOM    100  C   UNL     1      -0.469  23.800  -1.206  1.00  0.00     0.060 A 
BRANCH 100 101
ATOM    101  S   UNL     1      -1.640  25.171  -1.091  1.00  0.00     0.124 S 
ATOM    102  O   UNL     1      -2.179  24.986   0.252  1.00  0.00    -0.237 OA
ATOM    103  O   UNL     1      -0.778  26.335  -1.272  1.00  0.00    -0.237 OA
ATOM    104  O   UNL     1      -2.573  24.915  -2.183  1.00  0.00    -0.744 OA
ENDBRANCH 100 101
ENDBRANCH  68  93
ENDBRANCH  42  43
ENDBRANCH  35  37
ENDBRANCH  34  35
ENDBRANCH  33  34
ENDBRANCH  32  33
ENDBRANCH  31  32
ENDBRANCH   1  31
TORSDOF 23
