REMARK SMILES O=C(OCCOCCOCCOC(=O)c1ccccc1/C=C1/SC(=S)N(C2CCCCC2)C1=O)c1ccc(-c2c3nc(c(-c4c(F)cc(S(=O)(=O)[O-])cc4F)c4ccc([nH]4)c(-c4c(F)cc(S(=O)(=O)[O-])cc4F)c4nc(c(-c5c(F)cc(S(=O)(=O)[O-])cc5F)c5ccc2[nH]5)C=C4)C=C3)cc1
REMARK SMILES IDX 7 1 6 2 5 3 4 4 3 5 2 6 1 7 35 8 36 9 100 10 37 11 99 12
REMARK SMILES IDX 38 13 39 14 40 15 93 16 41 17 98 18 92 19 94 20 42 21 97 22
REMARK SMILES IDX 91 23 90 24 43 26 77 27 56 28 76 29 57 30 60 31 75 32 95 33
REMARK SMILES IDX 58 34 59 35 74 37 96 38 61 39 44 40 45 41 54 42 46 43 47 44
REMARK SMILES IDX 53 45 55 46 48 47 49 48 50 49 51 50 52 51 78 52 79 53 88 54
REMARK SMILES IDX 80 55 81 56 87 57 89 58 82 59 83 60 84 61 85 62 86 63 62 64
REMARK SMILES IDX 63 65 72 66 64 67 65 68 71 69 73 70 66 71 67 72 68 73 69 74
REMARK SMILES IDX 70 75 8 76 9 77 10 78 11 79 12 80 13 81 14 82 15 83 16 84
REMARK SMILES IDX 20 85 17 86 19 87 18 88 21 89 22 90 23 91 33 92 24 93 26 94
REMARK SMILES IDX 34 95 25 96 27 97 28 98 32 99 29 100 31 101 30 102
REMARK H PARENT 94 25 60 36
REMARK Flexibility Score: inf
ROOT
ATOM      1  C   UNL     1       2.478   2.253  -0.178  1.00  0.00     0.188 C 
ENDROOT
BRANCH   1   2
ATOM      2  O   UNL     1       3.666   1.510   0.111  1.00  0.00    -0.376 OA
BRANCH   2   3
ATOM      3  C   UNL     1       4.530   1.332  -1.011  1.00  0.00     0.202 C 
BRANCH   3   4
ATOM      4  C   UNL     1       4.240   0.061  -1.815  1.00  0.00     0.261 C 
BRANCH   4   5
ATOM      5  O   UNL     1       2.842  -0.284  -1.789  1.00  0.00    -0.460 OA
BRANCH   5   6
ATOM      6  C   UNL     1       2.234  -1.175  -0.962  1.00  0.00     0.338 C 
ATOM      7  O   UNL     1       1.024  -1.362  -1.063  1.00  0.00    -0.246 OA
BRANCH   6   8
ATOM      8  C   UNL     1       2.999  -2.007   0.011  1.00  0.00     0.060 A 
ATOM      9  C   UNL     1       4.067  -1.531   0.768  1.00  0.00     0.016 A 
ATOM     10  C   UNL     1       2.581  -3.333   0.208  1.00  0.00     0.016 A 
ATOM     11  C   UNL     1       4.815  -2.388   1.564  1.00  0.00     0.010 A 
ATOM     12  C   UNL     1       3.278  -4.179   1.081  1.00  0.00     0.010 A 
ATOM     13  C   UNL     1       4.435  -3.722   1.722  1.00  0.00    -0.014 A 
BRANCH  13  14
ATOM     14  C   UNL     1       5.333  -4.619   2.488  1.00  0.00     0.031 A 
ATOM     15  C   UNL     1       6.103  -5.682   1.758  1.00  0.00     0.074 A 
ATOM     16  C   UNL     1       5.567  -4.371   3.792  1.00  0.00     0.049 A 
ATOM     17  N   UNL     1       6.959  -6.550   2.227  1.00  0.00    -0.248 NA
ATOM     18  C   UNL     1       5.893  -5.775   0.302  1.00  0.00     0.031 C 
ATOM     19  C   UNL     1       4.928  -3.308   4.573  1.00  0.00     0.029 A 
ATOM     20  N   UNL     1       6.434  -4.955   4.678  1.00  0.00    -0.354 N 
ATOM     21  C   UNL     1       7.375  -7.300   1.134  1.00  0.00     0.074 A 
ATOM     22  C   UNL     1       6.666  -6.800  -0.022  1.00  0.00     0.031 C 
ATOM     23  C   UNL     1       5.465  -3.284   5.802  1.00  0.00     0.029 A 
ATOM     24  C   UNL     1       6.430  -4.368   5.921  1.00  0.00     0.049 A 
ATOM     25  H   UNL     1       7.006  -5.722   4.446  1.00  0.00     0.167 HD
ATOM     26  C   UNL     1       8.274  -8.312   1.100  1.00  0.00     0.037 A 
ATOM     27  C   UNL     1       7.112  -4.682   7.039  1.00  0.00     0.037 A 
ATOM     28  C   UNL     1       8.977  -8.792   2.258  1.00  0.00     0.049 A 
ATOM     29  C   UNL     1       8.066  -5.841   6.986  1.00  0.00     0.074 A 
ATOM     30  C   UNL     1       9.842  -9.865   2.364  1.00  0.00     0.029 A 
ATOM     31  N   UNL     1       8.902  -8.210   3.517  1.00  0.00    -0.354 N 
ATOM     32  N   UNL     1       8.383  -6.596   5.959  1.00  0.00    -0.248 NA
ATOM     33  C   UNL     1       8.743  -6.205   8.236  1.00  0.00     0.031 C 
ATOM     34  C   UNL     1      10.276  -9.944   3.693  1.00  0.00     0.029 A 
ATOM     35  C   UNL     1       9.705  -8.900   4.406  1.00  0.00     0.049 A 
ATOM     36  H   UNL     1       8.357  -7.421   3.743  1.00  0.00     0.167 HD
ATOM     37  C   UNL     1       9.292  -7.528   6.441  1.00  0.00     0.074 A 
ATOM     38  C   UNL     1       9.503  -7.218   7.842  1.00  0.00     0.031 C 
ATOM     39  C   UNL     1       9.886  -8.561   5.794  1.00  0.00     0.037 A 
BRANCH  26  40
ATOM     40  C   UNL     1       8.504  -8.979  -0.225  1.00  0.00     0.058 A 
ATOM     41  C   UNL     1       9.260  -8.368  -1.238  1.00  0.00     0.135 A 
ATOM     42  C   UNL     1       7.944 -10.238  -0.493  1.00  0.00     0.135 A 
ATOM     43  F   UNL     1       9.791  -7.151  -1.043  1.00  0.00    -0.206 F 
ATOM     44  C   UNL     1       9.434  -8.972  -2.479  1.00  0.00     0.059 A 
ATOM     45  C   UNL     1       8.120 -10.870  -1.721  1.00  0.00     0.059 A 
ATOM     46  F   UNL     1       7.201 -10.859   0.437  1.00  0.00    -0.206 F 
ATOM     47  C   UNL     1       8.855 -10.221  -2.713  1.00  0.00     0.060 A 
BRANCH  47  48
ATOM     48  S   UNL     1       9.071 -10.985  -4.335  1.00  0.00     0.124 S 
ATOM     49  O   UNL     1       8.168 -10.184  -5.155  1.00  0.00    -0.237 OA
ATOM     50  O   UNL     1      10.495 -10.790  -4.586  1.00  0.00    -0.237 OA
ATOM     51  O   UNL     1       8.660 -12.368  -4.116  1.00  0.00    -0.744 OA
ENDBRANCH  47  48
ENDBRANCH  26  40
BRANCH  27  52
ATOM     52  C   UNL     1       6.879  -3.929   8.303  1.00  0.00     0.058 A 
ATOM     53  C   UNL     1       7.882  -3.138   8.883  1.00  0.00     0.135 A 
ATOM     54  C   UNL     1       5.642  -3.998   8.965  1.00  0.00     0.135 A 
ATOM     55  F   UNL     1       9.082  -3.038   8.292  1.00  0.00    -0.206 F 
ATOM     56  C   UNL     1       7.676  -2.463  10.083  1.00  0.00     0.059 A 
ATOM     57  C   UNL     1       5.403  -3.311  10.150  1.00  0.00     0.059 A 
ATOM     58  F   UNL     1       4.639  -4.723   8.445  1.00  0.00    -0.206 F 
ATOM     59  C   UNL     1       6.434  -2.560  10.711  1.00  0.00     0.060 A 
BRANCH  59  60
ATOM     60  S   UNL     1       6.158  -1.665  12.256  1.00  0.00     0.124 S 
ATOM     61  O   UNL     1       6.819  -2.537  13.219  1.00  0.00    -0.237 OA
ATOM     62  O   UNL     1       6.811  -0.387  11.994  1.00  0.00    -0.237 OA
ATOM     63  O   UNL     1       4.702  -1.608  12.347  1.00  0.00    -0.744 OA
ENDBRANCH  59  60
ENDBRANCH  27  52
BRANCH  39  64
ATOM     64  C   UNL     1      10.813  -9.416   6.604  1.00  0.00     0.058 A 
ATOM     65  C   UNL     1      10.318 -10.353   7.523  1.00  0.00     0.135 A 
ATOM     66  C   UNL     1      12.202  -9.315   6.441  1.00  0.00     0.135 A 
ATOM     67  F   UNL     1       8.995 -10.478   7.716  1.00  0.00    -0.206 F 
ATOM     68  C   UNL     1      11.174 -11.147   8.277  1.00  0.00     0.059 A 
ATOM     69  C   UNL     1      13.076 -10.114   7.169  1.00  0.00     0.059 A 
ATOM     70  F   UNL     1      12.719  -8.438   5.566  1.00  0.00    -0.206 F 
ATOM     71  C   UNL     1      12.552 -11.017   8.095  1.00  0.00     0.060 A 
BRANCH  71  72
ATOM     72  S   UNL     1      13.658 -12.063   9.063  1.00  0.00     0.124 S 
ATOM     73  O   UNL     1      13.668 -11.368  10.345  1.00  0.00    -0.237 OA
ATOM     74  O   UNL     1      12.971 -13.351   9.045  1.00  0.00    -0.237 OA
ATOM     75  O   UNL     1      14.908 -12.018   8.311  1.00  0.00    -0.744 OA
ENDBRANCH  71  72
ENDBRANCH  39  64
ENDBRANCH  13  14
ENDBRANCH   6   8
ENDBRANCH   5   6
ENDBRANCH   4   5
ENDBRANCH   3   4
ENDBRANCH   2   3
ENDBRANCH   1   2
BRANCH   1  76
ATOM     76  C   UNL     1       1.974   2.928   1.097  1.00  0.00     0.188 C 
BRANCH  76  77
ATOM     77  O   UNL     1       2.774   4.018   1.564  1.00  0.00    -0.376 OA
BRANCH  77  78
ATOM     78  C   UNL     1       4.144   3.753   1.842  1.00  0.00     0.202 C 
BRANCH  78  79
ATOM     79  C   UNL     1       4.496   3.015   3.141  1.00  0.00     0.261 C 
BRANCH  79  80
ATOM     80  O   UNL     1       3.884   1.743   3.398  1.00  0.00    -0.460 OA
BRANCH  80  81
ATOM     81  C   UNL     1       2.743   1.821   4.130  1.00  0.00     0.338 C 
ATOM     82  O   UNL     1       2.041   2.807   4.272  1.00  0.00    -0.246 OA
BRANCH  81  83
ATOM     83  C   UNL     1       2.467   0.549   4.821  1.00  0.00     0.067 A 
ATOM     84  C   UNL     1       1.379  -0.206   4.364  1.00  0.00     0.016 A 
ATOM     85  C   UNL     1       3.177   0.171   5.980  1.00  0.00    -0.010 A 
ATOM     86  C   UNL     1       0.999  -1.358   5.050  1.00  0.00     0.001 A 
ATOM     87  C   UNL     1       2.765  -0.981   6.665  1.00  0.00     0.009 A 
ATOM     88  C   UNL     1       1.687  -1.740   6.201  1.00  0.00     0.001 A 
BRANCH  85  89
ATOM     89  C   UNL     1       4.372   0.874   6.479  1.00  0.00     0.030 C 
ATOM     90  C   UNL     1       4.438   2.161   6.847  1.00  0.00     0.081 C 
ATOM     91  S   UNL     1       5.916   3.007   7.074  1.00  0.00    -0.054 SA
ATOM     92  C   UNL     1       3.316   3.130   6.912  1.00  0.00     0.266 C 
ATOM     93  C   UNL     1       5.152   4.566   6.733  1.00  0.00     0.148 C 
ATOM     94  N   UNL     1       3.785   4.404   6.610  1.00  0.00    -0.290 N 
ATOM     95  O   UNL     1       2.173   2.824   7.216  1.00  0.00    -0.268 OA
ATOM     96  S   UNL     1       6.085   5.942   6.571  1.00  0.00    -0.052 S 
BRANCH  94  97
ATOM     97  C   UNL     1       2.771   5.427   6.266  1.00  0.00     0.092 C 
ATOM     98  C   UNL     1       2.553   6.437   7.397  1.00  0.00     0.025 C 
ATOM     99  C   UNL     1       2.991   6.103   4.897  1.00  0.00     0.025 C 
ATOM    100  C   UNL     1       1.469   7.450   7.037  1.00  0.00     0.002 C 
ATOM    101  C   UNL     1       1.925   7.148   4.583  1.00  0.00     0.002 C 
ATOM    102  C   UNL     1       1.777   8.152   5.718  1.00  0.00     0.000 C 
ENDBRANCH  94  97
ENDBRANCH  85  89
ENDBRANCH  81  83
ENDBRANCH  80  81
ENDBRANCH  79  80
ENDBRANCH  78  79
ENDBRANCH  77  78
ENDBRANCH  76  77
ENDBRANCH   1  76
TORSDOF 22
