REMARK SMILES COCCC[C@@]1(C(=O)OCCOCCOCCOC(=O)c2ccc(-c3c4nc(c(-c5c(F)cc(S(=O)(=O)[O-])cc5F)c5ccc([nH]5)c(-c5c(F)cc(S(=O)(=O)[O-])cc5F)c5nc(c(-c6c(F)cc(S(=O)(=O)[O-])cc6F)c6ccc3[nH]6)C=C5)C=C4)cc2)CCCN(C(=O)c2sccc2C)C1
REMARK SMILES IDX 13 1 12 2 11 3 10 4 9 5 7 6 8 7 6 8 87 9 99 10 88 11 90 12
REMARK SMILES IDX 89 13 5 14 4 15 3 16 2 17 1 18 91 19 92 20 93 21 94 22 97 23
REMARK SMILES IDX 95 24 96 25 98 26 14 27 15 28 16 29 17 30 18 31 19 32 20 33
REMARK SMILES IDX 21 34 22 35 86 36 23 37 85 38 24 39 25 40 26 41 79 42 27 43
REMARK SMILES IDX 84 44 78 45 80 46 28 47 83 48 77 49 76 50 29 52 63 53 42 54
REMARK SMILES IDX 62 55 43 56 46 57 61 58 81 59 44 60 45 61 60 63 82 64 47 65
REMARK SMILES IDX 30 66 31 67 40 68 32 69 33 70 39 71 41 72 34 73 35 74 36 75
REMARK SMILES IDX 37 76 38 77 64 78 65 79 74 80 66 81 67 82 73 83 75 84 68 85
REMARK SMILES IDX 69 86 70 87 71 88 72 89 48 90 49 91 58 92 50 93 51 94 57 95
REMARK SMILES IDX 59 96 52 97 53 98 54 99 55 100 56 101
REMARK H PARENT 80 51 46 62
REMARK Flexibility Score: inf
ROOT
ATOM      1  C   UNL     1      -0.603  -0.946  -2.385  1.00  0.00     0.188 C 
ENDROOT
BRANCH   1   2
ATOM      2  O   UNL     1      -1.877  -1.325  -1.893  1.00  0.00    -0.376 OA
BRANCH   2   3
ATOM      3  C   UNL     1      -2.004  -1.641  -0.515  1.00  0.00     0.202 C 
BRANCH   3   4
ATOM      4  C   UNL     1      -1.126  -2.765   0.030  1.00  0.00     0.261 C 
BRANCH   4   5
ATOM      5  O   UNL     1       0.262  -2.389   0.112  1.00  0.00    -0.463 OA
BRANCH   5   6
ATOM      6  C   UNL     1       1.141  -3.232  -0.483  1.00  0.00     0.313 C 
ATOM      7  O   UNL     1       0.805  -4.232  -1.112  1.00  0.00    -0.252 OA
BRANCH   6   8
ATOM      8  C   UNL     1       2.623  -2.826  -0.334  1.00  0.00     0.086 C 
ATOM      9  C   UNL     1       3.342  -4.101   0.167  1.00  0.00     0.022 C 
ATOM     10  C   UNL     1       2.878  -1.699   0.689  1.00  0.00     0.138 C 
ATOM     11  C   UNL     1       2.882  -4.475   1.577  1.00  0.00     0.023 C 
ATOM     12  N   UNL     1       2.537  -2.062   2.066  1.00  0.00    -0.337 N 
ATOM     13  C   UNL     1       3.081  -3.327   2.557  1.00  0.00     0.120 C 
BRANCH   8  14
ATOM     14  C   UNL     1       3.063  -2.429  -1.780  1.00  0.00     0.023 C 
BRANCH  14  15
ATOM     15  C   UNL     1       4.319  -1.574  -2.014  1.00  0.00     0.030 C 
BRANCH  15  16
ATOM     16  C   UNL     1       5.679  -2.209  -1.734  1.00  0.00     0.159 C 
BRANCH  16  17
ATOM     17  O   UNL     1       6.197  -2.991  -2.804  1.00  0.00    -0.385 OA
ATOM     18  C   UNL     1       5.501  -4.196  -3.076  1.00  0.00     0.194 C 
ENDBRANCH  16  17
ENDBRANCH  15  16
ENDBRANCH  14  15
ENDBRANCH   8  14
BRANCH  12  19
ATOM     19  C   UNL     1       1.901  -1.094   2.864  1.00  0.00     0.264 C 
ATOM     20  O   UNL     1       1.659   0.032   2.430  1.00  0.00    -0.268 OA
BRANCH  19  21
ATOM     21  C   UNL     1       1.450  -1.485   4.189  1.00  0.00     0.095 A 
ATOM     22  S   UNL     1       2.573  -1.637   5.473  1.00  0.00    -0.138 S 
ATOM     23  C   UNL     1       0.139  -1.645   4.617  1.00  0.00    -0.027 A 
ATOM     24  C   UNL     1       1.349  -2.130   6.559  1.00  0.00     0.066 A 
ATOM     25  C   UNL     1       0.099  -2.068   5.987  1.00  0.00     0.016 A 
ATOM     26  C   UNL     1      -1.082  -1.434   3.781  1.00  0.00     0.046 C 
ENDBRANCH  19  21
ENDBRANCH  12  19
ENDBRANCH   6   8
ENDBRANCH   5   6
ENDBRANCH   4   5
ENDBRANCH   3   4
ENDBRANCH   2   3
ENDBRANCH   1   2
BRANCH   1  27
ATOM     27  C   UNL     1       0.203   0.142  -1.647  1.00  0.00     0.188 C 
BRANCH  27  28
ATOM     28  O   UNL     1      -0.423   1.081  -0.795  1.00  0.00    -0.376 OA
BRANCH  28  29
ATOM     29  C   UNL     1      -1.594   1.753  -1.219  1.00  0.00     0.202 C 
BRANCH  29  30
ATOM     30  C   UNL     1      -1.560   2.556  -2.522  1.00  0.00     0.261 C 
BRANCH  30  31
ATOM     31  O   UNL     1      -1.127   1.803  -3.664  1.00  0.00    -0.460 OA
BRANCH  31  32
ATOM     32  C   UNL     1       0.057   2.184  -4.196  1.00  0.00     0.338 C 
ATOM     33  O   UNL     1       0.773   3.109  -3.820  1.00  0.00    -0.246 OA
BRANCH  32  34
ATOM     34  C   UNL     1       0.488   1.212  -5.216  1.00  0.00     0.060 A 
ATOM     35  C   UNL     1       1.756   0.625  -5.086  1.00  0.00     0.016 A 
ATOM     36  C   UNL     1      -0.317   0.921  -6.318  1.00  0.00     0.016 A 
ATOM     37  C   UNL     1       2.240  -0.224  -6.081  1.00  0.00     0.010 A 
ATOM     38  C   UNL     1       0.178   0.088  -7.325  1.00  0.00     0.010 A 
ATOM     39  C   UNL     1       1.471  -0.460  -7.228  1.00  0.00    -0.014 A 
BRANCH  39  40
ATOM     40  C   UNL     1       2.080  -1.116  -8.411  1.00  0.00     0.031 A 
ATOM     41  C   UNL     1       2.646  -0.245  -9.500  1.00  0.00     0.074 A 
ATOM     42  C   UNL     1       2.125  -2.455  -8.525  1.00  0.00     0.049 A 
ATOM     43  N   UNL     1       3.141  -0.584 -10.662  1.00  0.00    -0.248 NA
ATOM     44  C   UNL     1       2.650   1.204  -9.242  1.00  0.00     0.031 C 
ATOM     45  C   UNL     1       1.651  -3.408  -7.524  1.00  0.00     0.029 A 
ATOM     46  N   UNL     1       2.580  -3.244  -9.553  1.00  0.00    -0.354 N 
ATOM     47  C   UNL     1       3.508   0.607 -11.277  1.00  0.00     0.074 A 
ATOM     48  C   UNL     1       3.159   1.678 -10.370  1.00  0.00     0.031 C 
ATOM     49  C   UNL     1       1.821  -4.656  -7.997  1.00  0.00     0.029 A 
ATOM     50  C   UNL     1       2.384  -4.588  -9.345  1.00  0.00     0.049 A 
ATOM     51  H   UNL     1       3.007  -2.881 -10.363  1.00  0.00     0.167 HD
ATOM     52  C   UNL     1       4.086   0.792 -12.488  1.00  0.00     0.037 A 
ATOM     53  C   UNL     1       2.607  -5.638 -10.161  1.00  0.00     0.037 A 
ATOM     54  C   UNL     1       4.426  -0.273 -13.394  1.00  0.00     0.049 A 
ATOM     55  C   UNL     1       3.183  -5.403 -11.536  1.00  0.00     0.074 A 
ATOM     56  C   UNL     1       5.019  -0.186 -14.641  1.00  0.00     0.029 A 
ATOM     57  N   UNL     1       4.194  -1.619 -13.155  1.00  0.00    -0.354 N 
ATOM     58  N   UNL     1       3.538  -4.274 -12.102  1.00  0.00    -0.248 NA
ATOM     59  C   UNL     1       3.387  -6.587 -12.384  1.00  0.00     0.031 C 
ATOM     60  C   UNL     1       5.106  -1.476 -15.175  1.00  0.00     0.029 A 
ATOM     61  C   UNL     1       4.612  -2.372 -14.240  1.00  0.00     0.049 A 
ATOM     62  H   UNL     1       3.791  -1.986 -12.335  1.00  0.00     0.167 HD
ATOM     63  C   UNL     1       4.032  -4.615 -13.358  1.00  0.00     0.074 A 
ATOM     64  C   UNL     1       3.937  -6.055 -13.467  1.00  0.00     0.031 C 
ATOM     65  C   UNL     1       4.523  -3.808 -14.332  1.00  0.00     0.037 A 
BRANCH  52  66
ATOM     66  C   UNL     1       4.361   2.206 -12.912  1.00  0.00     0.058 A 
ATOM     67  C   UNL     1       5.392   2.963 -12.333  1.00  0.00     0.135 A 
ATOM     68  C   UNL     1       3.595   2.806 -13.925  1.00  0.00     0.135 A 
ATOM     69  F   UNL     1       6.140   2.444 -11.347  1.00  0.00    -0.206 F 
ATOM     70  C   UNL     1       5.637   4.275 -12.726  1.00  0.00     0.059 A 
ATOM     71  C   UNL     1       3.839   4.108 -14.350  1.00  0.00     0.059 A 
ATOM     72  F   UNL     1       2.595   2.127 -14.508  1.00  0.00    -0.206 F 
ATOM     73  C   UNL     1       4.854   4.840 -13.734  1.00  0.00     0.060 A 
BRANCH  73  74
ATOM     74  S   UNL     1       5.181   6.544 -14.231  1.00  0.00     0.124 S 
ATOM     75  O   UNL     1       4.636   7.287 -13.099  1.00  0.00    -0.237 OA
ATOM     76  O   UNL     1       6.635   6.559 -14.358  1.00  0.00    -0.237 OA
ATOM     77  O   UNL     1       4.445   6.680 -15.484  1.00  0.00    -0.744 OA
ENDBRANCH  73  74
ENDBRANCH  52  66
BRANCH  53  78
ATOM     78  C   UNL     1       2.268  -7.015  -9.713  1.00  0.00     0.058 A 
ATOM     79  C   UNL     1       3.271  -7.956  -9.439  1.00  0.00     0.135 A 
ATOM     80  C   UNL     1       0.932  -7.421  -9.562  1.00  0.00     0.135 A 
ATOM     81  F   UNL     1       4.562  -7.620  -9.584  1.00  0.00    -0.206 F 
ATOM     82  C   UNL     1       2.965  -9.255  -9.045  1.00  0.00     0.059 A 
ATOM     83  C   UNL     1       0.601  -8.707  -9.145  1.00  0.00     0.059 A 
ATOM     84  F   UNL     1      -0.065  -6.557  -9.806  1.00  0.00    -0.206 F 
ATOM     85  C   UNL     1       1.626  -9.620  -8.899  1.00  0.00     0.060 A 
BRANCH  85  86
ATOM     86  S   UNL     1       1.240 -11.294  -8.341  1.00  0.00     0.124 S 
ATOM     87  O   UNL     1       1.526 -12.076  -9.538  1.00  0.00    -0.237 OA
ATOM     88  O   UNL     1       2.168 -11.468  -7.228  1.00  0.00    -0.237 OA
ATOM     89  O   UNL     1      -0.168 -11.206  -7.965  1.00  0.00    -0.744 OA
ENDBRANCH  85  86
ENDBRANCH  53  78
BRANCH  65  90
ATOM     90  C   UNL     1       5.035  -4.458 -15.588  1.00  0.00     0.058 A 
ATOM     91  C   UNL     1       4.166  -4.996 -16.550  1.00  0.00     0.135 A 
ATOM     92  C   UNL     1       6.412  -4.487 -15.862  1.00  0.00     0.135 A 
ATOM     93  F   UNL     1       2.841  -4.999 -16.337  1.00  0.00    -0.206 F 
ATOM     94  C   UNL     1       4.646  -5.557 -17.731  1.00  0.00     0.059 A 
ATOM     95  C   UNL     1       6.912  -5.019 -17.046  1.00  0.00     0.059 A 
ATOM     96  F   UNL     1       7.287  -3.975 -14.981  1.00  0.00    -0.206 F 
ATOM     97  C   UNL     1       6.021  -5.562 -17.971  1.00  0.00     0.060 A 
BRANCH  97  98
ATOM     98  S   UNL     1       6.629  -6.257 -19.523  1.00  0.00     0.124 S 
ATOM     99  O   UNL     1       6.486  -7.688 -19.280  1.00  0.00    -0.237 OA
ATOM    100  O   UNL     1       5.712  -5.685 -20.504  1.00  0.00    -0.237 OA
ATOM    101  O   UNL     1       8.002  -5.767 -19.600  1.00  0.00    -0.744 OA
ENDBRANCH  97  98
ENDBRANCH  65  90
ENDBRANCH  39  40
ENDBRANCH  32  34
ENDBRANCH  31  32
ENDBRANCH  30  31
ENDBRANCH  29  30
ENDBRANCH  28  29
ENDBRANCH  27  28
ENDBRANCH   1  27
TORSDOF 26
