REMARK SMILES CC[C@](C(=O)OCCOCCOCCOC(=O)c1ccc(-c2c3nc(c(-c4c(F)cc(S(=O)(=O)[O-])cc4F)c4ccc([nH]4)c(-c4c(F)cc(S(=O)(=O)[O-])cc4F)c4nc(c(-c5c(F)cc(S(=O)(=O)[O-])cc5F)c5ccc2[nH]5)C=C4)C=C3)cc1)(C(=O)OC(C)(C)C)c1ccc(N)c(O)c1
REMARK SMILES IDX 10 1 9 2 8 3 7 4 6 5 4 6 5 7 3 8 2 9 1 10 84 11 85 12 86 13
REMARK SMILES IDX 87 14 88 15 89 16 90 17 91 18 92 19 98 20 93 21 96 22 94 23
REMARK SMILES IDX 97 24 95 26 11 29 12 30 13 31 14 32 15 33 16 34 17 35 18 36
REMARK SMILES IDX 19 37 83 38 20 39 82 40 21 41 22 42 23 43 76 44 24 45 81 46
REMARK SMILES IDX 75 47 77 48 25 49 80 50 74 51 73 52 26 54 60 55 39 56 59 57
REMARK SMILES IDX 40 58 43 59 58 60 78 61 41 62 42 63 57 65 79 66 44 67 27 68
REMARK SMILES IDX 28 69 37 70 29 71 30 72 36 73 38 74 31 75 32 76 33 77 34 78
REMARK SMILES IDX 35 79 61 80 62 81 71 82 63 83 64 84 70 85 72 86 65 87 66 88
REMARK SMILES IDX 67 89 68 90 69 91 45 92 46 93 55 94 47 95 48 96 54 97 56 98
REMARK SMILES IDX 49 99 50 100 51 101 52 102 53 103
REMARK H PARENT 97 25 95 27 95 28 77 53 43 64
REMARK Flexibility Score: inf
ROOT
ATOM      1  C   UNL     1       0.677   1.257  -0.519  1.00  0.00     0.188 C 
ENDROOT
BRANCH   1   2
ATOM      2  O   UNL     1      -0.414   1.716  -1.302  1.00  0.00    -0.376 OA
BRANCH   2   3
ATOM      3  C   UNL     1      -1.525   0.853  -1.522  1.00  0.00     0.202 C 
BRANCH   3   4
ATOM      4  C   UNL     1      -1.287  -0.605  -1.959  1.00  0.00     0.261 C 
BRANCH   4   5
ATOM      5  O   UNL     1      -0.641  -1.465  -0.988  1.00  0.00    -0.462 OA
BRANCH   5   6
ATOM      6  C   UNL     1       0.556  -2.019  -1.345  1.00  0.00     0.328 C 
ATOM      7  O   UNL     1       1.093  -1.777  -2.423  1.00  0.00    -0.251 OA
BRANCH   6   8
ATOM      8  C   UNL     1       1.139  -3.049  -0.314  1.00  0.00     0.189 C 
BRANCH   8   9
ATOM      9  C   UNL     1       0.528  -3.039   1.142  1.00  0.00     0.032 C 
ATOM     10  C   UNL     1       1.392  -2.534   2.307  1.00  0.00     0.006 C 
ENDBRANCH   8   9
BRANCH   8  11
ATOM     11  C   UNL     1       0.682  -4.379  -0.954  1.00  0.00     0.328 C 
ATOM     12  O   UNL     1       1.404  -5.256  -1.404  1.00  0.00    -0.250 OA
BRANCH  11  13
ATOM     13  O   UNL     1      -0.687  -4.426  -0.974  1.00  0.00    -0.459 OA
BRANCH  13  14
ATOM     14  C   UNL     1      -1.367  -5.485  -1.686  1.00  0.00     0.104 C 
ATOM     15  C   UNL     1      -1.022  -5.428  -3.179  1.00  0.00     0.056 C 
ATOM     16  C   UNL     1      -1.076  -6.850  -1.056  1.00  0.00     0.056 C 
ATOM     17  C   UNL     1      -2.863  -5.178  -1.521  1.00  0.00     0.056 C 
ENDBRANCH  13  14
ENDBRANCH  11  13
ENDBRANCH   8  11
BRANCH   8  18
ATOM     18  C   UNL     1       2.693  -2.949  -0.230  1.00  0.00    -0.016 A 
ATOM     19  C   UNL     1       3.466  -4.041   0.213  1.00  0.00     0.008 A 
ATOM     20  C   UNL     1       3.378  -1.747  -0.485  1.00  0.00     0.054 A 
ATOM     21  C   UNL     1       4.857  -3.949   0.357  1.00  0.00     0.030 A 
ATOM     22  C   UNL     1       4.764  -1.665  -0.334  1.00  0.00     0.138 A 
ATOM     23  C   UNL     1       5.525  -2.766   0.063  1.00  0.00     0.074 A 
BRANCH  22  24
ATOM     24  O   UNL     1       5.421  -0.489  -0.585  1.00  0.00    -0.506 OA
ATOM     25  H   UNL     1       6.351  -0.441  -0.481  1.00  0.00     0.293 HD
ENDBRANCH  22  24
BRANCH  23  26
ATOM     26  N   UNL     1       6.889  -2.636   0.294  1.00  0.00    -0.396 N 
ATOM     27  H   UNL     1       7.417  -3.418   0.574  1.00  0.00     0.156 HD
ATOM     28  H   UNL     1       7.326  -1.762   0.178  1.00  0.00     0.156 HD
ENDBRANCH  23  26
ENDBRANCH   8  18
ENDBRANCH   6   8
ENDBRANCH   5   6
ENDBRANCH   4   5
ENDBRANCH   3   4
ENDBRANCH   2   3
ENDBRANCH   1   2
BRANCH   1  29
ATOM     29  C   UNL     1       0.372   0.516   0.787  1.00  0.00     0.188 C 
BRANCH  29  30
ATOM     30  O   UNL     1      -0.991   0.464   1.133  1.00  0.00    -0.376 OA
BRANCH  30  31
ATOM     31  C   UNL     1      -1.472   1.310   2.161  1.00  0.00     0.202 C 
BRANCH  31  32
ATOM     32  C   UNL     1      -1.001   2.768   2.283  1.00  0.00     0.261 C 
BRANCH  32  33
ATOM     33  O   UNL     1       0.388   3.043   2.058  1.00  0.00    -0.460 OA
BRANCH  33  34
ATOM     34  C   UNL     1       1.280   2.617   2.988  1.00  0.00     0.338 C 
ATOM     35  O   UNL     1       1.033   2.009   4.006  1.00  0.00    -0.246 OA
BRANCH  34  36
ATOM     36  C   UNL     1       2.631   2.816   2.396  1.00  0.00     0.060 A 
ATOM     37  C   UNL     1       3.509   1.727   2.286  1.00  0.00     0.016 A 
ATOM     38  C   UNL     1       3.003   4.070   1.908  1.00  0.00     0.016 A 
ATOM     39  C   UNL     1       4.772   1.901   1.709  1.00  0.00     0.010 A 
ATOM     40  C   UNL     1       4.272   4.247   1.353  1.00  0.00     0.010 A 
ATOM     41  C   UNL     1       5.174   3.171   1.272  1.00  0.00    -0.014 A 
BRANCH  41  42
ATOM     42  C   UNL     1       6.594   3.455   0.946  1.00  0.00     0.031 A 
ATOM     43  C   UNL     1       7.470   3.975   2.053  1.00  0.00     0.074 A 
ATOM     44  C   UNL     1       7.090   3.307  -0.296  1.00  0.00     0.049 A 
ATOM     45  N   UNL     1       8.680   4.466   1.996  1.00  0.00    -0.248 NA
ATOM     46  C   UNL     1       6.891   3.950   3.408  1.00  0.00     0.031 C 
ATOM     47  C   UNL     1       6.362   2.766  -1.440  1.00  0.00     0.029 A 
ATOM     48  N   UNL     1       8.329   3.619  -0.804  1.00  0.00    -0.354 N 
ATOM     49  C   UNL     1       9.004   4.815   3.301  1.00  0.00     0.074 A 
ATOM     50  C   UNL     1       7.857   4.505   4.124  1.00  0.00     0.031 C 
ATOM     51  C   UNL     1       7.168   2.781  -2.519  1.00  0.00     0.029 A 
ATOM     52  C   UNL     1       8.445   3.396  -2.158  1.00  0.00     0.049 A 
ATOM     53  H   UNL     1       9.065   3.968  -0.252  1.00  0.00     0.167 HD
ATOM     54  C   UNL     1      10.156   5.347   3.772  1.00  0.00     0.037 A 
ATOM     55  C   UNL     1       9.450   3.695  -3.008  1.00  0.00     0.037 A 
ATOM     56  C   UNL     1      11.286   5.674   2.945  1.00  0.00     0.049 A 
ATOM     57  C   UNL     1      10.684   4.391  -2.477  1.00  0.00     0.074 A 
ATOM     58  C   UNL     1      12.487   6.250   3.319  1.00  0.00     0.029 A 
ATOM     59  N   UNL     1      11.354   5.457   1.577  1.00  0.00    -0.354 N 
ATOM     60  N   UNL     1      10.973   4.737  -1.244  1.00  0.00    -0.248 NA
ATOM     61  C   UNL     1      11.723   4.750  -3.455  1.00  0.00     0.031 C 
ATOM     62  C   UNL     1      13.261   6.428   2.170  1.00  0.00     0.029 A 
ATOM     63  C   UNL     1      12.572   5.900   1.090  1.00  0.00     0.049 A 
ATOM     64  H   UNL     1      10.642   5.050   1.032  1.00  0.00     0.167 HD
ATOM     65  C   UNL     1      12.246   5.303  -1.294  1.00  0.00     0.074 A 
ATOM     66  C   UNL     1      12.668   5.260  -2.677  1.00  0.00     0.031 C 
ATOM     67  C   UNL     1      12.998   5.808  -0.285  1.00  0.00     0.037 A 
BRANCH  54  68
ATOM     68  C   UNL     1      10.237   5.636   5.244  1.00  0.00     0.058 A 
ATOM     69  C   UNL     1      10.319   4.606   6.194  1.00  0.00     0.135 A 
ATOM     70  C   UNL     1      10.264   6.960   5.709  1.00  0.00     0.135 A 
ATOM     71  F   UNL     1      10.272   3.321   5.805  1.00  0.00    -0.206 F 
ATOM     72  C   UNL     1      10.407   4.878   7.555  1.00  0.00     0.059 A 
ATOM     73  C   UNL     1      10.382   7.256   7.063  1.00  0.00     0.059 A 
ATOM     74  F   UNL     1      10.180   7.984   4.844  1.00  0.00    -0.206 F 
ATOM     75  C   UNL     1      10.442   6.207   7.979  1.00  0.00     0.060 A 
BRANCH  75  76
ATOM     76  S   UNL     1      10.572   6.542   9.748  1.00  0.00     0.124 S 
ATOM     77  O   UNL     1       9.255   6.124  10.221  1.00  0.00    -0.237 OA
ATOM     78  O   UNL     1      11.687   5.688  10.143  1.00  0.00    -0.237 OA
ATOM     79  O   UNL     1      10.832   7.976   9.806  1.00  0.00    -0.744 OA
ENDBRANCH  75  76
ENDBRANCH  54  68
BRANCH  55  80
ATOM     80  C   UNL     1       9.339   3.381  -4.463  1.00  0.00     0.058 A 
ATOM     81  C   UNL     1      10.212   2.467  -5.074  1.00  0.00     0.135 A 
ATOM     82  C   UNL     1       8.402   4.029  -5.284  1.00  0.00     0.135 A 
ATOM     83  F   UNL     1      11.139   1.831  -4.341  1.00  0.00    -0.206 F 
ATOM     84  C   UNL     1      10.185   2.233  -6.447  1.00  0.00     0.059 A 
ATOM     85  C   UNL     1       8.333   3.787  -6.653  1.00  0.00     0.059 A 
ATOM     86  F   UNL     1       7.538   4.910  -4.755  1.00  0.00    -0.206 F 
ATOM     87  C   UNL     1       9.242   2.901  -7.229  1.00  0.00     0.060 A 
BRANCH  87  88
ATOM     88  S   UNL     1       9.211   2.588  -9.007  1.00  0.00     0.124 S 
ATOM     89  O   UNL     1      10.431   3.257  -9.444  1.00  0.00    -0.237 OA
ATOM     90  O   UNL     1       9.228   1.129  -9.062  1.00  0.00    -0.237 OA
ATOM     91  O   UNL     1       7.963   3.211  -9.437  1.00  0.00    -0.744 OA
ENDBRANCH  87  88
ENDBRANCH  55  80
BRANCH  67  92
ATOM     92  C   UNL     1      14.394   6.275  -0.602  1.00  0.00     0.058 A 
ATOM     93  C   UNL     1      14.647   7.462  -1.306  1.00  0.00     0.135 A 
ATOM     94  C   UNL     1      15.498   5.564  -0.100  1.00  0.00     0.135 A 
ATOM     95  F   UNL     1      13.631   8.178  -1.811  1.00  0.00    -0.206 F 
ATOM     96  C   UNL     1      15.945   7.922  -1.510  1.00  0.00     0.059 A 
ATOM     97  C   UNL     1      16.801   6.021  -0.265  1.00  0.00     0.059 A 
ATOM     98  F   UNL     1      15.313   4.427   0.590  1.00  0.00    -0.206 F 
ATOM     99  C   UNL     1      17.016   7.200  -0.976  1.00  0.00     0.060 A 
BRANCH  99 100
ATOM    100  S   UNL     1      18.688   7.846  -1.188  1.00  0.00     0.124 S 
ATOM    101  O   UNL     1      18.916   7.618  -2.611  1.00  0.00    -0.237 OA
ATOM    102  O   UNL     1      18.536   9.241  -0.786  1.00  0.00    -0.237 OA
ATOM    103  O   UNL     1      19.489   7.024  -0.286  1.00  0.00    -0.744 OA
ENDBRANCH  99 100
ENDBRANCH  67  92
ENDBRANCH  41  42
ENDBRANCH  34  36
ENDBRANCH  33  34
ENDBRANCH  32  33
ENDBRANCH  31  32
ENDBRANCH  30  31
ENDBRANCH  29  30
ENDBRANCH   1  29
TORSDOF 27
