REMARK SMILES CC[N@H+](C)CCn1c(SCC(=O)OCCOCCOCCOC(=O)c2ccc(-c3c4nc(c(-c5c(F)cc(S(=O)(=O)[O-])cc5F)c5ccc([nH]5)c(-c5c(F)cc(S(=O)(=O)[O-])cc5F)c5nc(c(-c6c(F)cc(S(=O)(=O)[O-])cc6F)c6ccc3[nH]6)C=C5)C=C4)cc2)nc2cnccc21
REMARK SMILES IDX 16 1 15 2 14 3 13 4 11 5 12 6 10 7 9 8 8 9 7 10 97 11 91 12
REMARK SMILES IDX 92 13 96 14 93 15 95 16 94 17 6 18 5 19 3 20 4 21 2 23 1 24
REMARK SMILES IDX 17 25 18 26 19 27 20 28 21 29 22 30 23 31 24 32 25 33 26 34
REMARK SMILES IDX 90 35 27 36 89 37 28 38 29 39 30 40 83 41 31 42 88 43 82 44
REMARK SMILES IDX 84 45 32 46 87 47 81 48 80 49 33 51 67 52 46 53 66 54 47 55
REMARK SMILES IDX 50 56 65 57 85 58 48 59 49 60 64 62 86 63 51 64 34 65 35 66
REMARK SMILES IDX 44 67 36 68 37 69 43 70 45 71 38 72 39 73 40 74 41 75 42 76
REMARK SMILES IDX 68 77 69 78 78 79 70 80 71 81 77 82 79 83 72 84 73 85 74 86
REMARK SMILES IDX 75 87 76 88 52 89 53 90 62 91 54 92 55 93 61 94 63 95 56 96
REMARK SMILES IDX 57 97 58 98 59 99 60 100
REMARK H PARENT 3 22 84 50 50 61
REMARK Flexibility Score: inf
ROOT
ATOM      1  O   UNL     1       7.642   0.688   2.144  1.00  0.00    -0.376 OA
ENDROOT
BRANCH   1   2
ATOM      2  C   UNL     1       8.567  -0.300   2.602  1.00  0.00     0.202 C 
BRANCH   2   3
ATOM      3  C   UNL     1       8.157  -1.063   3.872  1.00  0.00     0.261 C 
BRANCH   3   4
ATOM      4  O   UNL     1       7.425  -2.287   3.579  1.00  0.00    -0.463 OA
BRANCH   4   5
ATOM      5  C   UNL     1       6.294  -2.517   4.304  1.00  0.00     0.316 C 
ATOM      6  O   UNL     1       5.742  -1.663   4.990  1.00  0.00    -0.251 OA
BRANCH   5   7
ATOM      7  C   UNL     1       5.755  -3.944   4.216  1.00  0.00     0.200 C 
BRANCH   7   8
ATOM      8  S   UNL     1       5.880  -4.723   2.575  1.00  0.00    -0.076 SA
BRANCH   8   9
ATOM      9  C   UNL     1       4.318  -4.628   1.780  1.00  0.00     0.169 A 
ATOM     10  N   UNL     1       3.623  -3.451   1.530  1.00  0.00    -0.313 N 
ATOM     11  C   UNL     1       2.775  -3.706   0.475  1.00  0.00     0.072 A 
ATOM     12  N   UNL     1       3.788  -5.639   1.132  1.00  0.00    -0.221 NA
ATOM     13  C   UNL     1       2.825  -5.093   0.317  1.00  0.00     0.108 A 
ATOM     14  C   UNL     1       1.964  -2.955  -0.372  1.00  0.00     0.049 A 
ATOM     15  C   UNL     1       1.987  -5.713  -0.623  1.00  0.00     0.141 A 
ATOM     16  C   UNL     1       1.192  -3.642  -1.302  1.00  0.00     0.113 A 
ATOM     17  N   UNL     1       1.173  -4.980  -1.430  1.00  0.00    -0.262 NA
BRANCH  10  18
ATOM     18  C   UNL     1       3.812  -2.331   2.404  1.00  0.00     0.186 C 
BRANCH  18  19
ATOM     19  C   UNL     1       3.183  -0.927   2.422  1.00  0.00     0.284 C 
BRANCH  19  20
ATOM     20  N   UNL     1       1.654  -0.640   2.608  1.00  0.00    -0.336 N 
ATOM     21  C   UNL     1       1.257  -2.101   3.272  1.00  0.00     0.332 C 
ATOM     22  H   UNL     1       1.137   0.116   2.158  1.00  0.00     0.347 HD
BRANCH  20  23
ATOM     23  C   UNL     1       0.472   1.069   2.330  1.00  0.00     0.258 C 
ATOM     24  C   UNL     1      -0.404   1.752   0.973  1.00  0.00     0.071 C 
ENDBRANCH  20  23
ENDBRANCH  19  20
ENDBRANCH  18  19
ENDBRANCH  10  18
ENDBRANCH   8   9
ENDBRANCH   7   8
ENDBRANCH   5   7
ENDBRANCH   4   5
ENDBRANCH   3   4
ENDBRANCH   2   3
ENDBRANCH   1   2
BRANCH   1  25
ATOM     25  C   UNL     1       6.346   0.223   1.796  1.00  0.00     0.188 C 
BRANCH  25  26
ATOM     26  C   UNL     1       6.328  -0.817   0.672  1.00  0.00     0.188 C 
BRANCH  26  27
ATOM     27  O   UNL     1       6.647  -0.208  -0.576  1.00  0.00    -0.376 OA
BRANCH  27  28
ATOM     28  C   UNL     1       5.721  -0.562  -1.608  1.00  0.00     0.202 C 
BRANCH  28  29
ATOM     29  C   UNL     1       4.466   0.343  -1.648  1.00  0.00     0.261 C 
BRANCH  29  30
ATOM     30  O   UNL     1       3.625   0.239  -0.477  1.00  0.00    -0.460 OA
BRANCH  30  31
ATOM     31  C   UNL     1       2.276   0.417  -0.604  1.00  0.00     0.338 C 
ATOM     32  O   UNL     1       1.650   0.513  -1.643  1.00  0.00    -0.246 OA
BRANCH  31  33
ATOM     33  C   UNL     1       1.657   0.372   0.755  1.00  0.00     0.060 A 
ATOM     34  C   UNL     1       2.527   1.304   2.042  1.00  0.00     0.016 A 
ATOM     35  C   UNL     1       0.174  -0.623   1.175  1.00  0.00     0.016 A 
ATOM     36  C   UNL     1       2.041   1.129   3.775  1.00  0.00     0.010 A 
ATOM     37  C   UNL     1      -0.433  -0.658   2.904  1.00  0.00     0.010 A 
ATOM     38  C   UNL     1       0.606   0.141   4.223  1.00  0.00    -0.014 A 
BRANCH  38  39
ATOM     39  C   UNL     1       0.435  -0.066   5.671  1.00  0.00     0.031 A 
ATOM     40  C   UNL     1      -0.750   0.628   6.155  1.00  0.00     0.074 A 
ATOM     41  C   UNL     1       1.267  -0.710   6.539  1.00  0.00     0.049 A 
ATOM     42  N   UNL     1      -0.730   1.809   6.677  1.00  0.00    -0.248 NA
ATOM     43  C   UNL     1      -2.084   0.082   5.894  1.00  0.00     0.031 C 
ATOM     44  C   UNL     1       2.494  -1.443   6.220  1.00  0.00     0.029 A 
ATOM     45  N   UNL     1       1.178  -0.925   7.904  1.00  0.00    -0.354 N 
ATOM     46  C   UNL     1      -2.010   1.971   7.150  1.00  0.00     0.074 A 
ATOM     47  C   UNL     1      -2.847   1.047   6.415  1.00  0.00     0.031 C 
ATOM     48  C   UNL     1       2.857  -2.249   7.245  1.00  0.00     0.029 A 
ATOM     49  C   UNL     1       2.030  -1.930   8.393  1.00  0.00     0.049 A 
ATOM     50  H   UNL     1       0.568  -0.415   8.484  1.00  0.00     0.167 HD
ATOM     51  C   UNL     1      -2.194   2.470   8.398  1.00  0.00     0.037 A 
ATOM     52  C   UNL     1       2.182  -2.404   9.662  1.00  0.00     0.037 A 
ATOM     53  C   UNL     1      -1.024   3.095   8.950  1.00  0.00     0.049 A 
ATOM     54  C   UNL     1       1.914  -1.270  10.565  1.00  0.00     0.074 A 
ATOM     55  C   UNL     1      -0.291   4.232   8.685  1.00  0.00     0.029 A 
ATOM     56  N   UNL     1      -0.230   2.281   9.716  1.00  0.00    -0.354 N 
ATOM     57  N   UNL     1       2.731  -0.264  10.705  1.00  0.00    -0.248 NA
ATOM     58  C   UNL     1       0.602  -1.112  11.181  1.00  0.00     0.031 C 
ATOM     59  C   UNL     1       0.997   4.047   9.266  1.00  0.00     0.029 A 
ATOM     60  C   UNL     1       1.028   2.808   9.892  1.00  0.00     0.049 A 
ATOM     61  H   UNL     1      -0.526   1.421  10.094  1.00  0.00     0.167 HD
ATOM     62  C   UNL     1       1.893   0.787  10.987  1.00  0.00     0.074 A 
ATOM     63  C   UNL     1       0.657   0.190  11.466  1.00  0.00     0.031 C 
ATOM     64  C   UNL     1       2.112   1.998  10.408  1.00  0.00     0.037 A 
BRANCH  51  65
ATOM     65  C   UNL     1      -3.293   1.917   9.240  1.00  0.00     0.058 A 
ATOM     66  C   UNL     1      -4.041   2.744  10.078  1.00  0.00     0.135 A 
ATOM     67  C   UNL     1      -3.542   0.527   9.312  1.00  0.00     0.135 A 
ATOM     68  F   UNL     1      -3.789   4.060  10.131  1.00  0.00    -0.206 F 
ATOM     69  C   UNL     1      -5.054   2.226  10.880  1.00  0.00     0.059 A 
ATOM     70  C   UNL     1      -4.586  -0.003  10.048  1.00  0.00     0.059 A 
ATOM     71  F   UNL     1      -2.743  -0.352   8.686  1.00  0.00    -0.206 F 
ATOM     72  C   UNL     1      -5.337   0.858  10.833  1.00  0.00     0.060 A 
BRANCH  72  73
ATOM     73  S   UNL     1      -6.715   0.209  11.793  1.00  0.00     0.124 S 
ATOM     74  O   UNL     1      -6.138   0.164  13.131  1.00  0.00    -0.237 OA
ATOM     75  O   UNL     1      -7.744   1.221  11.572  1.00  0.00    -0.237 OA
ATOM     76  O   UNL     1      -6.976  -1.083  11.166  1.00  0.00    -0.744 OA
ENDBRANCH  72  73
ENDBRANCH  51  65
BRANCH  52  77
ATOM     77  C   UNL     1       2.597  -3.721  10.236  1.00  0.00     0.058 A 
ATOM     78  C   UNL     1       2.870  -3.850  11.617  1.00  0.00     0.135 A 
ATOM     79  C   UNL     1       2.389  -4.925   9.541  1.00  0.00     0.135 A 
ATOM     80  F   UNL     1       3.113  -2.768  12.372  1.00  0.00    -0.206 F 
ATOM     81  C   UNL     1       2.805  -5.072  12.290  1.00  0.00     0.059 A 
ATOM     82  C   UNL     1       2.330  -6.165  10.193  1.00  0.00     0.059 A 
ATOM     83  F   UNL     1       2.139  -4.917   8.222  1.00  0.00    -0.206 F 
ATOM     84  C   UNL     1       2.485  -6.221  11.576  1.00  0.00     0.060 A 
BRANCH  84  85
ATOM     85  S   UNL     1       2.116  -7.736  12.497  1.00  0.00     0.124 S 
ATOM     86  O   UNL     1       3.416  -8.076  13.064  1.00  0.00    -0.237 OA
ATOM     87  O   UNL     1       1.109  -7.275  13.449  1.00  0.00    -0.237 OA
ATOM     88  O   UNL     1       1.624  -8.646  11.467  1.00  0.00    -0.744 OA
ENDBRANCH  84  85
ENDBRANCH  52  77
BRANCH  64  89
ATOM     89  C   UNL     1       3.537   2.424  10.196  1.00  0.00     0.058 A 
ATOM     90  C   UNL     1       4.456   1.823   9.319  1.00  0.00     0.135 A 
ATOM     91  C   UNL     1       3.980   3.548  10.914  1.00  0.00     0.135 A 
ATOM     92  F   UNL     1       4.103   0.778   8.554  1.00  0.00    -0.206 F 
ATOM     93  C   UNL     1       5.759   2.312   9.176  1.00  0.00     0.059 A 
ATOM     94  C   UNL     1       5.260   4.070  10.765  1.00  0.00     0.059 A 
ATOM     95  F   UNL     1       3.145   4.177  11.758  1.00  0.00    -0.206 F 
ATOM     96  C   UNL     1       6.149   3.442   9.898  1.00  0.00     0.060 A 
BRANCH  96  97
ATOM     97  S   UNL     1       7.799   4.133   9.641  1.00  0.00     0.124 S 
ATOM     98  O   UNL     1       8.655   3.136  10.274  1.00  0.00    -0.237 OA
ATOM     99  O   UNL     1       7.886   4.212   8.186  1.00  0.00    -0.237 OA
ATOM    100  O   UNL     1       7.738   5.425  10.323  1.00  0.00    -0.744 OA
ENDBRANCH  96  97
ENDBRANCH  64  89
ENDBRANCH  38  39
ENDBRANCH  31  33
ENDBRANCH  30  31
ENDBRANCH  29  30
ENDBRANCH  28  29
ENDBRANCH  27  28
ENDBRANCH  26  27
ENDBRANCH  25  26
ENDBRANCH   1  25
TORSDOF 26
