REMARK SMILES CCC(=O)N1CCC[C@](C[C@H]2CC(c3ccc(C)cc3)=NO2)(C(=O)OCCOCCOCCOC(=O)c2ccc(-c3c4nc(c(-c5c(F)cc(S(=O)(=O)[O-])cc5F)c5ccc([nH]5)c(-c5c(F)cc(S(=O)(=O)[O-])cc5F)c5nc(c(-c6c(F)cc(S(=O)(=O)[O-])cc6F)c6ccc3[nH]6)C=C5)C=C4)cc2)C1
REMARK SMILES IDX 29 1 28 2 27 3 26 4 25 5 23 6 24 7 9 8 5 9 6 10 103 11 7 12
REMARK SMILES IDX 8 13 3 14 4 15 2 16 1 17 10 18 11 19 12 20 22 21 13 22 21 23
REMARK SMILES IDX 14 24 15 25 20 26 16 27 19 28 17 29 18 30 30 31 31 32 32 33
REMARK SMILES IDX 33 34 34 35 35 36 36 37 37 38 38 39 102 40 39 41 101 42
REMARK SMILES IDX 40 43 41 44 42 45 95 46 43 47 100 48 94 49 96 50 44 51 99 52
REMARK SMILES IDX 93 53 92 54 45 56 79 57 58 58 78 59 59 60 62 61 77 62 97 63
REMARK SMILES IDX 60 64 61 65 76 67 98 68 63 69 46 70 47 71 56 72 48 73 49 74
REMARK SMILES IDX 55 75 57 76 50 77 51 78 52 79 53 80 54 81 80 82 81 83 90 84
REMARK SMILES IDX 82 85 83 86 89 87 91 88 84 89 85 90 86 91 87 92 88 93 64 94
REMARK SMILES IDX 65 95 74 96 66 97 67 98 73 99 75 100 68 101 69 102 70 103
REMARK SMILES IDX 71 104 72 105
REMARK H PARENT 96 55 62 66
REMARK Flexibility Score: inf
ROOT
ATOM      1  C   UNL     1       1.034  -6.825  -2.356  1.00  0.00     0.188 C 
ENDROOT
BRANCH   1   2
ATOM      2  O   UNL     1       0.395  -5.919  -3.247  1.00  0.00    -0.376 OA
BRANCH   2   3
ATOM      3  C   UNL     1       0.877  -5.248  -4.435  1.00  0.00     0.202 C 
BRANCH   3   4
ATOM      4  C   UNL     1       2.192  -4.208  -4.903  1.00  0.00     0.261 C 
BRANCH   4   5
ATOM      5  O   UNL     1       3.130  -2.791  -4.145  1.00  0.00    -0.463 OA
BRANCH   5   6
ATOM      6  C   UNL     1       3.429  -1.942  -2.918  1.00  0.00     0.314 C 
ATOM      7  O   UNL     1       2.751  -1.838  -1.893  1.00  0.00    -0.252 OA
BRANCH   6   8
ATOM      8  C   UNL     1       4.757  -1.141  -2.829  1.00  0.00     0.089 C 
ATOM      9  N   UNL     1       3.357   0.892  -3.055  1.00  0.00    -0.342 N 
ATOM     10  C   UNL     1       3.691   1.031  -4.464  1.00  0.00     0.119 C 
ATOM     11  C   UNL     1       4.377   0.261  -2.275  1.00  0.00     0.138 C 
ATOM     12  C   UNL     1       4.421  -0.169  -5.114  1.00  0.00     0.023 C 
ATOM     13  C   UNL     1       5.291  -1.075  -4.226  1.00  0.00     0.022 C 
BRANCH   9  14
ATOM     14  C   UNL     1       2.247   1.535  -2.519  1.00  0.00     0.222 C 
ATOM     15  O   UNL     1       1.331   1.919  -3.258  1.00  0.00    -0.275 OA
BRANCH  14  16
ATOM     16  C   UNL     1       2.214   1.982  -1.046  1.00  0.00     0.097 C 
ATOM     17  C   UNL     1       2.263   0.984   0.097  1.00  0.00     0.014 C 
ENDBRANCH  14  16
ENDBRANCH   9  14
BRANCH   8  18
ATOM     18  C   UNL     1       5.768  -1.709  -1.743  1.00  0.00     0.069 C 
BRANCH  18  19
ATOM     19  C   UNL     1       7.092  -0.946  -1.324  1.00  0.00     0.212 C 
ATOM     20  C   UNL     1       8.194  -0.791  -2.356  1.00  0.00     0.108 C 
ATOM     21  O   UNL     1       6.909   0.389  -0.805  1.00  0.00    -0.392 OA
ATOM     22  C   UNL     1       8.052   0.667  -2.652  1.00  0.00     0.091 C 
ATOM     23  N   UNL     1       7.425   1.336  -1.744  1.00  0.00    -0.090 NA
BRANCH  22  24
ATOM     24  C   UNL     1       8.490   1.245  -3.942  1.00  0.00    -0.001 A 
ATOM     25  C   UNL     1       7.556   1.225  -4.971  1.00  0.00     0.010 A 
ATOM     26  C   UNL     1       9.734   1.798  -4.200  1.00  0.00     0.010 A 
ATOM     27  C   UNL     1       7.878   1.515  -6.287  1.00  0.00     0.004 A 
ATOM     28  C   UNL     1      10.044   2.205  -5.516  1.00  0.00     0.004 A 
ATOM     29  C   UNL     1       9.141   2.005  -6.578  1.00  0.00    -0.051 A 
ATOM     30  C   UNL     1       9.460   2.382  -7.993  1.00  0.00     0.044 C 
ENDBRANCH  22  24
ENDBRANCH  18  19
ENDBRANCH   8  18
ENDBRANCH   6   8
ENDBRANCH   5   6
ENDBRANCH   4   5
ENDBRANCH   3   4
ENDBRANCH   2   3
ENDBRANCH   1   2
BRANCH   1  31
ATOM     31  C   UNL     1       1.903  -7.908  -2.916  1.00  0.00     0.188 C 
BRANCH  31  32
ATOM     32  O   UNL     1       2.584  -7.342  -4.014  1.00  0.00    -0.376 OA
BRANCH  32  33
ATOM     33  C   UNL     1       3.033  -8.277  -4.959  1.00  0.00     0.202 C 
BRANCH  33  34
ATOM     34  C   UNL     1       4.165  -9.127  -4.395  1.00  0.00     0.261 C 
BRANCH  34  35
ATOM     35  O   UNL     1       5.396  -8.378  -4.231  1.00  0.00    -0.460 OA
BRANCH  35  36
ATOM     36  C   UNL     1       5.761  -7.924  -2.974  1.00  0.00     0.338 C 
ATOM     37  O   UNL     1       6.722  -8.355  -2.385  1.00  0.00    -0.246 OA
BRANCH  36  38
ATOM     38  C   UNL     1       5.071  -6.644  -2.638  1.00  0.00     0.060 A 
ATOM     39  C   UNL     1       4.514  -6.204  -1.433  1.00  0.00     0.016 A 
ATOM     40  C   UNL     1       5.005  -5.755  -3.638  1.00  0.00     0.016 A 
ATOM     41  C   UNL     1       3.511  -5.131  -1.344  1.00  0.00     0.010 A 
ATOM     42  C   UNL     1       4.110  -4.705  -3.472  1.00  0.00     0.010 A 
ATOM     43  C   UNL     1       3.033  -4.468  -2.468  1.00  0.00    -0.014 A 
BRANCH  43  44
ATOM     44  C   UNL     1       1.426  -3.542  -2.587  1.00  0.00     0.031 A 
ATOM     45  C   UNL     1       0.780  -2.288  -3.782  1.00  0.00     0.074 A 
ATOM     46  C   UNL     1       0.459  -3.767  -1.657  1.00  0.00     0.049 A 
ATOM     47  N   UNL     1      -0.347  -1.593  -3.704  1.00  0.00    -0.248 NA
ATOM     48  C   UNL     1       1.329  -1.857  -5.148  1.00  0.00     0.031 C 
ATOM     49  C   UNL     1      -0.948  -3.336  -1.649  1.00  0.00     0.029 A 
ATOM     50  N   UNL     1       0.575  -4.434  -0.438  1.00  0.00    -0.354 N 
ATOM     51  C   UNL     1      -0.517  -0.797  -4.868  1.00  0.00     0.074 A 
ATOM     52  C   UNL     1       0.376  -1.269  -5.832  1.00  0.00     0.031 C 
ATOM     53  C   UNL     1      -1.417  -3.408  -0.393  1.00  0.00     0.029 A 
ATOM     54  C   UNL     1      -0.284  -3.761   0.434  1.00  0.00     0.049 A 
ATOM     55  H   UNL     1       1.141  -5.213  -0.235  1.00  0.00     0.167 HD
ATOM     56  C   UNL     1      -1.251   0.339  -5.032  1.00  0.00     0.037 A 
ATOM     57  C   UNL     1       0.237  -3.048   1.462  1.00  0.00     0.037 A 
ATOM     58  C   UNL     1      -2.006   0.567  -3.844  1.00  0.00     0.049 A 
ATOM     59  C   UNL     1      -0.252  -1.618   1.391  1.00  0.00     0.074 A 
ATOM     60  C   UNL     1      -3.178  -0.004  -3.393  1.00  0.00     0.029 A 
ATOM     61  N   UNL     1      -1.320   1.050  -2.741  1.00  0.00    -0.354 N 
ATOM     62  N   UNL     1      -0.613  -0.989   0.295  1.00  0.00    -0.248 NA
ATOM     63  C   UNL     1      -0.531  -0.848   2.595  1.00  0.00     0.031 C 
ATOM     64  C   UNL     1      -3.124   0.014  -1.974  1.00  0.00     0.029 A 
ATOM     65  C   UNL     1      -1.981   0.698  -1.580  1.00  0.00     0.049 A 
ATOM     66  H   UNL     1      -0.484   1.569  -2.779  1.00  0.00     0.167 HD
ATOM     67  C   UNL     1      -1.126   0.243   0.623  1.00  0.00     0.074 A 
ATOM     68  C   UNL     1      -1.096   0.252   2.074  1.00  0.00     0.031 C 
ATOM     69  C   UNL     1      -1.526   1.185  -0.287  1.00  0.00     0.037 A 
BRANCH  56  70
ATOM     70  C   UNL     1      -1.263   1.149  -6.343  1.00  0.00     0.058 A 
ATOM     71  C   UNL     1      -2.463   1.596  -6.925  1.00  0.00     0.135 A 
ATOM     72  C   UNL     1      -0.107   1.412  -7.131  1.00  0.00     0.135 A 
ATOM     73  F   UNL     1      -3.621   1.485  -6.258  1.00  0.00    -0.206 F 
ATOM     74  C   UNL     1      -2.529   2.117  -8.235  1.00  0.00     0.059 A 
ATOM     75  C   UNL     1      -0.153   1.872  -8.459  1.00  0.00     0.059 A 
ATOM     76  F   UNL     1       1.124   1.157  -6.659  1.00  0.00    -0.206 F 
ATOM     77  C   UNL     1      -1.379   2.195  -9.018  1.00  0.00     0.060 A 
BRANCH  77  78
ATOM     78  S   UNL     1      -1.512   2.620 -10.778  1.00  0.00     0.124 S 
ATOM     79  O   UNL     1      -2.521   1.675 -11.249  1.00  0.00    -0.237 OA
ATOM     80  O   UNL     1      -1.926   4.018 -10.737  1.00  0.00    -0.237 OA
ATOM     81  O   UNL     1      -0.166   2.381 -11.295  1.00  0.00    -0.744 OA
ENDBRANCH  77  78
ENDBRANCH  56  70
BRANCH  57  82
ATOM     82  C   UNL     1       1.520  -3.641   1.992  1.00  0.00     0.058 A 
ATOM     83  C   UNL     1       1.521  -5.034   2.289  1.00  0.00     0.135 A 
ATOM     84  C   UNL     1       2.783  -3.039   1.914  1.00  0.00     0.135 A 
ATOM     85  F   UNL     1       0.358  -5.707   2.361  1.00  0.00    -0.206 F 
ATOM     86  C   UNL     1       2.685  -5.799   2.384  1.00  0.00     0.059 A 
ATOM     87  C   UNL     1       3.976  -3.788   2.041  1.00  0.00     0.059 A 
ATOM     88  F   UNL     1       2.892  -1.731   1.642  1.00  0.00    -0.206 F 
ATOM     89  C   UNL     1       3.917  -5.171   2.256  1.00  0.00     0.060 A 
BRANCH  89  90
ATOM     90  S   UNL     1       5.404  -6.216   2.192  1.00  0.00     0.124 S 
ATOM     91  O   UNL     1       5.726  -6.381   3.604  1.00  0.00    -0.237 OA
ATOM     92  O   UNL     1       4.917  -7.426   1.530  1.00  0.00    -0.237 OA
ATOM     93  O   UNL     1       6.338  -5.413   1.409  1.00  0.00    -0.744 OA
ENDBRANCH  89  90
ENDBRANCH  57  82
BRANCH  69  94
ATOM     94  C   UNL     1      -1.595   2.685  -0.018  1.00  0.00     0.058 A 
ATOM     95  C   UNL     1      -0.964   3.315   1.069  1.00  0.00     0.135 A 
ATOM     96  C   UNL     1      -2.154   3.579  -0.973  1.00  0.00     0.135 A 
ATOM     97  F   UNL     1      -0.274   2.630   1.989  1.00  0.00    -0.206 F 
ATOM     98  C   UNL     1      -0.953   4.696   1.244  1.00  0.00     0.059 A 
ATOM     99  C   UNL     1      -2.079   4.967  -0.860  1.00  0.00     0.059 A 
ATOM    100  F   UNL     1      -2.789   3.144  -2.071  1.00  0.00    -0.206 F 
ATOM    101  C   UNL     1      -1.505   5.517   0.272  1.00  0.00     0.060 A 
BRANCH 101 102
ATOM    102  S   UNL     1      -1.424   7.298   0.492  1.00  0.00     0.124 S 
ATOM    103  O   UNL     1      -2.561   7.531   1.378  1.00  0.00    -0.237 OA
ATOM    104  O   UNL     1      -0.108   7.486   1.096  1.00  0.00    -0.237 OA
ATOM    105  O   UNL     1      -1.564   7.818  -0.864  1.00  0.00    -0.744 OA
ENDBRANCH 101 102
ENDBRANCH  69  94
ENDBRANCH  43  44
ENDBRANCH  36  38
ENDBRANCH  35  36
ENDBRANCH  34  35
ENDBRANCH  33  34
ENDBRANCH  32  33
ENDBRANCH  31  32
ENDBRANCH   1  31
TORSDOF 25
