REMARK SMILES NS(=O)(=O)c1ccc(-n2nc(C(=O)NCCCCCCCCCCC(=O)OCCOCCOCCOC(=O)c3ccc(-c4c5nc(c(-c6c(F)cc(S(=O)(=O)[O-])cc6F)c6ccc([nH]6)c(-c6c(F)cc(S(=O)(=O)[O-])cc6F)c6nc(c(-c7c(F)cc(S(=O)(=O)[O-])cc7F)c7ccc4[nH]7)C=C6)C=C5)cc3)cc2-c2ccccc2)cc1
REMARK SMILES IDX 25 1 26 2 24 3 23 4 22 5 21 6 20 7 19 8 18 9 17 10 16 11
REMARK SMILES IDX 15 12 14 13 12 14 13 15 11 17 9 18 10 19 106 20 105 21 8 22
REMARK SMILES IDX 5 23 6 24 114 25 7 26 113 27 2 28 3 29 4 30 1 31 107 34
REMARK SMILES IDX 108 35 112 36 109 37 111 38 110 39 27 40 28 41 29 42 30 43
REMARK SMILES IDX 31 44 32 45 33 46 34 47 35 48 36 49 37 50 38 51 39 52 40 53
REMARK SMILES IDX 104 54 41 55 103 56 42 57 43 58 44 59 97 60 45 61 102 62
REMARK SMILES IDX 96 63 98 64 46 65 101 66 95 67 94 68 47 70 81 71 60 72 80 73
REMARK SMILES IDX 61 74 64 75 79 76 99 77 62 78 63 79 78 81 100 82 65 83 48 84
REMARK SMILES IDX 49 85 58 86 50 87 51 88 57 89 59 90 52 91 53 92 54 93 55 94
REMARK SMILES IDX 56 95 82 96 83 97 92 98 84 99 85 100 91 101 93 102 86 103
REMARK SMILES IDX 87 104 88 105 89 106 90 107 66 108 67 109 76 110 68 111
REMARK SMILES IDX 69 112 75 113 77 114 70 115 71 116 72 117 73 118 74 119
REMARK H PARENT 14 16 1 32 1 33 98 69 64 80
REMARK Flexibility Score: inf
ROOT
ATOM      1  C   UNL     1       7.933  18.516   3.465  1.00  0.00     0.305 C 
ATOM      2  O   UNL     1       8.341  19.237   2.563  1.00  0.00    -0.252 OA
ENDROOT
BRANCH   1   3
ATOM      3  C   UNL     1       8.416  17.084   3.645  1.00  0.00     0.123 C 
BRANCH   3   4
ATOM      4  C   UNL     1       7.699  16.205   4.676  1.00  0.00     0.012 C 
BRANCH   4   5
ATOM      5  C   UNL     1       6.178  16.156   4.537  1.00  0.00     0.001 C 
BRANCH   5   6
ATOM      6  C   UNL     1       5.734  15.761   3.131  1.00  0.00     0.000 C 
BRANCH   6   7
ATOM      7  C   UNL     1       6.031  14.291   2.830  1.00  0.00     0.000 C 
BRANCH   7   8
ATOM      8  C   UNL     1       5.314  13.346   3.799  1.00  0.00     0.000 C 
BRANCH   8   9
ATOM      9  C   UNL     1       3.801  13.596   3.841  1.00  0.00     0.000 C 
BRANCH   9  10
ATOM     10  C   UNL     1       3.125  13.362   2.483  1.00  0.00     0.002 C 
BRANCH  10  11
ATOM     11  C   UNL     1       3.405  11.966   1.921  1.00  0.00     0.021 C 
BRANCH  11  12
ATOM     12  C   UNL     1       2.871  10.895   2.866  1.00  0.00     0.116 C 
BRANCH  12  13
ATOM     13  N   UNL     1       1.491  10.635   2.547  1.00  0.00    -0.351 N 
ATOM     14  C   UNL     1       0.898   9.668   1.779  1.00  0.00     0.271 C 
ATOM     15  O   UNL     1      -0.309   9.816   1.567  1.00  0.00    -0.267 OA
ATOM     16  H   UNL     1       0.858  11.268   2.957  1.00  0.00     0.163 HD
BRANCH  14  17
ATOM     17  C   UNL     1       1.650   8.488   1.308  1.00  0.00     0.151 A 
ATOM     18  N   UNL     1       1.865   6.437   0.718  1.00  0.00    -0.232 N 
ATOM     19  N   UNL     1       0.977   7.448   0.781  1.00  0.00    -0.162 NA
ATOM     20  C   UNL     1       3.148   6.844   1.026  1.00  0.00     0.075 A 
ATOM     21  C   UNL     1       3.034   8.192   1.286  1.00  0.00     0.065 A 
BRANCH  18  22
ATOM     22  C   UNL     1       1.431   5.153   0.332  1.00  0.00     0.065 A 
ATOM     23  C   UNL     1       0.758   2.641  -0.606  1.00  0.00     0.082 A 
ATOM     24  C   UNL     1       1.574   2.757   0.523  1.00  0.00     0.024 A 
ATOM     25  C   UNL     1       0.229   3.775  -1.235  1.00  0.00     0.024 A 
ATOM     26  C   UNL     1       1.925   4.020   0.986  1.00  0.00     0.030 A 
ATOM     27  C   UNL     1       0.544   5.039  -0.745  1.00  0.00     0.030 A 
BRANCH  23  28
ATOM     28  S   UNL     1       0.410   1.063  -1.314  1.00  0.00     0.238 S 
ATOM     29  O   UNL     1       1.173   0.939  -2.533  1.00  0.00    -0.207 OA
ATOM     30  O   UNL     1      -1.014   0.834  -1.252  1.00  0.00    -0.207 OA
BRANCH  28  31
ATOM     31  N   UNL     1       1.091  -0.038  -0.243  1.00  0.00    -0.225 NA
ATOM     32  H   UNL     1       0.932  -0.986  -0.584  1.00  0.00     0.137 HD
ATOM     33  H   UNL     1       0.661   0.070   0.675  1.00  0.00     0.137 HD
ENDBRANCH  28  31
ENDBRANCH  23  28
ENDBRANCH  18  22
BRANCH  20  34
ATOM     34  C   UNL     1       4.370   6.053   0.951  1.00  0.00     0.000 A 
ATOM     35  C   UNL     1       4.805   5.524  -0.269  1.00  0.00     0.010 A 
ATOM     36  C   UNL     1       5.147   5.858   2.100  1.00  0.00     0.010 A 
ATOM     37  C   UNL     1       5.996   4.801  -0.337  1.00  0.00     0.001 A 
ATOM     38  C   UNL     1       6.337   5.132   2.032  1.00  0.00     0.001 A 
ATOM     39  C   UNL     1       6.761   4.605   0.813  1.00  0.00     0.000 A 
ENDBRANCH  20  34
ENDBRANCH  14  17
ENDBRANCH  12  13
ENDBRANCH  11  12
ENDBRANCH  10  11
ENDBRANCH   9  10
ENDBRANCH   8   9
ENDBRANCH   7   8
ENDBRANCH   6   7
ENDBRANCH   5   6
ENDBRANCH   4   5
ENDBRANCH   3   4
ENDBRANCH   1   3
BRANCH   1  40
ATOM     40  O   UNL     1       7.082  18.904   4.441  1.00  0.00    -0.463 OA
BRANCH  40  41
ATOM     41  C   UNL     1       6.772  20.297   4.576  1.00  0.00     0.261 C 
BRANCH  41  42
ATOM     42  C   UNL     1       7.226  20.866   5.929  1.00  0.00     0.202 C 
BRANCH  42  43
ATOM     43  O   UNL     1       8.588  20.619   6.281  1.00  0.00    -0.376 OA
BRANCH  43  44
ATOM     44  C   UNL     1       8.938  19.267   6.599  1.00  0.00     0.188 C 
BRANCH  44  45
ATOM     45  C   UNL     1       8.007  18.567   7.595  1.00  0.00     0.188 C 
BRANCH  45  46
ATOM     46  O   UNL     1       6.688  18.420   7.083  1.00  0.00    -0.376 OA
BRANCH  46  47
ATOM     47  C   UNL     1       5.576  18.138   7.928  1.00  0.00     0.202 C 
BRANCH  47  48
ATOM     48  C   UNL     1       5.532  18.562   9.397  1.00  0.00     0.261 C 
BRANCH  48  49
ATOM     49  O   UNL     1       6.719  18.377  10.140  1.00  0.00    -0.460 OA
BRANCH  49  50
ATOM     50  C   UNL     1       7.375  17.206  10.081  1.00  0.00     0.338 C 
ATOM     51  O   UNL     1       7.013  16.172   9.545  1.00  0.00    -0.246 OA
BRANCH  50  52
ATOM     52  C   UNL     1       8.644  17.431  10.791  1.00  0.00     0.060 A 
ATOM     53  C   UNL     1       9.426  16.320  11.094  1.00  0.00     0.016 A 
ATOM     54  C   UNL     1       8.922  18.704  11.324  1.00  0.00     0.016 A 
ATOM     55  C   UNL     1      10.289  16.421  12.161  1.00  0.00     0.010 A 
ATOM     56  C   UNL     1       9.746  18.795  12.409  1.00  0.00     0.010 A 
ATOM     57  C   UNL     1      10.332  17.625  12.873  1.00  0.00    -0.014 A 
BRANCH  57  58
ATOM     58  C   UNL     1      11.093  17.679  14.099  1.00  0.00     0.031 A 
ATOM     59  C   UNL     1      12.531  17.832  13.812  1.00  0.00     0.074 A 
ATOM     60  C   UNL     1      10.479  17.718  15.299  1.00  0.00     0.049 A 
ATOM     61  N   UNL     1      13.449  16.927  13.894  1.00  0.00    -0.248 NA
ATOM     62  C   UNL     1      12.962  19.045  13.089  1.00  0.00     0.031 C 
ATOM     63  C   UNL     1       9.037  17.885  15.536  1.00  0.00     0.029 A 
ATOM     64  N   UNL     1      10.998  17.743  16.560  1.00  0.00    -0.354 N 
ATOM     65  C   UNL     1      14.621  17.608  13.581  1.00  0.00     0.074 A 
ATOM     66  C   UNL     1      14.225  18.735  12.791  1.00  0.00     0.031 C 
ATOM     67  C   UNL     1       8.831  18.230  16.826  1.00  0.00     0.029 A 
ATOM     68  C   UNL     1      10.096  18.178  17.535  1.00  0.00     0.049 A 
ATOM     69  H   UNL     1      11.924  17.479  16.765  1.00  0.00     0.167 HD
ATOM     70  C   UNL     1      15.706  17.460  14.391  1.00  0.00     0.037 A 
ATOM     71  C   UNL     1      10.403  18.535  18.810  1.00  0.00     0.037 A 
ATOM     72  C   UNL     1      15.561  16.266  15.190  1.00  0.00     0.049 A 
ATOM     73  C   UNL     1      11.714  17.916  19.131  1.00  0.00     0.074 A 
ATOM     74  C   UNL     1      15.614  14.906  14.976  1.00  0.00     0.029 A 
ATOM     75  N   UNL     1      14.884  16.470  16.364  1.00  0.00    -0.354 N 
ATOM     76  N   UNL     1      11.896  16.624  19.211  1.00  0.00    -0.248 NA
ATOM     77  C   UNL     1      12.930  18.710  18.985  1.00  0.00     0.031 C 
ATOM     78  C   UNL     1      14.865  14.303  16.028  1.00  0.00     0.029 A 
ATOM     79  C   UNL     1      14.418  15.299  16.894  1.00  0.00     0.049 A 
ATOM     80  H   UNL     1      14.749  17.354  16.776  1.00  0.00     0.167 HD
ATOM     81  C   UNL     1      13.167  16.427  18.707  1.00  0.00     0.074 A 
ATOM     82  C   UNL     1      13.808  17.735  18.738  1.00  0.00     0.031 C 
ATOM     83  C   UNL     1      13.465  15.311  17.982  1.00  0.00     0.037 A 
BRANCH  70  84
ATOM     84  C   UNL     1      16.581  18.613  14.873  1.00  0.00     0.058 A 
ATOM     85  C   UNL     1      17.676  18.314  15.714  1.00  0.00     0.135 A 
ATOM     86  C   UNL     1      16.251  19.987  14.796  1.00  0.00     0.135 A 
ATOM     87  F   UNL     1      18.093  17.047  15.867  1.00  0.00    -0.206 F 
ATOM     88  C   UNL     1      18.335  19.288  16.468  1.00  0.00     0.059 A 
ATOM     89  C   UNL     1      16.919  20.976  15.508  1.00  0.00     0.059 A 
ATOM     90  F   UNL     1      15.219  20.459  14.092  1.00  0.00    -0.206 F 
ATOM     91  C   UNL     1      17.939  20.616  16.366  1.00  0.00     0.060 A 
BRANCH  91  92
ATOM     92  S   UNL     1      18.745  21.874  17.368  1.00  0.00     0.124 S 
ATOM     93  O   UNL     1      18.314  21.499  18.709  1.00  0.00    -0.237 OA
ATOM     94  O   UNL     1      20.152  21.645  17.057  1.00  0.00    -0.237 OA
ATOM     95  O   UNL     1      18.190  23.121  16.850  1.00  0.00    -0.744 OA
ENDBRANCH  91  92
ENDBRANCH  70  84
BRANCH  71  96
ATOM     96  C   UNL     1       9.812  19.620  19.644  1.00  0.00     0.058 A 
ATOM     97  C   UNL     1      10.104  19.724  21.018  1.00  0.00     0.135 A 
ATOM     98  C   UNL     1       9.195  20.743  19.058  1.00  0.00     0.135 A 
ATOM     99  F   UNL     1      10.697  18.706  21.660  1.00  0.00    -0.206 F 
ATOM    100  C   UNL     1       9.864  20.894  21.749  1.00  0.00     0.059 A 
ATOM    101  C   UNL     1       8.937  21.916  19.768  1.00  0.00     0.059 A 
ATOM    102  F   UNL     1       8.908  20.772  17.749  1.00  0.00    -0.206 F 
ATOM    103  C   UNL     1       9.303  21.997  21.106  1.00  0.00     0.060 A 
BRANCH 103 104
ATOM    104  S   UNL     1       9.167  23.572  21.987  1.00  0.00     0.124 S 
ATOM    105  O   UNL     1       8.120  23.284  22.961  1.00  0.00    -0.237 OA
ATOM    106  O   UNL     1      10.512  23.741  22.527  1.00  0.00    -0.237 OA
ATOM    107  O   UNL     1       8.797  24.516  20.936  1.00  0.00    -0.744 OA
ENDBRANCH 103 104
ENDBRANCH  71  96
BRANCH  83 108
ATOM    108  C   UNL     1      12.701  14.056  18.273  1.00  0.00     0.058 A 
ATOM    109  C   UNL     1      11.339  13.843  18.011  1.00  0.00     0.135 A 
ATOM    110  C   UNL     1      13.441  12.977  18.782  1.00  0.00     0.135 A 
ATOM    111  F   UNL     1      10.585  14.804  17.454  1.00  0.00    -0.206 F 
ATOM    112  C   UNL     1      10.734  12.611  18.276  1.00  0.00     0.059 A 
ATOM    113  C   UNL     1      12.869  11.736  19.020  1.00  0.00     0.059 A 
ATOM    114  F   UNL     1      14.757  13.112  19.015  1.00  0.00    -0.206 F 
ATOM    115  C   UNL     1      11.510  11.563  18.779  1.00  0.00     0.060 A 
BRANCH 115 116
ATOM    116  S   UNL     1      10.750   9.953  19.076  1.00  0.00     0.124 S 
ATOM    117  O   UNL     1       9.881  10.229  20.215  1.00  0.00    -0.237 OA
ATOM    118  O   UNL     1      10.074   9.686  17.810  1.00  0.00    -0.237 OA
ATOM    119  O   UNL     1      11.890   9.083  19.358  1.00  0.00    -0.744 OA
ENDBRANCH 115 116
ENDBRANCH  83 108
ENDBRANCH  57  58
ENDBRANCH  50  52
ENDBRANCH  49  50
ENDBRANCH  48  49
ENDBRANCH  47  48
ENDBRANCH  46  47
ENDBRANCH  45  46
ENDBRANCH  44  45
ENDBRANCH  43  44
ENDBRANCH  42  43
ENDBRANCH  41  42
ENDBRANCH  40  41
ENDBRANCH   1  40
TORSDOF 35
