REMARK SMILES O=C(Cn1cnc2c(S)ncnc21)OCCOCCOCCOC(=O)c1ccc(-c2c3nc(c(-c4c(F)cc(S(=O)(=O)[O-])cc4F)c4ccc([nH]4)c(-c4c(F)cc(S(=O)(=O)[O-])cc4F)c4nc(c(-c5c(F)cc(S(=O)(=O)[O-])cc5F)c5ccc2[nH]5)C=C4)C=C3)cc1
REMARK SMILES IDX 19 1 18 2 17 3 16 4 15 5 14 6 2 7 1 8 3 9 4 10 5 11 13 12
REMARK SMILES IDX 6 13 7 14 12 15 8 16 11 17 10 18 9 19 20 21 21 22 22 23
REMARK SMILES IDX 23 24 24 25 25 26 26 27 27 28 91 29 28 30 90 31 29 32 30 33
REMARK SMILES IDX 31 34 84 35 32 36 89 37 83 38 85 39 33 40 88 41 82 42 81 43
REMARK SMILES IDX 34 45 68 46 47 47 67 48 48 49 51 50 66 51 86 52 49 53 50 54
REMARK SMILES IDX 65 56 87 57 52 58 35 59 36 60 45 61 37 62 38 63 44 64 46 65
REMARK SMILES IDX 39 66 40 67 41 68 42 69 43 70 69 71 70 72 79 73 71 74 72 75
REMARK SMILES IDX 78 76 80 77 73 78 74 79 75 80 76 81 77 82 53 83 54 84 63 85
REMARK SMILES IDX 55 86 56 87 62 88 64 89 57 90 58 91 59 92 60 93 61 94
REMARK H PARENT 9 20 85 44 51 55
REMARK Flexibility Score: inf
ROOT
ATOM      1  C   UNL     1       2.189   0.873   2.466  1.00  0.00     0.188 C 
ENDROOT
BRANCH   1   2
ATOM      2  C   UNL     1       2.865  -0.431   1.999  1.00  0.00     0.188 C 
BRANCH   2   3
ATOM      3  O   UNL     1       4.268  -0.349   1.821  1.00  0.00    -0.376 OA
BRANCH   3   4
ATOM      4  C   UNL     1       4.737  -0.267   0.483  1.00  0.00     0.202 C 
BRANCH   4   5
ATOM      5  C   UNL     1       4.225   0.920  -0.333  1.00  0.00     0.261 C 
BRANCH   5   6
ATOM      6  O   UNL     1       2.801   0.966  -0.593  1.00  0.00    -0.462 OA
BRANCH   6   7
ATOM      7  C   UNL     1       2.076   0.209  -1.441  1.00  0.00     0.326 C 
ATOM      8  O   UNL     1       0.998   0.627  -1.863  1.00  0.00    -0.250 OA
BRANCH   7   9
ATOM      9  C   UNL     1       2.542  -1.168  -1.795  1.00  0.00     0.247 C 
BRANCH   9  10
ATOM     10  N   UNL     1       3.632  -1.241  -2.739  1.00  0.00    -0.304 N 
ATOM     11  C   UNL     1       4.083  -0.278  -3.595  1.00  0.00     0.202 A 
ATOM     12  C   UNL     1       4.346  -2.382  -2.986  1.00  0.00     0.164 A 
ATOM     13  N   UNL     1       5.072  -0.717  -4.344  1.00  0.00    -0.232 NA
ATOM     14  C   UNL     1       5.232  -2.044  -3.996  1.00  0.00     0.140 A 
ATOM     15  N   UNL     1       4.198  -3.576  -2.392  1.00  0.00    -0.217 NA
ATOM     16  C   UNL     1       6.051  -3.081  -4.445  1.00  0.00     0.124 A 
ATOM     17  C   UNL     1       5.040  -4.490  -2.912  1.00  0.00     0.225 A 
ATOM     18  N   UNL     1       5.945  -4.316  -3.897  1.00  0.00    -0.228 NA
BRANCH  16  19
ATOM     19  S   UNL     1       7.199  -2.826  -5.752  1.00  0.00    -0.121 SA
ATOM     20  H   UNL     1       7.147  -1.528  -6.154  1.00  0.00     0.110 HD
ENDBRANCH  16  19
ENDBRANCH   9  10
ENDBRANCH   7   9
ENDBRANCH   6   7
ENDBRANCH   5   6
ENDBRANCH   4   5
ENDBRANCH   3   4
ENDBRANCH   2   3
ENDBRANCH   1   2
BRANCH   1  21
ATOM     21  O   UNL     1       2.934   2.083   2.526  1.00  0.00    -0.376 OA
BRANCH  21  22
ATOM     22  C   UNL     1       4.181   2.141   3.214  1.00  0.00     0.202 C 
BRANCH  22  23
ATOM     23  C   UNL     1       4.265   1.657   4.657  1.00  0.00     0.261 C 
BRANCH  23  24
ATOM     24  O   UNL     1       4.194   0.235   4.749  1.00  0.00    -0.460 OA
BRANCH  24  25
ATOM     25  C   UNL     1       3.076  -0.242   5.335  1.00  0.00     0.338 C 
ATOM     26  O   UNL     1       2.096   0.399   5.669  1.00  0.00    -0.246 OA
BRANCH  25  27
ATOM     27  C   UNL     1       3.208  -1.688   5.573  1.00  0.00     0.060 A 
ATOM     28  C   UNL     1       2.071  -2.343   6.054  1.00  0.00     0.016 A 
ATOM     29  C   UNL     1       4.458  -2.322   5.534  1.00  0.00     0.016 A 
ATOM     30  C   UNL     1       2.221  -3.555   6.694  1.00  0.00     0.010 A 
ATOM     31  C   UNL     1       4.609  -3.536   6.178  1.00  0.00     0.010 A 
ATOM     32  C   UNL     1       3.506  -4.085   6.834  1.00  0.00    -0.014 A 
BRANCH  32  33
ATOM     33  C   UNL     1       3.673  -5.131   7.828  1.00  0.00     0.031 A 
ATOM     34  C   UNL     1       3.314  -6.504   7.426  1.00  0.00     0.074 A 
ATOM     35  C   UNL     1       4.197  -4.851   9.038  1.00  0.00     0.049 A 
ATOM     36  N   UNL     1       2.422  -7.282   7.946  1.00  0.00    -0.248 NA
ATOM     37  C   UNL     1       4.009  -7.066   6.259  1.00  0.00     0.031 C 
ATOM     38  C   UNL     1       4.855  -3.604   9.447  1.00  0.00     0.029 A 
ATOM     39  N   UNL     1       4.358  -5.662  10.122  1.00  0.00    -0.354 N 
ATOM     40  C   UNL     1       2.601  -8.511   7.324  1.00  0.00     0.074 A 
ATOM     41  C   UNL     1       3.485  -8.289   6.206  1.00  0.00     0.031 C 
ATOM     42  C   UNL     1       5.527  -3.819  10.597  1.00  0.00     0.029 A 
ATOM     43  C   UNL     1       5.258  -5.171  11.058  1.00  0.00     0.049 A 
ATOM     44  H   UNL     1       3.881  -6.516  10.231  1.00  0.00     0.167 HD
ATOM     45  C   UNL     1       2.227  -9.677   7.912  1.00  0.00     0.037 A 
ATOM     46  C   UNL     1       5.816  -5.858  12.083  1.00  0.00     0.037 A 
ATOM     47  C   UNL     1       1.252  -9.496   8.950  1.00  0.00     0.049 A 
ATOM     48  C   UNL     1       4.951  -7.034  12.363  1.00  0.00     0.074 A 
ATOM     49  C   UNL     1      -0.005  -8.927   9.016  1.00  0.00     0.029 A 
ATOM     50  N   UNL     1       1.648  -9.681  10.252  1.00  0.00    -0.354 N 
ATOM     51  N   UNL     1       3.749  -6.974  12.868  1.00  0.00    -0.248 NA
ATOM     52  C   UNL     1       5.310  -8.313  11.767  1.00  0.00     0.031 C 
ATOM     53  C   UNL     1      -0.121  -8.405  10.336  1.00  0.00     0.029 A 
ATOM     54  C   UNL     1       1.072  -8.687  11.003  1.00  0.00     0.049 A 
ATOM     55  H   UNL     1       2.238 -10.395  10.585  1.00  0.00     0.167 HD
ATOM     56  C   UNL     1       3.075  -8.052  12.316  1.00  0.00     0.074 A 
ATOM     57  C   UNL     1       4.116  -8.907  11.764  1.00  0.00     0.031 C 
ATOM     58  C   UNL     1       1.727  -8.017  12.107  1.00  0.00     0.037 A 
BRANCH  45  59
ATOM     59  C   UNL     1       3.038 -10.934   7.763  1.00  0.00     0.058 A 
ATOM     60  C   UNL     1       2.464 -12.187   8.036  1.00  0.00     0.135 A 
ATOM     61  C   UNL     1       4.444 -10.913   7.611  1.00  0.00     0.135 A 
ATOM     62  F   UNL     1       1.142 -12.300   8.241  1.00  0.00    -0.206 F 
ATOM     63  C   UNL     1       3.238 -13.339   8.175  1.00  0.00     0.059 A 
ATOM     64  C   UNL     1       5.227 -12.055   7.689  1.00  0.00     0.059 A 
ATOM     65  F   UNL     1       5.121  -9.763   7.475  1.00  0.00    -0.206 F 
ATOM     66  C   UNL     1       4.620 -13.258   8.010  1.00  0.00     0.060 A 
BRANCH  66  67
ATOM     67  S   UNL     1       5.639 -14.718   8.284  1.00  0.00     0.124 S 
ATOM     68  O   UNL     1       5.679 -14.767   9.740  1.00  0.00    -0.237 OA
ATOM     69  O   UNL     1       4.863 -15.765   7.628  1.00  0.00    -0.237 OA
ATOM     70  O   UNL     1       6.895 -14.373   7.623  1.00  0.00    -0.744 OA
ENDBRANCH  66  67
ENDBRANCH  45  59
BRANCH  46  71
ATOM     71  C   UNL     1       7.194  -5.725  12.629  1.00  0.00     0.058 A 
ATOM     72  C   UNL     1       7.563  -6.381  13.817  1.00  0.00     0.135 A 
ATOM     73  C   UNL     1       8.251  -5.175  11.874  1.00  0.00     0.135 A 
ATOM     74  F   UNL     1       6.630  -6.958  14.590  1.00  0.00    -0.206 F 
ATOM     75  C   UNL     1       8.899  -6.526  14.205  1.00  0.00     0.059 A 
ATOM     76  C   UNL     1       9.586  -5.284  12.254  1.00  0.00     0.059 A 
ATOM     77  F   UNL     1       8.034  -4.590  10.687  1.00  0.00    -0.206 F 
ATOM     78  C   UNL     1       9.906  -5.989  13.405  1.00  0.00     0.060 A 
BRANCH  78  79
ATOM     79  S   UNL     1      11.635  -6.322  13.809  1.00  0.00     0.124 S 
ATOM     80  O   UNL     1      11.797  -5.596  15.063  1.00  0.00    -0.237 OA
ATOM     81  O   UNL     1      11.650  -7.778  13.905  1.00  0.00    -0.237 OA
ATOM     82  O   UNL     1      12.362  -5.769  12.669  1.00  0.00    -0.744 OA
ENDBRANCH  78  79
ENDBRANCH  46  71
BRANCH  58  83
ATOM     83  C   UNL     1       0.910  -7.002  12.861  1.00  0.00     0.058 A 
ATOM     84  C   UNL     1       1.009  -5.614  12.669  1.00  0.00     0.135 A 
ATOM     85  C   UNL     1      -0.129  -7.467  13.683  1.00  0.00     0.135 A 
ATOM     86  F   UNL     1       1.912  -5.098  11.822  1.00  0.00    -0.206 F 
ATOM     87  C   UNL     1       0.128  -4.726  13.290  1.00  0.00     0.059 A 
ATOM     88  C   UNL     1      -1.036  -6.601  14.288  1.00  0.00     0.059 A 
ATOM     89  F   UNL     1      -0.311  -8.787  13.856  1.00  0.00    -0.206 F 
ATOM     90  C   UNL     1      -0.897  -5.229  14.091  1.00  0.00     0.060 A 
BRANCH  90  91
ATOM     91  S   UNL     1      -2.110  -4.085  14.789  1.00  0.00     0.124 S 
ATOM     92  O   UNL     1      -1.358  -3.465  15.874  1.00  0.00    -0.237 OA
ATOM     93  O   UNL     1      -2.420  -3.219  13.655  1.00  0.00    -0.237 OA
ATOM     94  O   UNL     1      -3.203  -4.960  15.207  1.00  0.00    -0.744 OA
ENDBRANCH  90  91
ENDBRANCH  58  83
ENDBRANCH  32  33
ENDBRANCH  25  27
ENDBRANCH  24  25
ENDBRANCH  23  24
ENDBRANCH  22  23
ENDBRANCH  21  22
ENDBRANCH   1  21
TORSDOF 22
