REMARK SMILES COC(=O)CNC(=O)N1[C@@H](C(=O)OCCOCCOCCOC(=O)c2ccc(-c3c4nc(c(-c5c(F)cc(S(=O)(=O)[O-])cc5F)c5ccc([nH]5)c(-c5c(F)cc(S(=O)(=O)[O-])cc5F)c5nc(c(-c6c(F)cc(S(=O)(=O)[O-])cc6F)c6ccc3[nH]6)C=C5)C=C4)cc2)CC[C@@H]2CCCC[C@H]21
REMARK SMILES IDX 17 1 16 2 15 3 14 4 13 5 11 6 12 7 10 8 9 9 98 10 91 11
REMARK SMILES IDX 93 12 97 13 92 14 94 15 96 16 95 17 7 18 6 19 8 21 5 22 3 23
REMARK SMILES IDX 4 24 2 25 1 26 18 27 19 28 20 29 21 30 22 31 23 32 24 33
REMARK SMILES IDX 25 34 26 35 90 36 27 37 89 38 28 39 29 40 30 41 83 42 31 43
REMARK SMILES IDX 88 44 82 45 84 46 32 47 87 48 81 49 80 50 33 52 67 53 46 54
REMARK SMILES IDX 66 55 47 56 50 57 65 58 85 59 48 60 49 61 64 63 86 64 51 65
REMARK SMILES IDX 34 66 35 67 44 68 36 69 37 70 43 71 45 72 38 73 39 74 40 75
REMARK SMILES IDX 41 76 42 77 68 78 69 79 78 80 70 81 71 82 77 83 79 84 72 85
REMARK SMILES IDX 73 86 74 87 75 88 76 89 52 90 53 91 62 92 54 93 55 94 61 95
REMARK SMILES IDX 63 96 56 97 57 98 58 99 59 100 60 101
REMARK H PARENT 6 20 84 51 50 62
REMARK Flexibility Score: inf
ROOT
ATOM      1  C   UNL     1      -1.814   0.310  -7.464  1.00  0.00     0.188 C 
ENDROOT
BRANCH   1   2
ATOM      2  O   UNL     1      -0.592   0.329  -8.159  1.00  0.00    -0.376 OA
BRANCH   2   3
ATOM      3  C   UNL     1       0.413  -0.640  -7.929  1.00  0.00     0.202 C 
BRANCH   3   4
ATOM      4  C   UNL     1       0.581  -1.498  -6.662  1.00  0.00     0.261 C 
BRANCH   4   5
ATOM      5  O   UNL     1      -0.524  -2.266  -6.157  1.00  0.00    -0.462 OA
BRANCH   5   6
ATOM      6  C   UNL     1      -1.121  -1.744  -5.049  1.00  0.00     0.329 C 
ATOM      7  O   UNL     1      -0.934  -0.595  -4.659  1.00  0.00    -0.250 OA
BRANCH   6   8
ATOM      8  C   UNL     1      -2.017  -2.728  -4.279  1.00  0.00     0.197 C 
ATOM      9  N   UNL     1      -1.404  -3.482  -3.160  1.00  0.00    -0.308 N 
ATOM     10  C   UNL     1      -2.367  -4.289  -2.365  1.00  0.00     0.091 C 
ATOM     11  C   UNL     1      -2.917  -3.605  -5.158  1.00  0.00     0.038 C 
ATOM     12  C   UNL     1      -3.365  -5.098  -3.235  1.00  0.00     0.012 C 
ATOM     13  C   UNL     1      -1.737  -5.238  -1.325  1.00  0.00     0.025 C 
ATOM     14  C   UNL     1      -4.011  -4.225  -4.302  1.00  0.00     0.008 C 
ATOM     15  C   UNL     1      -4.453  -5.739  -2.362  1.00  0.00     0.006 C 
ATOM     16  C   UNL     1      -2.798  -5.938  -0.473  1.00  0.00     0.002 C 
ATOM     17  C   UNL     1      -3.834  -6.666  -1.325  1.00  0.00     0.000 C 
BRANCH   9  18
ATOM     18  C   UNL     1      -0.091  -3.885  -3.259  1.00  0.00     0.318 C 
ATOM     19  N   UNL     1       0.869  -2.961  -2.955  1.00  0.00    -0.327 N 
ATOM     20  H   UNL     1       1.784  -3.317  -2.879  1.00  0.00     0.166 HD
ATOM     21  O   UNL     1       0.251  -5.037  -3.510  1.00  0.00    -0.249 OA
BRANCH  19  22
ATOM     22  C   UNL     1       0.739  -1.528  -2.726  1.00  0.00     0.240 C 
BRANCH  22  23
ATOM     23  C   UNL     1       1.493  -0.804  -1.630  1.00  0.00     0.325 C 
ATOM     24  O   UNL     1       2.283   0.108  -1.847  1.00  0.00    -0.250 OA
BRANCH  23  25
ATOM     25  O   UNL     1       1.018  -1.158  -0.407  1.00  0.00    -0.468 OA
ATOM     26  C   UNL     1       1.225  -0.141   0.576  1.00  0.00     0.282 C 
ENDBRANCH  23  25
ENDBRANCH  22  23
ENDBRANCH  19  22
ENDBRANCH   9  18
ENDBRANCH   6   8
ENDBRANCH   5   6
ENDBRANCH   4   5
ENDBRANCH   3   4
ENDBRANCH   2   3
ENDBRANCH   1   2
BRANCH   1  27
ATOM     27  C   UNL     1      -2.700  -0.927  -7.607  1.00  0.00     0.188 C 
BRANCH  27  28
ATOM     28  O   UNL     1      -2.415  -1.922  -8.561  1.00  0.00    -0.376 OA
BRANCH  28  29
ATOM     29  C   UNL     1      -2.296  -1.534  -9.918  1.00  0.00     0.202 C 
BRANCH  29  30
ATOM     30  C   UNL     1      -3.172  -0.432 -10.557  1.00  0.00     0.261 C 
BRANCH  30  31
ATOM     31  O   UNL     1      -3.740   0.568  -9.694  1.00  0.00    -0.460 OA
BRANCH  31  32
ATOM     32  C   UNL     1      -5.037   0.370  -9.328  1.00  0.00     0.338 C 
ATOM     33  O   UNL     1      -5.766  -0.522  -9.713  1.00  0.00    -0.246 OA
BRANCH  32  34
ATOM     34  C   UNL     1      -5.373   1.254  -8.175  1.00  0.00     0.060 A 
ATOM     35  C   UNL     1      -5.786   0.649  -6.976  1.00  0.00     0.016 A 
ATOM     36  C   UNL     1      -5.307   2.645  -8.260  1.00  0.00     0.016 A 
ATOM     37  C   UNL     1      -6.167   1.424  -5.879  1.00  0.00     0.010 A 
ATOM     38  C   UNL     1      -5.726   3.424  -7.168  1.00  0.00     0.010 A 
ATOM     39  C   UNL     1      -6.195   2.819  -5.984  1.00  0.00    -0.014 A 
BRANCH  39  40
ATOM     40  C   UNL     1      -6.905   3.613  -4.942  1.00  0.00     0.031 A 
ATOM     41  C   UNL     1      -8.321   4.056  -5.215  1.00  0.00     0.074 A 
ATOM     42  C   UNL     1      -6.341   3.892  -3.751  1.00  0.00     0.049 A 
ATOM     43  N   UNL     1      -9.136   4.756  -4.467  1.00  0.00    -0.248 NA
ATOM     44  C   UNL     1      -8.895   3.652  -6.510  1.00  0.00     0.031 C 
ATOM     45  C   UNL     1      -5.000   3.488  -3.333  1.00  0.00     0.029 A 
ATOM     46  N   UNL     1      -6.833   4.588  -2.672  1.00  0.00    -0.354 N 
ATOM     47  C   UNL     1     -10.311   4.883  -5.200  1.00  0.00     0.074 A 
ATOM     48  C   UNL     1     -10.092   4.216  -6.465  1.00  0.00     0.031 C 
ATOM     49  C   UNL     1      -4.772   3.953  -2.092  1.00  0.00     0.029 A 
ATOM     50  C   UNL     1      -5.937   4.712  -1.636  1.00  0.00     0.049 A 
ATOM     51  H   UNL     1      -7.743   4.963  -2.644  1.00  0.00     0.167 HD
ATOM     52  C   UNL     1     -11.471   5.492  -4.852  1.00  0.00     0.037 A 
ATOM     53  C   UNL     1      -6.036   5.376  -0.465  1.00  0.00     0.037 A 
ATOM     54  C   UNL     1     -11.692   6.159  -3.594  1.00  0.00     0.049 A 
ATOM     55  C   UNL     1      -7.315   6.104  -0.126  1.00  0.00     0.074 A 
ATOM     56  C   UNL     1     -12.841   6.788  -3.145  1.00  0.00     0.029 A 
ATOM     57  N   UNL     1     -10.747   6.294  -2.587  1.00  0.00    -0.354 N 
ATOM     58  N   UNL     1      -8.425   6.196  -0.820  1.00  0.00    -0.248 NA
ATOM     59  C   UNL     1      -7.355   6.811   1.163  1.00  0.00     0.031 C 
ATOM     60  C   UNL     1     -12.571   7.356  -1.895  1.00  0.00     0.029 A 
ATOM     61  C   UNL     1     -11.277   7.022  -1.533  1.00  0.00     0.049 A 
ATOM     62  H   UNL     1      -9.834   5.927  -2.618  1.00  0.00     0.167 HD
ATOM     63  C   UNL     1      -9.301   6.948  -0.041  1.00  0.00     0.074 A 
ATOM     64  C   UNL     1      -8.600   7.264   1.186  1.00  0.00     0.031 C 
ATOM     65  C   UNL     1     -10.572   7.341  -0.315  1.00  0.00     0.037 A 
BRANCH  52  66
ATOM     66  C   UNL     1     -12.589   5.492  -5.862  1.00  0.00     0.058 A 
ATOM     67  C   UNL     1     -13.290   4.322  -6.196  1.00  0.00     0.135 A 
ATOM     68  C   UNL     1     -12.988   6.690  -6.478  1.00  0.00     0.135 A 
ATOM     69  F   UNL     1     -12.941   3.145  -5.652  1.00  0.00    -0.206 F 
ATOM     70  C   UNL     1     -14.328   4.335  -7.123  1.00  0.00     0.059 A 
ATOM     71  C   UNL     1     -14.044   6.732  -7.384  1.00  0.00     0.059 A 
ATOM     72  F   UNL     1     -12.352   7.838  -6.198  1.00  0.00    -0.206 F 
ATOM     73  C   UNL     1     -14.699   5.546  -7.710  1.00  0.00     0.060 A 
BRANCH  73  74
ATOM     74  S   UNL     1     -16.053   5.546  -8.904  1.00  0.00     0.124 S 
ATOM     75  O   UNL     1     -15.441   4.865 -10.040  1.00  0.00    -0.237 OA
ATOM     76  O   UNL     1     -17.089   4.797  -8.199  1.00  0.00    -0.237 OA
ATOM     77  O   UNL     1     -16.334   6.965  -9.101  1.00  0.00    -0.744 OA
ENDBRANCH  73  74
ENDBRANCH  52  66
BRANCH  53  78
ATOM     78  C   UNL     1      -4.885   5.397   0.481  1.00  0.00     0.058 A 
ATOM     79  C   UNL     1      -4.953   4.756   1.728  1.00  0.00     0.135 A 
ATOM     80  C   UNL     1      -3.697   6.075   0.163  1.00  0.00     0.135 A 
ATOM     81  F   UNL     1      -6.073   4.111   2.090  1.00  0.00    -0.206 F 
ATOM     82  C   UNL     1      -3.893   4.794   2.628  1.00  0.00     0.059 A 
ATOM     83  C   UNL     1      -2.612   6.101   1.034  1.00  0.00     0.059 A 
ATOM     84  F   UNL     1      -3.578   6.705  -1.016  1.00  0.00    -0.206 F 
ATOM     85  C   UNL     1      -2.722   5.463   2.268  1.00  0.00     0.060 A 
BRANCH  85  86
ATOM     86  S   UNL     1      -1.329   5.447   3.417  1.00  0.00     0.124 S 
ATOM     87  O   UNL     1      -1.815   6.316   4.483  1.00  0.00    -0.237 OA
ATOM     88  O   UNL     1      -1.224   4.029   3.746  1.00  0.00    -0.237 OA
ATOM     89  O   UNL     1      -0.229   5.980   2.620  1.00  0.00    -0.744 OA
ENDBRANCH  85  86
ENDBRANCH  53  78
BRANCH  65  90
ATOM     90  C   UNL     1     -11.299   8.131   0.744  1.00  0.00     0.058 A 
ATOM     91  C   UNL     1     -10.927   9.443   1.081  1.00  0.00     0.135 A 
ATOM     92  C   UNL     1     -12.393   7.571   1.426  1.00  0.00     0.135 A 
ATOM     93  F   UNL     1      -9.891  10.031   0.463  1.00  0.00    -0.206 F 
ATOM     94  C   UNL     1     -11.578  10.149   2.090  1.00  0.00     0.059 A 
ATOM     95  C   UNL     1     -13.080   8.272   2.413  1.00  0.00     0.059 A 
ATOM     96  F   UNL     1     -12.807   6.327   1.135  1.00  0.00    -0.206 F 
ATOM     97  C   UNL     1     -12.650   9.553   2.754  1.00  0.00     0.060 A 
BRANCH  97  98
ATOM     98  S   UNL     1     -13.475  10.473   4.071  1.00  0.00     0.124 S 
ATOM     99  O   UNL     1     -12.482  10.411   5.138  1.00  0.00    -0.237 OA
ATOM    100  O   UNL     1     -13.669  11.785   3.461  1.00  0.00    -0.237 OA
ATOM    101  O   UNL     1     -14.697   9.710   4.306  1.00  0.00    -0.744 OA
ENDBRANCH  97  98
ENDBRANCH  65  90
ENDBRANCH  39  40
ENDBRANCH  32  34
ENDBRANCH  31  32
ENDBRANCH  30  31
ENDBRANCH  29  30
ENDBRANCH  28  29
ENDBRANCH  27  28
ENDBRANCH   1  27
TORSDOF 24
