REMARK SMILES O=C(OCCOCCOCCOC(=O)c1cccn1C[C@@H]1C[N@H+]2CCC[C@@H]2CO1)c1ccc(-c2c3nc(c(-c4c(F)cc(S(=O)(=O)[O-])cc4F)c4ccc([nH]4)c(-c4c(F)cc(S(=O)(=O)[O-])cc4F)c4nc(c(-c5c(F)cc(S(=O)(=O)[O-])cc5F)c5ccc2[nH]5)C=C4)C=C3)cc1
REMARK SMILES IDX 7 1 6 2 5 3 4 4 3 5 2 6 1 7 30 8 31 9 95 10 32 11 94 12
REMARK SMILES IDX 33 13 34 14 35 15 88 16 36 17 93 18 87 19 89 20 37 21 92 22
REMARK SMILES IDX 86 23 85 24 38 26 72 27 51 28 71 29 52 30 55 31 70 32 90 33
REMARK SMILES IDX 53 34 54 35 69 37 91 38 56 39 39 40 40 41 49 42 41 43 42 44
REMARK SMILES IDX 48 45 50 46 43 47 44 48 45 49 46 50 47 51 73 52 74 53 83 54
REMARK SMILES IDX 75 55 76 56 82 57 84 58 77 59 78 60 79 61 80 62 81 63 57 64
REMARK SMILES IDX 58 65 67 66 59 67 60 68 66 69 68 70 61 71 62 72 63 73 64 74
REMARK SMILES IDX 65 75 8 76 9 77 10 78 11 79 12 80 13 81 14 82 15 83 16 84
REMARK SMILES IDX 19 85 17 86 18 87 20 88 21 89 22 90 29 91 23 92 28 93 24 94
REMARK SMILES IDX 27 95 25 97 26 98
REMARK H PARENT 89 25 55 36 23 96
REMARK Flexibility Score: inf
ROOT
ATOM      1  C   UNL     1      -2.471   0.924  -4.032  1.00  0.00     0.188 C 
ENDROOT
BRANCH   1   2
ATOM      2  O   UNL     1      -2.929   0.790  -5.375  1.00  0.00    -0.376 OA
BRANCH   2   3
ATOM      3  C   UNL     1      -4.029  -0.055  -5.667  1.00  0.00     0.202 C 
BRANCH   3   4
ATOM      4  C   UNL     1      -3.841  -1.570  -5.508  1.00  0.00     0.261 C 
BRANCH   4   5
ATOM      5  O   UNL     1      -3.340  -1.930  -4.208  1.00  0.00    -0.460 OA
BRANCH   5   6
ATOM      6  C   UNL     1      -2.079  -2.233  -3.821  1.00  0.00     0.338 C 
ATOM      7  O   UNL     1      -1.820  -2.317  -2.622  1.00  0.00    -0.246 OA
BRANCH   6   8
ATOM      8  C   UNL     1      -1.011  -2.542  -4.799  1.00  0.00     0.060 A 
ATOM      9  C   UNL     1      -0.854  -1.892  -6.025  1.00  0.00     0.016 A 
ATOM     10  C   UNL     1      -0.095  -3.538  -4.423  1.00  0.00     0.016 A 
ATOM     11  C   UNL     1       0.073  -2.361  -6.943  1.00  0.00     0.010 A 
ATOM     12  C   UNL     1       0.884  -3.964  -5.312  1.00  0.00     0.010 A 
ATOM     13  C   UNL     1       0.920  -3.417  -6.596  1.00  0.00    -0.014 A 
BRANCH  13  14
ATOM     14  C   UNL     1       1.830  -3.933  -7.639  1.00  0.00     0.031 A 
ATOM     15  C   UNL     1       2.969  -2.970  -7.968  1.00  0.00     0.074 A 
ATOM     16  C   UNL     1       1.447  -5.105  -8.218  1.00  0.00     0.049 A 
ATOM     17  N   UNL     1       3.478  -2.622  -9.114  1.00  0.00    -0.248 NA
ATOM     18  C   UNL     1       3.522  -2.170  -6.847  1.00  0.00     0.031 C 
ATOM     19  C   UNL     1       0.273  -5.902  -7.807  1.00  0.00     0.029 A 
ATOM     20  N   UNL     1       1.928  -5.848  -9.268  1.00  0.00    -0.354 N 
ATOM     21  C   UNL     1       4.499  -1.689  -8.845  1.00  0.00     0.074 A 
ATOM     22  C   UNL     1       4.384  -1.350  -7.453  1.00  0.00     0.031 C 
ATOM     23  C   UNL     1       0.094  -6.952  -8.630  1.00  0.00     0.029 A 
ATOM     24  C   UNL     1       1.113  -6.939  -9.657  1.00  0.00     0.049 A 
ATOM     25  H   UNL     1       2.778  -5.638  -9.718  1.00  0.00     0.167 HD
ATOM     26  C   UNL     1       5.483  -1.341  -9.727  1.00  0.00     0.037 A 
ATOM     27  C   UNL     1       1.196  -7.709 -10.785  1.00  0.00     0.037 A 
ATOM     28  C   UNL     1       5.444  -2.122 -10.925  1.00  0.00     0.049 A 
ATOM     29  C   UNL     1       2.297  -7.108 -11.564  1.00  0.00     0.074 A 
ATOM     30  C   UNL     1       5.045  -1.984 -12.232  1.00  0.00     0.029 A 
ATOM     31  N   UNL     1       5.985  -3.376 -10.802  1.00  0.00    -0.354 N 
ATOM     32  N   UNL     1       3.563  -7.216 -11.305  1.00  0.00    -0.248 NA
ATOM     33  C   UNL     1       1.930  -6.122 -12.582  1.00  0.00     0.031 C 
ATOM     34  C   UNL     1       5.178  -3.272 -12.825  1.00  0.00     0.029 A 
ATOM     35  C   UNL     1       5.481  -4.164 -11.803  1.00  0.00     0.049 A 
ATOM     36  H   UNL     1       6.626  -3.662 -10.111  1.00  0.00     0.167 HD
ATOM     37  C   UNL     1       4.135  -6.136 -11.944  1.00  0.00     0.074 A 
ATOM     38  C   UNL     1       3.119  -5.578 -12.818  1.00  0.00     0.031 C 
ATOM     39  C   UNL     1       5.271  -5.553 -11.485  1.00  0.00     0.037 A 
BRANCH  26  40
ATOM     40  C   UNL     1       6.762  -0.558  -9.507  1.00  0.00     0.058 A 
ATOM     41  C   UNL     1       7.357   0.066 -10.630  1.00  0.00     0.135 A 
ATOM     42  C   UNL     1       7.593  -0.726  -8.386  1.00  0.00     0.135 A 
ATOM     43  F   UNL     1       6.626   0.344 -11.723  1.00  0.00    -0.206 F 
ATOM     44  C   UNL     1       8.718   0.351 -10.699  1.00  0.00     0.059 A 
ATOM     45  C   UNL     1       8.953  -0.395  -8.414  1.00  0.00     0.059 A 
ATOM     46  F   UNL     1       7.134  -1.295  -7.264  1.00  0.00    -0.206 F 
ATOM     47  C   UNL     1       9.518   0.076  -9.598  1.00  0.00     0.060 A 
BRANCH  47  48
ATOM     48  S   UNL     1      11.305   0.298  -9.746  1.00  0.00     0.124 S 
ATOM     49  O   UNL     1      11.701  -0.928 -10.428  1.00  0.00    -0.237 OA
ATOM     50  O   UNL     1      11.407   1.522 -10.537  1.00  0.00    -0.237 OA
ATOM     51  O   UNL     1      11.740   0.424  -8.358  1.00  0.00    -0.744 OA
ENDBRANCH  47  48
ENDBRANCH  26  40
BRANCH  27  52
ATOM     52  C   UNL     1       0.313  -8.729 -11.469  1.00  0.00     0.058 A 
ATOM     53  C   UNL     1      -0.800  -9.372 -10.908  1.00  0.00     0.135 A 
ATOM     54  C   UNL     1       0.531  -9.037 -12.840  1.00  0.00     0.135 A 
ATOM     55  F   UNL     1      -1.035  -9.344  -9.592  1.00  0.00    -0.206 F 
ATOM     56  C   UNL     1      -1.727 -10.092 -11.678  1.00  0.00     0.059 A 
ATOM     57  C   UNL     1      -0.377  -9.741 -13.630  1.00  0.00     0.059 A 
ATOM     58  F   UNL     1       1.635  -8.627 -13.482  1.00  0.00    -0.206 F 
ATOM     59  C   UNL     1      -1.532 -10.230 -13.048  1.00  0.00     0.060 A 
BRANCH  59  60
ATOM     60  S   UNL     1      -2.824 -10.936 -14.092  1.00  0.00     0.124 S 
ATOM     61  O   UNL     1      -2.519 -12.361 -14.032  1.00  0.00    -0.237 OA
ATOM     62  O   UNL     1      -4.046 -10.518 -13.411  1.00  0.00    -0.237 OA
ATOM     63  O   UNL     1      -2.592 -10.292 -15.382  1.00  0.00    -0.744 OA
ENDBRANCH  59  60
ENDBRANCH  27  52
BRANCH  39  64
ATOM     64  C   UNL     1       5.892  -6.264 -10.300  1.00  0.00     0.058 A 
ATOM     65  C   UNL     1       6.710  -7.385 -10.445  1.00  0.00     0.135 A 
ATOM     66  C   UNL     1       5.586  -5.881  -8.979  1.00  0.00     0.135 A 
ATOM     67  F   UNL     1       7.024  -7.833 -11.671  1.00  0.00    -0.206 F 
ATOM     68  C   UNL     1       7.219  -8.068  -9.333  1.00  0.00     0.059 A 
ATOM     69  C   UNL     1       6.092  -6.521  -7.857  1.00  0.00     0.059 A 
ATOM     70  F   UNL     1       4.779  -4.843  -8.756  1.00  0.00    -0.206 F 
ATOM     71  C   UNL     1       6.909  -7.624  -8.042  1.00  0.00     0.060 A 
BRANCH  71  72
ATOM     72  S   UNL     1       7.573  -8.499  -6.610  1.00  0.00     0.124 S 
ATOM     73  O   UNL     1       7.012  -9.836  -6.776  1.00  0.00    -0.237 OA
ATOM     74  O   UNL     1       9.012  -8.384  -6.821  1.00  0.00    -0.237 OA
ATOM     75  O   UNL     1       7.051  -7.746  -5.471  1.00  0.00    -0.744 OA
ENDBRANCH  71  72
ENDBRANCH  39  64
ENDBRANCH  13  14
ENDBRANCH   6   8
ENDBRANCH   5   6
ENDBRANCH   4   5
ENDBRANCH   3   4
ENDBRANCH   2   3
ENDBRANCH   1   2
BRANCH   1  76
ATOM     76  C   UNL     1      -3.425   0.773  -2.831  1.00  0.00     0.188 C 
BRANCH  76  77
ATOM     77  O   UNL     1      -4.656   1.484  -2.807  1.00  0.00    -0.376 OA
BRANCH  77  78
ATOM     78  C   UNL     1      -4.739   2.744  -3.447  1.00  0.00     0.202 C 
BRANCH  78  79
ATOM     79  C   UNL     1      -4.124   3.920  -2.690  1.00  0.00     0.261 C 
BRANCH  79  80
ATOM     80  O   UNL     1      -2.700   4.014  -2.847  1.00  0.00    -0.459 OA
BRANCH  80  81
ATOM     81  C   UNL     1      -1.943   3.584  -1.805  1.00  0.00     0.355 C 
ATOM     82  O   UNL     1      -2.376   3.039  -0.790  1.00  0.00    -0.244 OA
BRANCH  81  83
ATOM     83  C   UNL     1      -0.558   3.896  -2.035  1.00  0.00     0.127 A 
ATOM     84  C   UNL     1      -0.034   5.078  -2.546  1.00  0.00     0.035 A 
ATOM     85  N   UNL     1       0.530   3.093  -1.730  1.00  0.00    -0.339 N 
ATOM     86  C   UNL     1       1.351   5.085  -2.274  1.00  0.00     0.020 A 
ATOM     87  C   UNL     1       1.643   3.893  -1.655  1.00  0.00     0.086 A 
BRANCH  85  88
ATOM     88  C   UNL     1       0.511   1.665  -1.447  1.00  0.00     0.160 C 
BRANCH  88  89
ATOM     89  C   UNL     1       1.284   0.693  -2.388  1.00  0.00     0.193 C 
ATOM     90  C   UNL     1       2.832   0.804  -2.369  1.00  0.00     0.296 C 
ATOM     91  O   UNL     1       0.750   0.634  -3.731  1.00  0.00    -0.364 OA
ATOM     92  N   UNL     1       3.259   1.910  -3.207  1.00  0.00    -0.328 N 
ATOM     93  C   UNL     1       1.256   1.652  -4.615  1.00  0.00     0.225 C 
ATOM     94  C   UNL     1       4.681   2.178  -3.303  1.00  0.00     0.262 C 
ATOM     95  C   UNL     1       2.782   1.725  -4.580  1.00  0.00     0.210 C 
ATOM     96  H   UNL     1       2.850   2.710  -2.723  1.00  0.00     0.348 HD
ATOM     97  C   UNL     1       4.763   3.073  -4.543  1.00  0.00     0.068 C 
ATOM     98  C   UNL     1       3.407   2.935  -5.247  1.00  0.00     0.073 C 
ENDBRANCH  88  89
ENDBRANCH  85  88
ENDBRANCH  81  83
ENDBRANCH  80  81
ENDBRANCH  79  80
ENDBRANCH  78  79
ENDBRANCH  77  78
ENDBRANCH  76  77
ENDBRANCH   1  76
TORSDOF 22
