REMARK SMILES O=C(OCCOCCOCCOC(=O)c1ccc(-c2c3nc(c(-c4c(F)cc(S(=O)(=O)[O-])cc4F)c4ccc([nH]4)c(-c4c(F)cc(S(=O)(=O)[O-])cc4F)c4nc(c(-c5c(F)cc(S(=O)(=O)[O-])cc5F)c5ccc2[nH]5)C=C4)C=C3)cc1)C1=Cc2c(ccc(Cl)c2Cl)O[C@H]1C(F)(F)F
REMARK SMILES IDX 8 1 7 2 6 3 5 4 4 5 3 6 2 7 1 8 81 9 82 10 92 11 83 12 91 13
REMARK SMILES IDX 84 14 89 15 85 16 87 17 90 18 86 19 88 20 93 21 94 22 95 23
REMARK SMILES IDX 96 24 9 25 10 26 11 27 12 28 13 29 14 30 15 31 16 32 80 33
REMARK SMILES IDX 17 34 79 35 18 36 19 37 20 38 73 39 21 40 78 41 72 42 74 43
REMARK SMILES IDX 22 44 77 45 71 46 70 47 23 49 57 50 36 51 56 52 37 53 40 54
REMARK SMILES IDX 55 55 75 56 38 57 39 58 54 60 76 61 41 62 24 63 25 64 34 65
REMARK SMILES IDX 26 66 27 67 33 68 35 69 28 70 29 71 30 72 31 73 32 74 58 75
REMARK SMILES IDX 59 76 68 77 60 78 61 79 67 80 69 81 62 82 63 83 64 84 65 85
REMARK SMILES IDX 66 86 42 87 43 88 52 89 44 90 45 91 51 92 53 93 46 94 47 95
REMARK SMILES IDX 48 96 49 97 50 98
REMARK H PARENT 74 48 40 59
REMARK Flexibility Score: inf
ROOT
ATOM      1  C   UNL     1       0.994   0.699  -4.122  1.00  0.00     0.188 C 
ENDROOT
BRANCH   1   2
ATOM      2  C   UNL     1       0.959   0.462  -2.605  1.00  0.00     0.188 C 
BRANCH   2   3
ATOM      3  O   UNL     1       2.257   0.447  -2.032  1.00  0.00    -0.376 OA
BRANCH   3   4
ATOM      4  C   UNL     1       2.731  -0.881  -1.857  1.00  0.00     0.202 C 
BRANCH   4   5
ATOM      5  C   UNL     1       2.494  -1.407  -0.446  1.00  0.00     0.261 C 
BRANCH   5   6
ATOM      6  O   UNL     1       2.037  -0.382   0.463  1.00  0.00    -0.460 OA
BRANCH   6   7
ATOM      7  C   UNL     1       2.751   0.515   1.179  1.00  0.00     0.338 C 
ATOM      8  O   UNL     1       2.172   1.270   1.953  1.00  0.00    -0.246 OA
BRANCH   7   9
ATOM      9  C   UNL     1       4.226   0.441   1.224  1.00  0.00     0.087 C 
ATOM     10  C   UNL     1       5.029   0.135   0.202  1.00  0.00     0.029 C 
ATOM     11  C   UNL     1       4.854   1.026   2.474  1.00  0.00     0.316 C 
ATOM     12  C   UNL     1       6.321  -0.454   0.528  1.00  0.00     0.037 A 
ATOM     13  O   UNL     1       6.250   0.651   2.692  1.00  0.00    -0.475 OA
ATOM     14  C   UNL     1       6.854  -0.174   1.787  1.00  0.00     0.129 A 
ATOM     15  C   UNL     1       6.949  -1.420  -0.293  1.00  0.00     0.070 A 
ATOM     16  C   UNL     1       8.032  -0.790   2.205  1.00  0.00     0.049 A 
ATOM     17  C   UNL     1       8.098  -2.080   0.161  1.00  0.00     0.060 A 
ATOM     18  Cl  UNL     1       6.261  -1.882  -1.823  1.00  0.00    -0.082 Cl
ATOM     19  C   UNL     1       8.645  -1.752   1.401  1.00  0.00     0.026 A 
ATOM     20  Cl  UNL     1       8.858  -3.353  -0.734  1.00  0.00    -0.083 Cl
BRANCH  11  21
ATOM     21  C   UNL     1       4.730   2.579   2.422  1.00  0.00     0.430 C 
ATOM     22  F   UNL     1       4.379   3.028   1.188  1.00  0.00    -0.167 F 
ATOM     23  F   UNL     1       3.819   3.045   3.303  1.00  0.00    -0.167 F 
ATOM     24  F   UNL     1       5.909   3.183   2.714  1.00  0.00    -0.167 F 
ENDBRANCH  11  21
ENDBRANCH   7   9
ENDBRANCH   6   7
ENDBRANCH   5   6
ENDBRANCH   4   5
ENDBRANCH   3   4
ENDBRANCH   2   3
ENDBRANCH   1   2
BRANCH   1  25
ATOM     25  O   UNL     1       1.839  -0.132  -4.908  1.00  0.00    -0.376 OA
BRANCH  25  26
ATOM     26  C   UNL     1       3.253   0.048  -4.897  1.00  0.00     0.202 C 
BRANCH  26  27
ATOM     27  C   UNL     1       3.945   1.421  -4.827  1.00  0.00     0.261 C 
BRANCH  27  28
ATOM     28  O   UNL     1       3.434   2.337  -3.855  1.00  0.00    -0.460 OA
BRANCH  28  29
ATOM     29  C   UNL     1       2.976   3.498  -4.370  1.00  0.00     0.338 C 
ATOM     30  O   UNL     1       2.918   3.814  -5.558  1.00  0.00    -0.246 OA
BRANCH  29  31
ATOM     31  C   UNL     1       2.513   4.394  -3.311  1.00  0.00     0.060 A 
ATOM     32  C   UNL     1       1.228   4.238  -2.783  1.00  0.00     0.016 A 
ATOM     33  C   UNL     1       3.288   5.512  -2.994  1.00  0.00     0.016 A 
ATOM     34  C   UNL     1       0.696   5.225  -1.962  1.00  0.00     0.010 A 
ATOM     35  C   UNL     1       2.755   6.500  -2.167  1.00  0.00     0.010 A 
ATOM     36  C   UNL     1       1.441   6.378  -1.687  1.00  0.00    -0.014 A 
BRANCH  36  37
ATOM     37  C   UNL     1       0.769   7.523  -1.040  1.00  0.00     0.031 A 
ATOM     38  C   UNL     1       0.230   8.628  -1.905  1.00  0.00     0.074 A 
ATOM     39  C   UNL     1       0.597   7.535   0.293  1.00  0.00     0.049 A 
ATOM     40  N   UNL     1      -0.392   9.723  -1.558  1.00  0.00    -0.248 NA
ATOM     41  C   UNL     1       0.409   8.474  -3.360  1.00  0.00     0.031 C 
ATOM     42  C   UNL     1       1.044   6.487   1.211  1.00  0.00     0.029 A 
ATOM     43  N   UNL     1      -0.001   8.463   1.103  1.00  0.00    -0.354 N 
ATOM     44  C   UNL     1      -0.689  10.382  -2.745  1.00  0.00     0.074 A 
ATOM     45  C   UNL     1      -0.148   9.584  -3.823  1.00  0.00     0.031 C 
ATOM     46  C   UNL     1       0.719   6.841   2.466  1.00  0.00     0.029 A 
ATOM     47  C   UNL     1       0.066   8.147   2.439  1.00  0.00     0.049 A 
ATOM     48  H   UNL     1      -0.437   9.277   0.762  1.00  0.00     0.167 HD
ATOM     49  C   UNL     1      -1.363  11.543  -2.917  1.00  0.00     0.037 A 
ATOM     50  C   UNL     1      -0.335   8.852   3.514  1.00  0.00     0.037 A 
ATOM     51  C   UNL     1      -1.882  12.333  -1.831  1.00  0.00     0.049 A 
ATOM     52  C   UNL     1      -1.017  10.178   3.298  1.00  0.00     0.074 A 
ATOM     53  C   UNL     1      -2.568  13.534  -1.888  1.00  0.00     0.029 A 
ATOM     54  N   UNL     1      -1.769  12.001  -0.488  1.00  0.00    -0.354 N 
ATOM     55  N   UNL     1      -1.298  10.790   2.170  1.00  0.00    -0.248 NA
ATOM     56  C   UNL     1      -1.445  10.907   4.499  1.00  0.00     0.031 C 
ATOM     57  C   UNL     1      -2.832  13.947  -0.578  1.00  0.00     0.029 A 
ATOM     58  C   UNL     1      -2.356  12.981   0.294  1.00  0.00     0.049 A 
ATOM     59  H   UNL     1      -1.336  11.187  -0.142  1.00  0.00     0.167 HD
ATOM     60  C   UNL     1      -1.954  11.963   2.526  1.00  0.00     0.074 A 
ATOM     61  C   UNL     1      -2.048  11.963   3.972  1.00  0.00     0.031 C 
ATOM     62  C   UNL     1      -2.434  12.956   1.734  1.00  0.00     0.037 A 
BRANCH  49  63
ATOM     63  C   UNL     1      -1.564  12.036  -4.323  1.00  0.00     0.058 A 
ATOM     64  C   UNL     1      -2.474  11.418  -5.196  1.00  0.00     0.135 A 
ATOM     65  C   UNL     1      -0.877  13.169  -4.788  1.00  0.00     0.135 A 
ATOM     66  F   UNL     1      -3.140  10.318  -4.810  1.00  0.00    -0.206 F 
ATOM     67  C   UNL     1      -2.691  11.901  -6.482  1.00  0.00     0.059 A 
ATOM     68  C   UNL     1      -1.095  13.683  -6.064  1.00  0.00     0.059 A 
ATOM     69  F   UNL     1       0.011  13.792  -3.999  1.00  0.00    -0.206 F 
ATOM     70  C   UNL     1      -2.000  13.038  -6.906  1.00  0.00     0.060 A 
BRANCH  70  71
ATOM     71  S   UNL     1      -2.320  13.673  -8.566  1.00  0.00     0.124 S 
ATOM     72  O   UNL     1      -1.677  12.660  -9.396  1.00  0.00    -0.237 OA
ATOM     73  O   UNL     1      -3.778  13.698  -8.614  1.00  0.00    -0.237 OA
ATOM     74  O   UNL     1      -1.674  14.982  -8.561  1.00  0.00    -0.744 OA
ENDBRANCH  70  71
ENDBRANCH  49  63
BRANCH  50  75
ATOM     75  C   UNL     1      -0.078   8.336   4.885  1.00  0.00     0.058 A 
ATOM     76  C   UNL     1      -1.127   7.944   5.729  1.00  0.00     0.135 A 
ATOM     77  C   UNL     1       1.230   8.250   5.388  1.00  0.00     0.135 A 
ATOM     78  F   UNL     1      -2.397   8.015   5.298  1.00  0.00    -0.206 F 
ATOM     79  C   UNL     1      -0.894   7.516   7.032  1.00  0.00     0.059 A 
ATOM     80  C   UNL     1       1.491   7.797   6.677  1.00  0.00     0.059 A 
ATOM     81  F   UNL     1       2.272   8.602   4.619  1.00  0.00    -0.206 F 
ATOM     82  C   UNL     1       0.420   7.450   7.499  1.00  0.00     0.060 A 
BRANCH  82  83
ATOM     83  S   UNL     1       0.717   6.888   9.190  1.00  0.00     0.124 S 
ATOM     84  O   UNL     1       0.295   8.051   9.963  1.00  0.00    -0.237 OA
ATOM     85  O   UNL     1      -0.146   5.715   9.282  1.00  0.00    -0.237 OA
ATOM     86  O   UNL     1       2.149   6.606   9.204  1.00  0.00    -0.744 OA
ENDBRANCH  82  83
ENDBRANCH  50  75
BRANCH  62  87
ATOM     87  C   UNL     1      -3.123  14.103   2.419  1.00  0.00     0.058 A 
ATOM     88  C   UNL     1      -2.407  15.049   3.171  1.00  0.00     0.135 A 
ATOM     89  C   UNL     1      -4.513  14.268   2.308  1.00  0.00     0.135 A 
ATOM     90  F   UNL     1      -1.077  14.935   3.311  1.00  0.00    -0.206 F 
ATOM     91  C   UNL     1      -3.051  16.093   3.825  1.00  0.00     0.059 A 
ATOM     92  C   UNL     1      -5.173  15.324   2.928  1.00  0.00     0.059 A 
ATOM     93  F   UNL     1      -5.242  13.402   1.587  1.00  0.00    -0.206 F 
ATOM     94  C   UNL     1      -4.436  16.220   3.701  1.00  0.00     0.060 A 
BRANCH  94  95
ATOM     95  S   UNL     1      -5.262  17.578   4.555  1.00  0.00     0.124 S 
ATOM     96  O   UNL     1      -5.249  17.108   5.936  1.00  0.00    -0.237 OA
ATOM     97  O   UNL     1      -4.388  18.711   4.263  1.00  0.00    -0.237 OA
ATOM     98  O   UNL     1      -6.576  17.630   3.921  1.00  0.00    -0.744 OA
ENDBRANCH  94  95
ENDBRANCH  62  87
ENDBRANCH  36  37
ENDBRANCH  29  31
ENDBRANCH  28  29
ENDBRANCH  27  28
ENDBRANCH  26  27
ENDBRANCH  25  26
ENDBRANCH   1  25
TORSDOF 21
