REMARK SMILES Cc1cc(C(=O)N2CCO[C@H](CC(=O)OCCOCCOCCOC(=O)c3ccc(-c4c5nc(c(-c6c(F)cc(S(=O)(=O)[O-])cc6F)c6ccc([nH]6)c(-c6c(F)cc(S(=O)(=O)[O-])cc6F)c6nc(c(-c7c(F)cc(S(=O)(=O)[O-])cc7F)c7ccc4[nH]7)C=C6)C=C5)cc3)C2)n(C)n1
REMARK SMILES IDX 19 1 18 2 17 3 16 4 15 5 13 6 14 7 12 8 11 9 7 10 8 11 93 12
REMARK SMILES IDX 9 13 10 14 5 15 6 16 4 17 1 18 2 19 3 20 96 21 94 22 95 23
REMARK SMILES IDX 20 24 21 25 22 26 23 27 24 28 25 29 26 30 27 31 28 32 92 33
REMARK SMILES IDX 29 34 91 35 30 36 31 37 32 38 85 39 33 40 90 41 84 42 86 43
REMARK SMILES IDX 34 44 89 45 83 46 82 47 35 49 69 50 48 51 68 52 49 53 52 54
REMARK SMILES IDX 67 55 87 56 50 57 51 58 66 60 88 61 53 62 36 63 37 64 46 65
REMARK SMILES IDX 38 66 39 67 45 68 47 69 40 70 41 71 42 72 43 73 44 74 70 75
REMARK SMILES IDX 71 76 80 77 72 78 73 79 79 80 81 81 74 82 75 83 76 84 77 85
REMARK SMILES IDX 78 86 54 87 55 88 64 89 56 90 57 91 63 92 65 93 58 94 59 95
REMARK SMILES IDX 60 96 61 97 62 98
REMARK H PARENT 86 48 52 59
REMARK Flexibility Score: inf
ROOT
ATOM      1  C   UNL     1      -0.309  -6.208   5.492  1.00  0.00     0.188 C 
ENDROOT
BRANCH   1   2
ATOM      2  O   UNL     1      -1.511  -6.656   6.113  1.00  0.00    -0.376 OA
BRANCH   2   3
ATOM      3  C   UNL     1      -2.416  -7.402   5.295  1.00  0.00     0.202 C 
BRANCH   3   4
ATOM      4  C   UNL     1      -2.932  -6.698   4.028  1.00  0.00     0.261 C 
BRANCH   4   5
ATOM      5  O   UNL     1      -1.869  -6.307   3.135  1.00  0.00    -0.463 OA
BRANCH   5   6
ATOM      6  C   UNL     1      -1.927  -5.035   2.666  1.00  0.00     0.308 C 
ATOM      7  O   UNL     1      -2.896  -4.292   2.774  1.00  0.00    -0.252 OA
BRANCH   6   8
ATOM      8  C   UNL     1      -0.600  -4.542   2.144  1.00  0.00     0.156 C 
BRANCH   8   9
ATOM      9  C   UNL     1       0.172  -5.493   1.224  1.00  0.00     0.148 C 
ATOM     10  N   UNL     1       1.019  -3.695  -0.207  1.00  0.00    -0.332 N 
ATOM     11  C   UNL     1       0.142  -4.108  -1.302  1.00  0.00     0.148 C 
ATOM     12  C   UNL     1       1.435  -4.791   0.667  1.00  0.00     0.152 C 
ATOM     13  C   UNL     1      -1.033  -4.955  -0.793  1.00  0.00     0.182 C 
ATOM     14  O   UNL     1      -0.625  -5.981   0.124  1.00  0.00    -0.374 OA
BRANCH  10  15
ATOM     15  C   UNL     1       1.540  -2.423  -0.002  1.00  0.00     0.272 C 
ATOM     16  O   UNL     1       2.678  -2.297   0.447  1.00  0.00    -0.267 OA
BRANCH  15  17
ATOM     17  C   UNL     1       0.652  -1.290  -0.190  1.00  0.00     0.126 A 
ATOM     18  C   UNL     1      -2.445   0.708  -0.092  1.00  0.00     0.069 C 
ATOM     19  C   UNL     1      -1.091   0.118  -0.204  1.00  0.00     0.060 A 
ATOM     20  C   UNL     1      -0.734  -1.242  -0.170  1.00  0.00     0.059 A 
ATOM     21  N   UNL     1      -0.014   0.894  -0.315  1.00  0.00    -0.178 NA
ATOM     22  N   UNL     1       1.030   0.036  -0.237  1.00  0.00    -0.263 N 
ATOM     23  C   UNL     1       2.349   0.621  -0.157  1.00  0.00     0.174 C 
ENDBRANCH  15  17
ENDBRANCH  10  15
ENDBRANCH   8   9
ENDBRANCH   6   8
ENDBRANCH   5   6
ENDBRANCH   4   5
ENDBRANCH   3   4
ENDBRANCH   2   3
ENDBRANCH   1   2
BRANCH   1  24
ATOM     24  C   UNL     1       0.588  -7.302   4.903  1.00  0.00     0.188 C 
BRANCH  24  25
ATOM     25  O   UNL     1      -0.085  -8.264   4.103  1.00  0.00    -0.376 OA
BRANCH  25  26
ATOM     26  C   UNL     1       0.671  -9.384   3.641  1.00  0.00     0.202 C 
BRANCH  26  27
ATOM     27  C   UNL     1       1.472 -10.165   4.703  1.00  0.00     0.261 C 
BRANCH  27  28
ATOM     28  O   UNL     1       2.497  -9.416   5.388  1.00  0.00    -0.460 OA
BRANCH  28  29
ATOM     29  C   UNL     1       3.363  -8.699   4.638  1.00  0.00     0.338 C 
ATOM     30  O   UNL     1       3.542  -8.816   3.433  1.00  0.00    -0.246 OA
BRANCH  29  31
ATOM     31  C   UNL     1       3.870  -7.558   5.446  1.00  0.00     0.060 A 
ATOM     32  C   UNL     1       4.078  -6.332   4.795  1.00  0.00     0.016 A 
ATOM     33  C   UNL     1       4.080  -7.653   6.826  1.00  0.00     0.016 A 
ATOM     34  C   UNL     1       4.560  -5.228   5.502  1.00  0.00     0.010 A 
ATOM     35  C   UNL     1       4.572  -6.548   7.533  1.00  0.00     0.010 A 
ATOM     36  C   UNL     1       4.862  -5.345   6.864  1.00  0.00    -0.014 A 
BRANCH  36  37
ATOM     37  C   UNL     1       5.715  -4.314   7.514  1.00  0.00     0.031 A 
ATOM     38  C   UNL     1       7.193  -4.596   7.623  1.00  0.00     0.074 A 
ATOM     39  C   UNL     1       5.225  -3.140   7.954  1.00  0.00     0.049 A 
ATOM     40  N   UNL     1       8.143  -3.876   8.160  1.00  0.00    -0.248 NA
ATOM     41  C   UNL     1       7.659  -5.869   7.047  1.00  0.00     0.031 C 
ATOM     42  C   UNL     1       3.829  -2.716   7.869  1.00  0.00     0.029 A 
ATOM     43  N   UNL     1       5.859  -2.085   8.566  1.00  0.00    -0.354 N 
ATOM     44  C   UNL     1       9.313  -4.607   7.990  1.00  0.00     0.074 A 
ATOM     45  C   UNL     1       8.949  -5.845   7.337  1.00  0.00     0.031 C 
ATOM     46  C   UNL     1       3.711  -1.492   8.415  1.00  0.00     0.029 A 
ATOM     47  C   UNL     1       5.016  -1.056   8.915  1.00  0.00     0.049 A 
ATOM     48  H   UNL     1       6.828  -2.067   8.738  1.00  0.00     0.167 HD
ATOM     49  C   UNL     1      10.581  -4.277   8.331  1.00  0.00     0.037 A 
ATOM     50  C   UNL     1       5.266   0.094   9.576  1.00  0.00     0.037 A 
ATOM     51  C   UNL     1      10.948  -3.047   8.980  1.00  0.00     0.049 A 
ATOM     52  C   UNL     1       6.677   0.410  10.016  1.00  0.00     0.074 A 
ATOM     53  C   UNL     1      12.207  -2.621   9.365  1.00  0.00     0.029 A 
ATOM     54  N   UNL     1      10.059  -2.047   9.346  1.00  0.00    -0.354 N 
ATOM     55  N   UNL     1       7.775  -0.286   9.839  1.00  0.00    -0.248 NA
ATOM     56  C   UNL     1       6.883   1.673  10.742  1.00  0.00     0.031 C 
ATOM     57  C   UNL     1      12.073  -1.388  10.010  1.00  0.00     0.029 A 
ATOM     58  C   UNL     1      10.739  -1.015   9.970  1.00  0.00     0.049 A 
ATOM     59  H   UNL     1       9.088  -2.068   9.185  1.00  0.00     0.167 HD
ATOM     60  C   UNL     1       8.804   0.472  10.394  1.00  0.00     0.074 A 
ATOM     61  C   UNL     1       8.198   1.681  10.910  1.00  0.00     0.031 C 
ATOM     62  C   UNL     1      10.130   0.195  10.464  1.00  0.00     0.037 A 
BRANCH  49  63
ATOM     63  C   UNL     1      11.662  -5.279   8.032  1.00  0.00     0.058 A 
ATOM     64  C   UNL     1      12.077  -5.553   6.719  1.00  0.00     0.135 A 
ATOM     65  C   UNL     1      12.307  -5.960   9.077  1.00  0.00     0.135 A 
ATOM     66  F   UNL     1      11.478  -4.948   5.680  1.00  0.00    -0.206 F 
ATOM     67  C   UNL     1      13.072  -6.486   6.450  1.00  0.00     0.059 A 
ATOM     68  C   UNL     1      13.327  -6.874   8.834  1.00  0.00     0.059 A 
ATOM     69  F   UNL     1      11.947  -5.740  10.352  1.00  0.00    -0.206 F 
ATOM     70  C   UNL     1      13.692  -7.142   7.516  1.00  0.00     0.060 A 
BRANCH  70  71
ATOM     71  S   UNL     1      14.983  -8.348   7.151  1.00  0.00     0.124 S 
ATOM     72  O   UNL     1      14.204  -9.448   6.590  1.00  0.00    -0.237 OA
ATOM     73  O   UNL     1      15.828  -7.625   6.207  1.00  0.00    -0.237 OA
ATOM     74  O   UNL     1      15.585  -8.608   8.455  1.00  0.00    -0.744 OA
ENDBRANCH  70  71
ENDBRANCH  49  63
BRANCH  50  75
ATOM     75  C   UNL     1       4.156   1.042   9.880  1.00  0.00     0.058 A 
ATOM     76  C   UNL     1       4.093   2.309   9.278  1.00  0.00     0.135 A 
ATOM     77  C   UNL     1       3.150   0.710  10.800  1.00  0.00     0.135 A 
ATOM     78  F   UNL     1       5.041   2.684   8.405  1.00  0.00    -0.206 F 
ATOM     79  C   UNL     1       3.086   3.217   9.590  1.00  0.00     0.059 A 
ATOM     80  C   UNL     1       2.116   1.589  11.107  1.00  0.00     0.059 A 
ATOM     81  F   UNL     1       3.160  -0.489  11.404  1.00  0.00    -0.206 F 
ATOM     82  C   UNL     1       2.099   2.846  10.505  1.00  0.00     0.060 A 
BRANCH  82  83
ATOM     83  S   UNL     1       0.773   4.017  10.872  1.00  0.00     0.124 S 
ATOM     84  O   UNL     1       1.475   5.020  11.664  1.00  0.00    -0.237 OA
ATOM     85  O   UNL     1       0.355   4.434   9.538  1.00  0.00    -0.237 OA
ATOM     86  O   UNL     1      -0.199   3.205  11.600  1.00  0.00    -0.744 OA
ENDBRANCH  82  83
ENDBRANCH  50  75
BRANCH  62  87
ATOM     87  C   UNL     1      11.038   1.237  11.066  1.00  0.00     0.058 A 
ATOM     88  C   UNL     1      11.046   1.517  12.441  1.00  0.00     0.135 A 
ATOM     89  C   UNL     1      11.958   1.924  10.255  1.00  0.00     0.135 A 
ATOM     90  F   UNL     1      10.189   0.891  13.263  1.00  0.00    -0.206 F 
ATOM     91  C   UNL     1      11.913   2.460  12.986  1.00  0.00     0.059 A 
ATOM     92  C   UNL     1      12.855   2.848  10.783  1.00  0.00     0.059 A 
ATOM     93  F   UNL     1      12.006   1.685   8.934  1.00  0.00    -0.206 F 
ATOM     94  C   UNL     1      12.815   3.120  12.149  1.00  0.00     0.060 A 
BRANCH  94  95
ATOM     95  S   UNL     1      13.953   4.320  12.873  1.00  0.00     0.124 S 
ATOM     96  O   UNL     1      13.059   5.436  13.163  1.00  0.00    -0.237 OA
ATOM     97  O   UNL     1      14.468   3.602  14.035  1.00  0.00    -0.237 OA
ATOM     98  O   UNL     1      14.925   4.555  11.809  1.00  0.00    -0.744 OA
ENDBRANCH  94  95
ENDBRANCH  62  87
ENDBRANCH  36  37
ENDBRANCH  29  31
ENDBRANCH  28  29
ENDBRANCH  27  28
ENDBRANCH  26  27
ENDBRANCH  25  26
ENDBRANCH  24  25
ENDBRANCH   1  24
TORSDOF 23
