REMARK SMILES Cc1ccc(N2C(=O)C[C@H](Sc3ccccc3C(=O)OCCOCCOCCOC(=O)c3ccc(-c4c5nc(c(-c6c(F)cc(S(=O)(=O)[O-])cc6F)c6ccc([nH]6)c(-c6c(F)cc(S(=O)(=O)[O-])cc6F)c6nc(c(-c7c(F)cc(S(=O)(=O)[O-])cc7F)c7ccc4[nH]7)C=C6)C=C5)cc3)C2=O)cc1
REMARK SMILES IDX 24 1 23 2 22 3 21 4 20 5 18 6 19 7 17 8 12 9 13 10 14 11
REMARK SMILES IDX 16 12 15 13 11 14 10 15 6 16 7 17 98 18 8 19 9 20 99 21 5 22
REMARK SMILES IDX 1 23 2 24 3 25 101 26 4 27 100 28 25 29 26 30 27 31 28 32
REMARK SMILES IDX 29 33 30 34 31 35 32 36 33 37 97 38 34 39 96 40 35 41 36 42
REMARK SMILES IDX 37 43 90 44 38 45 95 46 89 47 91 48 39 49 94 50 88 51 87 52
REMARK SMILES IDX 40 54 74 55 53 56 73 57 54 58 57 59 72 60 92 61 55 62 56 63
REMARK SMILES IDX 71 65 93 66 58 67 41 68 42 69 51 70 43 71 44 72 50 73 52 74
REMARK SMILES IDX 45 75 46 76 47 77 48 78 49 79 75 80 76 81 85 82 77 83 78 84
REMARK SMILES IDX 84 85 86 86 79 87 80 88 81 89 82 90 83 91 59 92 60 93 69 94
REMARK SMILES IDX 61 95 62 96 68 97 70 98 63 99 64 100 65 101 66 102 67 103
REMARK H PARENT 91 53 57 64
REMARK Flexibility Score: inf
ROOT
ATOM      1  C   UNL     1      -5.600   1.913  -4.197  1.00  0.00     0.188 C 
ENDROOT
BRANCH   1   2
ATOM      2  O   UNL     1      -6.319   3.160  -4.122  1.00  0.00    -0.376 OA
BRANCH   2   3
ATOM      3  C   UNL     1      -5.815   4.494  -3.915  1.00  0.00     0.202 C 
BRANCH   3   4
ATOM      4  C   UNL     1      -5.774   5.511  -2.429  1.00  0.00     0.261 C 
BRANCH   4   5
ATOM      5  O   UNL     1      -5.018   5.207  -0.798  1.00  0.00    -0.460 OA
BRANCH   5   6
ATOM      6  C   UNL     1      -5.326   4.564   0.526  1.00  0.00     0.339 C 
ATOM      7  O   UNL     1      -6.444   4.272   0.962  1.00  0.00    -0.246 OA
BRANCH   6   8
ATOM      8  C   UNL     1      -4.436   4.204   1.667  1.00  0.00     0.073 A 
ATOM      9  C   UNL     1      -4.614   2.959   2.438  1.00  0.00     0.023 A 
ATOM     10  C   UNL     1      -4.280   2.947   3.805  1.00  0.00     0.016 A 
ATOM     11  C   UNL     1      -3.825   4.098   4.438  1.00  0.00     0.001 A 
ATOM     12  C   UNL     1      -3.985   5.342   2.351  1.00  0.00     0.017 A 
ATOM     13  C   UNL     1      -3.696   5.287   3.722  1.00  0.00     0.001 A 
BRANCH   9  14
ATOM     14  S   UNL     1      -5.713   1.546   1.998  1.00  0.00    -0.111 SA
BRANCH  14  15
ATOM     15  C   UNL     1      -4.897  -0.102   2.299  1.00  0.00     0.151 C 
ATOM     16  N   UNL     1      -2.781  -0.749   1.499  1.00  0.00    -0.250 N 
ATOM     17  C   UNL     1      -3.683  -1.219   0.567  1.00  0.00     0.235 C 
ATOM     18  C   UNL     1      -3.412  -0.094   2.533  1.00  0.00     0.247 C 
ATOM     19  O   UNL     1      -3.457  -1.513  -0.601  1.00  0.00    -0.274 OA
ATOM     20  C   UNL     1      -5.064  -1.067   1.125  1.00  0.00     0.126 C 
ATOM     21  O   UNL     1      -2.892   0.359   3.547  1.00  0.00    -0.273 OA
BRANCH  16  22
ATOM     22  C   UNL     1      -1.372  -0.747   1.280  1.00  0.00     0.052 A 
ATOM     23  C   UNL     1       2.777  -0.377   0.103  1.00  0.00     0.044 C 
ATOM     24  C   UNL     1       1.360  -0.546   0.561  1.00  0.00    -0.051 A 
ATOM     25  C   UNL     1       0.596  -1.640   0.146  1.00  0.00     0.005 A 
ATOM     26  C   UNL     1       0.771   0.406   1.397  1.00  0.00     0.005 A 
ATOM     27  C   UNL     1      -0.759  -1.730   0.488  1.00  0.00     0.027 A 
ATOM     28  C   UNL     1      -0.577   0.304   1.756  1.00  0.00     0.027 A 
ENDBRANCH  16  22
ENDBRANCH  14  15
ENDBRANCH   9  14
ENDBRANCH   6   8
ENDBRANCH   5   6
ENDBRANCH   4   5
ENDBRANCH   3   4
ENDBRANCH   2   3
ENDBRANCH   1   2
BRANCH   1  29
ATOM     29  C   UNL     1      -4.156   1.686  -4.682  1.00  0.00     0.188 C 
BRANCH  29  30
ATOM     30  O   UNL     1      -3.378   2.863  -4.776  1.00  0.00    -0.376 OA
BRANCH  30  31
ATOM     31  C   UNL     1      -2.036   2.669  -5.217  1.00  0.00     0.202 C 
BRANCH  31  32
ATOM     32  C   UNL     1      -1.120   1.781  -4.342  1.00  0.00     0.261 C 
BRANCH  32  33
ATOM     33  O   UNL     1      -0.510   2.466  -3.220  1.00  0.00    -0.460 OA
BRANCH  33  34
ATOM     34  C   UNL     1      -0.819   2.082  -1.927  1.00  0.00     0.338 C 
ATOM     35  O   UNL     1       0.007   1.897  -1.089  1.00  0.00    -0.246 OA
BRANCH  34  36
ATOM     36  C   UNL     1      -2.253   2.313  -1.621  1.00  0.00     0.060 A 
ATOM     37  C   UNL     1      -3.178   1.506  -0.970  1.00  0.00     0.016 A 
ATOM     38  C   UNL     1      -2.730   3.459  -2.100  1.00  0.00     0.016 A 
ATOM     39  C   UNL     1      -4.624   1.765  -0.922  1.00  0.00     0.010 A 
ATOM     40  C   UNL     1      -4.107   3.612  -2.090  1.00  0.00     0.010 A 
ATOM     41  C   UNL     1      -5.208   2.899  -1.456  1.00  0.00    -0.014 A 
BRANCH  41  42
ATOM     42  C   UNL     1      -6.911   3.357  -1.379  1.00  0.00     0.031 A 
ATOM     43  C   UNL     1      -7.773   4.839  -0.764  1.00  0.00     0.074 A 
ATOM     44  C   UNL     1      -7.855   2.484  -1.807  1.00  0.00     0.049 A 
ATOM     45  N   UNL     1      -9.048   4.927  -0.406  1.00  0.00    -0.248 NA
ATOM     46  C   UNL     1      -7.179   6.215  -0.372  1.00  0.00     0.031 C 
ATOM     47  C   UNL     1      -9.124   2.941  -2.382  1.00  0.00     0.029 A 
ATOM     48  N   UNL     1      -7.901   1.106  -1.985  1.00  0.00    -0.354 N 
ATOM     49  C   UNL     1      -9.312   6.257   0.017  1.00  0.00     0.074 A 
ATOM     50  C   UNL     1      -8.084   6.838   0.339  1.00  0.00     0.031 C 
ATOM     51  C   UNL     1      -9.866   1.887  -2.728  1.00  0.00     0.029 A 
ATOM     52  C   UNL     1      -9.213   0.698  -2.232  1.00  0.00     0.049 A 
ATOM     53  H   UNL     1      -7.122   0.506  -1.944  1.00  0.00     0.167 HD
ATOM     54  C   UNL     1     -10.470   6.947  -0.206  1.00  0.00     0.037 A 
ATOM     55  C   UNL     1      -9.838  -0.327  -1.591  1.00  0.00     0.037 A 
ATOM     56  C   UNL     1     -11.480   6.007  -0.609  1.00  0.00     0.049 A 
ATOM     57  C   UNL     1     -11.047   0.163  -0.800  1.00  0.00     0.074 A 
ATOM     58  C   UNL     1     -11.935   5.577  -1.839  1.00  0.00     0.029 A 
ATOM     59  N   UNL     1     -11.853   5.050   0.318  1.00  0.00    -0.354 N 
ATOM     60  N   UNL     1     -11.437   1.413  -0.784  1.00  0.00    -0.248 NA
ATOM     61  C   UNL     1     -11.896  -0.664   0.057  1.00  0.00     0.031 C 
ATOM     62  C   UNL     1     -12.497   4.284  -1.653  1.00  0.00     0.029 A 
ATOM     63  C   UNL     1     -12.428   3.963  -0.308  1.00  0.00     0.049 A 
ATOM     64  H   UNL     1     -11.725   5.133   1.291  1.00  0.00     0.167 HD
ATOM     65  C   UNL     1     -12.420   1.596   0.145  1.00  0.00     0.074 A 
ATOM     66  C   UNL     1     -12.721   0.253   0.598  1.00  0.00     0.031 C 
ATOM     67  C   UNL     1     -12.861   2.837   0.509  1.00  0.00     0.037 A 
BRANCH  54  68
ATOM     68  C   UNL     1     -10.493   8.489  -0.422  1.00  0.00     0.058 A 
ATOM     69  C   UNL     1     -11.365   9.061  -1.372  1.00  0.00     0.135 A 
ATOM     70  C   UNL     1      -9.622   9.446   0.168  1.00  0.00     0.135 A 
ATOM     71  F   UNL     1     -12.342   8.336  -1.932  1.00  0.00    -0.206 F 
ATOM     72  C   UNL     1     -11.286  10.402  -1.794  1.00  0.00     0.059 A 
ATOM     73  C   UNL     1      -9.456  10.761  -0.302  1.00  0.00     0.059 A 
ATOM     74  F   UNL     1      -8.946   9.184   1.295  1.00  0.00    -0.206 F 
ATOM     75  C   UNL     1     -10.298  11.236  -1.288  1.00  0.00     0.060 A 
BRANCH  75  76
ATOM     76  S   UNL     1     -10.155  12.936  -1.889  1.00  0.00     0.124 S 
ATOM     77  O   UNL     1     -10.254  12.772  -3.336  1.00  0.00    -0.237 OA
ATOM     78  O   UNL     1     -11.293  13.581  -1.243  1.00  0.00    -0.237 OA
ATOM     79  O   UNL     1      -8.841  13.358  -1.408  1.00  0.00    -0.744 OA
ENDBRANCH  75  76
ENDBRANCH  54  68
BRANCH  55  80
ATOM     80  C   UNL     1      -9.000  -1.545  -1.410  1.00  0.00     0.058 A 
ATOM     81  C   UNL     1      -8.423  -2.101  -2.579  1.00  0.00     0.135 A 
ATOM     82  C   UNL     1      -8.560  -2.071  -0.193  1.00  0.00     0.135 A 
ATOM     83  F   UNL     1      -8.831  -1.685  -3.790  1.00  0.00    -0.206 F 
ATOM     84  C   UNL     1      -7.376  -3.018  -2.547  1.00  0.00     0.059 A 
ATOM     85  C   UNL     1      -7.534  -3.032  -0.138  1.00  0.00     0.059 A 
ATOM     86  F   UNL     1      -9.056  -1.618   0.966  1.00  0.00    -0.206 F 
ATOM     87  C   UNL     1      -6.912  -3.458  -1.316  1.00  0.00     0.060 A 
BRANCH  87  88
ATOM     88  S   UNL     1      -5.397  -4.459  -1.257  1.00  0.00     0.124 S 
ATOM     89  O   UNL     1      -5.933  -5.814  -1.309  1.00  0.00    -0.237 OA
ATOM     90  O   UNL     1      -4.676  -4.024  -2.451  1.00  0.00    -0.237 OA
ATOM     91  O   UNL     1      -4.801  -4.072   0.019  1.00  0.00    -0.744 OA
ENDBRANCH  87  88
ENDBRANCH  55  80
BRANCH  67  92
ATOM     92  C   UNL     1     -13.754   3.127   1.689  1.00  0.00     0.058 A 
ATOM     93  C   UNL     1     -13.708   2.410   2.895  1.00  0.00     0.135 A 
ATOM     94  C   UNL     1     -14.588   4.272   1.680  1.00  0.00     0.135 A 
ATOM     95  F   UNL     1     -12.859   1.386   3.064  1.00  0.00    -0.206 F 
ATOM     96  C   UNL     1     -14.514   2.742   3.984  1.00  0.00     0.059 A 
ATOM     97  C   UNL     1     -15.346   4.660   2.777  1.00  0.00     0.059 A 
ATOM     98  F   UNL     1     -14.681   5.060   0.597  1.00  0.00    -0.206 F 
ATOM     99  C   UNL     1     -15.341   3.859   3.909  1.00  0.00     0.060 A 
BRANCH  99 100
ATOM    100  S   UNL     1     -16.432   4.276   5.278  1.00  0.00     0.124 S 
ATOM    101  O   UNL     1     -17.678   3.645   4.851  1.00  0.00    -0.237 OA
ATOM    102  O   UNL     1     -15.776   3.657   6.426  1.00  0.00    -0.237 OA
ATOM    103  O   UNL     1     -16.426   5.735   5.272  1.00  0.00    -0.744 OA
ENDBRANCH  99 100
ENDBRANCH  67  92
ENDBRANCH  41  42
ENDBRANCH  34  36
ENDBRANCH  33  34
ENDBRANCH  32  33
ENDBRANCH  31  32
ENDBRANCH  30  31
ENDBRANCH  29  30
ENDBRANCH   1  29
TORSDOF 23
