REMARK SMILES CC1=C(C)C[C@@H](C(=O)OCCOCCOCCOC(=O)c2ccc(-c3c4nc(c(-c5c(F)cc(S(=O)(=O)[O-])cc5F)c5ccc([nH]5)c(-c5c(F)cc(S(=O)(=O)[O-])cc5F)c5nc(c(-c6c(F)cc(S(=O)(=O)[O-])cc6F)c6ccc3[nH]6)C=C5)C=C4)cc2)[C@@H](C(=O)N2CCN(c3cccc(C(F)(F)F)c3)CC2)C1
REMARK SMILES IDX 13 1 12 2 11 3 10 4 9 5 7 6 8 7 6 8 1 9 2 10 3 11 106 12
REMARK SMILES IDX 4 13 5 14 87 15 88 16 89 17 90 18 91 19 105 20 92 21 104 22
REMARK SMILES IDX 93 23 94 24 95 25 103 26 96 27 98 28 97 29 99 30 100 31
REMARK SMILES IDX 101 32 102 33 14 34 15 35 16 36 17 37 18 38 19 39 20 40
REMARK SMILES IDX 21 41 22 42 86 43 23 44 85 45 24 46 25 47 26 48 79 49 27 50
REMARK SMILES IDX 84 51 78 52 80 53 28 54 83 55 77 56 76 57 29 59 63 60 42 61
REMARK SMILES IDX 62 62 43 63 46 64 61 65 81 66 44 67 45 68 60 70 82 71 47 72
REMARK SMILES IDX 30 73 31 74 40 75 32 76 33 77 39 78 41 79 34 80 35 81 36 82
REMARK SMILES IDX 37 83 38 84 64 85 65 86 74 87 66 88 67 89 73 90 75 91 68 92
REMARK SMILES IDX 69 93 70 94 71 95 72 96 48 97 49 98 58 99 50 100 51 101
REMARK SMILES IDX 57 102 59 103 52 104 53 105 54 106 55 107 56 108
REMARK H PARENT 80 58 46 69
REMARK Flexibility Score: inf
ROOT
ATOM      1  C   UNL     1      -2.959  -6.214   1.803  1.00  0.00     0.188 C 
ENDROOT
BRANCH   1   2
ATOM      2  O   UNL     1      -2.059  -6.381   2.899  1.00  0.00    -0.376 OA
BRANCH   2   3
ATOM      3  C   UNL     1      -1.690  -5.246   3.669  1.00  0.00     0.202 C 
BRANCH   3   4
ATOM      4  C   UNL     1      -0.466  -4.463   3.166  1.00  0.00     0.261 C 
BRANCH   4   5
ATOM      5  O   UNL     1      -0.613  -3.751   1.912  1.00  0.00    -0.463 OA
BRANCH   5   6
ATOM      6  C   UNL     1      -0.293  -4.470   0.815  1.00  0.00     0.310 C 
ATOM      7  O   UNL     1      -0.040  -5.674   0.846  1.00  0.00    -0.252 OA
BRANCH   6   8
ATOM      8  C   UNL     1      -0.052  -3.699  -0.473  1.00  0.00     0.116 C 
ATOM      9  C   UNL     1       1.503   0.370   0.252  1.00  0.00     0.039 C 
ATOM     10  C   UNL     1       1.132  -1.034  -0.151  1.00  0.00    -0.074 C 
ATOM     11  C   UNL     1       1.899  -2.127   0.025  1.00  0.00    -0.073 C 
ATOM     12  C   UNL     1      -0.211  -1.113  -0.831  1.00  0.00     0.045 C 
ATOM     13  C   UNL     1       3.222  -2.159   0.742  1.00  0.00     0.039 C 
ATOM     14  C   UNL     1       1.464  -3.456  -0.543  1.00  0.00     0.046 C 
ATOM     15  C   UNL     1      -0.860  -2.506  -1.016  1.00  0.00     0.097 C 
BRANCH  15  16
ATOM     16  C   UNL     1      -2.324  -2.351  -0.600  1.00  0.00     0.227 C 
ATOM     17  O   UNL     1      -2.599  -1.979   0.544  1.00  0.00    -0.275 OA
ATOM     18  N   UNL     1      -3.324  -2.462  -1.574  1.00  0.00    -0.339 N 
ATOM     19  C   UNL     1      -4.671  -2.023  -1.161  1.00  0.00     0.141 C 
ATOM     20  C   UNL     1      -3.250  -3.399  -2.716  1.00  0.00     0.141 C 
ATOM     21  C   UNL     1      -5.680  -1.848  -2.303  1.00  0.00     0.138 C 
ATOM     22  C   UNL     1      -4.414  -3.370  -3.747  1.00  0.00     0.138 C 
ATOM     23  N   UNL     1      -5.694  -3.071  -3.105  1.00  0.00    -0.368 N 
BRANCH  23  24
ATOM     24  C   UNL     1      -6.868  -3.369  -3.784  1.00  0.00     0.037 A 
ATOM     25  C   UNL     1      -7.439  -2.535  -4.746  1.00  0.00     0.026 A 
ATOM     26  C   UNL     1      -7.563  -4.536  -3.446  1.00  0.00     0.039 A 
ATOM     27  C   UNL     1      -8.665  -2.862  -5.343  1.00  0.00     0.003 A 
ATOM     28  C   UNL     1      -8.814  -4.862  -3.993  1.00  0.00     0.058 A 
ATOM     29  C   UNL     1      -9.351  -4.018  -4.967  1.00  0.00     0.013 A 
BRANCH  28  30
ATOM     30  C   UNL     1      -9.552  -6.098  -3.544  1.00  0.00     0.416 C 
ATOM     31  F   UNL     1     -10.907  -5.957  -3.581  1.00  0.00    -0.166 F 
ATOM     32  F   UNL     1      -9.266  -7.186  -4.310  1.00  0.00    -0.166 F 
ATOM     33  F   UNL     1      -9.268  -6.468  -2.262  1.00  0.00    -0.166 F 
ENDBRANCH  28  30
ENDBRANCH  23  24
ENDBRANCH  15  16
ENDBRANCH   6   8
ENDBRANCH   5   6
ENDBRANCH   4   5
ENDBRANCH   3   4
ENDBRANCH   2   3
ENDBRANCH   1   2
BRANCH   1  34
ATOM     34  C   UNL     1      -3.647  -4.860   1.622  1.00  0.00     0.188 C 
BRANCH  34  35
ATOM     35  O   UNL     1      -4.512  -4.556   2.715  1.00  0.00    -0.376 OA
BRANCH  35  36
ATOM     36  C   UNL     1      -5.862  -4.327   2.326  1.00  0.00     0.202 C 
BRANCH  36  37
ATOM     37  C   UNL     1      -6.623  -5.652   2.260  1.00  0.00     0.261 C 
BRANCH  37  38
ATOM     38  O   UNL     1      -6.161  -6.505   1.194  1.00  0.00    -0.460 OA
BRANCH  38  39
ATOM     39  C   UNL     1      -6.573  -6.115  -0.031  1.00  0.00     0.338 C 
ATOM     40  O   UNL     1      -7.264  -5.144  -0.280  1.00  0.00    -0.246 OA
BRANCH  39  41
ATOM     41  C   UNL     1      -6.005  -6.995  -1.069  1.00  0.00     0.060 A 
ATOM     42  C   UNL     1      -4.768  -6.679  -1.636  1.00  0.00     0.016 A 
ATOM     43  C   UNL     1      -6.797  -7.992  -1.633  1.00  0.00     0.016 A 
ATOM     44  C   UNL     1      -4.347  -7.313  -2.807  1.00  0.00     0.010 A 
ATOM     45  C   UNL     1      -6.361  -8.648  -2.789  1.00  0.00     0.010 A 
ATOM     46  C   UNL     1      -5.145  -8.299  -3.401  1.00  0.00    -0.014 A 
BRANCH  46  47
ATOM     47  C   UNL     1      -4.736  -8.986  -4.654  1.00  0.00     0.031 A 
ATOM     48  C   UNL     1      -5.537  -8.806  -5.914  1.00  0.00     0.074 A 
ATOM     49  C   UNL     1      -3.678  -9.818  -4.652  1.00  0.00     0.049 A 
ATOM     50  N   UNL     1      -5.564  -9.546  -6.992  1.00  0.00    -0.248 NA
ATOM     51  C   UNL     1      -6.416  -7.628  -5.970  1.00  0.00     0.031 C 
ATOM     52  C   UNL     1      -2.754 -10.012  -3.534  1.00  0.00     0.029 A 
ATOM     53  N   UNL     1      -3.224 -10.684  -5.617  1.00  0.00    -0.354 N 
ATOM     54  C   UNL     1      -6.493  -8.952  -7.839  1.00  0.00     0.074 A 
ATOM     55  C   UNL     1      -6.994  -7.777  -7.156  1.00  0.00     0.031 C 
ATOM     56  C   UNL     1      -1.862 -10.959  -3.864  1.00  0.00     0.029 A 
ATOM     57  C   UNL     1      -2.210 -11.499  -5.174  1.00  0.00     0.049 A 
ATOM     58  H   UNL     1      -3.588 -10.717  -6.531  1.00  0.00     0.167 HD
ATOM     59  C   UNL     1      -6.894  -9.364  -9.066  1.00  0.00     0.037 A 
ATOM     60  C   UNL     1      -1.678 -12.612  -5.716  1.00  0.00     0.037 A 
ATOM     61  C   UNL     1      -6.375 -10.530  -9.736  1.00  0.00     0.049 A 
ATOM     62  C   UNL     1      -2.221 -13.129  -7.018  1.00  0.00     0.074 A 
ATOM     63  C   UNL     1      -6.731 -11.051 -10.969  1.00  0.00     0.029 A 
ATOM     64  N   UNL     1      -5.384 -11.357  -9.227  1.00  0.00    -0.354 N 
ATOM     65  N   UNL     1      -3.170 -12.626  -7.771  1.00  0.00    -0.248 NA
ATOM     66  C   UNL     1      -1.644 -14.380  -7.527  1.00  0.00     0.031 C 
ATOM     67  C   UNL     1      -5.976 -12.210 -11.190  1.00  0.00     0.029 A 
ATOM     68  C   UNL     1      -5.125 -12.390 -10.112  1.00  0.00     0.049 A 
ATOM     69  H   UNL     1      -4.931 -11.227  -8.362  1.00  0.00     0.167 HD
ATOM     70  C   UNL     1      -3.301 -13.496  -8.847  1.00  0.00     0.074 A 
ATOM     71  C   UNL     1      -2.324 -14.549  -8.653  1.00  0.00     0.031 C 
ATOM     72  C   UNL     1      -4.155 -13.433  -9.898  1.00  0.00     0.037 A 
BRANCH  59  73
ATOM     73  C   UNL     1      -7.976  -8.579  -9.754  1.00  0.00     0.058 A 
ATOM     74  C   UNL     1      -7.716  -7.351 -10.380  1.00  0.00     0.135 A 
ATOM     75  C   UNL     1      -9.280  -9.095  -9.840  1.00  0.00     0.135 A 
ATOM     76  F   UNL     1      -6.491  -6.805 -10.318  1.00  0.00    -0.206 F 
ATOM     77  C   UNL     1      -8.714  -6.655 -11.058  1.00  0.00     0.059 A 
ATOM     78  C   UNL     1     -10.289  -8.426 -10.527  1.00  0.00     0.059 A 
ATOM     79  F   UNL     1      -9.581 -10.267  -9.259  1.00  0.00    -0.206 F 
ATOM     80  C   UNL     1      -9.999  -7.201 -11.125  1.00  0.00     0.060 A 
BRANCH  80  81
ATOM     81  S   UNL     1     -11.281  -6.293 -12.016  1.00  0.00     0.124 S 
ATOM     82  O   UNL     1     -11.582  -5.218 -11.076  1.00  0.00    -0.237 OA
ATOM     83  O   UNL     1     -10.591  -5.891 -13.238  1.00  0.00    -0.237 OA
ATOM     84  O   UNL     1     -12.338  -7.284 -12.195  1.00  0.00    -0.744 OA
ENDBRANCH  80  81
ENDBRANCH  59  73
BRANCH  60  85
ATOM     85  C   UNL     1      -0.634 -13.362  -4.972  1.00  0.00     0.058 A 
ATOM     86  C   UNL     1       0.698 -13.369  -5.406  1.00  0.00     0.135 A 
ATOM     87  C   UNL     1      -0.946 -14.059  -3.793  1.00  0.00     0.135 A 
ATOM     88  F   UNL     1       1.039 -12.729  -6.535  1.00  0.00    -0.206 F 
ATOM     89  C   UNL     1       1.689 -14.039  -4.696  1.00  0.00     0.059 A 
ATOM     90  C   UNL     1       0.031 -14.714  -3.052  1.00  0.00     0.059 A 
ATOM     91  F   UNL     1      -2.207 -14.074  -3.335  1.00  0.00    -0.206 F 
ATOM     92  C   UNL     1       1.346 -14.703  -3.516  1.00  0.00     0.060 A 
BRANCH  92  93
ATOM     93  S   UNL     1       2.648 -15.507  -2.557  1.00  0.00     0.124 S 
ATOM     94  O   UNL     1       2.834 -16.747  -3.300  1.00  0.00    -0.237 OA
ATOM     95  O   UNL     1       3.739 -14.541  -2.643  1.00  0.00    -0.237 OA
ATOM     96  O   UNL     1       2.048 -15.645  -1.233  1.00  0.00    -0.744 OA
ENDBRANCH  92  93
ENDBRANCH  60  85
BRANCH  72  97
ATOM     97  C   UNL     1      -4.050 -14.521 -10.926  1.00  0.00     0.058 A 
ATOM     98  C   UNL     1      -4.580 -15.799 -10.695  1.00  0.00     0.135 A 
ATOM     99  C   UNL     1      -3.428 -14.277 -12.160  1.00  0.00     0.135 A 
ATOM    100  F   UNL     1      -5.175 -16.083  -9.525  1.00  0.00    -0.206 F 
ATOM    101  C   UNL     1      -4.478 -16.809 -11.646  1.00  0.00     0.059 A 
ATOM    102  C   UNL     1      -3.331 -15.267 -13.133  1.00  0.00     0.059 A 
ATOM    103  F   UNL     1      -2.911 -13.068 -12.430  1.00  0.00    -0.206 F 
ATOM    104  C   UNL     1      -3.846 -16.534 -12.861  1.00  0.00     0.060 A 
BRANCH 104 105
ATOM    105  S   UNL     1      -3.728 -17.844 -14.098  1.00  0.00     0.124 S 
ATOM    106  O   UNL     1      -2.625 -18.642 -13.574  1.00  0.00    -0.237 OA
ATOM    107  O   UNL     1      -5.048 -18.465 -14.028  1.00  0.00    -0.237 OA
ATOM    108  O   UNL     1      -3.449 -17.119 -15.333  1.00  0.00    -0.744 OA
ENDBRANCH 104 105
ENDBRANCH  72  97
ENDBRANCH  46  47
ENDBRANCH  39  41
ENDBRANCH  38  39
ENDBRANCH  37  38
ENDBRANCH  36  37
ENDBRANCH  35  36
ENDBRANCH  34  35
ENDBRANCH   1  34
TORSDOF 23
