REMARK SMILES Cc1cc(NC(=O)c2sccc2/C=C/C(=O)OCCOCCOCCOC(=O)c2ccc(-c3c4nc(c(-c5c(F)cc(S(=O)(=O)[O-])cc5F)c5ccc([nH]5)c(-c5c(F)cc(S(=O)(=O)[O-])cc5F)c5nc(c(-c6c(F)cc(S(=O)(=O)[O-])cc6F)c6ccc3[nH]6)C=C5)C=C4)cc2)ccn1
REMARK SMILES IDX 21 1 20 2 19 3 18 4 17 5 15 6 16 7 14 8 13 9 12 10 8 11 9 12
REMARK SMILES IDX 10 13 11 14 6 15 5 16 7 18 4 19 1 20 2 21 3 22 97 23 96 24
REMARK SMILES IDX 95 25 22 26 23 27 24 28 25 29 26 30 27 31 28 32 29 33 30 34
REMARK SMILES IDX 94 35 31 36 93 37 32 38 33 39 34 40 87 41 35 42 92 43 86 44
REMARK SMILES IDX 88 45 36 46 91 47 85 48 84 49 37 51 71 52 50 53 70 54 51 55
REMARK SMILES IDX 54 56 69 57 89 58 52 59 53 60 68 62 90 63 55 64 38 65 39 66
REMARK SMILES IDX 48 67 40 68 41 69 47 70 49 71 42 72 43 73 44 74 45 75 46 76
REMARK SMILES IDX 72 77 73 78 82 79 74 80 75 81 81 82 83 83 76 84 77 85 78 86
REMARK SMILES IDX 79 87 80 88 56 89 57 90 66 91 58 92 59 93 65 94 67 95 60 96
REMARK SMILES IDX 61 97 62 98 63 99 64 100
REMARK H PARENT 5 17 88 50 54 61
REMARK Flexibility Score: inf
ROOT
ATOM      1  C   UNL     1      -1.390   1.522  -5.627  1.00  0.00     0.188 C 
ENDROOT
BRANCH   1   2
ATOM      2  O   UNL     1      -0.147   1.310  -6.259  1.00  0.00    -0.376 OA
BRANCH   2   3
ATOM      3  C   UNL     1       0.878   0.559  -5.632  1.00  0.00     0.202 C 
BRANCH   3   4
ATOM      4  C   UNL     1       1.026   0.364  -4.113  1.00  0.00     0.261 C 
BRANCH   4   5
ATOM      5  O   UNL     1      -0.180   0.263  -3.351  1.00  0.00    -0.460 OA
BRANCH   5   6
ATOM      6  C   UNL     1      -0.443   1.335  -2.563  1.00  0.00     0.330 C 
ATOM      7  O   UNL     1       0.253   2.333  -2.453  1.00  0.00    -0.247 OA
BRANCH   6   8
ATOM      8  C   UNL     1      -1.761   1.248  -1.905  1.00  0.00     0.094 C 
ATOM      9  C   UNL     1      -2.529   0.149  -1.818  1.00  0.00     0.017 C 
BRANCH   9  10
ATOM     10  C   UNL     1      -3.728   0.084  -1.030  1.00  0.00    -0.002 A 
ATOM     11  C   UNL     1      -4.030  -0.975  -0.182  1.00  0.00     0.099 A 
ATOM     12  S   UNL     1      -5.541  -0.732   0.603  1.00  0.00    -0.138 S 
ATOM     13  C   UNL     1      -5.733   0.815  -0.090  1.00  0.00     0.066 A 
ATOM     14  C   UNL     1      -4.713   1.120  -0.962  1.00  0.00     0.020 A 
BRANCH  11  15
ATOM     15  C   UNL     1      -3.301  -2.197   0.126  1.00  0.00     0.266 C 
ATOM     16  N   UNL     1      -1.935  -2.168   0.352  1.00  0.00    -0.321 N 
ATOM     17  H   UNL     1      -1.501  -3.050   0.303  1.00  0.00     0.170 HD
ATOM     18  O   UNL     1      -3.832  -3.311   0.129  1.00  0.00    -0.268 OA
BRANCH  16  19
ATOM     19  C   UNL     1      -1.056  -1.107   0.638  1.00  0.00     0.044 A 
ATOM     20  C   UNL     1       2.586  -0.318  -0.016  1.00  0.00     0.067 C 
ATOM     21  C   UNL     1       1.163  -0.215   0.441  1.00  0.00     0.039 A 
ATOM     22  C   UNL     1       0.286  -1.284   0.297  1.00  0.00     0.049 A 
ATOM     23  N   UNL     1       0.769   0.985   0.918  1.00  0.00    -0.261 NA
ATOM     24  C   UNL     1      -0.519   1.120   1.289  1.00  0.00     0.113 A 
ATOM     25  C   UNL     1      -1.453   0.103   1.198  1.00  0.00     0.046 A 
ENDBRANCH  16  19
ENDBRANCH  11  15
ENDBRANCH   9  10
ENDBRANCH   6   8
ENDBRANCH   5   6
ENDBRANCH   4   5
ENDBRANCH   3   4
ENDBRANCH   2   3
ENDBRANCH   1   2
BRANCH   1  26
ATOM     26  C   UNL     1      -2.312   0.318  -5.367  1.00  0.00     0.188 C 
BRANCH  26  27
ATOM     27  O   UNL     1      -1.816  -0.985  -5.563  1.00  0.00    -0.376 OA
BRANCH  27  28
ATOM     28  C   UNL     1      -1.587  -1.455  -6.881  1.00  0.00     0.202 C 
BRANCH  28  29
ATOM     29  C   UNL     1      -2.185  -0.849  -8.171  1.00  0.00     0.261 C 
BRANCH  29  30
ATOM     30  O   UNL     1      -2.640   0.507  -8.141  1.00  0.00    -0.460 OA
BRANCH  30  31
ATOM     31  C   UNL     1      -3.985   0.673  -8.100  1.00  0.00     0.338 C 
ATOM     32  O   UNL     1      -4.834  -0.209  -8.069  1.00  0.00    -0.246 OA
BRANCH  31  33
ATOM     33  C   UNL     1      -4.289   2.099  -7.885  1.00  0.00     0.060 A 
ATOM     34  C   UNL     1      -4.868   2.496  -6.670  1.00  0.00     0.016 A 
ATOM     35  C   UNL     1      -4.034   3.036  -8.886  1.00  0.00     0.016 A 
ATOM     36  C   UNL     1      -5.207   3.832  -6.458  1.00  0.00     0.010 A 
ATOM     37  C   UNL     1      -4.402   4.370  -8.682  1.00  0.00     0.010 A 
ATOM     38  C   UNL     1      -5.013   4.769  -7.479  1.00  0.00    -0.014 A 
BRANCH  38  39
ATOM     39  C   UNL     1      -5.609   6.124  -7.367  1.00  0.00     0.031 A 
ATOM     40  C   UNL     1      -6.916   6.390  -8.064  1.00  0.00     0.074 A 
ATOM     41  C   UNL     1      -5.004   7.099  -6.665  1.00  0.00     0.049 A 
ATOM     42  N   UNL     1      -7.578   7.510  -8.187  1.00  0.00    -0.248 NA
ATOM     43  C   UNL     1      -7.559   5.235  -8.713  1.00  0.00     0.031 C 
ATOM     44  C   UNL     1      -3.759   6.954  -5.914  1.00  0.00     0.029 A 
ATOM     45  N   UNL     1      -5.352   8.416  -6.489  1.00  0.00    -0.354 N 
ATOM     46  C   UNL     1      -8.705   7.202  -8.940  1.00  0.00     0.074 A 
ATOM     47  C   UNL     1      -8.627   5.794  -9.264  1.00  0.00     0.031 C 
ATOM     48  C   UNL     1      -3.433   8.143  -5.376  1.00  0.00     0.029 A 
ATOM     49  C   UNL     1      -4.425   9.140  -5.776  1.00  0.00     0.049 A 
ATOM     50  H   UNL     1      -6.186   8.805  -6.839  1.00  0.00     0.167 HD
ATOM     51  C   UNL     1      -9.715   8.018  -9.324  1.00  0.00     0.037 A 
ATOM     52  C   UNL     1      -4.369  10.461  -5.507  1.00  0.00     0.037 A 
ATOM     53  C   UNL     1      -9.787   9.418  -8.996  1.00  0.00     0.049 A 
ATOM     54  C   UNL     1      -5.473  11.364  -6.001  1.00  0.00     0.074 A 
ATOM     55  C   UNL     1     -10.782  10.325  -9.318  1.00  0.00     0.029 A 
ATOM     56  N   UNL     1      -8.825  10.117  -8.283  1.00  0.00    -0.354 N 
ATOM     57  N   UNL     1      -6.547  11.056  -6.690  1.00  0.00    -0.248 NA
ATOM     58  C   UNL     1      -5.360  12.794  -5.678  1.00  0.00     0.031 C 
ATOM     59  C   UNL     1     -10.393  11.584  -8.850  1.00  0.00     0.029 A 
ATOM     60  C   UNL     1      -9.189  11.449  -8.178  1.00  0.00     0.049 A 
ATOM     61  H   UNL     1      -8.004   9.725  -7.906  1.00  0.00     0.167 HD
ATOM     62  C   UNL     1      -7.252  12.246  -6.852  1.00  0.00     0.074 A 
ATOM     63  C   UNL     1      -6.487  13.277  -6.182  1.00  0.00     0.031 C 
ATOM     64  C   UNL     1      -8.427  12.465  -7.494  1.00  0.00     0.037 A 
BRANCH  51  65
ATOM     65  C   UNL     1     -10.811   7.429 -10.168  1.00  0.00     0.058 A 
ATOM     66  C   UNL     1     -11.750   6.527  -9.643  1.00  0.00     0.135 A 
ATOM     67  C   UNL     1     -10.953   7.811 -11.512  1.00  0.00     0.135 A 
ATOM     68  F   UNL     1     -11.651   6.112  -8.370  1.00  0.00    -0.206 F 
ATOM     69  C   UNL     1     -12.780   6.013 -10.424  1.00  0.00     0.059 A 
ATOM     70  C   UNL     1     -11.992   7.333 -12.304  1.00  0.00     0.059 A 
ATOM     71  F   UNL     1     -10.079   8.666 -12.067  1.00  0.00    -0.206 F 
ATOM     72  C   UNL     1     -12.895   6.425 -11.753  1.00  0.00     0.060 A 
BRANCH  72  73
ATOM     73  S   UNL     1     -14.251   5.766 -12.745  1.00  0.00     0.124 S 
ATOM     74  O   UNL     1     -13.832   4.380 -12.927  1.00  0.00    -0.237 OA
ATOM     75  O   UNL     1     -15.403   5.971 -11.873  1.00  0.00    -0.237 OA
ATOM     76  O   UNL     1     -14.226   6.591 -13.949  1.00  0.00    -0.744 OA
ENDBRANCH  72  73
ENDBRANCH  51  65
BRANCH  52  77
ATOM     77  C   UNL     1      -3.215  11.022  -4.750  1.00  0.00     0.058 A 
ATOM     78  C   UNL     1      -3.380  11.556  -3.464  1.00  0.00     0.135 A 
ATOM     79  C   UNL     1      -1.927  11.052  -5.307  1.00  0.00     0.135 A 
ATOM     80  F   UNL     1      -4.594  11.565  -2.892  1.00  0.00    -0.206 F 
ATOM     81  C   UNL     1      -2.316  12.119  -2.765  1.00  0.00     0.059 A 
ATOM     82  C   UNL     1      -0.841  11.581  -4.616  1.00  0.00     0.059 A 
ATOM     83  F   UNL     1      -1.711  10.547  -6.532  1.00  0.00    -0.206 F 
ATOM     84  C   UNL     1      -1.048  12.124  -3.350  1.00  0.00     0.060 A 
BRANCH  84  85
ATOM     85  S   UNL     1       0.332  12.824  -2.418  1.00  0.00     0.124 S 
ATOM     86  O   UNL     1       0.028  14.249  -2.469  1.00  0.00    -0.237 OA
ATOM     87  O   UNL     1       0.175  12.184  -1.115  1.00  0.00    -0.237 OA
ATOM     88  O   UNL     1       1.501  12.400  -3.181  1.00  0.00    -0.744 OA
ENDBRANCH  84  85
ENDBRANCH  52  77
BRANCH  64  89
ATOM     89  C   UNL     1      -8.996  13.859  -7.462  1.00  0.00     0.058 A 
ATOM     90  C   UNL     1      -8.427  14.913  -8.193  1.00  0.00     0.135 A 
ATOM     91  C   UNL     1     -10.170  14.127  -6.737  1.00  0.00     0.135 A 
ATOM     92  F   UNL     1      -7.303  14.716  -8.900  1.00  0.00    -0.206 F 
ATOM     93  C   UNL     1      -8.987  16.188  -8.188  1.00  0.00     0.059 A 
ATOM     94  C   UNL     1     -10.765  15.384  -6.743  1.00  0.00     0.059 A 
ATOM     95  F   UNL     1     -10.765  13.152  -6.030  1.00  0.00    -0.206 F 
ATOM     96  C   UNL     1     -10.159  16.413  -7.463  1.00  0.00     0.060 A 
BRANCH  96  97
ATOM     97  S   UNL     1     -10.895  18.061  -7.495  1.00  0.00     0.124 S 
ATOM     98  O   UNL     1      -9.957  18.818  -6.672  1.00  0.00    -0.237 OA
ATOM     99  O   UNL     1     -10.888  18.378  -8.919  1.00  0.00    -0.237 OA
ATOM    100  O   UNL     1     -12.217  17.856  -6.910  1.00  0.00    -0.744 OA
ENDBRANCH  96  97
ENDBRANCH  64  89
ENDBRANCH  38  39
ENDBRANCH  31  33
ENDBRANCH  30  31
ENDBRANCH  29  30
ENDBRANCH  28  29
ENDBRANCH  27  28
ENDBRANCH  26  27
ENDBRANCH   1  26
TORSDOF 23
