REMARK SMILES O=C(COc1ccc(N2C[C@@H](C(=O)OCCOCCOCCOC(=O)c3ccc(-c4c5nc(c(-c6c(F)cc(S(=O)(=O)[O-])cc6F)c6ccc([nH]6)c(-c6c(F)cc(S(=O)(=O)[O-])cc6F)c6nc(c(-c7c(F)cc(S(=O)(=O)[O-])cc7F)c7ccc4[nH]7)C=C6)C=C5)cc3)CC2=O)cc1)Nc1ccc(Cl)cc1Cl
REMARK SMILES IDX 18 1 17 2 16 3 15 4 14 5 12 6 13 7 11 8 9 9 10 10 93 11
REMARK SMILES IDX 92 12 94 13 8 14 5 15 6 16 96 17 7 18 95 19 4 20 3 21 2 22
REMARK SMILES IDX 1 23 97 24 98 26 99 27 104 28 100 29 103 30 105 31 101 32
REMARK SMILES IDX 102 33 19 34 20 35 21 36 22 37 23 38 24 39 25 40 26 41 27 42
REMARK SMILES IDX 91 43 28 44 90 45 29 46 30 47 31 48 84 49 32 50 89 51 83 52
REMARK SMILES IDX 85 53 33 54 88 55 82 56 81 57 34 59 68 60 47 61 67 62 48 63
REMARK SMILES IDX 51 64 66 65 86 66 49 67 50 68 65 70 87 71 52 72 35 73 36 74
REMARK SMILES IDX 45 75 37 76 38 77 44 78 46 79 39 80 40 81 41 82 42 83 43 84
REMARK SMILES IDX 69 85 70 86 79 87 71 88 72 89 78 90 80 91 73 92 74 93 75 94
REMARK SMILES IDX 76 95 77 96 53 97 54 98 63 99 55 100 56 101 62 102 64 103
REMARK SMILES IDX 57 104 58 105 59 106 60 107 61 108
REMARK H PARENT 97 25 85 58 51 69
REMARK Flexibility Score: inf
ROOT
ATOM      1  C   UNL     1      -0.414   4.798 -10.824  1.00  0.00     0.188 C 
ENDROOT
BRANCH   1   2
ATOM      2  O   UNL     1      -1.494   4.212 -11.540  1.00  0.00    -0.376 OA
BRANCH   2   3
ATOM      3  C   UNL     1      -2.551   3.583 -10.822  1.00  0.00     0.202 C 
BRANCH   3   4
ATOM      4  C   UNL     1      -2.205   2.534  -9.751  1.00  0.00     0.261 C 
BRANCH   4   5
ATOM      5  O   UNL     1      -1.283   2.994  -8.742  1.00  0.00    -0.463 OA
BRANCH   5   6
ATOM      6  C   UNL     1      -0.181   2.236  -8.539  1.00  0.00     0.311 C 
ATOM      7  O   UNL     1       0.007   1.138  -9.051  1.00  0.00    -0.252 OA
BRANCH   6   8
ATOM      8  C   UNL     1       0.874   2.897  -7.675  1.00  0.00     0.128 C 
ATOM      9  N   UNL     1       1.783   2.554  -5.539  1.00  0.00    -0.312 N 
ATOM     10  C   UNL     1       1.371   1.838  -6.714  1.00  0.00     0.141 C 
ATOM     11  C   UNL     1       1.252   3.837  -5.496  1.00  0.00     0.227 C 
ATOM     12  C   UNL     1       0.497   4.066  -6.768  1.00  0.00     0.117 C 
ATOM     13  O   UNL     1       1.359   4.689  -4.626  1.00  0.00    -0.274 OA
BRANCH   9  14
ATOM     14  C   UNL     1       2.431   1.910  -4.472  1.00  0.00     0.044 A 
ATOM     15  C   UNL     1       3.572   0.542  -2.321  1.00  0.00     0.120 A 
ATOM     16  C   UNL     1       3.898   0.170  -3.620  1.00  0.00     0.048 A 
ATOM     17  C   UNL     1       2.736   1.631  -2.094  1.00  0.00     0.048 A 
ATOM     18  C   UNL     1       3.311   0.843  -4.696  1.00  0.00     0.030 A 
ATOM     19  C   UNL     1       2.167   2.307  -3.163  1.00  0.00     0.030 A 
BRANCH  15  20
ATOM     20  O   UNL     1       4.129  -0.144  -1.275  1.00  0.00    -0.484 OA
BRANCH  20  21
ATOM     21  C   UNL     1       3.157  -0.985  -0.642  1.00  0.00     0.329 C 
BRANCH  21  22
ATOM     22  C   UNL     1       2.226  -0.236   0.318  1.00  0.00     0.262 C 
ATOM     23  O   UNL     1       1.016  -0.430   0.312  1.00  0.00    -0.271 OA
ATOM     24  N   UNL     1       2.911   0.708   1.074  1.00  0.00    -0.322 N 
ATOM     25  H   UNL     1       3.891   0.732   0.975  1.00  0.00     0.170 HD
BRANCH  24  26
ATOM     26  C   UNL     1       2.338   1.637   1.971  1.00  0.00     0.060 A 
ATOM     27  C   UNL     1       2.938   2.909   1.982  1.00  0.00     0.029 A 
ATOM     28  C   UNL     1       1.251   1.401   2.832  1.00  0.00     0.066 A 
ATOM     29  C   UNL     1       2.428   3.940   2.776  1.00  0.00     0.023 A 
ATOM     30  C   UNL     1       0.735   2.441   3.617  1.00  0.00     0.043 A 
ATOM     31  Cl  UNL     1       0.610  -0.173   3.160  1.00  0.00    -0.082 Cl
ATOM     32  C   UNL     1       1.319   3.703   3.580  1.00  0.00     0.042 A 
ATOM     33  Cl  UNL     1       0.694   4.964   4.569  1.00  0.00    -0.084 Cl
ENDBRANCH  24  26
ENDBRANCH  21  22
ENDBRANCH  20  21
ENDBRANCH  15  20
ENDBRANCH   9  14
ENDBRANCH   6   8
ENDBRANCH   5   6
ENDBRANCH   4   5
ENDBRANCH   3   4
ENDBRANCH   2   3
ENDBRANCH   1   2
BRANCH   1  34
ATOM     34  C   UNL     1      -0.716   5.616  -9.560  1.00  0.00     0.188 C 
BRANCH  34  35
ATOM     35  O   UNL     1      -2.075   5.700  -9.210  1.00  0.00    -0.376 OA
BRANCH  35  36
ATOM     36  C   UNL     1      -2.696   6.970  -9.253  1.00  0.00     0.202 C 
BRANCH  36  37
ATOM     37  C   UNL     1      -2.523   7.864 -10.495  1.00  0.00     0.261 C 
BRANCH  37  38
ATOM     38  O   UNL     1      -1.222   7.902 -11.108  1.00  0.00    -0.460 OA
BRANCH  38  39
ATOM     39  C   UNL     1      -0.270   8.650 -10.504  1.00  0.00     0.338 C 
ATOM     40  O   UNL     1      -0.402   9.309  -9.481  1.00  0.00    -0.246 OA
BRANCH  39  41
ATOM     41  C   UNL     1       1.030   8.342 -11.149  1.00  0.00     0.060 A 
ATOM     42  C   UNL     1       2.058   7.766 -10.385  1.00  0.00     0.016 A 
ATOM     43  C   UNL     1       1.229   8.602 -12.505  1.00  0.00     0.016 A 
ATOM     44  C   UNL     1       3.293   7.473 -10.970  1.00  0.00     0.010 A 
ATOM     45  C   UNL     1       2.475   8.332 -13.083  1.00  0.00     0.010 A 
ATOM     46  C   UNL     1       3.523   7.793 -12.314  1.00  0.00    -0.014 A 
BRANCH  46  47
ATOM     47  C   UNL     1       4.900   7.752 -12.873  1.00  0.00     0.031 A 
ATOM     48  C   UNL     1       5.669   9.043 -12.969  1.00  0.00     0.074 A 
ATOM     49  C   UNL     1       5.461   6.604 -13.297  1.00  0.00     0.049 A 
ATOM     50  N   UNL     1       6.833   9.281 -13.514  1.00  0.00    -0.248 NA
ATOM     51  C   UNL     1       5.028  10.228 -12.374  1.00  0.00     0.031 C 
ATOM     52  C   UNL     1       4.845   5.281 -13.221  1.00  0.00     0.029 A 
ATOM     53  N   UNL     1       6.676   6.375 -13.898  1.00  0.00    -0.354 N 
ATOM     54  C   UNL     1       7.060  10.642 -13.340  1.00  0.00     0.074 A 
ATOM     55  C   UNL     1       5.899  11.182 -12.667  1.00  0.00     0.031 C 
ATOM     56  C   UNL     1       5.675   4.381 -13.778  1.00  0.00     0.029 A 
ATOM     57  C   UNL     1       6.864   5.068 -14.284  1.00  0.00     0.049 A 
ATOM     58  H   UNL     1       7.349   7.080 -14.038  1.00  0.00     0.167 HD
ATOM     59  C   UNL     1       8.140  11.375 -13.702  1.00  0.00     0.037 A 
ATOM     60  C   UNL     1       7.862   4.500 -14.992  1.00  0.00     0.037 A 
ATOM     61  C   UNL     1       9.291  10.835 -14.379  1.00  0.00     0.049 A 
ATOM     62  C   UNL     1       9.021   5.349 -15.455  1.00  0.00     0.074 A 
ATOM     63  C   UNL     1      10.441  11.494 -14.778  1.00  0.00     0.029 A 
ATOM     64  N   UNL     1       9.435   9.511 -14.767  1.00  0.00    -0.354 N 
ATOM     65  N   UNL     1       9.234   6.631 -15.269  1.00  0.00    -0.248 NA
ATOM     66  C   UNL     1      10.079   4.674 -16.222  1.00  0.00     0.031 C 
ATOM     67  C   UNL     1      11.254  10.582 -15.458  1.00  0.00     0.029 A 
ATOM     68  C   UNL     1      10.643   9.339 -15.424  1.00  0.00     0.049 A 
ATOM     69  H   UNL     1       8.777   8.799 -14.599  1.00  0.00     0.167 HD
ATOM     70  C   UNL     1      10.461   6.906 -15.867  1.00  0.00     0.074 A 
ATOM     71  C   UNL     1      10.949   5.657 -16.411  1.00  0.00     0.031 C 
ATOM     72  C   UNL     1      11.125   8.087 -15.954  1.00  0.00     0.037 A 
BRANCH  59  73
ATOM     73  C   UNL     1       8.113  12.850 -13.401  1.00  0.00     0.058 A 
ATOM     74  C   UNL     1       8.192  13.340 -12.087  1.00  0.00     0.135 A 
ATOM     75  C   UNL     1       8.034  13.787 -14.444  1.00  0.00     0.135 A 
ATOM     76  F   UNL     1       8.250  12.490 -11.050  1.00  0.00    -0.206 F 
ATOM     77  C   UNL     1       8.161  14.704 -11.817  1.00  0.00     0.059 A 
ATOM     78  C   UNL     1       8.035  15.157 -14.199  1.00  0.00     0.059 A 
ATOM     79  F   UNL     1       7.953  13.375 -15.719  1.00  0.00    -0.206 F 
ATOM     80  C   UNL     1       8.083  15.605 -12.880  1.00  0.00     0.060 A 
BRANCH  80  81
ATOM     81  S   UNL     1       8.046  17.372 -12.511  1.00  0.00     0.124 S 
ATOM     82  O   UNL     1       6.716  17.519 -11.927  1.00  0.00    -0.237 OA
ATOM     83  O   UNL     1       9.164  17.520 -11.586  1.00  0.00    -0.237 OA
ATOM     84  O   UNL     1       8.229  17.997 -13.817  1.00  0.00    -0.744 OA
ENDBRANCH  80  81
ENDBRANCH  59  73
BRANCH  60  85
ATOM     85  C   UNL     1       7.804   3.050 -15.329  1.00  0.00     0.058 A 
ATOM     86  C   UNL     1       8.713   2.136 -14.773  1.00  0.00     0.135 A 
ATOM     87  C   UNL     1       6.843   2.549 -16.222  1.00  0.00     0.135 A 
ATOM     88  F   UNL     1       9.662   2.566 -13.928  1.00  0.00    -0.206 F 
ATOM     89  C   UNL     1       8.679   0.783 -15.097  1.00  0.00     0.059 A 
ATOM     90  C   UNL     1       6.770   1.196 -16.539  1.00  0.00     0.059 A 
ATOM     91  F   UNL     1       5.947   3.378 -16.780  1.00  0.00    -0.206 F 
ATOM     92  C   UNL     1       7.698   0.322 -15.977  1.00  0.00     0.060 A 
BRANCH  92  93
ATOM     93  S   UNL     1       7.628  -1.446 -16.343  1.00  0.00     0.124 S 
ATOM     94  O   UNL     1       8.820  -1.625 -17.163  1.00  0.00    -0.237 OA
ATOM     95  O   UNL     1       7.676  -2.035 -15.008  1.00  0.00    -0.237 OA
ATOM     96  O   UNL     1       6.354  -1.594 -17.040  1.00  0.00    -0.744 OA
ENDBRANCH  92  93
ENDBRANCH  60  85
BRANCH  72  97
ATOM     97  C   UNL     1      12.477   8.085 -16.621  1.00  0.00     0.058 A 
ATOM     98  C   UNL     1      12.625   7.915 -18.006  1.00  0.00     0.135 A 
ATOM     99  C   UNL     1      13.639   8.320 -15.865  1.00  0.00     0.135 A 
ATOM    100  F   UNL     1      11.551   7.683 -18.777  1.00  0.00    -0.206 F 
ATOM    101  C   UNL     1      13.877   7.952 -18.615  1.00  0.00     0.059 A 
ATOM    102  C   UNL     1      14.896   8.394 -16.457  1.00  0.00     0.059 A 
ATOM    103  F   UNL     1      13.557   8.503 -14.538  1.00  0.00    -0.206 F 
ATOM    104  C   UNL     1      15.007   8.197 -17.832  1.00  0.00     0.060 A 
BRANCH 104 105
ATOM    105  S   UNL     1      16.619   8.276 -18.640  1.00  0.00     0.124 S 
ATOM    106  O   UNL     1      16.848   6.876 -18.980  1.00  0.00    -0.237 OA
ATOM    107  O   UNL     1      16.360   9.168 -19.766  1.00  0.00    -0.237 OA
ATOM    108  O   UNL     1      17.493   8.821 -17.605  1.00  0.00    -0.744 OA
ENDBRANCH 104 105
ENDBRANCH  72  97
ENDBRANCH  46  47
ENDBRANCH  39  41
ENDBRANCH  38  39
ENDBRANCH  37  38
ENDBRANCH  36  37
ENDBRANCH  35  36
ENDBRANCH  34  35
ENDBRANCH   1  34
TORSDOF 25
