REMARK SMILES C[C@H]1c2ccc(O)cc2OC(=O)[C@@H]1CC(=O)N[C@@H](CC1=c2ccccc2=NC1)C(=O)OCCOCCOCCOC(=O)c1ccc(-c2c3nc(c(-c4c(F)cc(S(=O)(=O)[O-])cc4F)c4ccc([nH]4)c(-c4c(F)cc(S(=O)(=O)[O-])cc4F)c4nc(c(-c5c(F)cc(S(=O)(=O)[O-])cc5F)c5ccc2[nH]5)C=C4)C=C3)cc1
REMARK SMILES IDX 35 1 34 2 33 3 32 4 31 5 29 6 30 7 18 8 17 9 15 10 16 11
REMARK SMILES IDX 14 13 13 14 1 15 2 16 3 17 4 18 9 19 11 20 5 21 8 22 10 23
REMARK SMILES IDX 12 24 6 25 7 26 19 28 20 29 21 30 28 31 22 32 26 33 27 34
REMARK SMILES IDX 23 35 25 36 24 37 36 38 37 39 38 40 39 41 40 42 41 43 42 44
REMARK SMILES IDX 43 45 44 46 108 47 45 48 107 49 46 50 47 51 48 52 101 53
REMARK SMILES IDX 49 54 106 55 100 56 102 57 50 58 105 59 99 60 98 61 51 63
REMARK SMILES IDX 85 64 64 65 84 66 65 67 68 68 83 69 103 70 66 71 67 72 82 74
REMARK SMILES IDX 104 75 69 76 52 77 53 78 62 79 54 80 55 81 61 82 63 83 56 84
REMARK SMILES IDX 57 85 58 86 59 87 60 88 86 89 87 90 96 91 88 92 89 93 95 94
REMARK SMILES IDX 97 95 90 96 91 97 92 98 93 99 94 100 70 101 71 102 80 103
REMARK SMILES IDX 72 104 73 105 79 106 81 107 74 108 75 109 76 110 77 111
REMARK SMILES IDX 78 112
REMARK H PARENT 17 12 7 27 102 62 68 73
REMARK Flexibility Score: inf
ROOT
ATOM      1  C   UNL     1      -4.555   4.370   2.700  1.00  0.00     0.188 C 
ENDROOT
BRANCH   1   2
ATOM      2  O   UNL     1      -5.679   5.222   2.629  1.00  0.00    -0.376 OA
BRANCH   2   3
ATOM      3  C   UNL     1      -6.863   4.777   1.981  1.00  0.00     0.202 C 
BRANCH   3   4
ATOM      4  C   UNL     1      -6.858   3.707   0.882  1.00  0.00     0.261 C 
BRANCH   4   5
ATOM      5  O   UNL     1      -6.139   2.503   1.204  1.00  0.00    -0.462 OA
BRANCH   5   6
ATOM      6  C   UNL     1      -5.177   2.177   0.311  1.00  0.00     0.329 C 
ATOM      7  O   UNL     1      -4.984   2.788  -0.740  1.00  0.00    -0.250 OA
BRANCH   6   8
ATOM      8  C   UNL     1      -4.325   0.951   0.656  1.00  0.00     0.196 C 
BRANCH   8   9
ATOM      9  N   UNL     1      -4.154   0.291   1.964  1.00  0.00    -0.342 N 
ATOM     10  C   UNL     1      -3.002  -0.139   2.580  1.00  0.00     0.221 C 
ATOM     11  O   UNL     1      -3.094  -0.989   3.468  1.00  0.00    -0.275 OA
ATOM     12  H   UNL     1      -4.984   0.138   2.470  1.00  0.00     0.164 HD
BRANCH  10  13
ATOM     13  C   UNL     1      -1.647   0.511   2.278  1.00  0.00     0.116 C 
BRANCH  13  14
ATOM     14  C   UNL     1      -0.725  -0.218   1.276  1.00  0.00     0.116 C 
ATOM     15  C   UNL     1       1.595  -0.406   0.206  1.00  0.00     0.014 C 
ATOM     16  C   UNL     1       0.667   0.439   1.094  1.00  0.00     0.034 C 
ATOM     17  C   UNL     1       0.498   1.790   0.448  1.00  0.00    -0.001 A 
ATOM     18  C   UNL     1       1.453   2.799   0.560  1.00  0.00     0.011 A 
ATOM     19  C   UNL     1      -0.627   2.024  -0.350  1.00  0.00     0.138 A 
ATOM     20  C   UNL     1      -1.324  -0.271  -0.099  1.00  0.00     0.315 C 
ATOM     21  C   UNL     1       1.241   4.021  -0.081  1.00  0.00     0.047 A 
ATOM     22  C   UNL     1      -0.903   3.267  -0.904  1.00  0.00     0.093 A 
ATOM     23  O   UNL     1      -1.474   0.961  -0.718  1.00  0.00    -0.426 OA
ATOM     24  O   UNL     1      -1.693  -1.313  -0.628  1.00  0.00    -0.251 OA
ATOM     25  C   UNL     1       0.050   4.261  -0.768  1.00  0.00     0.119 A 
BRANCH  25  26
ATOM     26  O   UNL     1      -0.136   5.487  -1.328  1.00  0.00    -0.508 OA
ATOM     27  H   UNL     1       0.517   6.151  -1.229  1.00  0.00     0.293 HD
ENDBRANCH  25  26
ENDBRANCH  13  14
ENDBRANCH  10  13
ENDBRANCH   8   9
BRANCH   8  28
ATOM     28  C   UNL     1      -4.689  -0.091  -0.419  1.00  0.00     0.070 C 
BRANCH  28  29
ATOM     29  C   UNL     1      -6.025  -0.850  -0.334  1.00  0.00    -0.037 C 
ATOM     30  C   UNL     1      -6.510  -1.216   0.858  1.00  0.00     0.001 A 
ATOM     31  C   UNL     1      -5.903  -2.119  -1.163  1.00  0.00     0.174 C 
ATOM     32  C   UNL     1      -7.720  -0.898   1.568  1.00  0.00     0.010 A 
ATOM     33  C   UNL     1      -6.083  -2.631   0.926  1.00  0.00     0.065 A 
ATOM     34  N   UNL     1      -5.705  -3.203  -0.173  1.00  0.00    -0.280 NA
ATOM     35  C   UNL     1      -8.018  -1.655   2.641  1.00  0.00     0.001 A 
ATOM     36  C   UNL     1      -6.164  -3.216   2.277  1.00  0.00     0.028 A 
ATOM     37  C   UNL     1      -7.103  -2.700   3.091  1.00  0.00     0.002 A 
ENDBRANCH  28  29
ENDBRANCH   8  28
ENDBRANCH   6   8
ENDBRANCH   5   6
ENDBRANCH   4   5
ENDBRANCH   3   4
ENDBRANCH   2   3
ENDBRANCH   1   2
BRANCH   1  38
ATOM     38  C   UNL     1      -4.650   3.098   3.552  1.00  0.00     0.188 C 
BRANCH  38  39
ATOM     39  O   UNL     1      -5.902   2.585   3.936  1.00  0.00    -0.376 OA
BRANCH  39  40
ATOM     40  C   UNL     1      -6.626   3.206   4.984  1.00  0.00     0.202 C 
BRANCH  40  41
ATOM     41  C   UNL     1      -6.028   4.159   6.042  1.00  0.00     0.261 C 
BRANCH  41  42
ATOM     42  O   UNL     1      -4.753   4.753   5.777  1.00  0.00    -0.460 OA
BRANCH  42  43
ATOM     43  C   UNL     1      -3.693   4.177   6.412  1.00  0.00     0.338 C 
ATOM     44  O   UNL     1      -3.725   3.240   7.184  1.00  0.00    -0.246 OA
BRANCH  43  45
ATOM     45  C   UNL     1      -2.450   4.723   5.817  1.00  0.00     0.060 A 
ATOM     46  C   UNL     1      -2.147   6.078   5.932  1.00  0.00     0.016 A 
ATOM     47  C   UNL     1      -1.589   3.861   5.117  1.00  0.00     0.016 A 
ATOM     48  C   UNL     1      -0.963   6.564   5.371  1.00  0.00     0.010 A 
ATOM     49  C   UNL     1      -0.424   4.358   4.523  1.00  0.00     0.010 A 
ATOM     50  C   UNL     1      -0.088   5.710   4.673  1.00  0.00    -0.014 A 
BRANCH  50  51
ATOM     51  C   UNL     1       1.248   6.211   4.262  1.00  0.00     0.031 A 
ATOM     52  C   UNL     1       1.522   6.737   2.887  1.00  0.00     0.074 A 
ATOM     53  C   UNL     1       2.217   6.258   5.194  1.00  0.00     0.049 A 
ATOM     54  N   UNL     1       2.644   7.183   2.377  1.00  0.00    -0.248 NA
ATOM     55  C   UNL     1       0.381   6.776   1.970  1.00  0.00     0.031 C 
ATOM     56  C   UNL     1       2.058   5.840   6.586  1.00  0.00     0.029 A 
ATOM     57  N   UNL     1       3.501   6.731   5.124  1.00  0.00    -0.354 N 
ATOM     58  C   UNL     1       2.366   7.487   1.048  1.00  0.00     0.074 A 
ATOM     59  C   UNL     1       0.950   7.260   0.874  1.00  0.00     0.031 C 
ATOM     60  C   UNL     1       3.176   6.149   7.259  1.00  0.00     0.029 A 
ATOM     61  C   UNL     1       4.144   6.739   6.337  1.00  0.00     0.049 A 
ATOM     62  H   UNL     1       3.920   7.035   4.287  1.00  0.00     0.167 HD
ATOM     63  C   UNL     1       3.223   7.871   0.066  1.00  0.00     0.037 A 
ATOM     64  C   UNL     1       5.367   7.192   6.673  1.00  0.00     0.037 A 
ATOM     65  C   UNL     1       4.598   8.247   0.306  1.00  0.00     0.049 A 
ATOM     66  C   UNL     1       6.249   7.803   5.620  1.00  0.00     0.074 A 
ATOM     67  C   UNL     1       5.531   8.730  -0.598  1.00  0.00     0.029 A 
ATOM     68  N   UNL     1       5.217   8.243   1.547  1.00  0.00    -0.354 N 
ATOM     69  N   UNL     1       6.010   7.974   4.342  1.00  0.00    -0.248 NA
ATOM     70  C   UNL     1       7.566   8.286   6.056  1.00  0.00     0.031 C 
ATOM     71  C   UNL     1       6.712   9.015   0.095  1.00  0.00     0.029 A 
ATOM     72  C   UNL     1       6.504   8.745   1.437  1.00  0.00     0.049 A 
ATOM     73  H   UNL     1       4.802   7.930   2.383  1.00  0.00     0.167 HD
ATOM     74  C   UNL     1       7.143   8.593   3.824  1.00  0.00     0.074 A 
ATOM     75  C   UNL     1       8.055   8.792   4.931  1.00  0.00     0.031 C 
ATOM     76  C   UNL     1       7.405   8.952   2.543  1.00  0.00     0.037 A 
BRANCH  63  77
ATOM     77  C   UNL     1       2.735   7.881  -1.366  1.00  0.00     0.058 A 
ATOM     78  C   UNL     1       1.761   8.775  -1.831  1.00  0.00     0.135 A 
ATOM     79  C   UNL     1       3.316   7.013  -2.314  1.00  0.00     0.135 A 
ATOM     80  F   UNL     1       1.173   9.635  -0.985  1.00  0.00    -0.206 F 
ATOM     81  C   UNL     1       1.351   8.784  -3.163  1.00  0.00     0.059 A 
ATOM     82  C   UNL     1       2.955   7.037  -3.661  1.00  0.00     0.059 A 
ATOM     83  F   UNL     1       4.266   6.141  -1.941  1.00  0.00    -0.206 F 
ATOM     84  C   UNL     1       1.956   7.915  -4.071  1.00  0.00     0.060 A 
BRANCH  84  85
ATOM     85  S   UNL     1       1.424   7.965  -5.796  1.00  0.00     0.124 S 
ATOM     86  O   UNL     1       0.115   7.322  -5.716  1.00  0.00    -0.237 OA
ATOM     87  O   UNL     1       1.408   9.397  -6.077  1.00  0.00    -0.237 OA
ATOM     88  O   UNL     1       2.455   7.205  -6.496  1.00  0.00    -0.744 OA
ENDBRANCH  84  85
ENDBRANCH  63  77
BRANCH  64  89
ATOM     89  C   UNL     1       5.790   7.135   8.094  1.00  0.00     0.058 A 
ATOM     90  C   UNL     1       5.880   8.308   8.857  1.00  0.00     0.135 A 
ATOM     91  C   UNL     1       6.050   5.913   8.730  1.00  0.00     0.135 A 
ATOM     92  F   UNL     1       5.640   9.499   8.289  1.00  0.00    -0.206 F 
ATOM     93  C   UNL     1       6.221   8.272  10.203  1.00  0.00     0.059 A 
ATOM     94  C   UNL     1       6.364   5.849  10.083  1.00  0.00     0.059 A 
ATOM     95  F   UNL     1       5.952   4.763   8.045  1.00  0.00    -0.206 F 
ATOM     96  C   UNL     1       6.453   7.036  10.809  1.00  0.00     0.060 A 
BRANCH  96  97
ATOM     97  S   UNL     1       6.830   7.001  12.573  1.00  0.00     0.124 S 
ATOM     98  O   UNL     1       8.164   7.590  12.600  1.00  0.00    -0.237 OA
ATOM     99  O   UNL     1       5.758   7.821  13.129  1.00  0.00    -0.237 OA
ATOM    100  O   UNL     1       6.760   5.581  12.904  1.00  0.00    -0.744 OA
ENDBRANCH  96  97
ENDBRANCH  64  89
BRANCH  76 101
ATOM    101  C   UNL     1       8.726   9.611   2.252  1.00  0.00     0.058 A 
ATOM    102  C   UNL     1       9.927   8.886   2.263  1.00  0.00     0.135 A 
ATOM    103  C   UNL     1       8.783  10.965   1.878  1.00  0.00     0.135 A 
ATOM    104  F   UNL     1       9.931   7.590   2.616  1.00  0.00    -0.206 F 
ATOM    105  C   UNL     1      11.140   9.481   1.929  1.00  0.00     0.059 A 
ATOM    106  C   UNL     1       9.981  11.574   1.516  1.00  0.00     0.059 A 
ATOM    107  F   UNL     1       7.662  11.703   1.841  1.00  0.00    -0.206 F 
ATOM    108  C   UNL     1      11.156  10.825   1.550  1.00  0.00     0.060 A 
BRANCH 108 109
ATOM    109  S   UNL     1      12.732  11.566   1.076  1.00  0.00     0.124 S 
ATOM    110  O   UNL     1      13.436  11.608   2.353  1.00  0.00    -0.237 OA
ATOM    111  O   UNL     1      13.245  10.607   0.102  1.00  0.00    -0.237 OA
ATOM    112  O   UNL     1      12.349  12.864   0.528  1.00  0.00    -0.744 OA
ENDBRANCH 108 109
ENDBRANCH  76 101
ENDBRANCH  50  51
ENDBRANCH  43  45
ENDBRANCH  42  43
ENDBRANCH  41  42
ENDBRANCH  40  41
ENDBRANCH  39  40
ENDBRANCH  38  39
ENDBRANCH   1  38
TORSDOF 26
