REMARK SMILES CC[C@H]1CCC[C@@H]([C@@H](Cc2ccccc2)C(=O)OCCOCCOCCOC(=O)c2ccc(-c3c4nc(c(-c5c(F)cc(S(=O)(=O)[O-])cc5F)c5ccc([nH]5)c(-c5c(F)cc(S(=O)(=O)[O-])cc5F)c5nc(c(-c6c(F)cc(S(=O)(=O)[O-])cc6F)c6ccc3[nH]6)C=C5)C=C4)cc2)C1
REMARK SMILES IDX 23 1 22 2 21 3 20 4 19 5 18 6 16 7 17 8 8 9 7 10 3 11 4 12
REMARK SMILES IDX 96 13 5 14 6 15 2 16 1 17 9 18 10 19 11 20 15 21 12 22 14 23
REMARK SMILES IDX 13 24 24 25 25 26 26 27 27 28 28 29 29 30 30 31 31 32 95 33
REMARK SMILES IDX 32 34 94 35 33 36 34 37 35 38 88 39 36 40 93 41 87 42 89 43
REMARK SMILES IDX 37 44 92 45 86 46 85 47 38 49 72 50 51 51 71 52 52 53 55 54
REMARK SMILES IDX 70 55 90 56 53 57 54 58 69 60 91 61 56 62 39 63 40 64 49 65
REMARK SMILES IDX 41 66 42 67 48 68 50 69 43 70 44 71 45 72 46 73 47 74 73 75
REMARK SMILES IDX 74 76 83 77 75 78 76 79 82 80 84 81 77 82 78 83 79 84 80 85
REMARK SMILES IDX 81 86 57 87 58 88 67 89 59 90 60 91 66 92 68 93 61 94 62 95
REMARK SMILES IDX 63 96 64 97 65 98
REMARK H PARENT 89 48 55 59
REMARK Flexibility Score: inf
ROOT
ATOM      1  C   UNL     1       0.879   5.778  -1.771  1.00  0.00     0.188 C 
ENDROOT
BRANCH   1   2
ATOM      2  C   UNL     1       2.006   6.330  -2.667  1.00  0.00     0.188 C 
BRANCH   2   3
ATOM      3  O   UNL     1       2.146   5.756  -3.953  1.00  0.00    -0.376 OA
BRANCH   3   4
ATOM      4  C   UNL     1       2.736   4.467  -4.061  1.00  0.00     0.202 C 
BRANCH   4   5
ATOM      5  C   UNL     1       3.494   3.840  -2.888  1.00  0.00     0.261 C 
BRANCH   5   6
ATOM      6  O   UNL     1       2.700   3.648  -1.706  1.00  0.00    -0.463 OA
BRANCH   6   7
ATOM      7  C   UNL     1       3.174   4.160  -0.533  1.00  0.00     0.309 C 
ATOM      8  O   UNL     1       3.981   5.078  -0.455  1.00  0.00    -0.252 OA
BRANCH   7   9
ATOM      9  C   UNL     1       2.765   3.320   0.664  1.00  0.00     0.107 C 
BRANCH   9  10
ATOM     10  C   UNL     1       1.365   3.367   1.347  1.00  0.00     0.004 C 
ATOM     11  C   UNL     1       1.504   1.539   3.294  1.00  0.00    -0.011 C 
ATOM     12  C   UNL     1       0.995   2.583   4.296  1.00  0.00     0.003 C 
ATOM     13  C   UNL     1       0.914   2.013   1.944  1.00  0.00     0.008 C 
ATOM     14  C   UNL     1       1.521   3.968   3.920  1.00  0.00     0.001 C 
ATOM     15  C   UNL     1       1.174   4.425   2.483  1.00  0.00     0.004 C 
BRANCH  11  16
ATOM     16  C   UNL     1       2.949   1.065   3.746  1.00  0.00     0.000 C 
ATOM     17  C   UNL     1       4.335   1.079   3.098  1.00  0.00     0.004 C 
ENDBRANCH  11  16
ENDBRANCH   9  10
BRANCH   9  18
ATOM     18  C   UNL     1       3.238   1.926   0.229  1.00  0.00     0.051 C 
BRANCH  18  19
ATOM     19  C   UNL     1       2.425   0.855  -0.462  1.00  0.00    -0.047 A 
ATOM     20  C   UNL     1       1.261   1.063  -1.208  1.00  0.00     0.004 A 
ATOM     21  C   UNL     1       2.780  -0.465  -0.115  1.00  0.00     0.004 A 
ATOM     22  C   UNL     1       0.425  -0.019  -1.503  1.00  0.00     0.000 A 
ATOM     23  C   UNL     1       1.935  -1.532  -0.384  1.00  0.00     0.000 A 
ATOM     24  C   UNL     1       0.748  -1.306  -1.068  1.00  0.00     0.000 A 
ENDBRANCH  18  19
ENDBRANCH   9  18
ENDBRANCH   7   9
ENDBRANCH   6   7
ENDBRANCH   5   6
ENDBRANCH   4   5
ENDBRANCH   3   4
ENDBRANCH   2   3
ENDBRANCH   1   2
BRANCH   1  25
ATOM     25  O   UNL     1       0.028   4.746  -2.225  1.00  0.00    -0.376 OA
BRANCH  25  26
ATOM     26  C   UNL     1      -0.657   4.919  -3.454  1.00  0.00     0.202 C 
BRANCH  26  27
ATOM     27  C   UNL     1      -1.225   6.277  -3.929  1.00  0.00     0.261 C 
BRANCH  27  28
ATOM     28  O   UNL     1      -0.623   7.473  -3.417  1.00  0.00    -0.460 OA
BRANCH  28  29
ATOM     29  C   UNL     1      -1.251   8.045  -2.346  1.00  0.00     0.338 C 
ATOM     30  O   UNL     1      -2.285   7.692  -1.843  1.00  0.00    -0.246 OA
BRANCH  29  31
ATOM     31  C   UNL     1      -0.296   9.007  -1.715  1.00  0.00     0.060 A 
ATOM     32  C   UNL     1       0.052   8.812  -0.366  1.00  0.00     0.016 A 
ATOM     33  C   UNL     1       0.296  10.036  -2.446  1.00  0.00     0.016 A 
ATOM     34  C   UNL     1       0.977   9.651   0.258  1.00  0.00     0.010 A 
ATOM     35  C   UNL     1       1.188  10.905  -1.806  1.00  0.00     0.010 A 
ATOM     36  C   UNL     1       1.509  10.737  -0.445  1.00  0.00    -0.014 A 
BRANCH  36  37
ATOM     37  C   UNL     1       2.168  11.843   0.296  1.00  0.00     0.031 A 
ATOM     38  C   UNL     1       1.310  13.017   0.690  1.00  0.00     0.074 A 
ATOM     39  C   UNL     1       3.474  11.825   0.617  1.00  0.00     0.049 A 
ATOM     40  N   UNL     1       1.650  14.150   1.247  1.00  0.00    -0.248 NA
ATOM     41  C   UNL     1      -0.130  12.894   0.406  1.00  0.00     0.031 C 
ATOM     42  C   UNL     1       4.400  10.726   0.359  1.00  0.00     0.029 A 
ATOM     43  N   UNL     1       4.250  12.783   1.227  1.00  0.00    -0.354 N 
ATOM     44  C   UNL     1       0.473  14.883   1.355  1.00  0.00     0.074 A 
ATOM     45  C   UNL     1      -0.585  14.075   0.791  1.00  0.00     0.031 C 
ATOM     46  C   UNL     1       5.625  11.078   0.792  1.00  0.00     0.029 A 
ATOM     47  C   UNL     1       5.578  12.440   1.323  1.00  0.00     0.049 A 
ATOM     48  H   UNL     1       3.888  13.634   1.563  1.00  0.00     0.167 HD
ATOM     49  C   UNL     1       0.289  16.118   1.876  1.00  0.00     0.037 A 
ATOM     50  C   UNL     1       6.634  13.156   1.765  1.00  0.00     0.037 A 
ATOM     51  C   UNL     1       1.344  16.918   2.440  1.00  0.00     0.049 A 
ATOM     52  C   UNL     1       6.420  14.566   2.266  1.00  0.00     0.074 A 
ATOM     53  C   UNL     1       1.254  18.171   3.020  1.00  0.00     0.029 A 
ATOM     54  N   UNL     1       2.681  16.552   2.483  1.00  0.00    -0.354 N 
ATOM     55  N   UNL     1       5.301  15.243   2.382  1.00  0.00    -0.248 NA
ATOM     56  C   UNL     1       7.614  15.311   2.692  1.00  0.00     0.031 C 
ATOM     57  C   UNL     1       2.545  18.589   3.355  1.00  0.00     0.029 A 
ATOM     58  C   UNL     1       3.432  17.569   3.047  1.00  0.00     0.049 A 
ATOM     59  H   UNL     1       3.042  15.695   2.160  1.00  0.00     0.167 HD
ATOM     60  C   UNL     1       5.653  16.475   2.929  1.00  0.00     0.074 A 
ATOM     61  C   UNL     1       7.088  16.448   3.124  1.00  0.00     0.031 C 
ATOM     62  C   UNL     1       4.860  17.529   3.248  1.00  0.00     0.037 A 
BRANCH  49  63
ATOM     63  C   UNL     1      -1.096  16.699   1.811  1.00  0.00     0.058 A 
ATOM     64  C   UNL     1      -2.153  16.202   2.591  1.00  0.00     0.135 A 
ATOM     65  C   UNL     1      -1.365  17.784   0.960  1.00  0.00     0.135 A 
ATOM     66  F   UNL     1      -1.958  15.153   3.405  1.00  0.00    -0.206 F 
ATOM     67  C   UNL     1      -3.434  16.738   2.505  1.00  0.00     0.059 A 
ATOM     68  C   UNL     1      -2.631  18.356   0.882  1.00  0.00     0.059 A 
ATOM     69  F   UNL     1      -0.394  18.295   0.188  1.00  0.00    -0.206 F 
ATOM     70  C   UNL     1      -3.663  17.815   1.646  1.00  0.00     0.060 A 
BRANCH  70  71
ATOM     71  S   UNL     1      -5.330  18.497   1.544  1.00  0.00     0.124 S 
ATOM     72  O   UNL     1      -6.033  17.441   0.822  1.00  0.00    -0.237 OA
ATOM     73  O   UNL     1      -5.690  18.652   2.949  1.00  0.00    -0.237 OA
ATOM     74  O   UNL     1      -5.144  19.743   0.806  1.00  0.00    -0.744 OA
ENDBRANCH  70  71
ENDBRANCH  49  63
BRANCH  50  75
ATOM     75  C   UNL     1       8.001  12.564   1.754  1.00  0.00     0.058 A 
ATOM     76  C   UNL     1       8.672  12.273   2.952  1.00  0.00     0.135 A 
ATOM     77  C   UNL     1       8.673  12.293   0.551  1.00  0.00     0.135 A 
ATOM     78  F   UNL     1       8.083  12.533   4.129  1.00  0.00    -0.206 F 
ATOM     79  C   UNL     1       9.959  11.745   2.960  1.00  0.00     0.059 A 
ATOM     80  C   UNL     1       9.950  11.739   0.533  1.00  0.00     0.059 A 
ATOM     81  F   UNL     1       8.079  12.553  -0.625  1.00  0.00    -0.206 F 
ATOM     82  C   UNL     1      10.588  11.475   1.744  1.00  0.00     0.060 A 
BRANCH  82  83
ATOM     83  S   UNL     1      12.238  10.739   1.768  1.00  0.00     0.124 S 
ATOM     84  O   UNL     1      13.052  11.852   2.243  1.00  0.00    -0.237 OA
ATOM     85  O   UNL     1      12.064   9.632   2.703  1.00  0.00    -0.237 OA
ATOM     86  O   UNL     1      12.453  10.349   0.378  1.00  0.00    -0.744 OA
ENDBRANCH  82  83
ENDBRANCH  50  75
BRANCH  62  87
ATOM     87  C   UNL     1       5.507  18.729   3.888  1.00  0.00     0.058 A 
ATOM     88  C   UNL     1       6.339  19.601   3.168  1.00  0.00     0.135 A 
ATOM     89  C   UNL     1       5.235  19.047   5.230  1.00  0.00     0.135 A 
ATOM     90  F   UNL     1       6.635  19.346   1.884  1.00  0.00    -0.206 F 
ATOM     91  C   UNL     1       6.897  20.730   3.762  1.00  0.00     0.059 A 
ATOM     92  C   UNL     1       5.757  20.187   5.835  1.00  0.00     0.059 A 
ATOM     93  F   UNL     1       4.435  18.257   5.964  1.00  0.00    -0.206 F 
ATOM     94  C   UNL     1       6.598  21.017   5.095  1.00  0.00     0.060 A 
BRANCH  94  95
ATOM     95  S   UNL     1       7.301  22.503   5.841  1.00  0.00     0.124 S 
ATOM     96  O   UNL     1       8.701  22.123   5.992  1.00  0.00    -0.237 OA
ATOM     97  O   UNL     1       7.024  23.520   4.832  1.00  0.00    -0.237 OA
ATOM     98  O   UNL     1       6.553  22.645   7.087  1.00  0.00    -0.744 OA
ENDBRANCH  94  95
ENDBRANCH  62  87
ENDBRANCH  36  37
ENDBRANCH  29  31
ENDBRANCH  28  29
ENDBRANCH  27  28
ENDBRANCH  26  27
ENDBRANCH  25  26
ENDBRANCH   1  25
TORSDOF 24
