REMARK SMILES NC(=O)C[C@@H](NC(=O)c1ccc(CO)cc1)C(=O)OCCOCCOCCOC(=O)c1ccc(-c2c3nc(c(-c4c(F)cc(S(=O)(=O)[O-])cc4F)c4ccc([nH]4)c(-c4c(F)cc(S(=O)(=O)[O-])cc4F)c4nc(c(-c5c(F)cc(S(=O)(=O)[O-])cc5F)c5ccc2[nH]5)C=C4)C=C3)cc1
REMARK SMILES IDX 23 1 22 2 21 3 20 4 19 5 17 6 18 7 5 8 4 9 2 10 1 11 3 14
REMARK SMILES IDX 6 15 7 16 8 18 9 19 10 20 16 21 11 22 15 23 12 24 13 25
REMARK SMILES IDX 14 26 24 28 25 29 26 30 27 31 28 32 29 33 30 34 31 35 32 36
REMARK SMILES IDX 96 37 33 38 95 39 34 40 35 41 36 42 89 43 37 44 94 45 88 46
REMARK SMILES IDX 90 47 38 48 93 49 87 50 86 51 39 53 73 54 52 55 72 56 53 57
REMARK SMILES IDX 56 58 71 59 91 60 54 61 55 62 70 64 92 65 57 66 40 67 41 68
REMARK SMILES IDX 50 69 42 70 43 71 49 72 51 73 44 74 45 75 46 76 47 77 48 78
REMARK SMILES IDX 74 79 75 80 84 81 76 82 77 83 83 84 85 85 78 86 79 87 80 88
REMARK SMILES IDX 81 89 82 90 58 91 59 92 68 93 60 94 61 95 67 96 69 97 62 98
REMARK SMILES IDX 63 99 64 100 65 101 66 102
REMARK H PARENT 1 12 1 13 6 17 14 27 90 52 56 63
REMARK Flexibility Score: inf
ROOT
ATOM      1  C   UNL     1       1.260   6.685  -0.200  1.00  0.00     0.188 C 
ENDROOT
BRANCH   1   2
ATOM      2  O   UNL     1       2.182   7.471  -0.918  1.00  0.00    -0.376 OA
BRANCH   2   3
ATOM      3  C   UNL     1       3.495   6.983  -1.077  1.00  0.00     0.202 C 
BRANCH   3   4
ATOM      4  C   UNL     1       3.983   5.558  -0.768  1.00  0.00     0.261 C 
BRANCH   4   5
ATOM      5  O   UNL     1       3.156   4.403  -0.642  1.00  0.00    -0.462 OA
BRANCH   5   6
ATOM      6  C   UNL     1       2.892   3.991   0.636  1.00  0.00     0.329 C 
ATOM      7  O   UNL     1       2.983   4.704   1.628  1.00  0.00    -0.250 OA
BRANCH   6   8
ATOM      8  C   UNL     1       2.609   2.491   0.719  1.00  0.00     0.201 C 
BRANCH   8   9
ATOM      9  C   UNL     1       1.961   1.902  -0.542  1.00  0.00     0.136 C 
BRANCH   9  10
ATOM     10  C   UNL     1       0.880   0.926  -0.142  1.00  0.00     0.220 C 
ATOM     11  N   UNL     1       1.264  -0.377  -0.055  1.00  0.00    -0.370 N 
ATOM     12  H   UNL     1       0.610  -1.067   0.200  1.00  0.00     0.159 HD
ATOM     13  H   UNL     1       2.196  -0.629  -0.248  1.00  0.00     0.159 HD
ATOM     14  O   UNL     1      -0.262   1.270   0.139  1.00  0.00    -0.275 OA
ENDBRANCH   9  10
ENDBRANCH   8   9
BRANCH   8  15
ATOM     15  N   UNL     1       3.705   1.648   1.261  1.00  0.00    -0.338 N 
ATOM     16  C   UNL     1       5.073   1.731   1.130  1.00  0.00     0.251 C 
ATOM     17  H   UNL     1       3.398   0.893   1.814  1.00  0.00     0.164 HD
ATOM     18  O   UNL     1       5.741   0.701   1.091  1.00  0.00    -0.269 OA
BRANCH  16  19
ATOM     19  C   UNL     1       5.771   3.038   1.119  1.00  0.00     0.039 A 
ATOM     20  C   UNL     1       6.610   3.364   0.051  1.00  0.00     0.014 A 
ATOM     21  C   UNL     1       5.622   3.938   2.179  1.00  0.00     0.014 A 
ATOM     22  C   UNL     1       7.158   4.652  -0.038  1.00  0.00     0.007 A 
ATOM     23  C   UNL     1       6.152   5.233   2.083  1.00  0.00     0.007 A 
ATOM     24  C   UNL     1       6.859   5.622   0.934  1.00  0.00    -0.023 A 
BRANCH  24  25
ATOM     25  C   UNL     1       7.118   7.082   0.651  1.00  0.00     0.191 C 
BRANCH  25  26
ATOM     26  O   UNL     1       8.466   7.421   0.900  1.00  0.00    -0.392 OA
ATOM     27  H   UNL     1       8.673   7.257   1.833  1.00  0.00     0.211 HD
ENDBRANCH  25  26
ENDBRANCH  24  25
ENDBRANCH  16  19
ENDBRANCH   8  15
ENDBRANCH   6   8
ENDBRANCH   5   6
ENDBRANCH   4   5
ENDBRANCH   3   4
ENDBRANCH   2   3
ENDBRANCH   1   2
BRANCH   1  28
ATOM     28  C   UNL     1       0.647   5.563  -1.046  1.00  0.00     0.188 C 
BRANCH  28  29
ATOM     29  O   UNL     1       1.167   5.387  -2.348  1.00  0.00    -0.376 OA
BRANCH  29  30
ATOM     30  C   UNL     1       0.964   6.393  -3.333  1.00  0.00     0.202 C 
BRANCH  30  31
ATOM     31  C   UNL     1       0.090   7.666  -3.185  1.00  0.00     0.261 C 
BRANCH  31  32
ATOM     32  O   UNL     1      -0.667   7.868  -1.988  1.00  0.00    -0.460 OA
BRANCH  32  33
ATOM     33  C   UNL     1      -1.869   7.251  -1.895  1.00  0.00     0.338 C 
ATOM     34  O   UNL     1      -2.407   6.575  -2.755  1.00  0.00    -0.246 OA
BRANCH  33  35
ATOM     35  C   UNL     1      -2.277   7.304  -0.465  1.00  0.00     0.060 A 
ATOM     36  C   UNL     1      -2.478   6.096   0.224  1.00  0.00     0.016 A 
ATOM     37  C   UNL     1      -2.377   8.520   0.214  1.00  0.00     0.016 A 
ATOM     38  C   UNL     1      -2.796   6.099   1.582  1.00  0.00     0.010 A 
ATOM     39  C   UNL     1      -2.748   8.525   1.564  1.00  0.00     0.010 A 
ATOM     40  C   UNL     1      -2.994   7.316   2.242  1.00  0.00    -0.014 A 
BRANCH  40  41
ATOM     41  C   UNL     1      -3.745   7.329   3.522  1.00  0.00     0.031 A 
ATOM     42  C   UNL     1      -5.237   7.519   3.437  1.00  0.00     0.074 A 
ATOM     43  C   UNL     1      -3.149   7.157   4.715  1.00  0.00     0.049 A 
ATOM     44  N   UNL     1      -6.117   7.652   4.394  1.00  0.00    -0.248 NA
ATOM     45  C   UNL     1      -5.811   7.570   2.081  1.00  0.00     0.031 C 
ATOM     46  C   UNL     1      -1.727   6.901   4.927  1.00  0.00     0.029 A 
ATOM     47  N   UNL     1      -3.679   7.185   5.982  1.00  0.00    -0.354 N 
ATOM     48  C   UNL     1      -7.341   7.815   3.757  1.00  0.00     0.074 A 
ATOM     49  C   UNL     1      -7.090   7.792   2.334  1.00  0.00     0.031 C 
ATOM     50  C   UNL     1      -1.493   6.818   6.250  1.00  0.00     0.029 A 
ATOM     51  C   UNL     1      -2.741   7.049   6.977  1.00  0.00     0.049 A 
ATOM     52  H   UNL     1      -4.642   7.293   6.160  1.00  0.00     0.167 HD
ATOM     53  C   UNL     1      -8.568   7.966   4.307  1.00  0.00     0.037 A 
ATOM     54  C   UNL     1      -2.876   7.130   8.318  1.00  0.00     0.037 A 
ATOM     55  C   UNL     1      -8.813   7.990   5.723  1.00  0.00     0.049 A 
ATOM     56  C   UNL     1      -4.242   7.380   8.911  1.00  0.00     0.074 A 
ATOM     57  C   UNL     1     -10.021   8.131   6.383  1.00  0.00     0.029 A 
ATOM     58  N   UNL     1      -7.833   7.878   6.698  1.00  0.00    -0.354 N 
ATOM     59  N   UNL     1      -5.396   7.526   8.301  1.00  0.00    -0.248 NA
ATOM     60  C   UNL     1      -4.327   7.475  10.376  1.00  0.00     0.031 C 
ATOM     61  C   UNL     1      -9.764   8.159   7.758  1.00  0.00     0.029 A 
ATOM     62  C   UNL     1      -8.405   7.972   7.955  1.00  0.00     0.049 A 
ATOM     63  H   UNL     1      -6.873   7.750   6.522  1.00  0.00     0.167 HD
ATOM     64  C   UNL     1      -6.343   7.696   9.307  1.00  0.00     0.074 A 
ATOM     65  C   UNL     1      -5.630   7.627  10.565  1.00  0.00     0.031 C 
ATOM     66  C   UNL     1      -7.682   7.889   9.201  1.00  0.00     0.037 A 
BRANCH  53  67
ATOM     67  C   UNL     1      -9.729   8.153   3.372  1.00  0.00     0.058 A 
ATOM     68  C   UNL     1     -10.214   7.107   2.570  1.00  0.00     0.135 A 
ATOM     69  C   UNL     1     -10.380   9.395   3.291  1.00  0.00     0.135 A 
ATOM     70  F   UNL     1      -9.613   5.907   2.588  1.00  0.00    -0.206 F 
ATOM     71  C   UNL     1     -11.288   7.292   1.706  1.00  0.00     0.059 A 
ATOM     72  C   UNL     1     -11.475   9.594   2.457  1.00  0.00     0.059 A 
ATOM     73  F   UNL     1      -9.951  10.432   4.029  1.00  0.00    -0.206 F 
ATOM     74  C   UNL     1     -11.914   8.539   1.658  1.00  0.00     0.060 A 
BRANCH  74  75
ATOM     75  S   UNL     1     -13.315   8.759   0.542  1.00  0.00     0.124 S 
ATOM     76  O   UNL     1     -12.655   8.753  -0.759  1.00  0.00    -0.237 OA
ATOM     77  O   UNL     1     -14.137   7.591   0.841  1.00  0.00    -0.237 OA
ATOM     78  O   UNL     1     -13.879  10.041   0.953  1.00  0.00    -0.744 OA
ENDBRANCH  74  75
ENDBRANCH  53  67
BRANCH  54  79
ATOM     79  C   UNL     1      -1.683   6.998   9.200  1.00  0.00     0.058 A 
ATOM     80  C   UNL     1      -1.530   5.898  10.058  1.00  0.00     0.135 A 
ATOM     81  C   UNL     1      -0.679   7.979   9.216  1.00  0.00     0.135 A 
ATOM     82  F   UNL     1      -2.470   4.941  10.095  1.00  0.00    -0.206 F 
ATOM     83  C   UNL     1      -0.434   5.782  10.909  1.00  0.00     0.059 A 
ATOM     84  C   UNL     1       0.440   7.872  10.037  1.00  0.00     0.059 A 
ATOM     85  F   UNL     1      -0.773   9.052   8.414  1.00  0.00    -0.206 F 
ATOM     86  C   UNL     1       0.548   6.773  10.888  1.00  0.00     0.060 A 
BRANCH  86  87
ATOM     87  S   UNL     1       1.991   6.586  11.959  1.00  0.00     0.124 S 
ATOM     88  O   UNL     1       1.417   6.843  13.274  1.00  0.00    -0.237 OA
ATOM     89  O   UNL     1       2.392   5.208  11.694  1.00  0.00    -0.237 OA
ATOM     90  O   UNL     1       2.912   7.604  11.462  1.00  0.00    -0.744 OA
ENDBRANCH  86  87
ENDBRANCH  54  79
BRANCH  66  91
ATOM     91  C   UNL     1      -8.480   7.992  10.474  1.00  0.00     0.058 A 
ATOM     92  C   UNL     1      -8.408   9.119  11.307  1.00  0.00     0.135 A 
ATOM     93  C   UNL     1      -9.378   6.972  10.831  1.00  0.00     0.135 A 
ATOM     94  F   UNL     1      -7.566  10.123  11.015  1.00  0.00    -0.206 F 
ATOM     95  C   UNL     1      -9.179   9.220  12.462  1.00  0.00     0.059 A 
ATOM     96  C   UNL     1     -10.181   7.065  11.963  1.00  0.00     0.059 A 
ATOM     97  F   UNL     1      -9.499   5.877  10.062  1.00  0.00    -0.206 F 
ATOM     98  C   UNL     1     -10.065   8.188  12.780  1.00  0.00     0.060 A 
BRANCH  98  99
ATOM     99  S   UNL     1     -11.081   8.346  14.264  1.00  0.00     0.124 S 
ATOM    100  O   UNL     1     -10.095   8.136  15.319  1.00  0.00    -0.237 OA
ATOM    101  O   UNL     1     -11.601   9.705  14.144  1.00  0.00    -0.237 OA
ATOM    102  O   UNL     1     -12.073   7.286  14.112  1.00  0.00    -0.744 OA
ENDBRANCH  98  99
ENDBRANCH  66  91
ENDBRANCH  40  41
ENDBRANCH  33  35
ENDBRANCH  32  33
ENDBRANCH  31  32
ENDBRANCH  30  31
ENDBRANCH  29  30
ENDBRANCH  28  29
ENDBRANCH   1  28
TORSDOF 26
