REMARK SMILES O=C(OCCOCCOCCOC(=O)c1ccc(-c2c3nc(c(-c4c(F)cc(S(=O)(=O)[O-])cc4F)c4ccc([nH]4)c(-c4c(F)cc(S(=O)(=O)[O-])cc4F)c4nc(c(-c5c(F)cc(S(=O)(=O)[O-])cc5F)c5ccc2[nH]5)C=C4)C=C3)cc1)C1=Cc2c(Cl)cc(Cl)cc2O[C@@H]1C(F)(F)F
REMARK SMILES IDX 8 1 7 2 6 3 5 4 4 5 3 6 2 7 1 8 81 9 82 10 92 11 83 12 91 13
REMARK SMILES IDX 84 14 90 15 85 16 86 17 89 18 87 19 88 20 93 21 94 22 95 23
REMARK SMILES IDX 96 24 9 25 10 26 11 27 12 28 13 29 14 30 15 31 16 32 80 33
REMARK SMILES IDX 17 34 79 35 18 36 19 37 20 38 73 39 21 40 78 41 72 42 74 43
REMARK SMILES IDX 22 44 77 45 71 46 70 47 23 49 57 50 36 51 56 52 37 53 40 54
REMARK SMILES IDX 55 55 75 56 38 57 39 58 54 60 76 61 41 62 24 63 25 64 34 65
REMARK SMILES IDX 26 66 27 67 33 68 35 69 28 70 29 71 30 72 31 73 32 74 58 75
REMARK SMILES IDX 59 76 68 77 60 78 61 79 67 80 69 81 62 82 63 83 64 84 65 85
REMARK SMILES IDX 66 86 42 87 43 88 52 89 44 90 45 91 51 92 53 93 46 94 47 95
REMARK SMILES IDX 48 96 49 97 50 98
REMARK H PARENT 74 48 40 59
REMARK Flexibility Score: inf
ROOT
ATOM      1  C   UNL     1       2.185  -1.390  -3.045  1.00  0.00     0.188 C 
ENDROOT
BRANCH   1   2
ATOM      2  C   UNL     1       2.441  -0.123  -2.214  1.00  0.00     0.188 C 
BRANCH   2   3
ATOM      3  O   UNL     1       3.808   0.413  -1.928  1.00  0.00    -0.376 OA
BRANCH   3   4
ATOM      4  C   UNL     1       4.529   0.740  -0.391  1.00  0.00     0.202 C 
BRANCH   4   5
ATOM      5  C   UNL     1       3.819  -0.056   1.499  1.00  0.00     0.261 C 
BRANCH   5   6
ATOM      6  O   UNL     1       2.820   0.590   2.433  1.00  0.00    -0.460 OA
BRANCH   6   7
ATOM      7  C   UNL     1       2.962   1.923   2.462  1.00  0.00     0.338 C 
ATOM      8  O   UNL     1       2.216   2.729   2.961  1.00  0.00    -0.246 OA
BRANCH   7   9
ATOM      9  C   UNL     1       3.876   2.037   1.332  1.00  0.00     0.087 C 
ATOM     10  C   UNL     1       5.267   1.669   1.587  1.00  0.00     0.029 C 
ATOM     11  C   UNL     1       2.693   1.069   0.179  1.00  0.00     0.316 C 
ATOM     12  C   UNL     1       6.018   0.094   1.120  1.00  0.00     0.036 A 
ATOM     13  O   UNL     1       3.397  -0.712  -0.204  1.00  0.00    -0.475 OA
ATOM     14  C   UNL     1       7.291  -0.241   1.508  1.00  0.00     0.053 A 
ATOM     15  C   UNL     1       5.114  -1.126   0.286  1.00  0.00     0.130 A 
ATOM     16  Cl  UNL     1       8.298   0.789   2.435  1.00  0.00    -0.083 Cl
ATOM     17  C   UNL     1       7.729  -1.528   1.143  1.00  0.00     0.042 A 
ATOM     18  C   UNL     1       5.612  -2.354  -0.051  1.00  0.00     0.067 A 
ATOM     19  C   UNL     1       6.943  -2.510   0.402  1.00  0.00     0.046 A 
ATOM     20  Cl  UNL     1       7.745  -4.014   0.069  1.00  0.00    -0.084 Cl
BRANCH  11  21
ATOM     21  C   UNL     1       2.427   2.417  -0.796  1.00  0.00     0.430 C 
ATOM     22  F   UNL     1       2.372   2.320  -2.123  1.00  0.00    -0.167 F 
ATOM     23  F   UNL     1       1.249   2.981  -0.417  1.00  0.00    -0.167 F 
ATOM     24  F   UNL     1       3.362   3.393  -0.582  1.00  0.00    -0.167 F 
ENDBRANCH  11  21
ENDBRANCH   7   9
ENDBRANCH   6   7
ENDBRANCH   5   6
ENDBRANCH   4   5
ENDBRANCH   3   4
ENDBRANCH   2   3
ENDBRANCH   1   2
BRANCH   1  25
ATOM     25  O   UNL     1       3.161  -2.400  -3.054  1.00  0.00    -0.376 OA
BRANCH  25  26
ATOM     26  C   UNL     1       4.445  -1.985  -3.499  1.00  0.00     0.202 C 
BRANCH  26  27
ATOM     27  C   UNL     1       4.543  -1.208  -4.827  1.00  0.00     0.261 C 
BRANCH  27  28
ATOM     28  O   UNL     1       4.043   0.150  -4.767  1.00  0.00    -0.460 OA
BRANCH  28  29
ATOM     29  C   UNL     1       2.998   0.470  -5.576  1.00  0.00     0.338 C 
ATOM     30  O   UNL     1       2.415  -0.275  -6.345  1.00  0.00    -0.246 OA
BRANCH  29  31
ATOM     31  C   UNL     1       2.543   1.852  -5.296  1.00  0.00     0.060 A 
ATOM     32  C   UNL     1       1.247   2.074  -4.803  1.00  0.00     0.016 A 
ATOM     33  C   UNL     1       3.379   2.933  -5.575  1.00  0.00     0.016 A 
ATOM     34  C   UNL     1       0.802   3.376  -4.546  1.00  0.00     0.010 A 
ATOM     35  C   UNL     1       2.913   4.236  -5.368  1.00  0.00     0.010 A 
ATOM     36  C   UNL     1       1.620   4.467  -4.862  1.00  0.00    -0.014 A 
BRANCH  36  37
ATOM     37  C   UNL     1       1.055   5.841  -4.888  1.00  0.00     0.031 A 
ATOM     38  C   UNL     1       0.487   6.337  -6.190  1.00  0.00     0.074 A 
ATOM     39  C   UNL     1       1.057   6.637  -3.802  1.00  0.00     0.049 A 
ATOM     40  N   UNL     1       0.005   7.513  -6.495  1.00  0.00    -0.248 NA
ATOM     41  C   UNL     1       0.467   5.372  -7.303  1.00  0.00     0.031 C 
ATOM     42  C   UNL     1       1.546   6.260  -2.478  1.00  0.00     0.029 A 
ATOM     43  N   UNL     1       0.644   7.940  -3.648  1.00  0.00    -0.354 N 
ATOM     44  C   UNL     1      -0.367   7.432  -7.831  1.00  0.00     0.074 A 
ATOM     45  C   UNL     1      -0.032   6.102  -8.288  1.00  0.00     0.031 C 
ATOM     46  C   UNL     1       1.421   7.314  -1.649  1.00  0.00     0.029 A 
ATOM     47  C   UNL     1       0.878   8.452  -2.391  1.00  0.00     0.049 A 
ATOM     48  H   UNL     1       0.221   8.459  -4.369  1.00  0.00     0.167 HD
ATOM     49  C   UNL     1      -0.939   8.382  -8.607  1.00  0.00     0.037 A 
ATOM     50  C   UNL     1       0.699   9.701  -1.908  1.00  0.00     0.037 A 
ATOM     51  C   UNL     1      -1.251   9.710  -8.150  1.00  0.00     0.049 A 
ATOM     52  C   UNL     1       0.131  10.767  -2.819  1.00  0.00     0.074 A 
ATOM     53  C   UNL     1      -1.845  10.742  -8.854  1.00  0.00     0.029 A 
ATOM     54  N   UNL     1      -0.978  10.198  -6.880  1.00  0.00    -0.354 N 
ATOM     55  N   UNL     1      -0.253  10.667  -4.071  1.00  0.00    -0.248 NA
ATOM     56  C   UNL     1      -0.030  12.114  -2.253  1.00  0.00     0.031 C 
ATOM     57  C   UNL     1      -1.864  11.874  -8.036  1.00  0.00     0.029 A 
ATOM     58  C   UNL     1      -1.360  11.526  -6.792  1.00  0.00     0.049 A 
ATOM     59  H   UNL     1      -0.573   9.677  -6.149  1.00  0.00     0.167 HD
ATOM     60  C   UNL     1      -0.734  11.925  -4.426  1.00  0.00     0.074 A 
ATOM     61  C   UNL     1      -0.606  12.765  -3.254  1.00  0.00     0.031 C 
ATOM     62  C   UNL     1      -1.239  12.348  -5.613  1.00  0.00     0.037 A 
BRANCH  49  63
ATOM     63  C   UNL     1      -1.233   8.034 -10.041  1.00  0.00     0.058 A 
ATOM     64  C   UNL     1      -2.237   7.119 -10.394  1.00  0.00     0.135 A 
ATOM     65  C   UNL     1      -0.533   8.670 -11.081  1.00  0.00     0.135 A 
ATOM     66  F   UNL     1      -2.921   6.464  -9.442  1.00  0.00    -0.206 F 
ATOM     67  C   UNL     1      -2.530   6.837 -11.724  1.00  0.00     0.059 A 
ATOM     68  C   UNL     1      -0.832   8.428 -12.418  1.00  0.00     0.059 A 
ATOM     69  F   UNL     1       0.444   9.546 -10.802  1.00  0.00    -0.206 F 
ATOM     70  C   UNL     1      -1.828   7.505 -12.729  1.00  0.00     0.060 A 
BRANCH  70  71
ATOM     71  S   UNL     1      -2.252   7.158 -14.449  1.00  0.00     0.124 S 
ATOM     72  O   UNL     1      -1.788   5.781 -14.593  1.00  0.00    -0.237 OA
ATOM     73  O   UNL     1      -3.699   7.342 -14.453  1.00  0.00    -0.237 OA
ATOM     74  O   UNL     1      -1.492   8.155 -15.196  1.00  0.00    -0.744 OA
ENDBRANCH  70  71
ENDBRANCH  49  63
BRANCH  50  75
ATOM     75  C   UNL     1       1.081  10.036  -0.504  1.00  0.00     0.058 A 
ATOM     76  C   UNL     1       0.123  10.435   0.441  1.00  0.00     0.135 A 
ATOM     77  C   UNL     1       2.423  10.005  -0.089  1.00  0.00     0.135 A 
ATOM     78  F   UNL     1      -1.172  10.502   0.095  1.00  0.00    -0.206 F 
ATOM     79  C   UNL     1       0.479  10.816   1.732  1.00  0.00     0.059 A 
ATOM     80  C   UNL     1       2.800  10.345   1.207  1.00  0.00     0.059 A 
ATOM     81  F   UNL     1       3.385   9.632  -0.947  1.00  0.00    -0.206 F 
ATOM     82  C   UNL     1       1.822  10.764   2.108  1.00  0.00     0.060 A 
BRANCH  82  83
ATOM     83  S   UNL     1       2.271  11.231   3.794  1.00  0.00     0.124 S 
ATOM     84  O   UNL     1       2.023  12.668   3.779  1.00  0.00    -0.237 OA
ATOM     85  O   UNL     1       1.345  10.431   4.589  1.00  0.00    -0.237 OA
ATOM     86  O   UNL     1       3.674  10.836   3.891  1.00  0.00    -0.744 OA
ENDBRANCH  82  83
ENDBRANCH  50  75
BRANCH  62  87
ATOM     87  C   UNL     1      -1.743  13.766  -5.699  1.00  0.00     0.058 A 
ATOM     88  C   UNL     1      -0.879  14.872  -5.657  1.00  0.00     0.135 A 
ATOM     89  C   UNL     1      -3.113  14.017  -5.891  1.00  0.00     0.135 A 
ATOM     90  F   UNL     1       0.439  14.694  -5.474  1.00  0.00    -0.206 F 
ATOM     91  C   UNL     1      -1.358  16.174  -5.770  1.00  0.00     0.059 A 
ATOM     92  C   UNL     1      -3.608  15.308  -6.046  1.00  0.00     0.059 A 
ATOM     93  F   UNL     1      -3.986  12.998  -5.954  1.00  0.00    -0.206 F 
ATOM     94  C   UNL     1      -2.724  16.381  -5.971  1.00  0.00     0.060 A 
BRANCH  94  95
ATOM     95  S   UNL     1      -3.323  18.074  -6.151  1.00  0.00     0.124 S 
ATOM     96  O   UNL     1      -3.143  18.598  -4.801  1.00  0.00    -0.237 OA
ATOM     97  O   UNL     1      -2.424  18.615  -7.166  1.00  0.00    -0.237 OA
ATOM     98  O   UNL     1      -4.709  17.903  -6.577  1.00  0.00    -0.744 OA
ENDBRANCH  94  95
ENDBRANCH  62  87
ENDBRANCH  36  37
ENDBRANCH  29  31
ENDBRANCH  28  29
ENDBRANCH  27  28
ENDBRANCH  26  27
ENDBRANCH  25  26
ENDBRANCH   1  25
TORSDOF 21
