REMARK SMILES O=C(OCCOCCOCCOC(=O)c1cc(S(=O)(=O)Nc2cccc(NC(=O)c3ccco3)c2)ccc1F)c1ccc(-c2c3nc(c(-c4c(F)cc(S(=O)(=O)[O-])cc4F)c4ccc([nH]4)c(-c4c(F)cc(S(=O)(=O)[O-])cc4F)c4nc(c(-c5c(F)cc(S(=O)(=O)[O-])cc5F)c5ccc2[nH]5)C=C4)C=C3)cc1
REMARK SMILES IDX 8 1 7 2 6 3 5 4 4 5 3 6 2 7 1 8 40 9 41 10 105 11 42 12
REMARK SMILES IDX 104 13 43 14 44 15 45 16 98 17 46 18 103 19 97 20 99 21
REMARK SMILES IDX 47 22 102 23 96 24 95 25 48 27 82 28 61 29 81 30 62 31 65 32
REMARK SMILES IDX 80 33 100 34 63 35 64 36 79 38 101 39 66 40 49 41 50 42
REMARK SMILES IDX 59 43 51 44 52 45 58 46 60 47 53 48 54 49 55 50 56 51 57 52
REMARK SMILES IDX 83 53 84 54 93 55 85 56 86 57 92 58 94 59 87 60 88 61 89 62
REMARK SMILES IDX 90 63 91 64 67 65 68 66 77 67 69 68 70 69 76 70 78 71 71 72
REMARK SMILES IDX 72 73 73 74 74 75 75 76 9 77 10 78 11 79 12 80 13 81 14 82
REMARK SMILES IDX 15 83 16 84 38 85 17 86 37 87 39 88 36 89 18 90 19 91 20 92
REMARK SMILES IDX 21 93 22 95 23 96 35 97 24 98 26 99 25 100 27 101 28 102
REMARK SMILES IDX 29 104 30 105 31 106 34 107 32 108 33 109
REMARK H PARENT 99 26 65 37 21 94 27 103
REMARK Flexibility Score: inf
ROOT
ATOM      1  C   UNL     1       1.953  -0.207   3.145  1.00  0.00     0.188 C 
ENDROOT
BRANCH   1   2
ATOM      2  C   UNL     1       2.510   0.649   2.006  1.00  0.00     0.188 C 
BRANCH   2   3
ATOM      3  O   UNL     1       3.772   0.142   1.553  1.00  0.00    -0.376 OA
BRANCH   3   4
ATOM      4  C   UNL     1       4.657   1.160   1.079  1.00  0.00     0.202 C 
BRANCH   4   5
ATOM      5  C   UNL     1       4.457   1.544  -0.394  1.00  0.00     0.261 C 
BRANCH   5   6
ATOM      6  O   UNL     1       3.090   1.413  -0.815  1.00  0.00    -0.460 OA
BRANCH   6   7
ATOM      7  C   UNL     1       2.519   0.387  -1.499  1.00  0.00     0.338 C 
ATOM      8  O   UNL     1       1.361   0.524  -1.889  1.00  0.00    -0.246 OA
BRANCH   7   9
ATOM      9  C   UNL     1       3.237  -0.883  -1.843  1.00  0.00     0.060 A 
ATOM     10  C   UNL     1       4.340  -1.389  -1.156  1.00  0.00     0.016 A 
ATOM     11  C   UNL     1       2.733  -1.646  -2.911  1.00  0.00     0.016 A 
ATOM     12  C   UNL     1       5.002  -2.535  -1.584  1.00  0.00     0.010 A 
ATOM     13  C   UNL     1       3.346  -2.847  -3.298  1.00  0.00     0.010 A 
ATOM     14  C   UNL     1       4.506  -3.286  -2.647  1.00  0.00    -0.014 A 
BRANCH  14  15
ATOM     15  C   UNL     1       5.247  -4.491  -3.086  1.00  0.00     0.031 A 
ATOM     16  C   UNL     1       5.993  -4.460  -4.385  1.00  0.00     0.074 A 
ATOM     17  C   UNL     1       5.391  -5.545  -2.258  1.00  0.00     0.049 A 
ATOM     18  N   UNL     1       6.657  -5.419  -4.970  1.00  0.00    -0.248 NA
ATOM     19  C   UNL     1       6.049  -3.168  -5.089  1.00  0.00     0.031 C 
ATOM     20  C   UNL     1       4.937  -5.588  -0.868  1.00  0.00     0.029 A 
ATOM     21  N   UNL     1       6.002  -6.762  -2.438  1.00  0.00    -0.354 N 
ATOM     22  C   UNL     1       7.241  -4.842  -6.088  1.00  0.00     0.074 A 
ATOM     23  C   UNL     1       6.817  -3.460  -6.130  1.00  0.00     0.031 C 
ATOM     24  C   UNL     1       5.317  -6.751  -0.320  1.00  0.00     0.029 A 
ATOM     25  C   UNL     1       5.898  -7.594  -1.348  1.00  0.00     0.049 A 
ATOM     26  H   UNL     1       6.468  -7.014  -3.267  1.00  0.00     0.167 HD
ATOM     27  C   UNL     1       8.082  -5.414  -6.978  1.00  0.00     0.037 A 
ATOM     28  C   UNL     1       6.173  -8.906  -1.207  1.00  0.00     0.037 A 
ATOM     29  C   UNL     1       8.498  -6.788  -6.916  1.00  0.00     0.049 A 
ATOM     30  C   UNL     1       6.771  -9.616  -2.384  1.00  0.00     0.074 A 
ATOM     31  C   UNL     1       9.323  -7.479  -7.785  1.00  0.00     0.029 A 
ATOM     32  N   UNL     1       8.114  -7.683  -5.929  1.00  0.00    -0.354 N 
ATOM     33  N   UNL     1       7.241  -9.091  -3.489  1.00  0.00    -0.248 NA
ATOM     34  C   UNL     1       6.860 -11.080  -2.322  1.00  0.00     0.031 C 
ATOM     35  C   UNL     1       9.394  -8.807  -7.352  1.00  0.00     0.029 A 
ATOM     36  C   UNL     1       8.641  -8.934  -6.195  1.00  0.00     0.049 A 
ATOM     37  H   UNL     1       7.550  -7.461  -5.154  1.00  0.00     0.167 HD
ATOM     38  C   UNL     1       7.748 -10.150  -4.223  1.00  0.00     0.074 A 
ATOM     39  C   UNL     1       7.490 -11.353  -3.457  1.00  0.00     0.031 C 
ATOM     40  C   UNL     1       8.393 -10.118  -5.413  1.00  0.00     0.037 A 
BRANCH  27  41
ATOM     41  C   UNL     1       8.588  -4.567  -8.105  1.00  0.00     0.058 A 
ATOM     42  C   UNL     1       8.058  -4.718  -9.395  1.00  0.00     0.135 A 
ATOM     43  C   UNL     1       9.636  -3.653  -7.923  1.00  0.00     0.135 A 
ATOM     44  F   UNL     1       7.040  -5.565  -9.613  1.00  0.00    -0.206 F 
ATOM     45  C   UNL     1       8.569  -4.008 -10.475  1.00  0.00     0.059 A 
ATOM     46  C   UNL     1      10.154  -2.921  -8.987  1.00  0.00     0.059 A 
ATOM     47  F   UNL     1      10.152  -3.451  -6.700  1.00  0.00    -0.206 F 
ATOM     48  C   UNL     1       9.624  -3.118 -10.262  1.00  0.00     0.060 A 
BRANCH  48  49
ATOM     49  S   UNL     1      10.274  -2.207 -11.679  1.00  0.00     0.124 S 
ATOM     50  O   UNL     1      10.918  -3.267 -12.446  1.00  0.00    -0.237 OA
ATOM     51  O   UNL     1       9.060  -1.644 -12.262  1.00  0.00    -0.237 OA
ATOM     52  O   UNL     1      11.176  -1.234 -11.069  1.00  0.00    -0.744 OA
ENDBRANCH  48  49
ENDBRANCH  27  41
BRANCH  28  53
ATOM     53  C   UNL     1       5.795  -9.643   0.034  1.00  0.00     0.058 A 
ATOM     54  C   UNL     1       4.452  -9.722   0.439  1.00  0.00     0.135 A 
ATOM     55  C   UNL     1       6.742 -10.309   0.824  1.00  0.00     0.135 A 
ATOM     56  F   UNL     1       3.491  -9.122  -0.283  1.00  0.00    -0.206 F 
ATOM     57  C   UNL     1       4.068 -10.398   1.590  1.00  0.00     0.059 A 
ATOM     58  C   UNL     1       6.376 -11.038   1.956  1.00  0.00     0.059 A 
ATOM     59  F   UNL     1       8.038 -10.284   0.477  1.00  0.00    -0.206 F 
ATOM     60  C   UNL     1       5.035 -11.072   2.330  1.00  0.00     0.060 A 
BRANCH  60  61
ATOM     61  S   UNL     1       4.487 -12.003   3.775  1.00  0.00     0.124 S 
ATOM     62  O   UNL     1       3.804 -10.968   4.544  1.00  0.00    -0.237 OA
ATOM     63  O   UNL     1       3.636 -13.013   3.158  1.00  0.00    -0.237 OA
ATOM     64  O   UNL     1       5.734 -12.494   4.351  1.00  0.00    -0.744 OA
ENDBRANCH  60  61
ENDBRANCH  28  53
BRANCH  40  65
ATOM     65  C   UNL     1       8.930 -11.412  -5.936  1.00  0.00     0.058 A 
ATOM     66  C   UNL     1      10.308 -11.674  -5.880  1.00  0.00     0.135 A 
ATOM     67  C   UNL     1       8.098 -12.350  -6.561  1.00  0.00     0.135 A 
ATOM     68  F   UNL     1      11.139 -10.803  -5.285  1.00  0.00    -0.206 F 
ATOM     69  C   UNL     1      10.850 -12.811  -6.461  1.00  0.00     0.059 A 
ATOM     70  C   UNL     1       8.617 -13.507  -7.130  1.00  0.00     0.059 A 
ATOM     71  F   UNL     1       6.772 -12.149  -6.612  1.00  0.00    -0.206 F 
ATOM     72  C   UNL     1       9.997 -13.716  -7.094  1.00  0.00     0.060 A 
BRANCH  72  73
ATOM     73  S   UNL     1      10.719 -15.179  -7.864  1.00  0.00     0.124 S 
ATOM     74  O   UNL     1      11.361 -14.607  -9.042  1.00  0.00    -0.237 OA
ATOM     75  O   UNL     1      11.619 -15.664  -6.822  1.00  0.00    -0.237 OA
ATOM     76  O   UNL     1       9.560 -16.027  -8.127  1.00  0.00    -0.744 OA
ENDBRANCH  72  73
ENDBRANCH  40  65
ENDBRANCH  14  15
ENDBRANCH   7   9
ENDBRANCH   6   7
ENDBRANCH   5   6
ENDBRANCH   4   5
ENDBRANCH   3   4
ENDBRANCH   2   3
ENDBRANCH   1   2
BRANCH   1  77
ATOM     77  O   UNL     1       2.632  -0.077   4.396  1.00  0.00    -0.376 OA
BRANCH  77  78
ATOM     78  C   UNL     1       3.995  -0.488   4.441  1.00  0.00     0.202 C 
BRANCH  78  79
ATOM     79  C   UNL     1       4.272  -1.996   4.484  1.00  0.00     0.261 C 
BRANCH  79  80
ATOM     80  O   UNL     1       3.720  -2.749   3.397  1.00  0.00    -0.460 OA
BRANCH  80  81
ATOM     81  C   UNL     1       2.609  -3.459   3.712  1.00  0.00     0.341 C 
ATOM     82  O   UNL     1       1.936  -3.395   4.726  1.00  0.00    -0.246 OA
BRANCH  81  83
ATOM     83  C   UNL     1       2.293  -4.352   2.603  1.00  0.00     0.097 A 
ATOM     84  C   UNL     1       1.280  -4.052   1.686  1.00  0.00     0.041 A 
ATOM     85  C   UNL     1       2.946  -5.575   2.561  1.00  0.00     0.137 A 
ATOM     86  C   UNL     1       0.979  -4.980   0.678  1.00  0.00     0.088 A 
ATOM     87  C   UNL     1       2.644  -6.483   1.561  1.00  0.00     0.041 A 
ATOM     88  F   UNL     1       3.873  -5.894   3.474  1.00  0.00    -0.206 F 
ATOM     89  C   UNL     1       1.722  -6.156   0.569  1.00  0.00     0.025 A 
BRANCH  86  90
ATOM     90  S   UNL     1      -0.479  -4.685  -0.303  1.00  0.00     0.261 S 
ATOM     91  O   UNL     1      -1.617  -4.867   0.580  1.00  0.00    -0.201 OA
ATOM     92  O   UNL     1      -0.258  -3.432  -0.985  1.00  0.00    -0.201 OA
BRANCH  90  93
ATOM     93  N   UNL     1      -0.541  -5.836  -1.505  1.00  0.00    -0.280 N 
ATOM     94  H   UNL     1      -0.418  -5.507  -2.425  1.00  0.00     0.180 HD
BRANCH  93  95
ATOM     95  C   UNL     1      -0.751  -7.240  -1.365  1.00  0.00     0.051 A 
ATOM     96  C   UNL     1      -0.744  -7.982  -2.548  1.00  0.00     0.027 A 
ATOM     97  C   UNL     1      -0.777  -7.919  -0.141  1.00  0.00     0.052 A 
ATOM     98  C   UNL     1      -0.749  -9.374  -2.509  1.00  0.00     0.004 A 
ATOM     99  C   UNL     1      -0.661  -9.319  -0.092  1.00  0.00     0.043 A 
ATOM    100  C   UNL     1      -0.711 -10.037  -1.284  1.00  0.00     0.026 A 
BRANCH  99 101
ATOM    101  N   UNL     1      -0.518  -9.909   1.175  1.00  0.00    -0.319 N 
ATOM    102  C   UNL     1      -0.199 -11.192   1.586  1.00  0.00     0.291 C 
ATOM    103  H   UNL     1      -0.676  -9.285   1.920  1.00  0.00     0.170 HD
ATOM    104  O   UNL     1      -0.553 -11.479   2.734  1.00  0.00    -0.265 OA
BRANCH 102 105
ATOM    105  C   UNL     1       0.531 -12.107   0.731  1.00  0.00     0.191 A 
ATOM    106  C   UNL     1       1.535 -11.946  -0.211  1.00  0.00     0.056 A 
ATOM    107  O   UNL     1       0.255 -13.447   0.849  1.00  0.00    -0.459 OA
ATOM    108  C   UNL     1       1.887 -13.235  -0.678  1.00  0.00     0.043 A 
ATOM    109  C   UNL     1       1.085 -14.113   0.008  1.00  0.00     0.196 A 
ENDBRANCH 102 105
ENDBRANCH  99 101
ENDBRANCH  93  95
ENDBRANCH  90  93
ENDBRANCH  86  90
ENDBRANCH  81  83
ENDBRANCH  80  81
ENDBRANCH  79  80
ENDBRANCH  78  79
ENDBRANCH  77  78
ENDBRANCH   1  77
TORSDOF 25
