REMARK SMILES CN(CC(=O)OCCOCCOCCOC(=O)c1ccc(-c2c3nc(c(-c4c(F)cc(S(=O)(=O)[O-])cc4F)c4ccc([nH]4)c(-c4c(F)cc(S(=O)(=O)[O-])cc4F)c4nc(c(-c5c(F)cc(S(=O)(=O)[O-])cc5F)c5ccc2[nH]5)C=C4)C=C3)cc1)c1nc2cc(N)ccc2[nH]1
REMARK SMILES IDX 10 1 9 2 8 3 7 4 6 5 4 6 5 7 3 8 2 9 1 10 84 11 85 12 93 13
REMARK SMILES IDX 86 14 92 15 87 17 91 18 88 19 90 20 89 21 11 24 12 25 13 26
REMARK SMILES IDX 14 27 15 28 16 29 17 30 18 31 19 32 83 33 20 34 82 35 21 36
REMARK SMILES IDX 22 37 23 38 76 39 24 40 81 41 75 42 77 43 25 44 80 45 74 46
REMARK SMILES IDX 73 47 26 49 60 50 39 51 59 52 40 53 43 54 58 55 78 56 41 57
REMARK SMILES IDX 42 58 57 60 79 61 44 62 27 63 28 64 37 65 29 66 30 67 36 68
REMARK SMILES IDX 38 69 31 70 32 71 33 72 34 73 35 74 61 75 62 76 71 77 63 78
REMARK SMILES IDX 64 79 70 80 72 81 65 82 66 83 67 84 68 85 69 86 45 87 46 88
REMARK SMILES IDX 55 89 47 90 48 91 54 92 56 93 49 94 50 95 51 96 52 97 53 98
REMARK H PARENT 93 16 89 22 89 23 77 48 43 59
REMARK Flexibility Score: inf
ROOT
ATOM      1  C   UNL     1      -2.313   3.354  -0.501  1.00  0.00     0.188 C 
ENDROOT
BRANCH   1   2
ATOM      2  O   UNL     1      -3.648   3.037  -0.870  1.00  0.00    -0.376 OA
BRANCH   2   3
ATOM      3  C   UNL     1      -4.106   1.735  -0.570  1.00  0.00     0.202 C 
BRANCH   3   4
ATOM      4  C   UNL     1      -3.254   0.589  -1.132  1.00  0.00     0.261 C 
BRANCH   4   5
ATOM      5  O   UNL     1      -1.845   0.715  -0.801  1.00  0.00    -0.462 OA
BRANCH   5   6
ATOM      6  C   UNL     1      -0.967   0.567  -1.834  1.00  0.00     0.325 C 
ATOM      7  O   UNL     1      -1.264  -0.025  -2.871  1.00  0.00    -0.250 OA
BRANCH   6   8
ATOM      8  C   UNL     1       0.379   1.327  -1.695  1.00  0.00     0.241 C 
BRANCH   8   9
ATOM      9  N   UNL     1       1.012   1.467  -0.357  1.00  0.00    -0.334 N 
ATOM     10  C   UNL     1       1.371   0.246   0.338  1.00  0.00     0.147 C 
BRANCH   9  11
ATOM     11  C   UNL     1       1.538   2.676   0.023  1.00  0.00     0.204 A 
ATOM     12  N   UNL     1       1.108   3.879  -0.289  1.00  0.00    -0.213 NA
ATOM     13  N   UNL     1       2.632   2.793   0.868  1.00  0.00    -0.324 N 
ATOM     14  C   UNL     1       1.836   4.767   0.486  1.00  0.00     0.093 A 
ATOM     15  C   UNL     1       2.830   4.116   1.190  1.00  0.00     0.067 A 
ATOM     16  H   UNL     1       3.182   2.043   1.189  1.00  0.00     0.170 HD
ATOM     17  C   UNL     1       1.703   6.146   0.689  1.00  0.00     0.056 A 
ATOM     18  C   UNL     1       3.735   4.803   2.017  1.00  0.00     0.030 A 
ATOM     19  C   UNL     1       2.466   6.846   1.616  1.00  0.00     0.034 A 
ATOM     20  C   UNL     1       3.527   6.187   2.212  1.00  0.00     0.028 A 
BRANCH  19  21
ATOM     21  N   UNL     1       2.168   8.180   1.863  1.00  0.00    -0.399 N 
ATOM     22  H   UNL     1       1.401   8.604   1.413  1.00  0.00     0.156 HD
ATOM     23  H   UNL     1       2.723   8.701   2.486  1.00  0.00     0.156 HD
ENDBRANCH  19  21
ENDBRANCH   9  11
ENDBRANCH   8   9
ENDBRANCH   6   8
ENDBRANCH   5   6
ENDBRANCH   4   5
ENDBRANCH   3   4
ENDBRANCH   2   3
ENDBRANCH   1   2
BRANCH   1  24
ATOM     24  C   UNL     1      -1.804   3.047   0.921  1.00  0.00     0.188 C 
BRANCH  24  25
ATOM     25  O   UNL     1      -2.854   2.801   1.829  1.00  0.00    -0.376 OA
BRANCH  25  26
ATOM     26  C   UNL     1      -3.330   3.868   2.615  1.00  0.00     0.202 C 
BRANCH  26  27
ATOM     27  C   UNL     1      -3.154   5.358   2.257  1.00  0.00     0.261 C 
BRANCH  27  28
ATOM     28  O   UNL     1      -2.847   5.729   0.899  1.00  0.00    -0.460 OA
BRANCH  28  29
ATOM     29  C   UNL     1      -1.766   6.542   0.773  1.00  0.00     0.338 C 
ATOM     30  O   UNL     1      -1.110   6.971   1.719  1.00  0.00    -0.246 OA
BRANCH  29  31
ATOM     31  C   UNL     1      -1.384   6.994  -0.604  1.00  0.00     0.060 A 
ATOM     32  C   UNL     1      -0.651   6.182  -1.489  1.00  0.00     0.016 A 
ATOM     33  C   UNL     1      -1.267   8.381  -0.736  1.00  0.00     0.016 A 
ATOM     34  C   UNL     1       0.296   6.741  -2.362  1.00  0.00     0.010 A 
ATOM     35  C   UNL     1      -0.359   8.940  -1.645  1.00  0.00     0.010 A 
ATOM     36  C   UNL     1       0.469   8.126  -2.432  1.00  0.00    -0.014 A 
BRANCH  36  37
ATOM     37  C   UNL     1       1.394   8.749  -3.409  1.00  0.00     0.031 A 
ATOM     38  C   UNL     1       2.569   9.591  -2.993  1.00  0.00     0.074 A 
ATOM     39  C   UNL     1       1.057   8.652  -4.707  1.00  0.00     0.049 A 
ATOM     40  N   UNL     1       3.197  10.521  -3.667  1.00  0.00    -0.248 NA
ATOM     41  C   UNL     1       3.128   9.344  -1.656  1.00  0.00     0.031 C 
ATOM     42  C   UNL     1       0.009   7.781  -5.242  1.00  0.00     0.029 A 
ATOM     43  N   UNL     1       1.505   9.351  -5.798  1.00  0.00    -0.354 N 
ATOM     44  C   UNL     1       4.203  10.999  -2.830  1.00  0.00     0.074 A 
ATOM     45  C   UNL     1       4.111  10.239  -1.599  1.00  0.00     0.031 C 
ATOM     46  C   UNL     1      -0.165   8.051  -6.539  1.00  0.00     0.029 A 
ATOM     47  C   UNL     1       0.691   9.175  -6.891  1.00  0.00     0.049 A 
ATOM     48  H   UNL     1       2.313   9.913  -5.798  1.00  0.00     0.167 HD
ATOM     49  C   UNL     1       5.100  11.988  -3.081  1.00  0.00     0.037 A 
ATOM     50  C   UNL     1       0.558   9.902  -8.013  1.00  0.00     0.037 A 
ATOM     51  C   UNL     1       5.163  12.707  -4.335  1.00  0.00     0.049 A 
ATOM     52  C   UNL     1       1.449  11.083  -8.223  1.00  0.00     0.074 A 
ATOM     53  C   UNL     1       6.034  13.717  -4.709  1.00  0.00     0.029 A 
ATOM     54  N   UNL     1       4.315  12.498  -5.415  1.00  0.00    -0.354 N 
ATOM     55  N   UNL     1       2.359  11.574  -7.419  1.00  0.00    -0.248 NA
ATOM     56  C   UNL     1       1.304  11.804  -9.492  1.00  0.00     0.031 C 
ATOM     57  C   UNL     1       5.670  14.162  -5.984  1.00  0.00     0.029 A 
ATOM     58  C   UNL     1       4.620  13.381  -6.439  1.00  0.00     0.049 A 
ATOM     59  H   UNL     1       3.602  11.820  -5.449  1.00  0.00     0.167 HD
ATOM     60  C   UNL     1       2.933  12.636  -8.103  1.00  0.00     0.074 A 
ATOM     61  C   UNL     1       2.253  12.724  -9.381  1.00  0.00     0.031 C 
ATOM     62  C   UNL     1       3.944  13.449  -7.713  1.00  0.00     0.037 A 
BRANCH  49  63
ATOM     63  C   UNL     1       6.051  12.412  -1.986  1.00  0.00     0.058 A 
ATOM     64  C   UNL     1       7.135  11.621  -1.576  1.00  0.00     0.135 A 
ATOM     65  C   UNL     1       5.926  13.686  -1.402  1.00  0.00     0.135 A 
ATOM     66  F   UNL     1       7.314  10.397  -2.096  1.00  0.00    -0.206 F 
ATOM     67  C   UNL     1       8.043  12.065  -0.613  1.00  0.00     0.059 A 
ATOM     68  C   UNL     1       6.835  14.162  -0.458  1.00  0.00     0.059 A 
ATOM     69  F   UNL     1       4.918  14.497  -1.761  1.00  0.00    -0.206 F 
ATOM     70  C   UNL     1       7.883  13.337  -0.058  1.00  0.00     0.060 A 
BRANCH  70  71
ATOM     71  S   UNL     1       9.059  13.899   1.195  1.00  0.00     0.124 S 
ATOM     72  O   UNL     1       8.700  13.051   2.330  1.00  0.00    -0.237 OA
ATOM     73  O   UNL     1      10.348  13.600   0.570  1.00  0.00    -0.237 OA
ATOM     74  O   UNL     1       8.753  15.312   1.347  1.00  0.00    -0.744 OA
ENDBRANCH  70  71
ENDBRANCH  49  63
BRANCH  50  75
ATOM     75  C   UNL     1      -0.505   9.528  -8.977  1.00  0.00     0.058 A 
ATOM     76  C   UNL     1      -0.181   8.897 -10.183  1.00  0.00     0.135 A 
ATOM     77  C   UNL     1      -1.865   9.688  -8.657  1.00  0.00     0.135 A 
ATOM     78  F   UNL     1       1.104   8.718 -10.521  1.00  0.00    -0.206 F 
ATOM     79  C   UNL     1      -1.169   8.436 -11.043  1.00  0.00     0.059 A 
ATOM     80  C   UNL     1      -2.870   9.209  -9.488  1.00  0.00     0.059 A 
ATOM     81  F   UNL     1      -2.222  10.258  -7.495  1.00  0.00    -0.206 F 
ATOM     82  C   UNL     1      -2.509   8.588 -10.684  1.00  0.00     0.060 A 
BRANCH  82  83
ATOM     83  S   UNL     1      -3.779   7.919 -11.777  1.00  0.00     0.124 S 
ATOM     84  O   UNL     1      -3.704   8.845 -12.907  1.00  0.00    -0.237 OA
ATOM     85  O   UNL     1      -3.277   6.568 -12.033  1.00  0.00    -0.237 OA
ATOM     86  O   UNL     1      -4.989   7.991 -10.980  1.00  0.00    -0.744 OA
ENDBRANCH  82  83
ENDBRANCH  50  75
BRANCH  62  87
ATOM     87  C   UNL     1       4.432  14.466  -8.704  1.00  0.00     0.058 A 
ATOM     88  C   UNL     1       3.701  15.626  -9.002  1.00  0.00     0.135 A 
ATOM     89  C   UNL     1       5.689  14.306  -9.311  1.00  0.00     0.135 A 
ATOM     90  F   UNL     1       2.486  15.816  -8.464  1.00  0.00    -0.206 F 
ATOM     91  C   UNL     1       4.201  16.593  -9.867  1.00  0.00     0.059 A 
ATOM     92  C   UNL     1       6.220  15.273 -10.157  1.00  0.00     0.059 A 
ATOM     93  F   UNL     1       6.426  13.212  -9.060  1.00  0.00    -0.206 F 
ATOM     94  C   UNL     1       5.466  16.413 -10.430  1.00  0.00     0.060 A 
BRANCH  94  95
ATOM     95  S   UNL     1       6.135  17.715 -11.487  1.00  0.00     0.124 S 
ATOM     96  O   UNL     1       5.316  17.573 -12.686  1.00  0.00    -0.237 OA
ATOM     97  O   UNL     1       5.893  18.915 -10.692  1.00  0.00    -0.237 OA
ATOM     98  O   UNL     1       7.539  17.344 -11.639  1.00  0.00    -0.744 OA
ENDBRANCH  94  95
ENDBRANCH  62  87
ENDBRANCH  36  37
ENDBRANCH  29  31
ENDBRANCH  28  29
ENDBRANCH  27  28
ENDBRANCH  26  27
ENDBRANCH  25  26
ENDBRANCH  24  25
ENDBRANCH   1  24
TORSDOF 23
