REMARK SMILES CS(=O)(=O)c1ccc(/C=C(/C(=O)OCCOCCOCCOC(=O)c2ccc(-c3c4nc(c(-c5c(F)cc(S(=O)(=O)[O-])cc5F)c5ccc([nH]5)c(-c5c(F)cc(S(=O)(=O)[O-])cc5F)c5nc(c(-c6c(F)cc(S(=O)(=O)[O-])cc6F)c6ccc3[nH]6)C=C5)C=C4)cc2)c2ccc(O)cc2)cc1
REMARK SMILES IDX 18 1 17 2 16 3 15 4 14 5 13 6 11 7 12 8 10 9 9 10 8 11 5 12
REMARK SMILES IDX 6 13 99 14 7 15 98 16 2 17 1 18 3 19 4 20 91 21 92 22 97 23
REMARK SMILES IDX 93 24 96 25 94 26 95 27 19 29 20 30 21 31 22 32 23 33 24 34
REMARK SMILES IDX 25 35 26 36 90 37 27 38 89 39 28 40 29 41 30 42 83 43 31 44
REMARK SMILES IDX 88 45 82 46 84 47 32 48 87 49 81 50 80 51 33 53 67 54 46 55
REMARK SMILES IDX 66 56 47 57 50 58 65 59 85 60 48 61 49 62 64 64 86 65 51 66
REMARK SMILES IDX 34 67 35 68 44 69 36 70 37 71 43 72 45 73 38 74 39 75 40 76
REMARK SMILES IDX 41 77 42 78 68 79 69 80 78 81 70 82 71 83 77 84 79 85 72 86
REMARK SMILES IDX 73 87 74 88 75 89 76 90 52 91 53 92 62 93 54 94 55 95 61 96
REMARK SMILES IDX 63 97 56 98 57 99 58 100 59 101 60 102
REMARK H PARENT 95 28 84 52 50 63
REMARK Flexibility Score: inf
ROOT
ATOM      1  C   UNL     1       5.636  -1.197  -8.320  1.00  0.00     0.188 C 
ENDROOT
BRANCH   1   2
ATOM      2  C   UNL     1       5.415  -2.087  -9.562  1.00  0.00     0.188 C 
BRANCH   2   3
ATOM      3  O   UNL     1       5.583  -1.382 -10.773  1.00  0.00    -0.376 OA
BRANCH   3   4
ATOM      4  C   UNL     1       4.417  -1.017 -11.488  1.00  0.00     0.202 C 
BRANCH   4   5
ATOM      5  C   UNL     1       3.195  -0.382 -10.788  1.00  0.00     0.261 C 
BRANCH   5   6
ATOM      6  O   UNL     1       3.001  -0.668  -9.394  1.00  0.00    -0.460 OA
BRANCH   6   7
ATOM      7  C   UNL     1       2.144  -1.671  -9.068  1.00  0.00     0.338 C 
ATOM      8  O   UNL     1       1.523  -2.348  -9.871  1.00  0.00    -0.246 OA
BRANCH   7   9
ATOM      9  C   UNL     1       2.137  -1.915  -7.582  1.00  0.00     0.067 C 
ATOM     10  C   UNL     1       2.185  -0.857  -6.732  1.00  0.00     0.024 C 
BRANCH  10  11
ATOM     11  C   UNL     1       2.025  -0.844  -5.253  1.00  0.00    -0.025 A 
ATOM     12  C   UNL     1       1.167  -0.931  -2.580  1.00  0.00     0.067 A 
ATOM     13  C   UNL     1       1.969  -1.952  -3.081  1.00  0.00     0.021 A 
ATOM     14  C   UNL     1       0.892   0.195  -3.358  1.00  0.00     0.021 A 
ATOM     15  C   UNL     1       2.431  -1.879  -4.399  1.00  0.00     0.009 A 
ATOM     16  C   UNL     1       1.329   0.236  -4.687  1.00  0.00     0.009 A 
BRANCH  12  17
ATOM     17  S   UNL     1       0.361  -1.121  -1.008  1.00  0.00     0.175 S 
ATOM     18  C   UNL     1       1.066   0.144   0.007  1.00  0.00     0.163 C 
ATOM     19  O   UNL     1       0.757  -2.399  -0.451  1.00  0.00    -0.224 OA
ATOM     20  O   UNL     1      -1.040  -0.800  -1.212  1.00  0.00    -0.224 OA
ENDBRANCH  12  17
ENDBRANCH  10  11
BRANCH   9  21
ATOM     21  C   UNL     1       2.082  -3.317  -7.114  1.00  0.00    -0.011 A 
ATOM     22  C   UNL     1       3.244  -4.104  -7.184  1.00  0.00     0.013 A 
ATOM     23  C   UNL     1       0.951  -3.837  -6.470  1.00  0.00     0.013 A 
ATOM     24  C   UNL     1       3.291  -5.357  -6.579  1.00  0.00     0.047 A 
ATOM     25  C   UNL     1       1.004  -5.093  -5.852  1.00  0.00     0.047 A 
ATOM     26  C   UNL     1       2.180  -5.833  -5.901  1.00  0.00     0.115 A 
BRANCH  26  27
ATOM     27  O   UNL     1       2.308  -7.029  -5.266  1.00  0.00    -0.508 OA
ATOM     28  H   UNL     1       3.115  -7.503  -5.318  1.00  0.00     0.293 HD
ENDBRANCH  26  27
ENDBRANCH   9  21
ENDBRANCH   7   9
ENDBRANCH   6   7
ENDBRANCH   5   6
ENDBRANCH   4   5
ENDBRANCH   3   4
ENDBRANCH   2   3
ENDBRANCH   1   2
BRANCH   1  29
ATOM     29  O   UNL     1       6.023   0.162  -8.472  1.00  0.00    -0.376 OA
BRANCH  29  30
ATOM     30  C   UNL     1       7.033   0.494  -9.414  1.00  0.00     0.202 C 
BRANCH  30  31
ATOM     31  C   UNL     1       8.370  -0.272  -9.448  1.00  0.00     0.261 C 
BRANCH  31  32
ATOM     32  O   UNL     1       8.321  -1.686  -9.202  1.00  0.00    -0.460 OA
BRANCH  32  33
ATOM     33  C   UNL     1       8.722  -2.081  -7.970  1.00  0.00     0.338 C 
ATOM     34  O   UNL     1       9.121  -1.361  -7.061  1.00  0.00    -0.246 OA
BRANCH  33  35
ATOM     35  C   UNL     1       8.434  -3.519  -7.786  1.00  0.00     0.060 A 
ATOM     36  C   UNL     1       7.564  -3.902  -6.755  1.00  0.00     0.016 A 
ATOM     37  C   UNL     1       9.046  -4.488  -8.584  1.00  0.00     0.016 A 
ATOM     38  C   UNL     1       7.316  -5.252  -6.508  1.00  0.00     0.010 A 
ATOM     39  C   UNL     1       8.816  -5.844  -8.317  1.00  0.00     0.010 A 
ATOM     40  C   UNL     1       7.970  -6.234  -7.263  1.00  0.00    -0.014 A 
BRANCH  40  41
ATOM     41  C   UNL     1       7.898  -7.654  -6.835  1.00  0.00     0.031 A 
ATOM     42  C   UNL     1       8.987  -8.197  -5.950  1.00  0.00     0.074 A 
ATOM     43  C   UNL     1       6.869  -8.443  -7.196  1.00  0.00     0.049 A 
ATOM     44  N   UNL     1       9.139  -9.400  -5.463  1.00  0.00    -0.248 NA
ATOM     45  C   UNL     1      10.051  -7.254  -5.570  1.00  0.00     0.031 C 
ATOM     46  C   UNL     1       5.738  -8.027  -8.022  1.00  0.00     0.029 A 
ATOM     47  N   UNL     1       6.610  -9.761  -6.909  1.00  0.00    -0.354 N 
ATOM     48  C   UNL     1      10.314  -9.363  -4.722  1.00  0.00     0.074 A 
ATOM     49  C   UNL     1      10.851  -8.025  -4.849  1.00  0.00     0.031 C 
ATOM     50  C   UNL     1       4.899  -9.068  -8.167  1.00  0.00     0.029 A 
ATOM     51  C   UNL     1       5.455 -10.236  -7.485  1.00  0.00     0.049 A 
ATOM     52  H   UNL     1       7.197 -10.314  -6.345  1.00  0.00     0.167 HD
ATOM     53  C   UNL     1      10.893 -10.353  -4.001  1.00  0.00     0.037 A 
ATOM     54  C   UNL     1       4.921 -11.475  -7.480  1.00  0.00     0.037 A 
ATOM     55  C   UNL     1      10.364 -11.688  -3.891  1.00  0.00     0.049 A 
ATOM     56  C   UNL     1       5.621 -12.580  -6.727  1.00  0.00     0.074 A 
ATOM     57  C   UNL     1      10.876 -12.759  -3.179  1.00  0.00     0.029 A 
ATOM     58  N   UNL     1       9.212 -12.141  -4.519  1.00  0.00    -0.354 N 
ATOM     59  N   UNL     1       6.721 -12.527  -6.012  1.00  0.00    -0.248 NA
ATOM     60  C   UNL     1       5.009 -13.916  -6.782  1.00  0.00     0.031 C 
ATOM     61  C   UNL     1      10.069 -13.874  -3.426  1.00  0.00     0.029 A 
ATOM     62  C   UNL     1       9.014 -13.483  -4.234  1.00  0.00     0.049 A 
ATOM     63  H   UNL     1       8.623 -11.591  -5.084  1.00  0.00     0.167 HD
ATOM     64  C   UNL     1       6.912 -13.810  -5.506  1.00  0.00     0.074 A 
ATOM     65  C   UNL     1       5.811 -14.616  -5.990  1.00  0.00     0.031 C 
ATOM     66  C   UNL     1       7.907 -14.277  -4.711  1.00  0.00     0.037 A 
BRANCH  53  67
ATOM     67  C   UNL     1      12.189 -10.039  -3.305  1.00  0.00     0.058 A 
ATOM     68  C   UNL     1      12.247  -9.181  -2.195  1.00  0.00     0.135 A 
ATOM     69  C   UNL     1      13.389 -10.627  -3.739  1.00  0.00     0.135 A 
ATOM     70  F   UNL     1      11.134  -8.576  -1.748  1.00  0.00    -0.206 F 
ATOM     71  C   UNL     1      13.450  -8.894  -1.558  1.00  0.00     0.059 A 
ATOM     72  C   UNL     1      14.599 -10.379  -3.098  1.00  0.00     0.059 A 
ATOM     73  F   UNL     1      13.393 -11.453  -4.797  1.00  0.00    -0.206 F 
ATOM     74  C   UNL     1      14.622  -9.499  -2.018  1.00  0.00     0.060 A 
BRANCH  74  75
ATOM     75  S   UNL     1      16.175  -9.117  -1.181  1.00  0.00     0.124 S 
ATOM     76  O   UNL     1      16.398  -7.736  -1.598  1.00  0.00    -0.237 OA
ATOM     77  O   UNL     1      15.826  -9.306   0.223  1.00  0.00    -0.237 OA
ATOM     78  O   UNL     1      17.108 -10.095  -1.730  1.00  0.00    -0.744 OA
ENDBRANCH  74  75
ENDBRANCH  53  67
BRANCH  54  79
ATOM     79  C   UNL     1       3.662 -11.749  -8.229  1.00  0.00     0.058 A 
ATOM     80  C   UNL     1       2.475 -12.089  -7.561  1.00  0.00     0.135 A 
ATOM     81  C   UNL     1       3.625 -11.694  -9.631  1.00  0.00     0.135 A 
ATOM     82  F   UNL     1       2.459 -12.175  -6.222  1.00  0.00    -0.206 F 
ATOM     83  C   UNL     1       1.304 -12.380  -8.255  1.00  0.00     0.059 A 
ATOM     84  C   UNL     1       2.459 -11.949 -10.346  1.00  0.00     0.059 A 
ATOM     85  F   UNL     1       4.731 -11.371 -10.321  1.00  0.00    -0.206 F 
ATOM     86  C   UNL     1       1.305 -12.302  -9.649  1.00  0.00     0.060 A 
BRANCH  86  87
ATOM     87  S   UNL     1      -0.232 -12.639 -10.537  1.00  0.00     0.124 S 
ATOM     88  O   UNL     1      -0.365 -14.080 -10.360  1.00  0.00    -0.237 OA
ATOM     89  O   UNL     1      -1.191 -11.815  -9.809  1.00  0.00    -0.237 OA
ATOM     90  O   UNL     1       0.061 -12.195 -11.896  1.00  0.00    -0.744 OA
ENDBRANCH  86  87
ENDBRANCH  54  79
BRANCH  66  91
ATOM     91  C   UNL     1       7.836 -15.715  -4.264  1.00  0.00     0.058 A 
ATOM     92  C   UNL     1       8.061 -16.783  -5.146  1.00  0.00     0.135 A 
ATOM     93  C   UNL     1       7.602 -16.024  -2.913  1.00  0.00     0.135 A 
ATOM     94  F   UNL     1       8.285 -16.548  -6.449  1.00  0.00    -0.206 F 
ATOM     95  C   UNL     1       8.032 -18.105  -4.711  1.00  0.00     0.059 A 
ATOM     96  C   UNL     1       7.601 -17.336  -2.450  1.00  0.00     0.059 A 
ATOM     97  F   UNL     1       7.393 -15.042  -2.021  1.00  0.00    -0.206 F 
ATOM     98  C   UNL     1       7.806 -18.372  -3.359  1.00  0.00     0.060 A 
BRANCH  98  99
ATOM     99  S   UNL     1       7.809 -20.090  -2.802  1.00  0.00     0.124 S 
ATOM    100  O   UNL     1       6.556 -20.584  -3.363  1.00  0.00    -0.237 OA
ATOM    101  O   UNL     1       9.027 -20.613  -3.412  1.00  0.00    -0.237 OA
ATOM    102  O   UNL     1       7.843 -19.977  -1.347  1.00  0.00    -0.744 OA
ENDBRANCH  98  99
ENDBRANCH  66  91
ENDBRANCH  40  41
ENDBRANCH  33  35
ENDBRANCH  32  33
ENDBRANCH  31  32
ENDBRANCH  30  31
ENDBRANCH  29  30
ENDBRANCH   1  29
TORSDOF 24
