REMARK SMILES Cn1nc(N2CCC(CC(=O)OCCOCCOCCOC(=O)c3ccc(-c4c5nc(c(-c6c(F)cc(S(=O)(=O)[O-])cc6F)c6ccc([nH]6)c(-c6c(F)cc(S(=O)(=O)[O-])cc6F)c6nc(c(-c7c(F)cc(S(=O)(=O)[O-])cc7F)c7ccc4[nH]7)C=C6)C=C5)cc3)CC2)c(=O)n(C)c1=O
REMARK SMILES IDX 17 1 16 2 15 3 14 4 13 5 12 6 10 7 11 8 9 9 8 10 5 11 6 12
REMARK SMILES IDX 91 13 7 14 90 15 4 16 1 17 2 18 3 19 96 20 94 21 97 22 92 23
REMARK SMILES IDX 95 24 93 25 18 26 19 27 20 28 21 29 22 30 23 31 24 32 25 33
REMARK SMILES IDX 89 34 26 35 88 36 27 37 28 38 29 39 82 40 30 41 87 42 81 43
REMARK SMILES IDX 83 44 31 45 86 46 80 47 79 48 32 50 66 51 45 52 65 53 46 54
REMARK SMILES IDX 49 55 64 56 84 57 47 58 48 59 63 61 85 62 50 63 33 64 34 65
REMARK SMILES IDX 43 66 35 67 36 68 42 69 44 70 37 71 38 72 39 73 40 74 41 75
REMARK SMILES IDX 67 76 68 77 77 78 69 79 70 80 76 81 78 82 71 83 72 84 73 85
REMARK SMILES IDX 74 86 75 87 51 88 52 89 61 90 53 91 54 92 60 93 62 94 55 95
REMARK SMILES IDX 56 96 57 97 58 98 59 99
REMARK H PARENT 83 49 49 60
REMARK Flexibility Score: inf
ROOT
ATOM      1  C   UNL     1      -2.211  -8.138  -4.699  1.00  0.00     0.188 C 
ENDROOT
BRANCH   1   2
ATOM      2  C   UNL     1      -1.019  -8.989  -4.257  1.00  0.00     0.188 C 
BRANCH   2   3
ATOM      3  O   UNL     1      -1.288  -9.943  -3.234  1.00  0.00    -0.376 OA
BRANCH   3   4
ATOM      4  C   UNL     1      -1.748  -9.426  -1.986  1.00  0.00     0.202 C 
BRANCH   4   5
ATOM      5  C   UNL     1      -0.773  -8.501  -1.245  1.00  0.00     0.261 C 
BRANCH   5   6
ATOM      6  O   UNL     1      -0.371  -7.356  -2.026  1.00  0.00    -0.463 OA
BRANCH   6   7
ATOM      7  C   UNL     1       0.962  -7.099  -2.057  1.00  0.00     0.306 C 
ATOM      8  O   UNL     1       1.800  -7.697  -1.390  1.00  0.00    -0.252 OA
BRANCH   7   9
ATOM      9  C   UNL     1       1.371  -6.051  -3.078  1.00  0.00     0.126 C 
BRANCH   9  10
ATOM     10  C   UNL     1       0.339  -5.049  -3.629  1.00  0.00     0.003 C 
ATOM     11  N   UNL     1      -0.543  -2.293  -3.821  1.00  0.00    -0.351 N 
ATOM     12  C   UNL     1      -1.358  -3.263  -3.106  1.00  0.00     0.118 C 
ATOM     13  C   UNL     1       0.184  -2.834  -4.964  1.00  0.00     0.118 C 
ATOM     14  C   UNL     1      -0.465  -4.350  -2.522  1.00  0.00     0.026 C 
ATOM     15  C   UNL     1       1.080  -3.989  -4.492  1.00  0.00     0.026 C 
BRANCH  11  16
ATOM     16  C   UNL     1      -0.186  -1.093  -3.220  1.00  0.00     0.215 A 
ATOM     17  C   UNL     1       0.928   0.049  -0.006  1.00  0.00     0.180 C 
ATOM     18  N   UNL     1       0.442   0.135  -1.373  1.00  0.00    -0.216 N 
ATOM     19  N   UNL     1       0.146  -1.061  -1.960  1.00  0.00    -0.145 NA
ATOM     20  C   UNL     1       0.328   1.378  -1.984  1.00  0.00     0.346 A 
ATOM     21  N   UNL     1      -0.077   1.372  -3.304  1.00  0.00    -0.259 N 
ATOM     22  O   UNL     1       0.590   2.423  -1.383  1.00  0.00    -0.246 OA
ATOM     23  C   UNL     1      -0.251   0.210  -4.029  1.00  0.00     0.299 A 
ATOM     24  C   UNL     1      -0.277   2.626  -3.999  1.00  0.00     0.159 C 
ATOM     25  O   UNL     1      -0.480   0.169  -5.234  1.00  0.00    -0.265 OA
ENDBRANCH  11  16
ENDBRANCH   9  10
ENDBRANCH   7   9
ENDBRANCH   6   7
ENDBRANCH   5   6
ENDBRANCH   4   5
ENDBRANCH   3   4
ENDBRANCH   2   3
ENDBRANCH   1   2
BRANCH   1  26
ATOM     26  O   UNL     1      -2.938  -7.497  -3.657  1.00  0.00    -0.376 OA
BRANCH  26  27
ATOM     27  C   UNL     1      -4.069  -6.721  -4.067  1.00  0.00     0.202 C 
BRANCH  27  28
ATOM     28  C   UNL     1      -5.101  -7.419  -4.981  1.00  0.00     0.261 C 
BRANCH  28  29
ATOM     29  O   UNL     1      -4.606  -7.856  -6.265  1.00  0.00    -0.460 OA
BRANCH  29  30
ATOM     30  C   UNL     1      -3.930  -6.960  -7.022  1.00  0.00     0.338 C 
ATOM     31  O   UNL     1      -3.897  -5.753  -6.852  1.00  0.00    -0.246 OA
BRANCH  30  32
ATOM     32  C   UNL     1      -3.002  -7.705  -7.916  1.00  0.00     0.060 A 
ATOM     33  C   UNL     1      -1.718  -7.176  -8.121  1.00  0.00     0.016 A 
ATOM     34  C   UNL     1      -3.344  -8.936  -8.485  1.00  0.00     0.016 A 
ATOM     35  C   UNL     1      -0.796  -7.848  -8.927  1.00  0.00     0.010 A 
ATOM     36  C   UNL     1      -2.426  -9.601  -9.307  1.00  0.00     0.010 A 
ATOM     37  C   UNL     1      -1.161  -9.043  -9.561  1.00  0.00    -0.014 A 
BRANCH  37  38
ATOM     38  C   UNL     1      -0.323  -9.575 -10.666  1.00  0.00     0.031 A 
ATOM     39  C   UNL     1      -0.683  -9.180 -12.074  1.00  0.00     0.074 A 
ATOM     40  C   UNL     1       0.742 -10.367 -10.446  1.00  0.00     0.049 A 
ATOM     41  N   UNL     1      -0.143  -9.546 -13.206  1.00  0.00    -0.248 NA
ATOM     42  C   UNL     1      -1.807  -8.239 -12.218  1.00  0.00     0.031 C 
ATOM     43  C   UNL     1       1.234 -10.782  -9.135  1.00  0.00     0.029 A 
ATOM     44  N   UNL     1       1.601 -10.967 -11.335  1.00  0.00    -0.354 N 
ATOM     45  C   UNL     1      -0.863  -8.888 -14.196  1.00  0.00     0.074 A 
ATOM     46  C   UNL     1      -1.894  -8.121 -13.533  1.00  0.00     0.031 C 
ATOM     47  C   UNL     1       2.304 -11.580  -9.306  1.00  0.00     0.029 A 
ATOM     48  C   UNL     1       2.552 -11.759 -10.738  1.00  0.00     0.049 A 
ATOM     49  H   UNL     1       1.541 -10.841 -12.310  1.00  0.00     0.167 HD
ATOM     50  C   UNL     1      -0.680  -8.913 -15.537  1.00  0.00     0.037 A 
ATOM     51  C   UNL     1       3.497 -12.554 -11.282  1.00  0.00     0.037 A 
ATOM     52  C   UNL     1       0.337  -9.684 -16.201  1.00  0.00     0.049 A 
ATOM     53  C   UNL     1       3.635 -12.633 -12.783  1.00  0.00     0.074 A 
ATOM     54  C   UNL     1       0.601  -9.770 -17.556  1.00  0.00     0.029 A 
ATOM     55  N   UNL     1       1.250 -10.509 -15.562  1.00  0.00    -0.354 N 
ATOM     56  N   UNL     1       2.949 -12.006 -13.709  1.00  0.00    -0.248 NA
ATOM     57  C   UNL     1       4.675 -13.528 -13.312  1.00  0.00     0.031 C 
ATOM     58  C   UNL     1       1.639 -10.689 -17.741  1.00  0.00     0.029 A 
ATOM     59  C   UNL     1       2.062 -11.130 -16.497  1.00  0.00     0.049 A 
ATOM     60  H   UNL     1       1.313 -10.636 -14.588  1.00  0.00     0.167 HD
ATOM     61  C   UNL     1       3.489 -12.412 -14.927  1.00  0.00     0.074 A 
ATOM     62  C   UNL     1       4.563 -13.333 -14.619  1.00  0.00     0.031 C 
ATOM     63  C   UNL     1       3.128 -12.051 -16.185  1.00  0.00     0.037 A 
BRANCH  50  64
ATOM     64  C   UNL     1      -1.633  -8.109 -16.376  1.00  0.00     0.058 A 
ATOM     65  C   UNL     1      -1.596  -6.706 -16.401  1.00  0.00     0.135 A 
ATOM     66  C   UNL     1      -2.591  -8.755 -17.175  1.00  0.00     0.135 A 
ATOM     67  F   UNL     1      -0.717  -6.038 -15.637  1.00  0.00    -0.206 F 
ATOM     68  C   UNL     1      -2.494  -5.970 -17.167  1.00  0.00     0.059 A 
ATOM     69  C   UNL     1      -3.479  -8.040 -17.971  1.00  0.00     0.059 A 
ATOM     70  F   UNL     1      -2.673 -10.095 -17.182  1.00  0.00    -0.206 F 
ATOM     71  C   UNL     1      -3.433  -6.647 -17.948  1.00  0.00     0.060 A 
BRANCH  71  72
ATOM     72  S   UNL     1      -4.596  -5.676 -18.929  1.00  0.00     0.124 S 
ATOM     73  O   UNL     1      -5.449  -5.108 -17.890  1.00  0.00    -0.237 OA
ATOM     74  O   UNL     1      -3.716  -4.734 -19.613  1.00  0.00    -0.237 OA
ATOM     75  O   UNL     1      -5.232  -6.672 -19.787  1.00  0.00    -0.744 OA
ENDBRANCH  71  72
ENDBRANCH  50  64
BRANCH  51  76
ATOM     76  C   UNL     1       4.389 -13.348 -10.394  1.00  0.00     0.058 A 
ATOM     77  C   UNL     1       5.745 -13.022 -10.247  1.00  0.00     0.135 A 
ATOM     78  C   UNL     1       3.893 -14.429  -9.647  1.00  0.00     0.135 A 
ATOM     79  F   UNL     1       6.272 -12.012 -10.956  1.00  0.00    -0.206 F 
ATOM     80  C   UNL     1       6.575 -13.728  -9.381  1.00  0.00     0.059 A 
ATOM     81  C   UNL     1       4.697 -15.136  -8.758  1.00  0.00     0.059 A 
ATOM     82  F   UNL     1       2.603 -14.783  -9.754  1.00  0.00    -0.206 F 
ATOM     83  C   UNL     1       6.037 -14.775  -8.630  1.00  0.00     0.060 A 
BRANCH  83  84
ATOM     84  S   UNL     1       7.101 -15.617  -7.436  1.00  0.00     0.124 S 
ATOM     85  O   UNL     1       8.018 -16.337  -8.312  1.00  0.00    -0.237 OA
ATOM     86  O   UNL     1       7.672 -14.495  -6.697  1.00  0.00    -0.237 OA
ATOM     87  O   UNL     1       6.168 -16.447  -6.680  1.00  0.00    -0.744 OA
ENDBRANCH  83  84
ENDBRANCH  51  76
BRANCH  63  88
ATOM     88  C   UNL     1       3.912 -12.626 -17.335  1.00  0.00     0.058 A 
ATOM     89  C   UNL     1       3.786 -13.969 -17.720  1.00  0.00     0.135 A 
ATOM     90  C   UNL     1       4.752 -11.803 -18.105  1.00  0.00     0.135 A 
ATOM     91  F   UNL     1       2.998 -14.801 -17.021  1.00  0.00    -0.206 F 
ATOM     92  C   UNL     1       4.482 -14.483 -18.811  1.00  0.00     0.059 A 
ATOM     93  C   UNL     1       5.436 -12.288 -19.216  1.00  0.00     0.059 A 
ATOM     94  F   UNL     1       4.899 -10.505 -17.792  1.00  0.00    -0.206 F 
ATOM     95  C   UNL     1       5.304 -13.633 -19.555  1.00  0.00     0.060 A 
BRANCH  95  96
ATOM     96  S   UNL     1       6.182 -14.308 -20.981  1.00  0.00     0.124 S 
ATOM     97  O   UNL     1       7.192 -15.142 -20.337  1.00  0.00    -0.237 OA
ATOM     98  O   UNL     1       5.125 -15.024 -21.688  1.00  0.00    -0.237 OA
ATOM     99  O   UNL     1       6.691 -13.121 -21.662  1.00  0.00    -0.744 OA
ENDBRANCH  95  96
ENDBRANCH  63  88
ENDBRANCH  37  38
ENDBRANCH  30  32
ENDBRANCH  29  30
ENDBRANCH  28  29
ENDBRANCH  27  28
ENDBRANCH  26  27
ENDBRANCH   1  26
TORSDOF 22
