REMARK SMILES CC1(C)OC(=O)C(=CNc2ccccc2C(=O)OCCOCCOCCOC(=O)c2ccc(-c3c4nc(c(-c5c(F)cc(S(=O)(=O)[O-])cc5F)c5ccc([nH]5)c(-c5c(F)cc(S(=O)(=O)[O-])cc5F)c5nc(c(-c6c(F)cc(S(=O)(=O)[O-])cc6F)c6ccc3[nH]6)C=C5)C=C4)cc2)C(=O)O1
REMARK SMILES IDX 23 1 22 2 21 3 20 4 19 5 18 6 16 7 17 8 15 9 10 10 11 11
REMARK SMILES IDX 12 12 14 13 13 14 9 15 8 17 1 18 2 19 3 20 4 21 98 22 5 23
REMARK SMILES IDX 96 24 6 25 7 26 97 27 24 28 25 29 26 30 27 31 28 32 29 33
REMARK SMILES IDX 30 34 31 35 95 36 32 37 94 38 33 39 34 40 35 41 88 42 36 43
REMARK SMILES IDX 93 44 87 45 89 46 37 47 92 48 86 49 85 50 38 52 72 53 51 54
REMARK SMILES IDX 71 55 52 56 55 57 70 58 90 59 53 60 54 61 69 63 91 64 56 65
REMARK SMILES IDX 39 66 40 67 49 68 41 69 42 70 48 71 50 72 43 73 44 74 45 75
REMARK SMILES IDX 46 76 47 77 73 78 74 79 83 80 75 81 76 82 82 83 84 84 77 85
REMARK SMILES IDX 78 86 79 87 80 88 81 89 57 90 58 91 67 92 59 93 60 94 66 95
REMARK SMILES IDX 68 96 61 97 62 98 63 99 64 100 65 101
REMARK H PARENT 9 16 89 51 55 62
REMARK Flexibility Score: inf
ROOT
ATOM      1  C   UNL     1      -2.433  -0.953  -4.511  1.00  0.00     0.188 C 
ENDROOT
BRANCH   1   2
ATOM      2  C   UNL     1      -2.856   0.365  -5.196  1.00  0.00     0.188 C 
BRANCH   2   3
ATOM      3  O   UNL     1      -1.901   1.395  -5.371  1.00  0.00    -0.376 OA
BRANCH   3   4
ATOM      4  C   UNL     1      -1.357   2.051  -4.235  1.00  0.00     0.202 C 
BRANCH   4   5
ATOM      5  C   UNL     1      -2.182   2.283  -2.965  1.00  0.00     0.261 C 
BRANCH   5   6
ATOM      6  O   UNL     1      -2.895   1.120  -2.525  1.00  0.00    -0.460 OA
BRANCH   6   7
ATOM      7  C   UNL     1      -4.196   1.321  -2.188  1.00  0.00     0.340 C 
ATOM      8  O   UNL     1      -4.780   2.393  -2.182  1.00  0.00    -0.246 OA
BRANCH   7   9
ATOM      9  C   UNL     1      -4.901   0.031  -1.999  1.00  0.00     0.083 A 
ATOM     10  C   UNL     1      -4.485  -1.023  -1.159  1.00  0.00     0.053 A 
ATOM     11  C   UNL     1      -5.299  -2.179  -1.129  1.00  0.00     0.027 A 
ATOM     12  C   UNL     1      -6.435  -2.312  -1.935  1.00  0.00     0.002 A 
ATOM     13  C   UNL     1      -6.046  -0.115  -2.814  1.00  0.00     0.018 A 
ATOM     14  C   UNL     1      -6.801  -1.284  -2.790  1.00  0.00     0.001 A 
BRANCH  10  15
ATOM     15  N   UNL     1      -3.361  -1.044  -0.304  1.00  0.00    -0.360 N 
ATOM     16  H   UNL     1      -3.154  -1.918   0.098  1.00  0.00     0.166 HD
BRANCH  15  17
ATOM     17  C   UNL     1      -2.518  -0.019   0.047  1.00  0.00     0.106 C 
ATOM     18  C   UNL     1       1.526  -0.018  -1.499  1.00  0.00     0.106 C 
ATOM     19  C   UNL     1       1.460  -0.060   0.030  1.00  0.00     0.252 C 
ATOM     20  C   UNL     1       2.879  -0.063   0.597  1.00  0.00     0.106 C 
ATOM     21  O   UNL     1       0.838   1.120   0.537  1.00  0.00    -0.419 OA
ATOM     22  O   UNL     1       0.842  -1.269   0.467  1.00  0.00    -0.419 OA
ATOM     23  C   UNL     1      -0.507   1.191   0.575  1.00  0.00     0.350 C 
ATOM     24  C   UNL     1      -0.502  -1.357   0.412  1.00  0.00     0.350 C 
ATOM     25  O   UNL     1      -1.076   2.256   0.777  1.00  0.00    -0.246 OA
ATOM     26  C   UNL     1      -1.210  -0.075   0.356  1.00  0.00     0.161 C 
ATOM     27  O   UNL     1      -1.076  -2.439   0.467  1.00  0.00    -0.246 OA
ENDBRANCH  15  17
ENDBRANCH  10  15
ENDBRANCH   7   9
ENDBRANCH   6   7
ENDBRANCH   5   6
ENDBRANCH   4   5
ENDBRANCH   3   4
ENDBRANCH   2   3
ENDBRANCH   1   2
BRANCH   1  28
ATOM     28  O   UNL     1      -1.153  -1.069  -3.925  1.00  0.00    -0.376 OA
BRANCH  28  29
ATOM     29  C   UNL     1       0.011  -1.053  -4.734  1.00  0.00     0.202 C 
BRANCH  29  30
ATOM     30  C   UNL     1       0.076  -1.476  -6.210  1.00  0.00     0.261 C 
BRANCH  30  31
ATOM     31  O   UNL     1      -1.089  -1.263  -7.006  1.00  0.00    -0.460 OA
BRANCH  31  32
ATOM     32  C   UNL     1      -1.764  -2.393  -7.343  1.00  0.00     0.338 C 
ATOM     33  O   UNL     1      -1.498  -3.534  -7.020  1.00  0.00    -0.246 OA
BRANCH  32  34
ATOM     34  C   UNL     1      -3.013  -2.007  -8.023  1.00  0.00     0.060 A 
ATOM     35  C   UNL     1      -4.234  -2.335  -7.419  1.00  0.00     0.016 A 
ATOM     36  C   UNL     1      -2.977  -1.351  -9.253  1.00  0.00     0.016 A 
ATOM     37  C   UNL     1      -5.431  -2.023  -8.060  1.00  0.00     0.010 A 
ATOM     38  C   UNL     1      -4.177  -1.061  -9.904  1.00  0.00     0.010 A 
ATOM     39  C   UNL     1      -5.407  -1.421  -9.324  1.00  0.00    -0.014 A 
BRANCH  39  40
ATOM     40  C   UNL     1      -6.651  -1.336 -10.125  1.00  0.00     0.031 A 
ATOM     41  C   UNL     1      -6.895  -2.390 -11.171  1.00  0.00     0.074 A 
ATOM     42  C   UNL     1      -7.549  -0.356  -9.920  1.00  0.00     0.049 A 
ATOM     43  N   UNL     1      -7.858  -2.481 -12.049  1.00  0.00    -0.248 NA
ATOM     44  C   UNL     1      -5.917  -3.490 -11.234  1.00  0.00     0.031 C 
ATOM     45  C   UNL     1      -7.443   0.692  -8.905  1.00  0.00     0.029 A 
ATOM     46  N   UNL     1      -8.725  -0.077 -10.570  1.00  0.00    -0.354 N 
ATOM     47  C   UNL     1      -7.608  -3.647 -12.763  1.00  0.00     0.074 A 
ATOM     48  C   UNL     1      -6.380  -4.208 -12.246  1.00  0.00     0.031 C 
ATOM     49  C   UNL     1      -8.503   1.513  -9.014  1.00  0.00     0.029 A 
ATOM     50  C   UNL     1      -9.342   1.070 -10.127  1.00  0.00     0.049 A 
ATOM     51  H   UNL     1      -9.093  -0.644 -11.285  1.00  0.00     0.167 HD
ATOM     52  C   UNL     1      -8.345  -4.208 -13.750  1.00  0.00     0.037 A 
ATOM     53  C   UNL     1     -10.439   1.701 -10.592  1.00  0.00     0.037 A 
ATOM     54  C   UNL     1      -9.560  -3.637 -14.270  1.00  0.00     0.049 A 
ATOM     55  C   UNL     1     -11.186   1.109 -11.764  1.00  0.00     0.074 A 
ATOM     56  C   UNL     1     -10.370  -4.113 -15.285  1.00  0.00     0.029 A 
ATOM     57  N   UNL     1     -10.140  -2.462 -13.813  1.00  0.00    -0.354 N 
ATOM     58  N   UNL     1     -10.943   0.004 -12.429  1.00  0.00    -0.248 NA
ATOM     59  C   UNL     1     -12.361   1.850 -12.248  1.00  0.00     0.031 C 
ATOM     60  C   UNL     1     -11.416  -3.205 -15.472  1.00  0.00     0.029 A 
ATOM     61  C   UNL     1     -11.290  -2.192 -14.535  1.00  0.00     0.049 A 
ATOM     62  H   UNL     1      -9.786  -1.903 -13.084  1.00  0.00     0.167 HD
ATOM     63  C   UNL     1     -11.956  -0.101 -13.379  1.00  0.00     0.074 A 
ATOM     64  C   UNL     1     -12.819   1.045 -13.195  1.00  0.00     0.031 C 
ATOM     65  C   UNL     1     -12.155  -1.059 -14.319  1.00  0.00     0.037 A 
BRANCH  52  66
ATOM     66  C   UNL     1      -7.857  -5.503 -14.336  1.00  0.00     0.058 A 
ATOM     67  C   UNL     1      -7.915  -6.704 -13.609  1.00  0.00     0.135 A 
ATOM     68  C   UNL     1      -7.372  -5.558 -15.652  1.00  0.00     0.135 A 
ATOM     69  F   UNL     1      -8.348  -6.704 -12.338  1.00  0.00    -0.206 F 
ATOM     70  C   UNL     1      -7.497  -7.909 -14.162  1.00  0.00     0.059 A 
ATOM     71  C   UNL     1      -6.975  -6.758 -16.235  1.00  0.00     0.059 A 
ATOM     72  F   UNL     1      -7.288  -4.439 -16.389  1.00  0.00    -0.206 F 
ATOM     73  C   UNL     1      -7.034  -7.928 -15.478  1.00  0.00     0.060 A 
BRANCH  73  74
ATOM     74  S   UNL     1      -6.524  -9.507 -16.187  1.00  0.00     0.124 S 
ATOM     75  O   UNL     1      -5.293  -9.774 -15.449  1.00  0.00    -0.237 OA
ATOM     76  O   UNL     1      -7.656 -10.371 -15.866  1.00  0.00    -0.237 OA
ATOM     77  O   UNL     1      -6.351  -9.205 -17.604  1.00  0.00    -0.744 OA
ENDBRANCH  73  74
ENDBRANCH  52  66
BRANCH  53  78
ATOM     78  C   UNL     1     -10.896   2.981  -9.980  1.00  0.00     0.058 A 
ATOM     79  C   UNL     1     -12.130   3.069  -9.318  1.00  0.00     0.135 A 
ATOM     80  C   UNL     1     -10.136   4.155 -10.098  1.00  0.00     0.135 A 
ATOM     81  F   UNL     1     -12.899   1.977  -9.185  1.00  0.00    -0.206 F 
ATOM     82  C   UNL     1     -12.614   4.280  -8.833  1.00  0.00     0.059 A 
ATOM     83  C   UNL     1     -10.584   5.372  -9.593  1.00  0.00     0.059 A 
ATOM     84  F   UNL     1      -8.943   4.127 -10.712  1.00  0.00    -0.206 F 
ATOM     85  C   UNL     1     -11.835   5.428  -8.982  1.00  0.00     0.060 A 
BRANCH  85  86
ATOM     86  S   UNL     1     -12.477   6.997  -8.359  1.00  0.00     0.124 S 
ATOM     87  O   UNL     1     -13.519   7.296  -9.334  1.00  0.00    -0.237 OA
ATOM     88  O   UNL     1     -12.938   6.631  -7.023  1.00  0.00    -0.237 OA
ATOM     89  O   UNL     1     -11.310   7.874  -8.394  1.00  0.00    -0.744 OA
ENDBRANCH  85  86
ENDBRANCH  53  78
BRANCH  65  90
ATOM     90  C   UNL     1     -13.384  -0.947 -15.181  1.00  0.00     0.058 A 
ATOM     91  C   UNL     1     -13.505   0.031 -16.180  1.00  0.00     0.135 A 
ATOM     92  C   UNL     1     -14.431  -1.873 -15.042  1.00  0.00     0.135 A 
ATOM     93  F   UNL     1     -12.536   0.944 -16.354  1.00  0.00    -0.206 F 
ATOM     94  C   UNL     1     -14.634   0.105 -16.991  1.00  0.00     0.059 A 
ATOM     95  C   UNL     1     -15.554  -1.838 -15.863  1.00  0.00     0.059 A 
ATOM     96  F   UNL     1     -14.361  -2.839 -14.111  1.00  0.00    -0.206 F 
ATOM     97  C   UNL     1     -15.651  -0.837 -16.827  1.00  0.00     0.060 A 
BRANCH  97  98
ATOM     98  S   UNL     1     -17.092  -0.751 -17.912  1.00  0.00     0.124 S 
ATOM     99  O   UNL     1     -17.780   0.428 -17.396  1.00  0.00    -0.237 OA
ATOM    100  O   UNL     1     -16.482  -0.603 -19.230  1.00  0.00    -0.237 OA
ATOM    101  O   UNL     1     -17.769  -2.023 -17.680  1.00  0.00    -0.744 OA
ENDBRANCH  97  98
ENDBRANCH  65  90
ENDBRANCH  39  40
ENDBRANCH  32  34
ENDBRANCH  31  32
ENDBRANCH  30  31
ENDBRANCH  29  30
ENDBRANCH  28  29
ENDBRANCH   1  28
TORSDOF 22
