REMARK SMILES O=CN1CC[NH+](C[C@@H](CC(=O)Nc2ccc(C(F)(F)F)nc2)C(=O)OCCOCCOCCOC(=O)c2ccc(-c3c4nc(c(-c5c(F)cc(S(=O)(=O)[O-])cc5F)c5ccc([nH]5)c(-c5c(F)cc(S(=O)(=O)[O-])cc5F)c5nc(c(-c6c(F)cc(S(=O)(=O)[O-])cc6F)c6ccc3[nH]6)C=C5)C=C4)cc2)CC1
REMARK SMILES IDX 29 1 28 2 27 3 26 4 25 5 23 6 24 7 8 8 7 9 6 10 1 11 2 12
REMARK SMILES IDX 3 13 4 14 104 15 5 16 103 17 9 19 10 20 11 21 12 22 13 24
REMARK SMILES IDX 14 25 22 26 15 27 21 28 16 29 17 30 18 31 19 32 20 33 30 34
REMARK SMILES IDX 31 35 32 36 33 37 34 38 35 39 36 40 37 41 38 42 102 43 39 44
REMARK SMILES IDX 101 45 40 46 41 47 42 48 95 49 43 50 100 51 94 52 96 53
REMARK SMILES IDX 44 54 99 55 93 56 92 57 45 59 79 60 58 61 78 62 59 63 62 64
REMARK SMILES IDX 77 65 97 66 60 67 61 68 76 70 98 71 63 72 46 73 47 74 56 75
REMARK SMILES IDX 48 76 49 77 55 78 57 79 50 80 51 81 52 82 53 83 54 84 80 85
REMARK SMILES IDX 81 86 90 87 82 88 83 89 89 90 91 91 84 92 85 93 86 94 87 95
REMARK SMILES IDX 88 96 64 97 65 98 74 99 66 100 67 101 73 102 75 103 68 104
REMARK SMILES IDX 69 105 70 106 71 107 72 108
REMARK H PARENT 6 18 12 23 96 58 62 69
REMARK Flexibility Score: inf
ROOT
ATOM      1  C   UNL     1       6.351   5.916  -1.137  1.00  0.00     0.188 C 
ENDROOT
BRANCH   1   2
ATOM      2  O   UNL     1       7.533   6.138  -0.383  1.00  0.00    -0.376 OA
BRANCH   2   3
ATOM      3  C   UNL     1       8.704   5.399  -0.677  1.00  0.00     0.202 C 
BRANCH   3   4
ATOM      4  C   UNL     1       8.661   3.876  -0.500  1.00  0.00     0.261 C 
BRANCH   4   5
ATOM      5  O   UNL     1       7.587   3.179  -1.164  1.00  0.00    -0.463 OA
BRANCH   5   6
ATOM      6  C   UNL     1       6.661   2.595  -0.360  1.00  0.00     0.315 C 
ATOM      7  O   UNL     1       6.572   2.787   0.846  1.00  0.00    -0.252 OA
BRANCH   6   8
ATOM      8  C   UNL     1       5.715   1.646  -1.103  1.00  0.00     0.163 C 
BRANCH   8   9
ATOM      9  C   UNL     1       4.608   2.410  -1.846  1.00  0.00     0.278 C 
BRANCH   9  10
ATOM     10  N   UNL     1       3.420   1.790  -2.464  1.00  0.00    -0.331 N 
ATOM     11  O   UNL     1       0.249   0.451   1.306  1.00  0.00    -0.279 OA
ATOM     12  C   UNL     1       1.072  -0.105   0.594  1.00  0.00     0.340 C 
ATOM     13  N   UNL     1       1.796   0.489  -0.416  1.00  0.00    -0.334 N 
ATOM     14  C   UNL     1       2.868  -0.245  -1.069  1.00  0.00     0.180 C 
ATOM     15  C   UNL     1       1.719   1.941  -0.604  1.00  0.00     0.180 C 
ATOM     16  C   UNL     1       3.239   0.336  -2.435  1.00  0.00     0.284 C 
ATOM     17  C   UNL     1       2.150   2.403  -2.009  1.00  0.00     0.284 C 
ATOM     18  H   UNL     1       3.650   1.996  -3.437  1.00  0.00     0.348 HD
ENDBRANCH   9  10
ENDBRANCH   8   9
BRANCH   8  19
ATOM     19  C   UNL     1       6.491   0.534  -1.816  1.00  0.00     0.121 C 
BRANCH  19  20
ATOM     20  C   UNL     1       7.479   0.839  -2.933  1.00  0.00     0.225 C 
ATOM     21  O   UNL     1       8.684   0.924  -2.670  1.00  0.00    -0.275 OA
ATOM     22  N   UNL     1       7.133   0.876  -4.255  1.00  0.00    -0.325 N 
ATOM     23  H   UNL     1       7.838   0.608  -4.888  1.00  0.00     0.169 HD
BRANCH  22  24
ATOM     24  C   UNL     1       5.914   1.245  -4.832  1.00  0.00     0.059 A 
ATOM     25  C   UNL     1       5.654   2.587  -5.083  1.00  0.00     0.030 A 
ATOM     26  C   UNL     1       5.026   0.313  -5.349  1.00  0.00     0.137 A 
ATOM     27  C   UNL     1       4.439   2.960  -5.660  1.00  0.00     0.035 A 
ATOM     28  N   UNL     1       3.850   0.638  -5.945  1.00  0.00    -0.250 NA
ATOM     29  C   UNL     1       3.535   1.967  -6.042  1.00  0.00     0.144 A 
BRANCH  29  30
ATOM     30  C   UNL     1       2.171   2.389  -6.584  1.00  0.00     0.433 C 
ATOM     31  F   UNL     1       2.220   2.751  -7.899  1.00  0.00    -0.165 F 
ATOM     32  F   UNL     1       1.214   1.422  -6.497  1.00  0.00    -0.165 F 
ATOM     33  F   UNL     1       1.658   3.472  -5.927  1.00  0.00    -0.165 F 
ENDBRANCH  29  30
ENDBRANCH  22  24
ENDBRANCH  19  20
ENDBRANCH   8  19
ENDBRANCH   6   8
ENDBRANCH   5   6
ENDBRANCH   4   5
ENDBRANCH   3   4
ENDBRANCH   2   3
ENDBRANCH   1   2
BRANCH   1  34
ATOM     34  C   UNL     1       6.441   5.452  -2.601  1.00  0.00     0.188 C 
BRANCH  34  35
ATOM     35  O   UNL     1       7.666   5.721  -3.256  1.00  0.00    -0.376 OA
BRANCH  35  36
ATOM     36  C   UNL     1       7.585   6.552  -4.401  1.00  0.00     0.202 C 
BRANCH  36  37
ATOM     37  C   UNL     1       7.409   8.030  -4.042  1.00  0.00     0.261 C 
BRANCH  37  38
ATOM     38  O   UNL     1       6.220   8.340  -3.291  1.00  0.00    -0.460 OA
BRANCH  38  39
ATOM     39  C   UNL     1       5.028   8.092  -3.879  1.00  0.00     0.338 C 
ATOM     40  O   UNL     1       4.848   7.637  -4.998  1.00  0.00    -0.246 OA
BRANCH  39  41
ATOM     41  C   UNL     1       3.967   8.251  -2.858  1.00  0.00     0.060 A 
ATOM     42  C   UNL     1       3.067   7.198  -2.640  1.00  0.00     0.016 A 
ATOM     43  C   UNL     1       3.867   9.426  -2.110  1.00  0.00     0.016 A 
ATOM     44  C   UNL     1       2.046   7.333  -1.693  1.00  0.00     0.010 A 
ATOM     45  C   UNL     1       2.835   9.564  -1.175  1.00  0.00     0.010 A 
ATOM     46  C   UNL     1       1.901   8.531  -0.979  1.00  0.00    -0.014 A 
BRANCH  46  47
ATOM     47  C   UNL     1       0.682   8.783  -0.163  1.00  0.00     0.031 A 
ATOM     48  C   UNL     1      -0.420   9.622  -0.760  1.00  0.00     0.074 A 
ATOM     49  C   UNL     1       0.541   8.282   1.080  1.00  0.00     0.049 A 
ATOM     50  N   UNL     1      -1.530  10.048  -0.216  1.00  0.00    -0.248 NA
ATOM     51  C   UNL     1      -0.242  10.036  -2.163  1.00  0.00     0.031 C 
ATOM     52  C   UNL     1       1.507   7.426   1.766  1.00  0.00     0.029 A 
ATOM     53  N   UNL     1      -0.475   8.438   1.994  1.00  0.00    -0.354 N 
ATOM     54  C   UNL     1      -2.183  10.775  -1.205  1.00  0.00     0.074 A 
ATOM     55  C   UNL     1      -1.328  10.766  -2.372  1.00  0.00     0.031 C 
ATOM     56  C   UNL     1       1.044   7.145   2.998  1.00  0.00     0.029 A 
ATOM     57  C   UNL     1      -0.233   7.829   3.204  1.00  0.00     0.049 A 
ATOM     58  H   UNL     1      -1.300   8.939   1.800  1.00  0.00     0.167 HD
ATOM     59  C   UNL     1      -3.392  11.384  -1.154  1.00  0.00     0.037 A 
ATOM     60  C   UNL     1      -0.944   7.845   4.351  1.00  0.00     0.037 A 
ATOM     61  C   UNL     1      -4.245  11.400   0.005  1.00  0.00     0.049 A 
ATOM     62  C   UNL     1      -2.248   8.610   4.409  1.00  0.00     0.074 A 
ATOM     63  C   UNL     1      -5.485  12.000   0.151  1.00  0.00     0.029 A 
ATOM     64  N   UNL     1      -3.954  10.790   1.215  1.00  0.00    -0.354 N 
ATOM     65  N   UNL     1      -2.856   9.284   3.462  1.00  0.00    -0.248 NA
ATOM     66  C   UNL     1      -2.964   8.613   5.695  1.00  0.00     0.031 C 
ATOM     67  C   UNL     1      -5.922  11.791   1.462  1.00  0.00     0.029 A 
ATOM     68  C   UNL     1      -4.982  11.012   2.116  1.00  0.00     0.049 A 
ATOM     69  H   UNL     1      -3.137  10.274   1.406  1.00  0.00     0.167 HD
ATOM     70  C   UNL     1      -4.041   9.753   4.027  1.00  0.00     0.074 A 
ATOM     71  C   UNL     1      -4.070   9.277   5.392  1.00  0.00     0.031 C 
ATOM     72  C   UNL     1      -5.017  10.510   3.466  1.00  0.00     0.037 A 
BRANCH  59  73
ATOM     73  C   UNL     1      -3.875  12.089  -2.391  1.00  0.00     0.058 A 
ATOM     74  C   UNL     1      -4.309  11.375  -3.519  1.00  0.00     0.135 A 
ATOM     75  C   UNL     1      -3.975  13.489  -2.423  1.00  0.00     0.135 A 
ATOM     76  F   UNL     1      -4.213  10.036  -3.550  1.00  0.00    -0.206 F 
ATOM     77  C   UNL     1      -4.821  12.024  -4.637  1.00  0.00     0.059 A 
ATOM     78  C   UNL     1      -4.509  14.158  -3.521  1.00  0.00     0.059 A 
ATOM     79  F   UNL     1      -3.568  14.221  -1.374  1.00  0.00    -0.206 F 
ATOM     80  C   UNL     1      -4.925  13.416  -4.625  1.00  0.00     0.060 A 
BRANCH  80  81
ATOM     81  S   UNL     1      -5.630  14.237  -6.070  1.00  0.00     0.124 S 
ATOM     82  O   UNL     1      -4.577  14.038  -7.061  1.00  0.00    -0.237 OA
ATOM     83  O   UNL     1      -6.858  13.479  -6.289  1.00  0.00    -0.237 OA
ATOM     84  O   UNL     1      -5.817  15.614  -5.623  1.00  0.00    -0.744 OA
ENDBRANCH  80  81
ENDBRANCH  59  73
BRANCH  60  85
ATOM     85  C   UNL     1      -0.443   7.145   5.570  1.00  0.00     0.058 A 
ATOM     86  C   UNL     1      -1.139   6.060   6.125  1.00  0.00     0.135 A 
ATOM     87  C   UNL     1       0.700   7.598   6.248  1.00  0.00     0.135 A 
ATOM     88  F   UNL     1      -2.248   5.599   5.527  1.00  0.00    -0.206 F 
ATOM     89  C   UNL     1      -0.748   5.477   7.328  1.00  0.00     0.059 A 
ATOM     90  C   UNL     1       1.130   7.010   7.435  1.00  0.00     0.059 A 
ATOM     91  F   UNL     1       1.409   8.628   5.761  1.00  0.00    -0.206 F 
ATOM     92  C   UNL     1       0.385   5.965   7.980  1.00  0.00     0.060 A 
BRANCH  92  93
ATOM     93  S   UNL     1       0.878   5.215   9.548  1.00  0.00     0.124 S 
ATOM     94  O   UNL     1      -0.138   5.737  10.454  1.00  0.00    -0.237 OA
ATOM     95  O   UNL     1       0.796   3.789   9.248  1.00  0.00    -0.237 OA
ATOM     96  O   UNL     1       2.230   5.728   9.754  1.00  0.00    -0.744 OA
ENDBRANCH  92  93
ENDBRANCH  60  85
BRANCH  72  97
ATOM     97  C   UNL     1      -6.231  10.824   4.301  1.00  0.00     0.058 A 
ATOM     98  C   UNL     1      -6.181  11.717   5.383  1.00  0.00     0.135 A 
ATOM     99  C   UNL     1      -7.478  10.260   3.979  1.00  0.00     0.135 A 
ATOM    100  F   UNL     1      -5.017  12.285   5.736  1.00  0.00    -0.206 F 
ATOM    101  C   UNL     1      -7.315  12.016   6.134  1.00  0.00     0.059 A 
ATOM    102  C   UNL     1      -8.630  10.568   4.697  1.00  0.00     0.059 A 
ATOM    103  F   UNL     1      -7.589   9.411   2.945  1.00  0.00    -0.206 F 
ATOM    104  C   UNL     1      -8.536  11.437   5.782  1.00  0.00     0.060 A 
BRANCH 104 105
ATOM    105  S   UNL     1     -10.003  11.855   6.748  1.00  0.00     0.124 S 
ATOM    106  O   UNL     1      -9.757  11.129   7.989  1.00  0.00    -0.237 OA
ATOM    107  O   UNL     1      -9.914  13.310   6.837  1.00  0.00    -0.237 OA
ATOM    108  O   UNL     1     -11.104  11.350   5.933  1.00  0.00    -0.744 OA
ENDBRANCH 104 105
ENDBRANCH  72  97
ENDBRANCH  46  47
ENDBRANCH  39  41
ENDBRANCH  38  39
ENDBRANCH  37  38
ENDBRANCH  36  37
ENDBRANCH  35  36
ENDBRANCH  34  35
ENDBRANCH   1  34
TORSDOF 26
