REMARK SMILES O=C(OCCOCCOCCOC(=O)c1ccc(-c2c3nc(c(-c4c(F)cc(S(=O)(=O)[O-])cc4F)c4ccc([nH]4)c(-c4c(F)cc(S(=O)(=O)[O-])cc4F)c4nc(c(-c5c(F)cc(S(=O)(=O)[O-])cc5F)c5ccc2[nH]5)C=C4)C=C3)cc1)C1=Cc2cc(OC(F)(F)F)ccc2O[C@@H]1C(F)(F)F
REMARK SMILES IDX 8 1 7 2 6 3 5 4 4 5 3 6 2 7 1 8 81 9 82 10 95 11 83 12 94 13
REMARK SMILES IDX 84 14 93 15 85 16 92 17 91 18 96 19 97 20 98 21 99 22 86 23
REMARK SMILES IDX 87 24 88 25 89 26 90 27 9 28 10 29 11 30 12 31 13 32 14 33
REMARK SMILES IDX 15 34 16 35 80 36 17 37 79 38 18 39 19 40 20 41 73 42 21 43
REMARK SMILES IDX 78 44 72 45 74 46 22 47 77 48 71 49 70 50 23 52 57 53 36 54
REMARK SMILES IDX 56 55 37 56 40 57 55 58 75 59 38 60 39 61 54 63 76 64 41 65
REMARK SMILES IDX 24 66 25 67 34 68 26 69 27 70 33 71 35 72 28 73 29 74 30 75
REMARK SMILES IDX 31 76 32 77 58 78 59 79 68 80 60 81 61 82 67 83 69 84 62 85
REMARK SMILES IDX 63 86 64 87 65 88 66 89 42 90 43 91 52 92 44 93 45 94 51 95
REMARK SMILES IDX 53 96 46 97 47 98 48 99 49 100 50 101
REMARK H PARENT 74 51 40 62
REMARK Flexibility Score: inf
ROOT
ATOM      1  C   UNL     1       2.088   0.875   3.237  1.00  0.00     0.188 C 
ENDROOT
BRANCH   1   2
ATOM      2  C   UNL     1       2.335  -0.232   2.202  1.00  0.00     0.188 C 
BRANCH   2   3
ATOM      3  O   UNL     1       3.696  -0.737   1.837  1.00  0.00    -0.376 OA
BRANCH   3   4
ATOM      4  C   UNL     1       4.425  -0.805   0.266  1.00  0.00     0.202 C 
BRANCH   4   5
ATOM      5  C   UNL     1       3.694   0.279  -1.470  1.00  0.00     0.261 C 
BRANCH   5   6
ATOM      6  O   UNL     1       2.674  -0.207  -2.475  1.00  0.00    -0.460 OA
BRANCH   6   7
ATOM      7  C   UNL     1       2.816  -1.517  -2.722  1.00  0.00     0.338 C 
ATOM      8  O   UNL     1       2.070  -2.232  -3.345  1.00  0.00    -0.246 OA
BRANCH   7   9
ATOM      9  C   UNL     1       3.744  -1.816  -1.638  1.00  0.00     0.087 C 
ATOM     10  C   UNL     1       5.130  -1.423  -1.852  1.00  0.00     0.027 C 
ATOM     11  C   UNL     1       2.589  -1.034  -0.327  1.00  0.00     0.316 C 
ATOM     12  C   UNL     1       5.890   0.039  -1.151  1.00  0.00     0.021 A 
ATOM     13  O   UNL     1       3.317   0.665   0.320  1.00  0.00    -0.475 OA
ATOM     14  C   UNL     1       7.169   0.355  -1.499  1.00  0.00     0.058 A 
ATOM     15  C   UNL     1       5.029   1.134  -0.138  1.00  0.00     0.128 A 
ATOM     16  C   UNL     1       7.685   1.547  -0.952  1.00  0.00     0.130 A 
ATOM     17  C   UNL     1       5.591   2.266   0.381  1.00  0.00     0.051 A 
ATOM     18  C   UNL     1       6.943   2.439  -0.055  1.00  0.00     0.050 A 
BRANCH  11  19
ATOM     19  C   UNL     1       2.351  -2.533   0.424  1.00  0.00     0.430 C 
ATOM     20  F   UNL     1       2.291  -2.649   1.749  1.00  0.00    -0.167 F 
ATOM     21  F   UNL     1       1.184  -3.051  -0.045  1.00  0.00    -0.167 F 
ATOM     22  F   UNL     1       3.302  -3.449   0.062  1.00  0.00    -0.167 F 
ENDBRANCH  11  19
BRANCH  16  23
ATOM     23  O   UNL     1       8.975   1.733  -1.394  1.00  0.00    -0.406 OA
BRANCH  23  24
ATOM     24  C   UNL     1       9.714   2.856  -0.972  1.00  0.00     0.573 C 
ATOM     25  F   UNL     1       9.122   4.001  -1.366  1.00  0.00    -0.132 F 
ATOM     26  F   UNL     1       9.871   2.858   0.366  1.00  0.00    -0.132 F 
ATOM     27  F   UNL     1      10.940   2.798  -1.541  1.00  0.00    -0.132 F 
ENDBRANCH  23  24
ENDBRANCH  16  23
ENDBRANCH   7   9
ENDBRANCH   6   7
ENDBRANCH   5   6
ENDBRANCH   4   5
ENDBRANCH   3   4
ENDBRANCH   2   3
ENDBRANCH   1   2
BRANCH   1  28
ATOM     28  O   UNL     1       3.056   1.879   3.401  1.00  0.00    -0.376 OA
BRANCH  28  29
ATOM     29  C   UNL     1       4.353   1.407   3.742  1.00  0.00     0.202 C 
BRANCH  29  30
ATOM     30  C   UNL     1       4.482   0.430   4.927  1.00  0.00     0.261 C 
BRANCH  30  31
ATOM     31  O   UNL     1       3.987  -0.904   4.662  1.00  0.00    -0.460 OA
BRANCH  31  32
ATOM     32  C   UNL     1       2.949  -1.352   5.416  1.00  0.00     0.338 C 
ATOM     33  O   UNL     1       2.369  -0.743   6.298  1.00  0.00    -0.246 OA
BRANCH  32  34
ATOM     34  C   UNL     1       2.495  -2.670   4.916  1.00  0.00     0.060 A 
ATOM     35  C   UNL     1       1.195  -2.814   4.403  1.00  0.00     0.016 A 
ATOM     36  C   UNL     1       3.339  -3.777   5.001  1.00  0.00     0.016 A 
ATOM     37  C   UNL     1       0.755  -4.055   3.930  1.00  0.00     0.010 A 
ATOM     38  C   UNL     1       2.878  -5.030   4.581  1.00  0.00     0.010 A 
ATOM     39  C   UNL     1       1.582  -5.179   4.054  1.00  0.00    -0.014 A 
BRANCH  39  40
ATOM     40  C   UNL     1       1.011  -6.540   3.882  1.00  0.00     0.031 A 
ATOM     41  C   UNL     1       0.451  -7.213   5.105  1.00  0.00     0.074 A 
ATOM     42  C   UNL     1       0.996  -7.171   2.693  1.00  0.00     0.049 A 
ATOM     43  N   UNL     1      -0.047  -8.413   5.243  1.00  0.00    -0.248 NA
ATOM     44  C   UNL     1       0.463  -6.420   6.346  1.00  0.00     0.031 C 
ATOM     45  C   UNL     1       1.475  -6.612   1.432  1.00  0.00     0.029 A 
ATOM     46  N   UNL     1       0.567  -8.434   2.359  1.00  0.00    -0.354 N 
ATOM     47  C   UNL     1      -0.401  -8.520   6.582  1.00  0.00     0.074 A 
ATOM     48  C   UNL     1      -0.031  -7.279   7.223  1.00  0.00     0.031 C 
ATOM     49  C   UNL     1       1.327  -7.533   0.462  1.00  0.00     0.029 A 
ATOM     50  C   UNL     1       0.775  -8.759   1.038  1.00  0.00     0.049 A 
ATOM     51  H   UNL     1       0.149  -9.048   3.005  1.00  0.00     0.167 HD
ATOM     52  C   UNL     1      -0.988  -9.559   7.221  1.00  0.00     0.037 A 
ATOM     53  C   UNL     1       0.565  -9.920   0.381  1.00  0.00     0.037 A 
ATOM     54  C   UNL     1      -1.328 -10.802   6.581  1.00  0.00     0.049 A 
ATOM     55  C   UNL     1      -0.013 -11.097   1.134  1.00  0.00     0.074 A 
ATOM     56  C   UNL     1      -1.934 -11.915   7.135  1.00  0.00     0.029 A 
ATOM     57  N   UNL     1      -1.074 -11.105   5.250  1.00  0.00    -0.354 N 
ATOM     58  N   UNL     1      -0.381 -11.176   2.392  1.00  0.00    -0.248 NA
ATOM     59  C   UNL     1      -0.208 -12.344   0.378  1.00  0.00     0.031 C 
ATOM     60  C   UNL     1      -1.976 -12.917   6.161  1.00  0.00     0.029 A 
ATOM     61  C   UNL     1      -1.477 -12.402   4.975  1.00  0.00     0.049 A 
ATOM     62  H   UNL     1      -0.667 -10.490   4.598  1.00  0.00     0.167 HD
ATOM     63  C   UNL     1      -0.879 -12.464   2.568  1.00  0.00     0.074 A 
ATOM     64  C   UNL     1      -0.779 -13.126   1.283  1.00  0.00     0.031 C 
ATOM     65  C   UNL     1      -1.376 -13.047   3.688  1.00  0.00     0.037 A 
BRANCH  52  66
ATOM     66  C   UNL     1      -1.256  -9.408   8.694  1.00  0.00     0.058 A 
ATOM     67  C   UNL     1      -2.210  -8.503   9.188  1.00  0.00     0.135 A 
ATOM     68  C   UNL     1      -0.562 -10.197   9.626  1.00  0.00     0.135 A 
ATOM     69  F   UNL     1      -2.888  -7.706   8.345  1.00  0.00    -0.206 F 
ATOM     70  C   UNL     1      -2.446  -8.366  10.552  1.00  0.00     0.059 A 
ATOM     71  C   UNL     1      -0.808 -10.103  10.992  1.00  0.00     0.059 A 
ATOM     72  F   UNL     1       0.367 -11.073   9.213  1.00  0.00    -0.206 F 
ATOM     73  C   UNL     1      -1.743  -9.175  11.446  1.00  0.00     0.060 A 
BRANCH  73  74
ATOM     74  S   UNL     1      -2.076  -8.995  13.210  1.00  0.00     0.124 S 
ATOM     75  O   UNL     1      -1.524  -7.671  13.479  1.00  0.00    -0.237 OA
ATOM     76  O   UNL     1      -3.530  -9.098  13.262  1.00  0.00    -0.237 OA
ATOM     77  O   UNL     1      -1.348 -10.109  13.810  1.00  0.00    -0.744 OA
ENDBRANCH  73  74
ENDBRANCH  52  66
BRANCH  53  78
ATOM     78  C   UNL     1       0.915 -10.044  -1.064  1.00  0.00     0.058 A 
ATOM     79  C   UNL     1      -0.071 -10.251  -2.042  1.00  0.00     0.135 A 
ATOM     80  C   UNL     1       2.249  -9.976  -1.498  1.00  0.00     0.135 A 
ATOM     81  F   UNL     1      -1.361 -10.347  -1.683  1.00  0.00    -0.206 F 
ATOM     82  C   UNL     1       0.250 -10.398  -3.389  1.00  0.00     0.059 A 
ATOM     83  C   UNL     1       2.593 -10.086  -2.843  1.00  0.00     0.059 A 
ATOM     84  F   UNL     1       3.237  -9.783  -0.610  1.00  0.00    -0.206 F 
ATOM     85  C   UNL     1       1.586 -10.306  -3.781  1.00  0.00     0.060 A 
BRANCH  85  86
ATOM     86  S   UNL     1       1.986 -10.444  -5.537  1.00  0.00     0.124 S 
ATOM     87  O   UNL     1       1.686 -11.846  -5.801  1.00  0.00    -0.237 OA
ATOM     88  O   UNL     1       1.074  -9.473  -6.134  1.00  0.00    -0.237 OA
ATOM     89  O   UNL     1       3.400 -10.081  -5.591  1.00  0.00    -0.744 OA
ENDBRANCH  85  86
ENDBRANCH  53  78
BRANCH  65  90
ATOM     90  C   UNL     1      -1.895 -14.459   3.576  1.00  0.00     0.058 A 
ATOM     91  C   UNL     1      -1.042 -15.553   3.364  1.00  0.00     0.135 A 
ATOM     92  C   UNL     1      -3.265 -14.725   3.750  1.00  0.00     0.135 A 
ATOM     93  F   UNL     1       0.275 -15.361   3.190  1.00  0.00    -0.206 F 
ATOM     94  C   UNL     1      -1.531 -16.855   3.297  1.00  0.00     0.059 A 
ATOM     95  C   UNL     1      -3.769 -16.021   3.727  1.00  0.00     0.059 A 
ATOM     96  F   UNL     1      -4.127 -13.719   3.970  1.00  0.00    -0.206 F 
ATOM     97  C   UNL     1      -2.896 -17.079   3.486  1.00  0.00     0.060 A 
BRANCH  97  98
ATOM     98  S   UNL     1      -3.508 -18.776   3.433  1.00  0.00     0.124 S 
ATOM     99  O   UNL     1      -3.345 -19.106   2.021  1.00  0.00    -0.237 OA
ATOM    100  O   UNL     1      -2.605 -19.460   4.353  1.00  0.00    -0.237 OA
ATOM    101  O   UNL     1      -4.889 -18.657   3.893  1.00  0.00    -0.744 OA
ENDBRANCH  97  98
ENDBRANCH  65  90
ENDBRANCH  39  40
ENDBRANCH  32  34
ENDBRANCH  31  32
ENDBRANCH  30  31
ENDBRANCH  29  30
ENDBRANCH  28  29
ENDBRANCH   1  28
TORSDOF 23
