REMARK SMILES Cn1c(=O)c2c(nc(Nc3cccc(Cl)c3Cl)n2CC(=O)OCCOCCOCCOC(=O)c2ccc(-c3c4nc(c(-c5c(F)cc(S(=O)(=O)[O-])cc5F)c5ccc([nH]5)c(-c5c(F)cc(S(=O)(=O)[O-])cc5F)c5nc(c(-c6c(F)cc(S(=O)(=O)[O-])cc6F)c6ccc3[nH]6)C=C5)C=C4)cc2)n(C)c1=O
REMARK SMILES IDX 26 1 25 2 24 3 23 4 22 5 20 6 21 7 19 8 18 9 1 10 2 11 3 12
REMARK SMILES IDX 102 13 4 14 5 15 100 16 103 17 6 18 101 19 7 20 8 21 9 22
REMARK SMILES IDX 10 24 11 25 16 26 12 27 14 28 17 29 13 30 15 31 27 32 28 33
REMARK SMILES IDX 29 34 30 35 31 36 32 37 33 38 34 39 35 40 99 41 36 42 98 43
REMARK SMILES IDX 37 44 38 45 39 46 92 47 40 48 97 49 91 50 93 51 41 52 96 53
REMARK SMILES IDX 90 54 89 55 42 57 76 58 55 59 75 60 56 61 59 62 74 63 94 64
REMARK SMILES IDX 57 65 58 66 73 68 95 69 60 70 43 71 44 72 53 73 45 74 46 75
REMARK SMILES IDX 52 76 54 77 47 78 48 79 49 80 50 81 51 82 77 83 78 84 87 85
REMARK SMILES IDX 79 86 80 87 86 88 88 89 81 90 82 91 83 92 84 93 85 94 61 95
REMARK SMILES IDX 62 96 71 97 63 98 64 99 70 100 72 101 65 102 66 103 67 104
REMARK SMILES IDX 68 105 69 106
REMARK H PARENT 9 23 93 56 59 67
REMARK Flexibility Score: inf
ROOT
ATOM      1  C   UNL     1       1.138   3.744   3.019  1.00  0.00     0.188 C 
ENDROOT
BRANCH   1   2
ATOM      2  O   UNL     1       2.130   4.709   3.251  1.00  0.00    -0.376 OA
BRANCH   2   3
ATOM      3  C   UNL     1       2.853   4.551   4.456  1.00  0.00     0.202 C 
BRANCH   3   4
ATOM      4  C   UNL     1       2.115   4.143   5.781  1.00  0.00     0.261 C 
BRANCH   4   5
ATOM      5  O   UNL     1       1.186   2.984   5.767  1.00  0.00    -0.462 OA
BRANCH   5   6
ATOM      6  C   UNL     1      -0.162   3.162   5.759  1.00  0.00     0.326 C 
ATOM      7  O   UNL     1      -0.646   4.259   6.053  1.00  0.00    -0.250 OA
BRANCH   6   8
ATOM      8  C   UNL     1      -1.093   2.053   5.150  1.00  0.00     0.248 C 
BRANCH   8   9
ATOM      9  N   UNL     1      -0.803   0.592   4.995  1.00  0.00    -0.293 N 
ATOM     10  C   UNL     1       0.295  -0.865   0.178  1.00  0.00     0.159 C 
ATOM     11  N   UNL     1       0.013  -0.958   1.598  1.00  0.00    -0.261 N 
ATOM     12  C   UNL     1      -0.562   0.093   2.360  1.00  0.00     0.282 A 
ATOM     13  C   UNL     1       0.405  -2.191   2.094  1.00  0.00     0.332 A 
ATOM     14  O   UNL     1      -0.978   1.143   1.874  1.00  0.00    -0.267 OA
ATOM     15  C   UNL     1      -0.595  -0.166   3.797  1.00  0.00     0.154 A 
ATOM     16  N   UNL     1       0.117  -2.450   3.414  1.00  0.00    -0.279 N 
ATOM     17  O   UNL     1       0.953  -3.033   1.375  1.00  0.00    -0.247 OA
ATOM     18  C   UNL     1      -0.316  -1.432   4.237  1.00  0.00     0.170 A 
ATOM     19  C   UNL     1       0.308  -3.802   3.870  1.00  0.00     0.157 C 
ATOM     20  N   UNL     1      -0.543  -1.567   5.558  1.00  0.00    -0.194 NA
ATOM     21  C   UNL     1      -0.933  -0.386   5.990  1.00  0.00     0.210 A 
BRANCH  21  22
ATOM     22  N   UNL     1      -1.347  -0.252   7.268  1.00  0.00    -0.324 N 
ATOM     23  H   UNL     1      -1.232  -1.064   7.812  1.00  0.00     0.170 HD
BRANCH  22  24
ATOM     24  C   UNL     1      -1.909   0.824   7.966  1.00  0.00     0.061 A 
ATOM     25  C   UNL     1      -1.168   1.321   9.048  1.00  0.00     0.028 A 
ATOM     26  C   UNL     1      -3.128   1.450   7.629  1.00  0.00     0.083 A 
ATOM     27  C   UNL     1      -1.527   2.512   9.669  1.00  0.00     0.004 A 
ATOM     28  C   UNL     1      -3.444   2.688   8.205  1.00  0.00     0.061 A 
ATOM     29  Cl  UNL     1      -4.177   0.728   6.440  1.00  0.00    -0.080 Cl
ATOM     30  C   UNL     1      -2.634   3.221   9.211  1.00  0.00     0.022 A 
ATOM     31  Cl  UNL     1      -4.762   3.660   7.648  1.00  0.00    -0.083 Cl
ENDBRANCH  22  24
ENDBRANCH  21  22
ENDBRANCH   8   9
ENDBRANCH   6   8
ENDBRANCH   5   6
ENDBRANCH   4   5
ENDBRANCH   3   4
ENDBRANCH   2   3
ENDBRANCH   1   2
BRANCH   1  32
ATOM     32  C   UNL     1       1.452   2.254   3.257  1.00  0.00     0.188 C 
BRANCH  32  33
ATOM     33  O   UNL     1       2.404   1.711   4.141  1.00  0.00    -0.376 OA
BRANCH  33  34
ATOM     34  C   UNL     1       3.750   1.541   3.769  1.00  0.00     0.202 C 
BRANCH  34  35
ATOM     35  C   UNL     1       4.223   1.808   2.342  1.00  0.00     0.261 C 
BRANCH  35  36
ATOM     36  O   UNL     1       3.358   2.569   1.494  1.00  0.00    -0.460 OA
BRANCH  36  37
ATOM     37  C   UNL     1       2.563   1.788   0.732  1.00  0.00     0.338 C 
ATOM     38  O   UNL     1       2.467   0.553   0.864  1.00  0.00    -0.246 OA
BRANCH  37  39
ATOM     39  C   UNL     1       1.931   2.526  -0.357  1.00  0.00     0.060 A 
ATOM     40  C   UNL     1       0.720   2.110  -0.933  1.00  0.00     0.016 A 
ATOM     41  C   UNL     1       2.964   2.895  -1.195  1.00  0.00     0.016 A 
ATOM     42  C   UNL     1       0.803   1.505  -2.202  1.00  0.00     0.010 A 
ATOM     43  C   UNL     1       2.765   2.717  -2.530  1.00  0.00     0.010 A 
ATOM     44  C   UNL     1       2.022   1.607  -2.917  1.00  0.00    -0.014 A 
BRANCH  44  45
ATOM     45  C   UNL     1       2.200   1.296  -4.374  1.00  0.00     0.031 A 
ATOM     46  C   UNL     1       0.978   2.068  -5.008  1.00  0.00     0.074 A 
ATOM     47  C   UNL     1       3.301   0.618  -4.952  1.00  0.00     0.049 A 
ATOM     48  N   UNL     1      -0.138   1.511  -5.379  1.00  0.00    -0.248 NA
ATOM     49  C   UNL     1       0.698   3.545  -4.801  1.00  0.00     0.031 C 
ATOM     50  C   UNL     1       4.513  -0.104  -4.395  1.00  0.00     0.029 A 
ATOM     51  N   UNL     1       3.615   0.390  -6.308  1.00  0.00    -0.354 N 
ATOM     52  C   UNL     1      -0.912   2.536  -5.938  1.00  0.00     0.074 A 
ATOM     53  C   UNL     1      -0.538   3.726  -5.275  1.00  0.00     0.031 C 
ATOM     54  C   UNL     1       5.500  -0.288  -5.340  1.00  0.00     0.029 A 
ATOM     55  C   UNL     1       5.014   0.129  -6.642  1.00  0.00     0.049 A 
ATOM     56  H   UNL     1       2.919   0.407  -7.004  1.00  0.00     0.167 HD
ATOM     57  C   UNL     1      -1.406   2.372  -7.193  1.00  0.00     0.037 A 
ATOM     58  C   UNL     1       5.613   0.025  -7.908  1.00  0.00     0.037 A 
ATOM     59  C   UNL     1      -1.369   0.963  -7.492  1.00  0.00     0.049 A 
ATOM     60  C   UNL     1       4.463  -0.089  -8.851  1.00  0.00     0.074 A 
ATOM     61  C   UNL     1      -1.953  -0.152  -6.930  1.00  0.00     0.029 A 
ATOM     62  N   UNL     1      -0.177   0.569  -8.036  1.00  0.00    -0.354 N 
ATOM     63  N   UNL     1       3.684  -1.140  -8.840  1.00  0.00    -0.248 NA
ATOM     64  C   UNL     1       3.858   1.201  -9.178  1.00  0.00     0.031 C 
ATOM     65  C   UNL     1      -0.932  -1.147  -6.904  1.00  0.00     0.029 A 
ATOM     66  C   UNL     1       0.165  -0.688  -7.628  1.00  0.00     0.049 A 
ATOM     67  H   UNL     1       0.364   1.122  -8.645  1.00  0.00     0.167 HD
ATOM     68  C   UNL     1       2.424  -0.601  -8.643  1.00  0.00     0.074 A 
ATOM     69  C   UNL     1       2.607   0.862  -8.837  1.00  0.00     0.031 C 
ATOM     70  C   UNL     1       1.440  -1.275  -7.960  1.00  0.00     0.037 A 
BRANCH  57  71
ATOM     71  C   UNL     1      -1.389   3.421  -8.291  1.00  0.00     0.058 A 
ATOM     72  C   UNL     1      -2.071   3.109  -9.482  1.00  0.00     0.135 A 
ATOM     73  C   UNL     1      -0.555   4.568  -8.354  1.00  0.00     0.135 A 
ATOM     74  F   UNL     1      -2.866   2.030  -9.545  1.00  0.00    -0.206 F 
ATOM     75  C   UNL     1      -1.929   3.855 -10.649  1.00  0.00     0.059 A 
ATOM     76  C   UNL     1      -0.432   5.358  -9.504  1.00  0.00     0.059 A 
ATOM     77  F   UNL     1       0.229   4.938  -7.333  1.00  0.00    -0.206 F 
ATOM     78  C   UNL     1      -1.116   4.983 -10.651  1.00  0.00     0.060 A 
BRANCH  78  79
ATOM     79  S   UNL     1      -0.992   5.933 -12.177  1.00  0.00     0.124 S 
ATOM     80  O   UNL     1      -0.407   4.958 -13.091  1.00  0.00    -0.237 OA
ATOM     81  O   UNL     1      -2.390   6.275 -12.421  1.00  0.00    -0.237 OA
ATOM     82  O   UNL     1      -0.133   7.054 -11.812  1.00  0.00    -0.744 OA
ENDBRANCH  78  79
ENDBRANCH  57  71
BRANCH  58  83
ATOM     83  C   UNL     1       6.964   0.538  -8.465  1.00  0.00     0.058 A 
ATOM     84  C   UNL     1       7.525   0.336  -9.774  1.00  0.00     0.135 A 
ATOM     85  C   UNL     1       7.580   1.574  -7.754  1.00  0.00     0.135 A 
ATOM     86  F   UNL     1       7.052  -0.628 -10.583  1.00  0.00    -0.206 F 
ATOM     87  C   UNL     1       8.575   1.146 -10.319  1.00  0.00     0.059 A 
ATOM     88  C   UNL     1       8.592   2.393  -8.275  1.00  0.00     0.059 A 
ATOM     89  F   UNL     1       7.139   1.887  -6.530  1.00  0.00    -0.206 F 
ATOM     90  C   UNL     1       9.079   2.203  -9.562  1.00  0.00     0.060 A 
BRANCH  90  91
ATOM     91  S   UNL     1      10.291   3.395 -10.234  1.00  0.00     0.124 S 
ATOM     92  O   UNL     1      11.461   2.558 -10.477  1.00  0.00    -0.237 OA
ATOM     93  O   UNL     1       9.617   3.906 -11.422  1.00  0.00    -0.237 OA
ATOM     94  O   UNL     1      10.444   4.364  -9.149  1.00  0.00    -0.744 OA
ENDBRANCH  90  91
ENDBRANCH  58  83
BRANCH  70  95
ATOM     95  C   UNL     1       1.630  -2.721  -7.528  1.00  0.00     0.058 A 
ATOM     96  C   UNL     1       2.366  -3.185  -6.414  1.00  0.00     0.135 A 
ATOM     97  C   UNL     1       0.805  -3.663  -8.152  1.00  0.00     0.135 A 
ATOM     98  F   UNL     1       3.060  -2.335  -5.646  1.00  0.00    -0.206 F 
ATOM     99  C   UNL     1       2.342  -4.530  -6.003  1.00  0.00     0.059 A 
ATOM    100  C   UNL     1       0.733  -4.991  -7.741  1.00  0.00     0.059 A 
ATOM    101  F   UNL     1      -0.021  -3.271  -9.134  1.00  0.00    -0.206 F 
ATOM    102  C   UNL     1       1.528  -5.431  -6.688  1.00  0.00     0.060 A 
BRANCH 102 103
ATOM    103  S   UNL     1       1.494  -7.174  -6.200  1.00  0.00     0.124 S 
ATOM    104  O   UNL     1       2.861  -7.598  -6.482  1.00  0.00    -0.237 OA
ATOM    105  O   UNL     1       1.131  -7.104  -4.788  1.00  0.00    -0.237 OA
ATOM    106  O   UNL     1       0.473  -7.753  -7.071  1.00  0.00    -0.744 OA
ENDBRANCH 102 103
ENDBRANCH  70  95
ENDBRANCH  44  45
ENDBRANCH  37  39
ENDBRANCH  36  37
ENDBRANCH  35  36
ENDBRANCH  34  35
ENDBRANCH  33  34
ENDBRANCH  32  33
ENDBRANCH   1  32
TORSDOF 23
