REMARK SMILES Cc1ccccc1/C=C1\SC(=S)N(CCC(=O)N[C@@H](C)C(=O)OCCOCCOCCOC(=O)c2ccc(-c3c4nc(c(-c5c(F)cc(S(=O)(=O)[O-])cc5F)c5ccc([nH]5)c(-c5c(F)cc(S(=O)(=O)[O-])cc5F)c5nc(c(-c6c(F)cc(S(=O)(=O)[O-])cc6F)c6ccc3[nH]6)C=C5)C=C4)cc2)C1=O
REMARK SMILES IDX 27 1 26 2 25 3 24 4 23 5 21 6 22 7 19 8 20 9 18 10 16 11
REMARK SMILES IDX 17 12 15 14 14 15 13 16 8 17 9 18 10 19 101 20 11 21 102 22
REMARK SMILES IDX 12 23 7 24 1 25 2 26 3 27 4 28 6 29 5 30 28 31 29 32 30 33
REMARK SMILES IDX 31 34 32 35 33 36 34 37 35 38 36 39 100 40 37 41 99 42 38 43
REMARK SMILES IDX 39 44 40 45 93 46 41 47 98 48 92 49 94 50 42 51 97 52 91 53
REMARK SMILES IDX 90 54 43 56 77 57 56 58 76 59 57 60 60 61 75 62 95 63 58 64
REMARK SMILES IDX 59 65 74 67 96 68 61 69 44 70 45 71 54 72 46 73 47 74 53 75
REMARK SMILES IDX 55 76 48 77 49 78 50 79 51 80 52 81 78 82 79 83 88 84 80 85
REMARK SMILES IDX 81 86 87 87 89 88 82 89 83 90 84 91 85 92 86 93 62 94 63 95
REMARK SMILES IDX 72 96 64 97 65 98 71 99 73 100 66 101 67 102 68 103 69 104
REMARK SMILES IDX 70 105
REMARK H PARENT 18 13 94 55 60 66
REMARK Flexibility Score: inf
ROOT
ATOM      1  C   UNL     1      -2.747   6.440  -3.888  1.00  0.00     0.188 C 
ENDROOT
BRANCH   1   2
ATOM      2  O   UNL     1      -3.567   5.473  -3.203  1.00  0.00    -0.376 OA
BRANCH   2   3
ATOM      3  C   UNL     1      -3.700   5.305  -1.753  1.00  0.00     0.202 C 
BRANCH   3   4
ATOM      4  C   UNL     1      -2.657   5.034  -0.307  1.00  0.00     0.261 C 
BRANCH   4   5
ATOM      5  O   UNL     1      -0.834   5.091   0.076  1.00  0.00    -0.462 OA
BRANCH   5   6
ATOM      6  C   UNL     1       0.658   4.581  -0.526  1.00  0.00     0.328 C 
ATOM      7  O   UNL     1       0.829   3.653  -1.345  1.00  0.00    -0.250 OA
BRANCH   6   8
ATOM      8  C   UNL     1       1.997   5.096  -0.045  1.00  0.00     0.189 C 
ATOM      9  C   UNL     1       2.547   4.321   1.140  1.00  0.00     0.043 C 
BRANCH   8  10
ATOM     10  N   UNL     1       2.522   6.418  -0.119  1.00  0.00    -0.343 N 
ATOM     11  C   UNL     1       3.605   6.795  -0.872  1.00  0.00     0.222 C 
ATOM     12  O   UNL     1       4.243   7.763  -0.444  1.00  0.00    -0.275 OA
ATOM     13  H   UNL     1       2.074   7.115   0.412  1.00  0.00     0.164 HD
BRANCH  11  14
ATOM     14  C   UNL     1       3.989   6.138  -2.229  1.00  0.00     0.122 C 
BRANCH  14  15
ATOM     15  C   UNL     1       4.846   4.842  -2.317  1.00  0.00     0.137 C 
BRANCH  15  16
ATOM     16  N   UNL     1       4.098   3.551  -2.512  1.00  0.00    -0.292 N 
ATOM     17  C   UNL     1       1.926   1.290  -0.757  1.00  0.00     0.029 C 
ATOM     18  C   UNL     1       2.736   1.726  -1.752  1.00  0.00     0.081 C 
ATOM     19  S   UNL     1       2.739   1.514  -3.442  1.00  0.00    -0.054 SA
ATOM     20  C   UNL     1       3.868   2.696  -1.451  1.00  0.00     0.266 C 
ATOM     21  C   UNL     1       3.780   2.955  -3.716  1.00  0.00     0.148 C 
ATOM     22  O   UNL     1       4.539   2.672  -0.425  1.00  0.00    -0.268 OA
ATOM     23  S   UNL     1       4.353   3.393  -5.228  1.00  0.00    -0.052 S 
BRANCH  17  24
ATOM     24  C   UNL     1       0.746   0.411  -0.376  1.00  0.00    -0.021 A 
ATOM     25  C   UNL     1       2.820  -0.918   0.897  1.00  0.00     0.045 C 
ATOM     26  C   UNL     1       1.301  -0.726   0.809  1.00  0.00    -0.044 A 
ATOM     27  C   UNL     1       0.413  -2.088   1.386  1.00  0.00     0.004 A 
ATOM     28  C   UNL     1      -1.109  -2.577   0.864  1.00  0.00     0.000 A 
ATOM     29  C   UNL     1      -0.912   0.133  -1.015  1.00  0.00     0.008 A 
ATOM     30  C   UNL     1      -1.901  -1.634  -0.382  1.00  0.00     0.001 A 
ENDBRANCH  17  24
ENDBRANCH  15  16
ENDBRANCH  14  15
ENDBRANCH  11  14
ENDBRANCH   8  10
ENDBRANCH   6   8
ENDBRANCH   5   6
ENDBRANCH   4   5
ENDBRANCH   3   4
ENDBRANCH   2   3
ENDBRANCH   1   2
BRANCH   1  31
ATOM     31  C   UNL     1      -2.700   7.782  -3.266  1.00  0.00     0.188 C 
BRANCH  31  32
ATOM     32  O   UNL     1      -2.839   7.530  -1.896  1.00  0.00    -0.376 OA
BRANCH  32  33
ATOM     33  C   UNL     1      -3.376   8.445  -1.012  1.00  0.00     0.202 C 
BRANCH  33  34
ATOM     34  C   UNL     1      -3.119   9.841  -1.478  1.00  0.00     0.261 C 
BRANCH  34  35
ATOM     35  O   UNL     1      -1.728  10.373  -1.510  1.00  0.00    -0.460 OA
BRANCH  35  36
ATOM     36  C   UNL     1      -0.483  10.031  -2.021  1.00  0.00     0.338 C 
ATOM     37  O   UNL     1       0.263  10.912  -2.430  1.00  0.00    -0.246 OA
BRANCH  36  38
ATOM     38  C   UNL     1       0.072   8.664  -1.786  1.00  0.00     0.060 A 
ATOM     39  C   UNL     1       0.655   7.750  -2.709  1.00  0.00     0.016 A 
ATOM     40  C   UNL     1      -0.290   8.152  -0.622  1.00  0.00     0.016 A 
ATOM     41  C   UNL     1       0.324   6.310  -2.795  1.00  0.00     0.010 A 
ATOM     42  C   UNL     1      -0.795   6.895  -0.845  1.00  0.00     0.010 A 
ATOM     43  C   UNL     1      -0.658   5.786  -1.965  1.00  0.00    -0.014 A 
BRANCH  43  44
ATOM     44  C   UNL     1      -1.271   3.995  -1.799  1.00  0.00     0.031 A 
ATOM     45  C   UNL     1      -1.162   3.045  -0.114  1.00  0.00     0.074 A 
ATOM     46  C   UNL     1      -1.905   3.390  -2.858  1.00  0.00     0.049 A 
ATOM     47  N   UNL     1      -1.963   2.176   0.434  1.00  0.00    -0.248 NA
ATOM     48  C   UNL     1      -0.334   3.452   1.284  1.00  0.00     0.031 C 
ATOM     49  C   UNL     1      -2.902   2.304  -2.900  1.00  0.00     0.029 A 
ATOM     50  N   UNL     1      -1.949   3.798  -4.194  1.00  0.00    -0.354 N 
ATOM     51  C   UNL     1      -1.449   1.699   1.694  1.00  0.00     0.074 A 
ATOM     52  C   UNL     1      -0.710   2.719   2.297  1.00  0.00     0.031 C 
ATOM     53  C   UNL     1      -3.133   1.928  -4.180  1.00  0.00     0.029 A 
ATOM     54  C   UNL     1      -2.265   2.718  -5.014  1.00  0.00     0.049 A 
ATOM     55  H   UNL     1      -1.781   4.715  -4.509  1.00  0.00     0.167 HD
ATOM     56  C   UNL     1      -1.052   0.417   1.966  1.00  0.00     0.037 A 
ATOM     57  C   UNL     1      -1.399   2.357  -5.985  1.00  0.00     0.037 A 
ATOM     58  C   UNL     1      -1.235  -0.348   0.714  1.00  0.00     0.049 A 
ATOM     59  C   UNL     1      -0.847   0.988  -5.620  1.00  0.00     0.074 A 
ATOM     60  C   UNL     1      -2.795   0.074  -0.173  1.00  0.00     0.029 A 
ATOM     61  N   UNL     1      -0.203  -1.425  -0.680  1.00  0.00    -0.354 N 
ATOM     62  N   UNL     1      -1.001   0.386  -4.461  1.00  0.00    -0.248 NA
ATOM     63  C   UNL     1      -0.096   0.174  -6.560  1.00  0.00     0.031 C 
ATOM     64  C   UNL     1      -2.698  -0.555  -1.962  1.00  0.00     0.029 A 
ATOM     65  C   UNL     1      -1.202  -1.375  -2.276  1.00  0.00     0.049 A 
ATOM     66  H   UNL     1       0.656  -1.886  -0.543  1.00  0.00     0.167 HD
ATOM     67  C   UNL     1      -0.448  -0.876  -4.500  1.00  0.00     0.074 A 
ATOM     68  C   UNL     1       0.176  -0.906  -5.811  1.00  0.00     0.031 C 
ATOM     69  C   UNL     1      -0.541  -1.800  -3.484  1.00  0.00     0.037 A 
BRANCH  56  70
ATOM     70  C   UNL     1      -1.471   0.013   3.392  1.00  0.00     0.058 A 
ATOM     71  C   UNL     1      -2.516  -0.918   3.526  1.00  0.00     0.135 A 
ATOM     72  C   UNL     1      -1.040   0.588   4.622  1.00  0.00     0.135 A 
ATOM     73  F   UNL     1      -3.125  -1.432   2.451  1.00  0.00    -0.206 F 
ATOM     74  C   UNL     1      -3.034  -1.316   4.757  1.00  0.00     0.059 A 
ATOM     75  C   UNL     1      -1.608   0.263   5.868  1.00  0.00     0.059 A 
ATOM     76  F   UNL     1      -0.056   1.499   4.677  1.00  0.00    -0.206 F 
ATOM     77  C   UNL     1      -2.582  -0.722   5.926  1.00  0.00     0.060 A 
BRANCH  77  78
ATOM     78  S   UNL     1      -3.300  -1.270   7.486  1.00  0.00     0.124 S 
ATOM     79  O   UNL     1      -4.729  -1.079   7.252  1.00  0.00    -0.237 OA
ATOM     80  O   UNL     1      -2.848  -2.655   7.552  1.00  0.00    -0.237 OA
ATOM     81  O   UNL     1      -2.709  -0.371   8.473  1.00  0.00    -0.744 OA
ENDBRANCH  77  78
ENDBRANCH  56  70
BRANCH  57  82
ATOM     82  C   UNL     1      -0.705   3.595  -6.525  1.00  0.00     0.058 A 
ATOM     83  C   UNL     1      -1.489   4.630  -7.105  1.00  0.00     0.135 A 
ATOM     84  C   UNL     1       0.537   3.993  -6.029  1.00  0.00     0.135 A 
ATOM     85  F   UNL     1      -2.729   4.359  -7.550  1.00  0.00    -0.206 F 
ATOM     86  C   UNL     1      -1.109   5.980  -7.079  1.00  0.00     0.059 A 
ATOM     87  C   UNL     1       0.962   5.332  -6.032  1.00  0.00     0.059 A 
ATOM     88  F   UNL     1       1.281   3.101  -5.378  1.00  0.00    -0.206 F 
ATOM     89  C   UNL     1       0.115   6.326  -6.519  1.00  0.00     0.060 A 
BRANCH  89  90
ATOM     90  S   UNL     1       0.495   8.083  -6.274  1.00  0.00     0.124 S 
ATOM     91  O   UNL     1       0.707   8.553  -7.636  1.00  0.00    -0.237 OA
ATOM     92  O   UNL     1      -0.720   8.567  -5.620  1.00  0.00    -0.237 OA
ATOM     93  O   UNL     1       1.694   8.046  -5.447  1.00  0.00    -0.744 OA
ENDBRANCH  89  90
ENDBRANCH  57  82
BRANCH  69  94
ATOM     94  C   UNL     1       0.093  -3.150  -3.386  1.00  0.00     0.058 A 
ATOM     95  C   UNL     1       0.800  -3.790  -4.378  1.00  0.00     0.135 A 
ATOM     96  C   UNL     1       0.058  -3.855  -2.162  1.00  0.00     0.135 A 
ATOM     97  F   UNL     1       0.525  -3.574  -5.667  1.00  0.00    -0.206 F 
ATOM     98  C   UNL     1       1.668  -4.828  -4.083  1.00  0.00     0.059 A 
ATOM     99  C   UNL     1       0.992  -4.783  -1.774  1.00  0.00     0.059 A 
ATOM    100  F   UNL     1      -1.024  -3.805  -1.379  1.00  0.00    -0.206 F 
ATOM    101  C   UNL     1       1.793  -5.282  -2.769  1.00  0.00     0.060 A 
BRANCH 101 102
ATOM    102  S   UNL     1       2.703  -6.790  -2.475  1.00  0.00     0.124 S 
ATOM    103  O   UNL     1       1.926  -7.732  -3.274  1.00  0.00    -0.237 OA
ATOM    104  O   UNL     1       4.024  -6.448  -2.990  1.00  0.00    -0.237 OA
ATOM    105  O   UNL     1       2.617  -6.969  -1.030  1.00  0.00    -0.744 OA
ENDBRANCH 101 102
ENDBRANCH  69  94
ENDBRANCH  43  44
ENDBRANCH  36  38
ENDBRANCH  35  36
ENDBRANCH  34  35
ENDBRANCH  33  34
ENDBRANCH  32  33
ENDBRANCH  31  32
ENDBRANCH   1  31
TORSDOF 25
