REMARK SMILES O=C(Nc1cccc(C(=O)OCCOCCOCCOC(=O)c2ccc(-c3c4nc(c(-c5c(F)cc(S(=O)(=O)[O-])cc5F)c5ccc([nH]5)c(-c5c(F)cc(S(=O)(=O)[O-])cc5F)c5nc(c(-c6c(F)cc(S(=O)(=O)[O-])cc6F)c6ccc3[nH]6)C=C5)C=C4)cc2)c1)Nc1cc(Cl)c(Cl)cc1Cl
REMARK SMILES IDX 16 1 15 2 14 3 13 4 12 5 11 6 9 7 10 8 8 9 4 10 5 11 89 12
REMARK SMILES IDX 6 13 7 14 3 15 1 16 2 17 90 18 91 21 92 22 98 23 93 24 97 25
REMARK SMILES IDX 99 26 94 27 95 28 96 29 17 30 18 31 19 32 20 33 21 34 22 35
REMARK SMILES IDX 23 36 24 37 88 38 25 39 87 40 26 41 27 42 28 43 81 44 29 45
REMARK SMILES IDX 86 46 80 47 82 48 30 49 85 50 79 51 78 52 31 54 65 55 44 56
REMARK SMILES IDX 64 57 45 58 48 59 63 60 83 61 46 62 47 63 62 65 84 66 49 67
REMARK SMILES IDX 32 68 33 69 42 70 34 71 35 72 41 73 43 74 36 75 37 76 38 77
REMARK SMILES IDX 39 78 40 79 66 80 67 81 76 82 68 83 69 84 75 85 77 86 70 87
REMARK SMILES IDX 71 88 72 89 73 90 74 91 50 92 51 93 60 94 52 95 53 96 59 97
REMARK SMILES IDX 61 98 54 99 55 100 56 101 57 102 58 103
REMARK H PARENT 3 19 90 20 82 53 48 64
REMARK Flexibility Score: inf
ROOT
ATOM      1  C   UNL     1       7.045  -3.684   0.978  1.00  0.00     0.188 C 
ENDROOT
BRANCH   1   2
ATOM      2  C   UNL     1       8.477  -3.178   1.251  1.00  0.00     0.188 C 
BRANCH   2   3
ATOM      3  O   UNL     1       8.994  -3.226   2.577  1.00  0.00    -0.376 OA
BRANCH   3   4
ATOM      4  C   UNL     1       8.216  -2.720   3.656  1.00  0.00     0.202 C 
BRANCH   4   5
ATOM      5  C   UNL     1       7.721  -1.272   3.585  1.00  0.00     0.261 C 
BRANCH   5   6
ATOM      6  O   UNL     1       6.893  -1.016   2.439  1.00  0.00    -0.460 OA
BRANCH   6   7
ATOM      7  C   UNL     1       7.322  -0.030   1.614  1.00  0.00     0.338 C 
ATOM      8  O   UNL     1       8.254   0.735   1.798  1.00  0.00    -0.246 OA
BRANCH   7   9
ATOM      9  C   UNL     1       6.570  -0.087   0.344  1.00  0.00     0.062 A 
ATOM     10  C   UNL     1       4.481  -0.217  -0.878  1.00  0.00     0.043 A 
ATOM     11  C   UNL     1       5.202  -0.227  -2.077  1.00  0.00     0.026 A 
ATOM     12  C   UNL     1       5.178  -0.217   0.335  1.00  0.00     0.041 A 
ATOM     13  C   UNL     1       6.596  -0.124  -2.068  1.00  0.00     0.003 A 
ATOM     14  C   UNL     1       7.279  -0.022  -0.858  1.00  0.00     0.016 A 
BRANCH  10  15
ATOM     15  N   UNL     1       3.075  -0.198  -0.961  1.00  0.00    -0.308 N 
ATOM     16  O   UNL     1       0.946   0.011  -0.273  1.00  0.00    -0.248 OA
ATOM     17  C   UNL     1       2.134   0.211  -0.043  1.00  0.00     0.323 C 
ATOM     18  N   UNL     1       2.621   0.960   0.992  1.00  0.00    -0.306 N 
ATOM     19  H   UNL     1       2.706  -0.530  -1.811  1.00  0.00     0.171 HD
ATOM     20  H   UNL     1       3.516   1.341   0.843  1.00  0.00     0.171 HD
BRANCH  18  21
ATOM     21  C   UNL     1       2.043   1.271   2.239  1.00  0.00     0.063 A 
ATOM     22  C   UNL     1       2.614   2.384   2.883  1.00  0.00     0.049 A 
ATOM     23  C   UNL     1       1.037   0.555   2.909  1.00  0.00     0.066 A 
ATOM     24  C   UNL     1       2.158   2.817   4.131  1.00  0.00     0.061 A 
ATOM     25  C   UNL     1       0.566   1.005   4.152  1.00  0.00     0.044 A 
ATOM     26  Cl  UNL     1       0.424  -0.979   2.404  1.00  0.00    -0.082 Cl
ATOM     27  Cl  UNL     1       2.932   4.189   4.839  1.00  0.00    -0.083 Cl
ATOM     28  C   UNL     1       1.117   2.135   4.760  1.00  0.00     0.061 A 
ATOM     29  Cl  UNL     1       0.492   2.611   6.298  1.00  0.00    -0.083 Cl
ENDBRANCH  18  21
ENDBRANCH  10  15
ENDBRANCH   7   9
ENDBRANCH   6   7
ENDBRANCH   5   6
ENDBRANCH   4   5
ENDBRANCH   3   4
ENDBRANCH   2   3
ENDBRANCH   1   2
BRANCH   1  30
ATOM     30  O   UNL     1       6.394  -4.225   2.102  1.00  0.00    -0.376 OA
BRANCH  30  31
ATOM     31  C   UNL     1       6.407  -5.618   2.344  1.00  0.00     0.202 C 
BRANCH  31  32
ATOM     32  C   UNL     1       7.516  -6.589   1.895  1.00  0.00     0.261 C 
BRANCH  32  33
ATOM     33  O   UNL     1       8.432  -6.160   0.888  1.00  0.00    -0.460 OA
BRANCH  33  34
ATOM     34  C   UNL     1       8.121  -6.479  -0.390  1.00  0.00     0.338 C 
ATOM     35  O   UNL     1       7.105  -7.020  -0.786  1.00  0.00    -0.246 OA
BRANCH  34  36
ATOM     36  C   UNL     1       9.161  -5.903  -1.267  1.00  0.00     0.060 A 
ATOM     37  C   UNL     1       8.790  -4.931  -2.204  1.00  0.00     0.016 A 
ATOM     38  C   UNL     1      10.489  -6.327  -1.171  1.00  0.00     0.016 A 
ATOM     39  C   UNL     1       9.747  -4.399  -3.071  1.00  0.00     0.010 A 
ATOM     40  C   UNL     1      11.441  -5.806  -2.051  1.00  0.00     0.010 A 
ATOM     41  C   UNL     1      11.071  -4.859  -3.022  1.00  0.00    -0.014 A 
BRANCH  41  42
ATOM     42  C   UNL     1      12.033  -4.476  -4.085  1.00  0.00     0.031 A 
ATOM     43  C   UNL     1      12.233  -5.415  -5.244  1.00  0.00     0.074 A 
ATOM     44  C   UNL     1      12.729  -3.326  -4.015  1.00  0.00     0.049 A 
ATOM     45  N   UNL     1      13.065  -5.326  -6.248  1.00  0.00    -0.248 NA
ATOM     46  C   UNL     1      11.383  -6.617  -5.272  1.00  0.00     0.031 C 
ATOM     47  C   UNL     1      12.611  -2.328  -2.953  1.00  0.00     0.029 A 
ATOM     48  N   UNL     1      13.693  -2.816  -4.850  1.00  0.00    -0.354 N 
ATOM     49  C   UNL     1      12.855  -6.465  -7.016  1.00  0.00     0.074 A 
ATOM     50  C   UNL     1      11.822  -7.236  -6.359  1.00  0.00     0.031 C 
ATOM     51  C   UNL     1      13.490  -1.337  -3.187  1.00  0.00     0.029 A 
ATOM     52  C   UNL     1      14.251  -1.643  -4.398  1.00  0.00     0.049 A 
ATOM     53  H   UNL     1      13.959  -3.249  -5.693  1.00  0.00     0.167 HD
ATOM     54  C   UNL     1      13.467  -6.834  -8.164  1.00  0.00     0.037 A 
ATOM     55  C   UNL     1      15.278  -0.920  -4.889  1.00  0.00     0.037 A 
ATOM     56  C   UNL     1      14.484  -6.059  -8.825  1.00  0.00     0.049 A 
ATOM     57  C   UNL     1      15.972  -1.378  -6.150  1.00  0.00     0.074 A 
ATOM     58  C   UNL     1      15.122  -6.325 -10.024  1.00  0.00     0.029 A 
ATOM     59  N   UNL     1      15.020  -4.878  -8.338  1.00  0.00    -0.354 N 
ATOM     60  N   UNL     1      15.718  -2.425  -6.899  1.00  0.00    -0.248 NA
ATOM     61  C   UNL     1      17.091  -0.555  -6.633  1.00  0.00     0.031 C 
ATOM     62  C   UNL     1      16.079  -5.329 -10.239  1.00  0.00     0.029 A 
ATOM     63  C   UNL     1      16.002  -4.417  -9.198  1.00  0.00     0.049 A 
ATOM     64  H   UNL     1      14.743  -4.432  -7.505  1.00  0.00     0.167 HD
ATOM     65  C   UNL     1      16.624  -2.367  -7.954  1.00  0.00     0.074 A 
ATOM     66  C   UNL     1      17.426  -1.179  -7.753  1.00  0.00     0.031 C 
ATOM     67  C   UNL     1      16.778  -3.220  -8.997  1.00  0.00     0.037 A 
BRANCH  54  68
ATOM     68  C   UNL     1      13.078  -8.147  -8.779  1.00  0.00     0.058 A 
ATOM     69  C   UNL     1      11.865  -8.311  -9.465  1.00  0.00     0.135 A 
ATOM     70  C   UNL     1      13.965  -9.235  -8.742  1.00  0.00     0.135 A 
ATOM     71  F   UNL     1      10.973  -7.308  -9.512  1.00  0.00    -0.206 F 
ATOM     72  C   UNL     1      11.543  -9.510 -10.092  1.00  0.00     0.059 A 
ATOM     73  C   UNL     1      13.674 -10.436  -9.379  1.00  0.00     0.059 A 
ATOM     74  F   UNL     1      15.135  -9.130  -8.091  1.00  0.00    -0.206 F 
ATOM     75  C   UNL     1      12.457 -10.566 -10.048  1.00  0.00     0.060 A 
BRANCH  75  76
ATOM     76  S   UNL     1      12.044 -12.101 -10.902  1.00  0.00     0.124 S 
ATOM     77  O   UNL     1      11.023 -12.659 -10.020  1.00  0.00    -0.237 OA
ATOM     78  O   UNL     1      11.569 -11.620 -12.196  1.00  0.00    -0.237 OA
ATOM     79  O   UNL     1      13.311 -12.826 -10.932  1.00  0.00    -0.744 OA
ENDBRANCH  75  76
ENDBRANCH  54  68
BRANCH  55  80
ATOM     80  C   UNL     1      15.748   0.300  -4.180  1.00  0.00     0.058 A 
ATOM     81  C   UNL     1      15.591   1.575  -4.744  1.00  0.00     0.135 A 
ATOM     82  C   UNL     1      16.411   0.210  -2.946  1.00  0.00     0.135 A 
ATOM     83  F   UNL     1      14.975   1.712  -5.928  1.00  0.00    -0.206 F 
ATOM     84  C   UNL     1      16.103   2.713  -4.129  1.00  0.00     0.059 A 
ATOM     85  C   UNL     1      16.908   1.337  -2.297  1.00  0.00     0.059 A 
ATOM     86  F   UNL     1      16.579  -0.985  -2.358  1.00  0.00    -0.206 F 
ATOM     87  C   UNL     1      16.765   2.583  -2.907  1.00  0.00     0.060 A 
BRANCH  87  88
ATOM     88  S   UNL     1      17.420   4.065  -2.110  1.00  0.00     0.124 S 
ATOM     89  O   UNL     1      18.610   4.326  -2.911  1.00  0.00    -0.237 OA
ATOM     90  O   UNL     1      16.322   5.012  -2.269  1.00  0.00    -0.237 OA
ATOM     91  O   UNL     1      17.665   3.626  -0.739  1.00  0.00    -0.744 OA
ENDBRANCH  87  88
ENDBRANCH  55  80
BRANCH  67  92
ATOM     92  C   UNL     1      17.816  -2.883 -10.031  1.00  0.00     0.058 A 
ATOM     93  C   UNL     1      19.188  -3.039  -9.780  1.00  0.00     0.135 A 
ATOM     94  C   UNL     1      17.427  -2.461 -11.313  1.00  0.00     0.135 A 
ATOM     95  F   UNL     1      19.612  -3.434  -8.569  1.00  0.00    -0.206 F 
ATOM     96  C   UNL     1      20.140  -2.771 -10.759  1.00  0.00     0.059 A 
ATOM     97  C   UNL     1      18.361  -2.213 -12.315  1.00  0.00     0.059 A 
ATOM     98  F   UNL     1      16.127  -2.308 -11.609  1.00  0.00    -0.206 F 
ATOM     99  C   UNL     1      19.716  -2.361 -12.025  1.00  0.00     0.060 A 
BRANCH  99 100
ATOM    100  S   UNL     1      20.957  -2.057 -13.300  1.00  0.00     0.124 S 
ATOM    101  O   UNL     1      21.499  -0.769 -12.882  1.00  0.00    -0.237 OA
ATOM    102  O   UNL     1      21.852  -3.201 -13.148  1.00  0.00    -0.237 OA
ATOM    103  O   UNL     1      20.178  -2.040 -14.535  1.00  0.00    -0.744 OA
ENDBRANCH  99 100
ENDBRANCH  67  92
ENDBRANCH  41  42
ENDBRANCH  34  36
ENDBRANCH  33  34
ENDBRANCH  32  33
ENDBRANCH  31  32
ENDBRANCH  30  31
ENDBRANCH   1  30
TORSDOF 22
