REMARK SMILES COc1cc(Cl)cc(/C=C/C(=O)OCCOCCOCCOC(=O)c2ccc(-c3c4nc(c(-c5c(F)cc(S(=O)(=O)[O-])cc5F)c5ccc([nH]5)c(-c5c(F)cc(S(=O)(=O)[O-])cc5F)c5nc(c(-c6c(F)cc(S(=O)(=O)[O-])cc6F)c6ccc3[nH]6)C=C5)C=C4)cc2)c1OC
REMARK SMILES IDX 18 1 17 2 16 3 15 4 14 5 13 6 11 7 12 8 10 9 9 10 8 11 3 12
REMARK SMILES IDX 4 13 91 14 5 15 6 16 7 17 2 18 1 19 92 20 93 21 19 22 20 23
REMARK SMILES IDX 21 24 22 25 23 26 24 27 25 28 26 29 90 30 27 31 89 32 28 33
REMARK SMILES IDX 29 34 30 35 83 36 31 37 88 38 82 39 84 40 32 41 87 42 81 43
REMARK SMILES IDX 80 44 33 46 67 47 46 48 66 49 47 50 50 51 65 52 85 53 48 54
REMARK SMILES IDX 49 55 64 57 86 58 51 59 34 60 35 61 44 62 36 63 37 64 43 65
REMARK SMILES IDX 45 66 38 67 39 68 40 69 41 70 42 71 68 72 69 73 78 74 70 75
REMARK SMILES IDX 71 76 77 77 79 78 72 79 73 80 74 81 75 82 76 83 52 84 53 85
REMARK SMILES IDX 62 86 54 87 55 88 61 89 63 90 56 91 57 92 58 93 59 94 60 95
REMARK H PARENT 84 45 50 56
REMARK Flexibility Score: inf
ROOT
ATOM      1  C   UNL     1      -2.260   2.215  -7.981  1.00  0.00     0.188 C 
ENDROOT
BRANCH   1   2
ATOM      2  C   UNL     1      -1.847   1.715  -9.379  1.00  0.00     0.188 C 
BRANCH   2   3
ATOM      3  O   UNL     1      -2.834   1.318 -10.312  1.00  0.00    -0.376 OA
BRANCH   3   4
ATOM      4  C   UNL     1      -3.745   0.281  -9.989  1.00  0.00     0.202 C 
BRANCH   4   5
ATOM      5  C   UNL     1      -3.321  -0.984  -9.230  1.00  0.00     0.261 C 
BRANCH   5   6
ATOM      6  O   UNL     1      -2.463  -0.773  -8.101  1.00  0.00    -0.460 OA
BRANCH   6   7
ATOM      7  C   UNL     1      -1.266  -1.406  -8.168  1.00  0.00     0.330 C 
ATOM      8  O   UNL     1      -0.882  -2.131  -9.075  1.00  0.00    -0.247 OA
BRANCH   7   9
ATOM      9  C   UNL     1      -0.367  -1.056  -7.051  1.00  0.00     0.094 C 
ATOM     10  C   UNL     1      -0.736  -0.537  -5.869  1.00  0.00     0.019 C 
BRANCH  10  11
ATOM     11  C   UNL     1       0.237  -0.246  -4.792  1.00  0.00     0.022 A 
ATOM     12  C   UNL     1       0.912  -0.296  -2.442  1.00  0.00     0.162 A 
ATOM     13  C   UNL     1       2.155   0.242  -2.800  1.00  0.00     0.071 A 
ATOM     14  C   UNL     1      -0.063  -0.535  -3.436  1.00  0.00     0.168 A 
ATOM     15  C   UNL     1       2.419   0.575  -4.124  1.00  0.00     0.045 A 
ATOM     16  Cl  UNL     1       3.947   1.245  -4.544  1.00  0.00    -0.084 Cl
ATOM     17  C   UNL     1       1.470   0.345  -5.114  1.00  0.00     0.032 A 
BRANCH  12  18
ATOM     18  O   UNL     1       0.671  -0.700  -1.152  1.00  0.00    -0.493 OA
ATOM     19  C   UNL     1       1.172   0.167  -0.137  1.00  0.00     0.278 C 
ENDBRANCH  12  18
BRANCH  14  20
ATOM     20  O   UNL     1      -1.310  -1.079  -3.231  1.00  0.00    -0.492 OA
ATOM     21  C   UNL     1      -1.873  -1.011  -1.929  1.00  0.00     0.278 C 
ENDBRANCH  14  20
ENDBRANCH  10  11
ENDBRANCH   7   9
ENDBRANCH   6   7
ENDBRANCH   5   6
ENDBRANCH   4   5
ENDBRANCH   3   4
ENDBRANCH   2   3
ENDBRANCH   1   2
BRANCH   1  22
ATOM     22  O   UNL     1      -3.605   2.101  -7.579  1.00  0.00    -0.376 OA
BRANCH  22  23
ATOM     23  C   UNL     1      -4.597   2.985  -8.073  1.00  0.00     0.202 C 
BRANCH  23  24
ATOM     24  C   UNL     1      -4.353   4.298  -8.838  1.00  0.00     0.261 C 
BRANCH  24  25
ATOM     25  O   UNL     1      -3.084   4.491  -9.457  1.00  0.00    -0.460 OA
BRANCH  25  26
ATOM     26  C   UNL     1      -2.275   5.384  -8.843  1.00  0.00     0.338 C 
ATOM     27  O   UNL     1      -2.494   5.988  -7.797  1.00  0.00    -0.246 OA
BRANCH  26  28
ATOM     28  C   UNL     1      -0.982   5.412  -9.539  1.00  0.00     0.060 A 
ATOM     29  C   UNL     1       0.155   4.949  -8.865  1.00  0.00     0.016 A 
ATOM     30  C   UNL     1      -0.888   5.928 -10.832  1.00  0.00     0.016 A 
ATOM     31  C   UNL     1       1.403   5.019  -9.482  1.00  0.00     0.010 A 
ATOM     32  C   UNL     1       0.365   6.015 -11.440  1.00  0.00     0.010 A 
ATOM     33  C   UNL     1       1.518   5.586 -10.758  1.00  0.00    -0.014 A 
BRANCH  33  34
ATOM     34  C   UNL     1       2.857   5.887 -11.316  1.00  0.00     0.031 A 
ATOM     35  C   UNL     1       3.399   7.282 -11.166  1.00  0.00     0.074 A 
ATOM     36  C   UNL     1       3.576   4.941 -11.944  1.00  0.00     0.049 A 
ATOM     37  N   UNL     1       4.511   7.794 -11.623  1.00  0.00    -0.248 NA
ATOM     38  C   UNL     1       2.569   8.226 -10.400  1.00  0.00     0.031 C 
ATOM     39  C   UNL     1       3.175   3.545 -12.111  1.00  0.00     0.029 A 
ATOM     40  N   UNL     1       4.795   5.019 -12.569  1.00  0.00    -0.354 N 
ATOM     41  C   UNL     1       4.509   9.123 -11.216  1.00  0.00     0.074 A 
ATOM     42  C   UNL     1       3.276   9.343 -10.492  1.00  0.00     0.031 C 
ATOM     43  C   UNL     1       4.131   2.898 -12.801  1.00  0.00     0.029 A 
ATOM     44  C   UNL     1       5.191   3.841 -13.155  1.00  0.00     0.049 A 
ATOM     45  H   UNL     1       5.336   5.842 -12.594  1.00  0.00     0.167 HD
ATOM     46  C   UNL     1       5.452  10.072 -11.425  1.00  0.00     0.037 A 
ATOM     47  C   UNL     1       6.274   3.566 -13.909  1.00  0.00     0.037 A 
ATOM     48  C   UNL     1       6.676   9.845 -12.148  1.00  0.00     0.049 A 
ATOM     49  C   UNL     1       7.272   4.660 -14.194  1.00  0.00     0.074 A 
ATOM     50  C   UNL     1       7.710  10.732 -12.388  1.00  0.00     0.029 A 
ATOM     51  N   UNL     1       7.024   8.649 -12.760  1.00  0.00    -0.354 N 
ATOM     52  N   UNL     1       7.277   5.904 -13.778  1.00  0.00    -0.248 NA
ATOM     53  C   UNL     1       8.412   4.312 -15.056  1.00  0.00     0.031 C 
ATOM     54  C   UNL     1       8.657  10.089 -13.192  1.00  0.00     0.029 A 
ATOM     55  C   UNL     1       8.242   8.784 -13.405  1.00  0.00     0.049 A 
ATOM     56  H   UNL     1       6.484   7.826 -12.738  1.00  0.00     0.167 HD
ATOM     57  C   UNL     1       8.436   6.476 -14.296  1.00  0.00     0.074 A 
ATOM     58  C   UNL     1       9.107   5.442 -15.055  1.00  0.00     0.031 C 
ATOM     59  C   UNL     1       8.905   7.741 -14.149  1.00  0.00     0.037 A 
BRANCH  46  60
ATOM     60  C   UNL     1       5.173  11.453 -10.900  1.00  0.00     0.058 A 
ATOM     61  C   UNL     1       5.184  11.743  -9.526  1.00  0.00     0.135 A 
ATOM     62  C   UNL     1       4.898  12.505 -11.788  1.00  0.00     0.135 A 
ATOM     63  F   UNL     1       5.423  10.771  -8.631  1.00  0.00    -0.206 F 
ATOM     64  C   UNL     1       4.899  13.019  -9.050  1.00  0.00     0.059 A 
ATOM     65  C   UNL     1       4.638  13.795 -11.337  1.00  0.00     0.059 A 
ATOM     66  F   UNL     1       4.871  12.282 -13.112  1.00  0.00    -0.206 F 
ATOM     67  C   UNL     1       4.623  14.038  -9.964  1.00  0.00     0.060 A 
BRANCH  67  68
ATOM     68  S   UNL     1       4.240  15.685  -9.332  1.00  0.00     0.124 S 
ATOM     69  O   UNL     1       2.895  15.486  -8.800  1.00  0.00    -0.237 OA
ATOM     70  O   UNL     1       5.290  15.890  -8.339  1.00  0.00    -0.237 OA
ATOM     71  O   UNL     1       4.327  16.533 -10.517  1.00  0.00    -0.744 OA
ENDBRANCH  67  68
ENDBRANCH  46  60
BRANCH  47  72
ATOM     72  C   UNL     1       6.477   2.195 -14.450  1.00  0.00     0.058 A 
ATOM     73  C   UNL     1       7.514   1.380 -13.973  1.00  0.00     0.135 A 
ATOM     74  C   UNL     1       5.645   1.673 -15.454  1.00  0.00     0.135 A 
ATOM     75  F   UNL     1       8.345   1.839 -13.025  1.00  0.00    -0.206 F 
ATOM     76  C   UNL     1       7.727   0.101 -14.477  1.00  0.00     0.059 A 
ATOM     77  C   UNL     1       5.823   0.388 -15.956  1.00  0.00     0.059 A 
ATOM     78  F   UNL     1       4.635   2.411 -15.941  1.00  0.00    -0.206 F 
ATOM     79  C   UNL     1       6.873  -0.388 -15.467  1.00  0.00     0.060 A 
BRANCH  79  80
ATOM     80  S   UNL     1       7.132  -2.067 -16.079  1.00  0.00     0.124 S 
ATOM     81  O   UNL     1       8.347  -1.909 -16.869  1.00  0.00    -0.237 OA
ATOM     82  O   UNL     1       7.271  -2.826 -14.839  1.00  0.00    -0.237 OA
ATOM     83  O   UNL     1       5.915  -2.339 -16.839  1.00  0.00    -0.744 OA
ENDBRANCH  79  80
ENDBRANCH  47  72
BRANCH  59  84
ATOM     84  C   UNL     1      10.229   8.073 -14.782  1.00  0.00     0.058 A 
ATOM     85  C   UNL     1      10.372   8.226 -16.169  1.00  0.00     0.135 A 
ATOM     86  C   UNL     1      11.358   8.306 -13.979  1.00  0.00     0.135 A 
ATOM     87  F   UNL     1       9.327   8.009 -16.984  1.00  0.00    -0.206 F 
ATOM     88  C   UNL     1      11.591   8.579 -16.740  1.00  0.00     0.059 A 
ATOM     89  C   UNL     1      12.580   8.687 -14.525  1.00  0.00     0.059 A 
ATOM     90  F   UNL     1      11.275   8.185 -12.644  1.00  0.00    -0.206 F 
ATOM     91  C   UNL     1      12.689   8.812 -15.909  1.00  0.00     0.060 A 
BRANCH  91  92
ATOM     92  S   UNL     1      14.254   9.313 -16.658  1.00  0.00     0.124 S 
ATOM     93  O   UNL     1      14.709   8.061 -17.253  1.00  0.00    -0.237 OA
ATOM     94  O   UNL     1      13.833  10.346 -17.600  1.00  0.00    -0.237 OA
ATOM     95  O   UNL     1      15.037   9.790 -15.523  1.00  0.00    -0.744 OA
ENDBRANCH  91  92
ENDBRANCH  59  84
ENDBRANCH  33  34
ENDBRANCH  26  28
ENDBRANCH  25  26
ENDBRANCH  24  25
ENDBRANCH  23  24
ENDBRANCH  22  23
ENDBRANCH   1  22
TORSDOF 23
