REMARK SMILES O=C(OCCOCCOCCOC(=O)c1cc(Br)cc2c1OCC2)c1ccc(-c2c3nc(c(-c4c(F)cc(S(=O)(=O)[O-])cc4F)c4ccc([nH]4)c(-c4c(F)cc(S(=O)(=O)[O-])cc4F)c4nc(c(-c5c(F)cc(S(=O)(=O)[O-])cc5F)c5ccc2[nH]5)C=C4)C=C3)cc1
REMARK SMILES IDX 6 1 5 2 4 3 3 4 2 5 1 6 25 7 26 8 90 9 27 10 89 11 28 12
REMARK SMILES IDX 29 13 30 14 83 15 31 16 88 17 82 18 84 19 32 20 87 21 81 22
REMARK SMILES IDX 80 23 33 25 67 26 46 27 66 28 47 29 50 30 65 31 85 32 48 33
REMARK SMILES IDX 49 34 64 36 86 37 51 38 34 39 35 40 44 41 36 42 37 43 43 44
REMARK SMILES IDX 45 45 38 46 39 47 40 48 41 49 42 50 68 51 69 52 78 53 70 54
REMARK SMILES IDX 71 55 77 56 79 57 72 58 73 59 74 60 75 61 76 62 52 63 53 64
REMARK SMILES IDX 62 65 54 66 55 67 61 68 63 69 56 70 57 71 58 72 59 73 60 74
REMARK SMILES IDX 7 75 8 76 9 77 10 78 11 79 12 80 13 81 14 82 15 83 16 84
REMARK SMILES IDX 21 85 17 86 20 87 22 88 18 89 19 90 24 91 23 92
REMARK H PARENT 84 24 50 35
REMARK Flexibility Score: inf
ROOT
ATOM      1  O   UNL     1       3.839  -1.084  -1.167  1.00  0.00    -0.376 OA
ENDROOT
BRANCH   1   2
ATOM      2  C   UNL     1       4.661  -1.606  -0.122  1.00  0.00     0.202 C 
BRANCH   2   3
ATOM      3  C   UNL     1       4.466  -0.908   1.228  1.00  0.00     0.261 C 
BRANCH   3   4
ATOM      4  O   UNL     1       3.081  -0.610   1.472  1.00  0.00    -0.460 OA
BRANCH   4   5
ATOM      5  C   UNL     1       2.452   0.577   1.278  1.00  0.00     0.338 C 
ATOM      6  O   UNL     1       1.248   0.661   1.517  1.00  0.00    -0.246 OA
BRANCH   5   7
ATOM      7  C   UNL     1       3.167   1.819   0.861  1.00  0.00     0.060 A 
ATOM      8  C   UNL     1       4.221   1.862  -0.053  1.00  0.00     0.016 A 
ATOM      9  C   UNL     1       2.679   3.036   1.367  1.00  0.00     0.016 A 
ATOM     10  C   UNL     1       4.871   3.059  -0.343  1.00  0.00     0.010 A 
ATOM     11  C   UNL     1       3.274   4.252   1.012  1.00  0.00     0.010 A 
ATOM     12  C   UNL     1       4.411   4.262   0.196  1.00  0.00    -0.014 A 
BRANCH  12  13
ATOM     13  C   UNL     1       5.199   5.499  -0.012  1.00  0.00     0.031 A 
ATOM     14  C   UNL     1       5.932   6.096   1.158  1.00  0.00     0.074 A 
ATOM     15  C   UNL     1       5.330   6.025  -1.244  1.00  0.00     0.049 A 
ATOM     16  N   UNL     1       6.646   7.188   1.219  1.00  0.00    -0.248 NA
ATOM     17  C   UNL     1       5.852   5.359   2.432  1.00  0.00     0.031 C 
ATOM     18  C   UNL     1       4.726   5.486  -2.465  1.00  0.00     0.029 A 
ATOM     19  N   UNL     1       6.035   7.118  -1.679  1.00  0.00    -0.354 N 
ATOM     20  C   UNL     1       7.080   7.282   2.536  1.00  0.00     0.074 A 
ATOM     21  C   UNL     1       6.534   6.149   3.248  1.00  0.00     0.031 C 
ATOM     22  C   UNL     1       5.104   6.238  -3.511  1.00  0.00     0.029 A 
ATOM     23  C   UNL     1       5.934   7.336  -3.032  1.00  0.00     0.049 A 
ATOM     24  H   UNL     1       6.562   7.692  -1.078  1.00  0.00     0.167 HD
ATOM     25  C   UNL     1       7.869   8.226   3.100  1.00  0.00     0.037 A 
ATOM     26  C   UNL     1       6.441   8.323  -3.795  1.00  0.00     0.037 A 
ATOM     27  C   UNL     1       8.418   9.342   2.379  1.00  0.00     0.049 A 
ATOM     28  C   UNL     1       7.271   9.388  -3.138  1.00  0.00     0.074 A 
ATOM     29  C   UNL     1       9.194  10.383   2.854  1.00  0.00     0.029 A 
ATOM     30  N   UNL     1       8.252   9.553   1.017  1.00  0.00    -0.354 N 
ATOM     31  N   UNL     1       7.619   9.498  -1.878  1.00  0.00    -0.248 NA
ATOM     32  C   UNL     1       7.766  10.468  -4.002  1.00  0.00     0.031 C 
ATOM     33  C   UNL     1       9.477  11.238   1.782  1.00  0.00     0.029 A 
ATOM     34  C   UNL     1       8.903  10.712   0.635  1.00  0.00     0.049 A 
ATOM     35  H   UNL     1       7.745   8.964   0.412  1.00  0.00     0.167 HD
ATOM     36  C   UNL     1       8.375  10.660  -1.796  1.00  0.00     0.074 A 
ATOM     37  C   UNL     1       8.449  11.206  -3.137  1.00  0.00     0.031 C 
ATOM     38  C   UNL     1       8.950  11.230  -0.709  1.00  0.00     0.037 A 
BRANCH  25  39
ATOM     39  C   UNL     1       8.137   8.100   4.572  1.00  0.00     0.058 A 
ATOM     40  C   UNL     1       9.017   7.132   5.082  1.00  0.00     0.135 A 
ATOM     41  C   UNL     1       7.473   8.931   5.487  1.00  0.00     0.135 A 
ATOM     42  F   UNL     1       9.655   6.293   4.251  1.00  0.00    -0.206 F 
ATOM     43  C   UNL     1       9.201   6.968   6.452  1.00  0.00     0.059 A 
ATOM     44  C   UNL     1       7.657   8.799   6.860  1.00  0.00     0.059 A 
ATOM     45  F   UNL     1       6.614   9.866   5.051  1.00  0.00    -0.206 F 
ATOM     46  C   UNL     1       8.507   7.800   7.333  1.00  0.00     0.060 A 
BRANCH  46  47
ATOM     47  S   UNL     1       8.718   7.550   9.109  1.00  0.00     0.124 S 
ATOM     48  O   UNL     1       7.905   6.358   9.330  1.00  0.00    -0.237 OA
ATOM     49  O   UNL     1      10.160   7.364   9.232  1.00  0.00    -0.237 OA
ATOM     50  O   UNL     1       8.196   8.783   9.689  1.00  0.00    -0.744 OA
ENDBRANCH  46  47
ENDBRANCH  25  39
BRANCH  26  51
ATOM     51  C   UNL     1       6.146   8.374  -5.249  1.00  0.00     0.058 A 
ATOM     52  C   UNL     1       7.115   8.030  -6.201  1.00  0.00     0.135 A 
ATOM     53  C   UNL     1       4.883   8.774  -5.712  1.00  0.00     0.135 A 
ATOM     54  F   UNL     1       8.341   7.655  -5.805  1.00  0.00    -0.206 F 
ATOM     55  C   UNL     1       6.844   8.081  -7.566  1.00  0.00     0.059 A 
ATOM     56  C   UNL     1       4.588   8.829  -7.070  1.00  0.00     0.059 A 
ATOM     57  F   UNL     1       3.918   9.096  -4.837  1.00  0.00    -0.206 F 
ATOM     58  C   UNL     1       5.576   8.481  -7.991  1.00  0.00     0.060 A 
BRANCH  58  59
ATOM     59  S   UNL     1       5.199   8.479  -9.758  1.00  0.00     0.124 S 
ATOM     60  O   UNL     1       5.757   9.759 -10.176  1.00  0.00    -0.237 OA
ATOM     61  O   UNL     1       5.907   7.292 -10.229  1.00  0.00    -0.237 OA
ATOM     62  O   UNL     1       3.743   8.382  -9.788  1.00  0.00    -0.744 OA
ENDBRANCH  58  59
ENDBRANCH  26  51
BRANCH  38  63
ATOM     63  C   UNL     1       9.709  12.502  -0.934  1.00  0.00     0.058 A 
ATOM     64  C   UNL     1       9.045  13.725  -1.099  1.00  0.00     0.135 A 
ATOM     65  C   UNL     1      11.112  12.501  -0.937  1.00  0.00     0.135 A 
ATOM     66  F   UNL     1       7.703  13.770  -1.112  1.00  0.00    -0.206 F 
ATOM     67  C   UNL     1       9.748  14.911  -1.274  1.00  0.00     0.059 A 
ATOM     68  C   UNL     1      11.836  13.678  -1.091  1.00  0.00     0.059 A 
ATOM     69  F   UNL     1      11.789  11.353  -0.776  1.00  0.00    -0.206 F 
ATOM     70  C   UNL     1      11.144  14.876  -1.268  1.00  0.00     0.060 A 
BRANCH  70  71
ATOM     71  S   UNL     1      12.052  16.425  -1.453  1.00  0.00     0.124 S 
ATOM     72  O   UNL     1      11.963  16.646  -2.892  1.00  0.00    -0.237 OA
ATOM     73  O   UNL     1      11.280  17.344  -0.621  1.00  0.00    -0.237 OA
ATOM     74  O   UNL     1      13.381  16.099  -0.946  1.00  0.00    -0.744 OA
ENDBRANCH  70  71
ENDBRANCH  38  63
ENDBRANCH  12  13
ENDBRANCH   5   7
ENDBRANCH   4   5
ENDBRANCH   3   4
ENDBRANCH   2   3
ENDBRANCH   1   2
BRANCH   1  75
ATOM     75  C   UNL     1       2.581  -1.756  -1.313  1.00  0.00     0.188 C 
BRANCH  75  76
ATOM     76  C   UNL     1       2.072  -1.651  -2.753  1.00  0.00     0.188 C 
BRANCH  76  77
ATOM     77  O   UNL     1       2.797  -2.442  -3.700  1.00  0.00    -0.376 OA
BRANCH  77  78
ATOM     78  C   UNL     1       4.153  -2.067  -3.932  1.00  0.00     0.202 C 
BRANCH  78  79
ATOM     79  C   UNL     1       4.391  -0.826  -4.801  1.00  0.00     0.261 C 
BRANCH  79  80
ATOM     80  O   UNL     1       3.792   0.389  -4.318  1.00  0.00    -0.460 OA
BRANCH  80  81
ATOM     81  C   UNL     1       2.748   0.829  -5.066  1.00  0.00     0.342 C 
ATOM     82  O   UNL     1       2.217   0.252  -6.002  1.00  0.00    -0.246 OA
BRANCH  81  83
ATOM     83  C   UNL     1       2.408   2.214  -4.729  1.00  0.00     0.103 A 
ATOM     84  C   UNL     1       2.745   3.200  -5.665  1.00  0.00     0.035 A 
ATOM     85  C   UNL     1       1.605   2.559  -3.654  1.00  0.00     0.137 A 
ATOM     86  C   UNL     1       2.265   4.505  -5.506  1.00  0.00     0.019 A 
ATOM     87  C   UNL     1       1.147   3.861  -3.500  1.00  0.00    -0.000 A 
ATOM     88  O   UNL     1       1.106   1.701  -2.710  1.00  0.00    -0.492 OA
ATOM     89  Br  UNL     1       2.620   5.782  -6.848  1.00  0.00    -0.051 Br
ATOM     90  C   UNL     1       1.468   4.853  -4.415  1.00  0.00     0.023 A 
ATOM     91  C   UNL     1       0.211   3.942  -2.358  1.00  0.00     0.081 C 
ATOM     92  C   UNL     1       0.401   2.546  -1.770  1.00  0.00     0.234 C 
ENDBRANCH  81  83
ENDBRANCH  80  81
ENDBRANCH  79  80
ENDBRANCH  78  79
ENDBRANCH  77  78
ENDBRANCH  76  77
ENDBRANCH  75  76
ENDBRANCH   1  75
TORSDOF 20
