REMARK SMILES C[C@@H]1SCCC[C@]1(CC(=O)OCCOCCOCCOC(=O)c1ccc(-c2c3nc(c(-c4c(F)cc(S(=O)(=O)[O-])cc4F)c4ccc([nH]4)c(-c4c(F)cc(S(=O)(=O)[O-])cc4F)c4nc(c(-c5c(F)cc(S(=O)(=O)[O-])cc5F)c5ccc2[nH]5)C=C4)C=C3)cc1)C(C)(C)[NH3+]
REMARK SMILES IDX 15 1 14 2 13 3 12 4 11 5 9 6 10 7 8 8 7 9 1 10 2 11 3 12
REMARK SMILES IDX 4 13 6 14 5 15 89 16 90 17 91 18 92 19 16 23 17 24 18 25
REMARK SMILES IDX 19 26 20 27 21 28 22 29 23 30 24 31 88 32 25 33 87 34 26 35
REMARK SMILES IDX 27 36 28 37 81 38 29 39 86 40 80 41 82 42 30 43 85 44 79 45
REMARK SMILES IDX 78 46 31 48 65 49 44 50 64 51 45 52 48 53 63 54 83 55 46 56
REMARK SMILES IDX 47 57 62 59 84 60 49 61 32 62 33 63 42 64 34 65 35 66 41 67
REMARK SMILES IDX 43 68 36 69 37 70 38 71 39 72 40 73 66 74 67 75 76 76 68 77
REMARK SMILES IDX 69 78 75 79 77 80 70 81 71 82 72 83 73 84 74 85 50 86 51 87
REMARK SMILES IDX 60 88 52 89 53 90 59 91 61 92 54 93 55 94 56 95 57 96 58 97
REMARK H PARENT 92 20 92 21 92 22 82 47 48 58
REMARK Flexibility Score: inf
ROOT
ATOM      1  C   UNL     1       1.405   3.982   5.115  1.00  0.00     0.188 C 
ENDROOT
BRANCH   1   2
ATOM      2  O   UNL     1       0.476   3.562   6.102  1.00  0.00    -0.376 OA
BRANCH   2   3
ATOM      3  C   UNL     1      -0.353   2.452   5.759  1.00  0.00     0.202 C 
BRANCH   3   4
ATOM      4  C   UNL     1      -1.077   2.511   4.400  1.00  0.00     0.261 C 
BRANCH   4   5
ATOM      5  O   UNL     1      -0.203   2.534   3.236  1.00  0.00    -0.463 OA
BRANCH   5   6
ATOM      6  C   UNL     1      -0.651   3.293   2.191  1.00  0.00     0.306 C 
ATOM      7  O   UNL     1      -1.733   3.874   2.190  1.00  0.00    -0.252 OA
BRANCH   6   8
ATOM      8  C   UNL     1       0.387   3.536   1.082  1.00  0.00     0.137 C 
BRANCH   8   9
ATOM      9  C   UNL     1       0.945   2.418   0.070  1.00  0.00     0.046 C 
ATOM     10  C   UNL     1       0.770  -0.230  -0.249  1.00  0.00     0.020 C 
ATOM     11  C   UNL     1       0.220   1.049   0.382  1.00  0.00     0.056 C 
ATOM     12  S   UNL     1      -1.582   1.074  -0.025  1.00  0.00    -0.158 SA
ATOM     13  C   UNL     1      -1.494   1.592  -1.754  1.00  0.00     0.070 C 
ATOM     14  C   UNL     1       0.646   2.884  -1.401  1.00  0.00     0.016 C 
ATOM     15  C   UNL     1      -0.802   2.933  -1.862  1.00  0.00     0.012 C 
BRANCH   9  16
ATOM     16  C   UNL     1       2.575   2.370   0.155  1.00  0.00     0.096 C 
ATOM     17  C   UNL     1       3.342   1.477  -0.855  1.00  0.00     0.079 C 
ATOM     18  C   UNL     1       3.232   3.769  -0.036  1.00  0.00     0.079 C 
BRANCH  16  19
ATOM     19  N   UNL     1       2.945   1.873   1.472  1.00  0.00    -0.353 N 
ATOM     20  H   UNL     1       2.525   0.955   1.619  1.00  0.00     0.344 HD
ATOM     21  H   UNL     1       2.609   2.519   2.186  1.00  0.00     0.344 HD
ATOM     22  H   UNL     1       3.960   1.796   1.533  1.00  0.00     0.344 HD
ENDBRANCH  16  19
ENDBRANCH   9  16
ENDBRANCH   8   9
ENDBRANCH   6   8
ENDBRANCH   5   6
ENDBRANCH   4   5
ENDBRANCH   3   4
ENDBRANCH   2   3
ENDBRANCH   1   2
BRANCH   1  23
ATOM     23  C   UNL     1       2.416   2.938   4.615  1.00  0.00     0.188 C 
BRANCH  23  24
ATOM     24  O   UNL     1       2.183   1.612   5.073  1.00  0.00    -0.376 OA
BRANCH  24  25
ATOM     25  C   UNL     1       3.092   0.614   4.624  1.00  0.00     0.202 C 
BRANCH  25  26
ATOM     26  C   UNL     1       4.439   0.645   5.354  1.00  0.00     0.261 C 
BRANCH  26  27
ATOM     27  O   UNL     1       5.192   1.858   5.158  1.00  0.00    -0.460 OA
BRANCH  27  28
ATOM     28  C   UNL     1       5.571   2.129   3.887  1.00  0.00     0.338 C 
ATOM     29  O   UNL     1       5.497   1.385   2.926  1.00  0.00    -0.246 OA
BRANCH  28  30
ATOM     30  C   UNL     1       5.868   3.576   3.784  1.00  0.00     0.060 A 
ATOM     31  C   UNL     1       5.132   4.319   2.858  1.00  0.00     0.016 A 
ATOM     32  C   UNL     1       6.838   4.205   4.556  1.00  0.00     0.016 A 
ATOM     33  C   UNL     1       5.416   5.659   2.614  1.00  0.00     0.010 A 
ATOM     34  C   UNL     1       7.107   5.564   4.337  1.00  0.00     0.010 A 
ATOM     35  C   UNL     1       6.432   6.290   3.332  1.00  0.00    -0.014 A 
BRANCH  35  36
ATOM     36  C   UNL     1       6.901   7.645   2.934  1.00  0.00     0.031 A 
ATOM     37  C   UNL     1       8.284   7.780   2.352  1.00  0.00     0.074 A 
ATOM     38  C   UNL     1       6.116   8.735   3.046  1.00  0.00     0.049 A 
ATOM     39  N   UNL     1       8.990   8.855   2.122  1.00  0.00    -0.248 NA
ATOM     40  C   UNL     1       8.963   6.525   1.987  1.00  0.00     0.031 C 
ATOM     41  C   UNL     1       4.722   8.740   3.488  1.00  0.00     0.029 A 
ATOM     42  N   UNL     1       6.392  10.059   2.802  1.00  0.00    -0.354 N 
ATOM     43  C   UNL     1      10.213   8.406   1.635  1.00  0.00     0.074 A 
ATOM     44  C   UNL     1      10.156   6.961   1.614  1.00  0.00     0.031 C 
ATOM     45  C   UNL     1       4.269  10.005   3.495  1.00  0.00     0.029 A 
ATOM     46  C   UNL     1       5.359  10.907   3.129  1.00  0.00     0.049 A 
ATOM     47  H   UNL     1       7.248  10.372   2.430  1.00  0.00     0.167 HD
ATOM     48  C   UNL     1      11.285   9.134   1.243  1.00  0.00     0.037 A 
ATOM     49  C   UNL     1       5.312  12.254   3.177  1.00  0.00     0.037 A 
ATOM     50  C   UNL     1      11.318  10.573   1.234  1.00  0.00     0.049 A 
ATOM     51  C   UNL     1       6.546  13.047   2.822  1.00  0.00     0.074 A 
ATOM     52  C   UNL     1      12.357  11.408   0.860  1.00  0.00     0.029 A 
ATOM     53  N   UNL     1      10.263  11.393   1.610  1.00  0.00    -0.354 N 
ATOM     54  N   UNL     1       7.718  12.615   2.419  1.00  0.00    -0.248 NA
ATOM     55  C   UNL     1       6.456  14.509   2.941  1.00  0.00     0.031 C 
ATOM     56  C   UNL     1      11.948  12.730   1.058  1.00  0.00     0.029 A 
ATOM     57  C   UNL     1      10.633  12.722   1.495  1.00  0.00     0.049 A 
ATOM     58  H   UNL     1       9.382  11.076   1.913  1.00  0.00     0.167 HD
ATOM     59  C   UNL     1       8.492  13.753   2.205  1.00  0.00     0.074 A 
ATOM     60  C   UNL     1       7.652  14.891   2.514  1.00  0.00     0.031 C 
ATOM     61  C   UNL     1       9.779  13.847   1.789  1.00  0.00     0.037 A 
BRANCH  48  62
ATOM     62  C   UNL     1      12.525   8.387   0.834  1.00  0.00     0.058 A 
ATOM     63  C   UNL     1      12.595   7.648  -0.357  1.00  0.00     0.135 A 
ATOM     64  C   UNL     1      13.673   8.433   1.642  1.00  0.00     0.135 A 
ATOM     65  F   UNL     1      11.521   7.549  -1.157  1.00  0.00    -0.206 F 
ATOM     66  C   UNL     1      13.749   6.959  -0.719  1.00  0.00     0.059 A 
ATOM     67  C   UNL     1      14.848   7.779   1.285  1.00  0.00     0.059 A 
ATOM     68  F   UNL     1      13.661   9.121   2.795  1.00  0.00    -0.206 F 
ATOM     69  C   UNL     1      14.871   7.032   0.109  1.00  0.00     0.060 A 
BRANCH  69  70
ATOM     70  S   UNL     1      16.361   6.135  -0.376  1.00  0.00     0.124 S 
ATOM     71  O   UNL     1      15.952   4.751  -0.153  1.00  0.00    -0.237 OA
ATOM     72  O   UNL     1      16.522   6.531  -1.771  1.00  0.00    -0.237 OA
ATOM     73  O   UNL     1      17.378   6.643   0.539  1.00  0.00    -0.744 OA
ENDBRANCH  69  70
ENDBRANCH  48  62
BRANCH  49  74
ATOM     74  C   UNL     1       4.071  12.948   3.624  1.00  0.00     0.058 A 
ATOM     75  C   UNL     1       3.331  13.752   2.744  1.00  0.00     0.135 A 
ATOM     76  C   UNL     1       3.609  12.836   4.946  1.00  0.00     0.135 A 
ATOM     77  F   UNL     1       3.739  13.908   1.475  1.00  0.00    -0.206 F 
ATOM     78  C   UNL     1       2.189  14.431   3.159  1.00  0.00     0.059 A 
ATOM     79  C   UNL     1       2.452  13.479   5.376  1.00  0.00     0.059 A 
ATOM     80  F   UNL     1       4.275  12.078   5.830  1.00  0.00    -0.206 F 
ATOM     81  C   UNL     1       1.756  14.285   4.478  1.00  0.00     0.060 A 
BRANCH  81  82
ATOM     82  S   UNL     1       0.250  15.139   4.993  1.00  0.00     0.124 S 
ATOM     83  O   UNL     1       0.695  16.527   5.026  1.00  0.00    -0.237 OA
ATOM     84  O   UNL     1      -0.679  14.791   3.923  1.00  0.00    -0.237 OA
ATOM     85  O   UNL     1      -0.048  14.540   6.291  1.00  0.00    -0.744 OA
ENDBRANCH  81  82
ENDBRANCH  49  74
BRANCH  61  86
ATOM     86  C   UNL     1      10.350  15.226   1.585  1.00  0.00     0.058 A 
ATOM     87  C   UNL     1      10.663  16.069   2.663  1.00  0.00     0.135 A 
ATOM     88  C   UNL     1      10.644  15.684   0.290  1.00  0.00     0.135 A 
ATOM     89  F   UNL     1      10.399  15.683   3.921  1.00  0.00    -0.206 F 
ATOM     90  C   UNL     1      11.225  17.326   2.463  1.00  0.00     0.059 A 
ATOM     91  C   UNL     1      11.235  16.924   0.068  1.00  0.00     0.059 A 
ATOM     92  F   UNL     1      10.376  14.914  -0.777  1.00  0.00    -0.206 F 
ATOM     93  C   UNL     1      11.511  17.743   1.161  1.00  0.00     0.060 A 
BRANCH  93  94
ATOM     94  S   UNL     1      12.276  19.360   0.918  1.00  0.00     0.124 S 
ATOM     95  O   UNL     1      11.166  20.259   1.219  1.00  0.00    -0.237 OA
ATOM     96  O   UNL     1      13.360  19.342   1.896  1.00  0.00    -0.237 OA
ATOM     97  O   UNL     1      12.700  19.331  -0.478  1.00  0.00    -0.744 OA
ENDBRANCH  93  94
ENDBRANCH  61  86
ENDBRANCH  35  36
ENDBRANCH  28  30
ENDBRANCH  27  28
ENDBRANCH  26  27
ENDBRANCH  25  26
ENDBRANCH  24  25
ENDBRANCH  23  24
ENDBRANCH   1  23
TORSDOF 23
