REMARK SMILES C[C@H]1SC[C@H](C(=O)OCCOCCOCCOC(=O)c2ccc(-c3c4nc(c(-c5c(F)cc(S(=O)(=O)[O-])cc5F)c5ccc([nH]5)c(-c5c(F)cc(S(=O)(=O)[O-])cc5F)c5nc(c(-c6c(F)cc(S(=O)(=O)[O-])cc6F)c6ccc3[nH]6)C=C5)C=C4)cc2)N1C(=O)[C@@H]1CSc2ccccc21
REMARK SMILES IDX 13 1 12 2 11 3 10 4 9 5 8 6 6 7 7 8 5 9 1 10 2 11 3 12 86 13
REMARK SMILES IDX 4 14 87 15 88 16 89 17 90 18 97 19 91 20 92 21 96 22 93 23
REMARK SMILES IDX 95 24 94 25 14 26 15 27 16 28 17 29 18 30 19 31 20 32 21 33
REMARK SMILES IDX 85 34 22 35 84 36 23 37 24 38 25 39 78 40 26 41 83 42 77 43
REMARK SMILES IDX 79 44 27 45 82 46 76 47 75 48 28 50 62 51 41 52 61 53 42 54
REMARK SMILES IDX 45 55 60 56 80 57 43 58 44 59 59 61 81 62 46 63 29 64 30 65
REMARK SMILES IDX 39 66 31 67 32 68 38 69 40 70 33 71 34 72 35 73 36 74 37 75
REMARK SMILES IDX 63 76 64 77 73 78 65 79 66 80 72 81 74 82 67 83 68 84 69 85
REMARK SMILES IDX 70 86 71 87 47 88 48 89 57 90 49 91 50 92 56 93 58 94 51 95
REMARK SMILES IDX 52 96 53 97 54 98 55 99
REMARK H PARENT 79 49 45 60
REMARK Flexibility Score: inf
ROOT
ATOM      1  C   UNL     1      -4.800  -6.983   3.205  1.00  0.00     0.188 C 
ENDROOT
BRANCH   1   2
ATOM      2  C   UNL     1      -6.132  -6.369   2.762  1.00  0.00     0.188 C 
BRANCH   2   3
ATOM      3  O   UNL     1      -6.611  -6.598   1.441  1.00  0.00    -0.376 OA
BRANCH   3   4
ATOM      4  C   UNL     1      -5.723  -6.952   0.392  1.00  0.00     0.202 C 
BRANCH   4   5
ATOM      5  C   UNL     1      -4.703  -5.906  -0.075  1.00  0.00     0.261 C 
BRANCH   5   6
ATOM      6  O   UNL     1      -3.775  -5.459   0.927  1.00  0.00    -0.462 OA
BRANCH   6   7
ATOM      7  C   UNL     1      -4.004  -4.216   1.440  1.00  0.00     0.329 C 
ATOM      8  O   UNL     1      -4.952  -3.499   1.142  1.00  0.00    -0.250 OA
BRANCH   7   9
ATOM      9  C   UNL     1      -2.919  -3.782   2.449  1.00  0.00     0.206 C 
ATOM     10  C   UNL     1      -1.829  -1.531   4.253  1.00  0.00     0.043 C 
ATOM     11  C   UNL     1      -1.123  -2.406   3.221  1.00  0.00     0.141 C 
ATOM     12  S   UNL     1      -0.700  -4.020   3.948  1.00  0.00    -0.135 SA
ATOM     13  N   UNL     1      -1.956  -2.737   2.068  1.00  0.00    -0.316 N 
ATOM     14  C   UNL     1      -2.109  -4.865   3.172  1.00  0.00     0.109 C 
BRANCH  13  15
ATOM     15  C   UNL     1      -1.648  -2.554   0.726  1.00  0.00     0.232 C 
ATOM     16  O   UNL     1      -2.347  -3.059  -0.161  1.00  0.00    -0.274 OA
BRANCH  15  17
ATOM     17  C   UNL     1      -0.380  -1.845   0.254  1.00  0.00     0.120 C 
ATOM     18  C   UNL     1       0.780  -2.851   0.327  1.00  0.00     0.093 C 
ATOM     19  C   UNL     1      -0.013  -0.589   0.989  1.00  0.00    -0.021 A 
ATOM     20  S   UNL     1       2.179  -2.066   1.188  1.00  0.00    -0.125 SA
ATOM     21  C   UNL     1       1.246  -0.620   1.592  1.00  0.00     0.011 A 
ATOM     22  C   UNL     1      -0.875   0.485   1.194  1.00  0.00     0.006 A 
ATOM     23  C   UNL     1       1.597   0.334   2.533  1.00  0.00     0.015 A 
ATOM     24  C   UNL     1      -0.513   1.465   2.116  1.00  0.00     0.000 A 
ATOM     25  C   UNL     1       0.701   1.369   2.809  1.00  0.00     0.001 A 
ENDBRANCH  15  17
ENDBRANCH  13  15
ENDBRANCH   7   9
ENDBRANCH   6   7
ENDBRANCH   5   6
ENDBRANCH   4   5
ENDBRANCH   3   4
ENDBRANCH   2   3
ENDBRANCH   1   2
BRANCH   1  26
ATOM     26  O   UNL     1      -4.441  -8.164   2.526  1.00  0.00    -0.376 OA
BRANCH  26  27
ATOM     27  C   UNL     1      -4.338  -9.347   3.290  1.00  0.00     0.202 C 
BRANCH  27  28
ATOM     28  C   UNL     1      -5.622  -9.811   3.988  1.00  0.00     0.261 C 
BRANCH  28  29
ATOM     29  O   UNL     1      -6.307  -8.826   4.784  1.00  0.00    -0.460 OA
BRANCH  29  30
ATOM     30  C   UNL     1      -5.728  -8.426   5.940  1.00  0.00     0.338 C 
ATOM     31  O   UNL     1      -4.671  -8.826   6.399  1.00  0.00    -0.246 OA
BRANCH  30  32
ATOM     32  C   UNL     1      -6.478  -7.240   6.428  1.00  0.00     0.060 A 
ATOM     33  C   UNL     1      -5.798  -6.028   6.628  1.00  0.00     0.016 A 
ATOM     34  C   UNL     1      -7.855  -7.310   6.644  1.00  0.00     0.016 A 
ATOM     35  C   UNL     1      -6.495  -4.888   7.051  1.00  0.00     0.010 A 
ATOM     36  C   UNL     1      -8.544  -6.177   7.091  1.00  0.00     0.010 A 
ATOM     37  C   UNL     1      -7.869  -4.963   7.313  1.00  0.00    -0.014 A 
BRANCH  37  38
ATOM     38  C   UNL     1      -8.597  -3.841   7.963  1.00  0.00     0.031 A 
ATOM     39  C   UNL     1      -8.842  -3.912   9.447  1.00  0.00     0.074 A 
ATOM     40  C   UNL     1      -9.089  -2.808   7.252  1.00  0.00     0.049 A 
ATOM     41  N   UNL     1      -9.599  -3.160  10.202  1.00  0.00    -0.248 NA
ATOM     42  C   UNL     1      -8.141  -4.984  10.173  1.00  0.00     0.031 C 
ATOM     43  C   UNL     1      -8.889  -2.594   5.821  1.00  0.00     0.029 A 
ATOM     44  N   UNL     1      -9.892  -1.761   7.640  1.00  0.00    -0.354 N 
ATOM     45  C   UNL     1      -9.491  -3.683  11.485  1.00  0.00     0.074 A 
ATOM     46  C   UNL     1      -8.598  -4.819  11.406  1.00  0.00     0.031 C 
ATOM     47  C   UNL     1      -9.584  -1.506   5.442  1.00  0.00     0.029 A 
ATOM     48  C   UNL     1     -10.316  -0.975   6.592  1.00  0.00     0.049 A 
ATOM     49  H   UNL     1     -10.141  -1.590   8.577  1.00  0.00     0.167 HD
ATOM     50  C   UNL     1     -10.088  -3.259  12.624  1.00  0.00     0.037 A 
ATOM     51  C   UNL     1     -11.225   0.023   6.556  1.00  0.00     0.037 A 
ATOM     52  C   UNL     1     -10.970  -2.124  12.700  1.00  0.00     0.049 A 
ATOM     53  C   UNL     1     -11.936   0.431   7.824  1.00  0.00     0.074 A 
ATOM     54  C   UNL     1     -11.584  -1.590  13.819  1.00  0.00     0.029 A 
ATOM     55  N   UNL     1     -11.379  -1.361  11.617  1.00  0.00    -0.354 N 
ATOM     56  N   UNL     1     -11.796  -0.043   9.040  1.00  0.00    -0.248 NA
ATOM     57  C   UNL     1     -12.937   1.505   7.717  1.00  0.00     0.031 C 
ATOM     58  C   UNL     1     -12.414  -0.544  13.405  1.00  0.00     0.029 A 
ATOM     59  C   UNL     1     -12.269  -0.387  12.036  1.00  0.00     0.049 A 
ATOM     60  H   UNL     1     -11.081  -1.493  10.688  1.00  0.00     0.167 HD
ATOM     61  C   UNL     1     -12.672   0.686   9.840  1.00  0.00     0.074 A 
ATOM     62  C   UNL     1     -13.328   1.644   8.977  1.00  0.00     0.031 C 
ATOM     63  C   UNL     1     -12.911   0.571  11.170  1.00  0.00     0.037 A 
BRANCH  50  64
ATOM     64  C   UNL     1      -9.842  -4.045  13.881  1.00  0.00     0.058 A 
ATOM     65  C   UNL     1      -8.611  -4.007  14.553  1.00  0.00     0.135 A 
ATOM     66  C   UNL     1     -10.879  -4.801  14.453  1.00  0.00     0.135 A 
ATOM     67  F   UNL     1      -7.581  -3.315  14.041  1.00  0.00    -0.206 F 
ATOM     68  C   UNL     1      -8.411  -4.705  15.740  1.00  0.00     0.059 A 
ATOM     69  C   UNL     1     -10.710  -5.485  15.653  1.00  0.00     0.059 A 
ATOM     70  F   UNL     1     -12.075  -4.875  13.847  1.00  0.00    -0.206 F 
ATOM     71  C   UNL     1      -9.468  -5.438  16.284  1.00  0.00     0.060 A 
BRANCH  71  72
ATOM     72  S   UNL     1      -9.197  -6.318  17.836  1.00  0.00     0.124 S 
ATOM     73  O   UNL     1      -8.316  -7.400  17.407  1.00  0.00    -0.237 OA
ATOM     74  O   UNL     1      -8.581  -5.293  18.672  1.00  0.00    -0.237 OA
ATOM     75  O   UNL     1     -10.540  -6.725  18.237  1.00  0.00    -0.744 OA
ENDBRANCH  71  72
ENDBRANCH  50  64
BRANCH  51  76
ATOM     76  C   UNL     1     -11.564   0.680   5.262  1.00  0.00     0.058 A 
ATOM     77  C   UNL     1     -11.242   2.024   5.021  1.00  0.00     0.135 A 
ATOM     78  C   UNL     1     -12.243  -0.018   4.249  1.00  0.00     0.135 A 
ATOM     79  F   UNL     1     -10.612   2.741   5.963  1.00  0.00    -0.206 F 
ATOM     80  C   UNL     1     -11.595   2.658   3.833  1.00  0.00     0.059 A 
ATOM     81  C   UNL     1     -12.579   0.585   3.041  1.00  0.00     0.059 A 
ATOM     82  F   UNL     1     -12.575  -1.306   4.426  1.00  0.00    -0.206 F 
ATOM     83  C   UNL     1     -12.261   1.928   2.847  1.00  0.00     0.060 A 
BRANCH  83  84
ATOM     84  S   UNL     1     -12.681   2.752   1.295  1.00  0.00     0.124 S 
ATOM     85  O   UNL     1     -13.767   3.632   1.713  1.00  0.00    -0.237 OA
ATOM     86  O   UNL     1     -11.425   3.409   0.948  1.00  0.00    -0.237 OA
ATOM     87  O   UNL     1     -13.066   1.648   0.421  1.00  0.00    -0.744 OA
ENDBRANCH  83  84
ENDBRANCH  51  76
BRANCH  63  88
ATOM     88  C   UNL     1     -13.902   1.516  11.797  1.00  0.00     0.058 A 
ATOM     89  C   UNL     1     -15.284   1.379  11.592  1.00  0.00     0.135 A 
ATOM     90  C   UNL     1     -13.469   2.512  12.689  1.00  0.00     0.135 A 
ATOM     91  F   UNL     1     -15.752   0.450  10.745  1.00  0.00    -0.206 F 
ATOM     92  C   UNL     1     -16.201   2.198  12.245  1.00  0.00     0.059 A 
ATOM     93  C   UNL     1     -14.369   3.323  13.374  1.00  0.00     0.059 A 
ATOM     94  F   UNL     1     -12.159   2.680  12.930  1.00  0.00    -0.206 F 
ATOM     95  C   UNL     1     -15.734   3.162  13.142  1.00  0.00     0.060 A 
BRANCH  95  96
ATOM     96  S   UNL     1     -16.938   4.171  14.032  1.00  0.00     0.124 S 
ATOM     97  O   UNL     1     -17.435   5.042  12.972  1.00  0.00    -0.237 OA
ATOM     98  O   UNL     1     -17.880   3.170  14.524  1.00  0.00    -0.237 OA
ATOM     99  O   UNL     1     -16.138   4.829  15.061  1.00  0.00    -0.744 OA
ENDBRANCH  95  96
ENDBRANCH  63  88
ENDBRANCH  37  38
ENDBRANCH  30  32
ENDBRANCH  29  30
ENDBRANCH  28  29
ENDBRANCH  27  28
ENDBRANCH  26  27
ENDBRANCH   1  26
TORSDOF 22
