REMARK SMILES C=CCN(CC(=O)OCCOCCOCCOC(=O)c1ccc(-c2c3nc(c(-c4c(F)cc(S(=O)(=O)[O-])cc4F)c4ccc([nH]4)c(-c4c(F)cc(S(=O)(=O)[O-])cc4F)c4nc(c(-c5c(F)cc(S(=O)(=O)[O-])cc5F)c5ccc2[nH]5)C=C4)C=C3)cc1)C(=O)N1CC[C@@H]([NH+]2CCCCC2)C1
REMARK SMILES IDX 12 1 11 2 10 3 9 4 8 5 6 6 7 7 5 8 4 9 3 10 2 11 1 12 86 13
REMARK SMILES IDX 87 14 88 15 89 16 98 17 90 18 91 19 92 20 93 21 97 22 94 24
REMARK SMILES IDX 96 25 95 26 13 27 14 28 15 29 16 30 17 31 18 32 19 33 20 34
REMARK SMILES IDX 21 35 85 36 22 37 84 38 23 39 24 40 25 41 78 42 26 43 83 44
REMARK SMILES IDX 77 45 79 46 27 47 82 48 76 49 75 50 28 52 62 53 41 54 61 55
REMARK SMILES IDX 42 56 45 57 60 58 80 59 43 60 44 61 59 63 81 64 46 65 29 66
REMARK SMILES IDX 30 67 39 68 31 69 32 70 38 71 40 72 33 73 34 74 35 75 36 76
REMARK SMILES IDX 37 77 63 78 64 79 73 80 65 81 66 82 72 83 74 84 67 85 68 86
REMARK SMILES IDX 69 87 70 88 71 89 47 90 48 91 57 92 49 93 50 94 56 95 58 96
REMARK SMILES IDX 51 97 52 98 53 99 54 100 55 101
REMARK H PARENT 92 23 79 51 45 62
REMARK Flexibility Score: inf
ROOT
ATOM      1  C   UNL     1      -5.325  -1.935   2.802  1.00  0.00     0.188 C 
ENDROOT
BRANCH   1   2
ATOM      2  O   UNL     1      -6.454  -1.648   1.974  1.00  0.00    -0.376 OA
BRANCH   2   3
ATOM      3  C   UNL     1      -6.965  -0.332   2.188  1.00  0.00     0.202 C 
BRANCH   3   4
ATOM      4  C   UNL     1      -6.261   0.666   1.267  1.00  0.00     0.261 C 
BRANCH   4   5
ATOM      5  O   UNL     1      -4.838   0.753   1.509  1.00  0.00    -0.462 OA
BRANCH   5   6
ATOM      6  C   UNL     1      -4.434   1.711   2.384  1.00  0.00     0.325 C 
ATOM      7  O   UNL     1      -5.199   2.465   2.976  1.00  0.00    -0.250 OA
BRANCH   6   8
ATOM      8  C   UNL     1      -2.912   1.873   2.434  1.00  0.00     0.244 C 
BRANCH   8   9
ATOM      9  N   UNL     1      -2.091   0.724   2.041  1.00  0.00    -0.310 N 
BRANCH   9  10
ATOM     10  C   UNL     1      -1.580   0.738   0.668  1.00  0.00     0.149 C 
BRANCH  10  11
ATOM     11  C   UNL     1      -0.105   1.048   0.668  1.00  0.00    -0.013 C 
ATOM     12  C   UNL     1       0.798   0.373  -0.058  1.00  0.00     0.006 C 
ENDBRANCH  10  11
ENDBRANCH   9  10
BRANCH   9  13
ATOM     13  C   UNL     1      -1.776  -0.381   2.798  1.00  0.00     0.321 C 
ATOM     14  O   UNL     1      -1.084  -1.281   2.301  1.00  0.00    -0.248 OA
BRANCH  13  15
ATOM     15  N   UNL     1      -2.234  -0.545   4.079  1.00  0.00    -0.318 N 
ATOM     16  C   UNL     1      -2.950   0.296   5.020  1.00  0.00     0.128 C 
ATOM     17  C   UNL     1      -1.843  -1.766   4.756  1.00  0.00     0.186 C 
ATOM     18  C   UNL     1      -2.809  -0.373   6.381  1.00  0.00     0.088 C 
ATOM     19  C   UNL     1      -2.600  -1.865   6.082  1.00  0.00     0.205 C 
BRANCH  19  20
ATOM     20  N   UNL     1      -3.893  -2.544   6.259  1.00  0.00    -0.331 N 
ATOM     21  C   UNL     1      -4.061  -3.847   5.623  1.00  0.00     0.262 C 
ATOM     22  C   UNL     1      -4.119  -2.785   7.705  1.00  0.00     0.262 C 
ATOM     23  H   UNL     1      -4.549  -1.906   5.810  1.00  0.00     0.348 HD
ATOM     24  C   UNL     1      -5.495  -4.369   5.793  1.00  0.00     0.062 C 
ATOM     25  C   UNL     1      -5.613  -2.862   7.920  1.00  0.00     0.062 C 
ATOM     26  C   UNL     1      -6.354  -3.654   6.844  1.00  0.00     0.012 C 
ENDBRANCH  19  20
ENDBRANCH  13  15
ENDBRANCH   9  13
ENDBRANCH   8   9
ENDBRANCH   6   8
ENDBRANCH   5   6
ENDBRANCH   4   5
ENDBRANCH   3   4
ENDBRANCH   2   3
ENDBRANCH   1   2
BRANCH   1  27
ATOM     27  C   UNL     1      -4.186  -2.537   1.987  1.00  0.00     0.188 C 
BRANCH  27  28
ATOM     28  O   UNL     1      -4.502  -3.851   1.530  1.00  0.00    -0.376 OA
BRANCH  28  29
ATOM     29  C   UNL     1      -3.326  -4.573   1.136  1.00  0.00     0.202 C 
BRANCH  29  30
ATOM     30  C   UNL     1      -2.868  -5.527   2.248  1.00  0.00     0.261 C 
BRANCH  30  31
ATOM     31  O   UNL     1      -2.028  -4.881   3.231  1.00  0.00    -0.460 OA
BRANCH  31  32
ATOM     32  C   UNL     1      -0.879  -5.511   3.588  1.00  0.00     0.338 C 
ATOM     33  O   UNL     1      -0.345  -6.450   3.021  1.00  0.00    -0.246 OA
BRANCH  32  34
ATOM     34  C   UNL     1      -0.471  -5.006   4.923  1.00  0.00     0.060 A 
ATOM     35  C   UNL     1       0.484  -3.999   5.087  1.00  0.00     0.016 A 
ATOM     36  C   UNL     1      -1.095  -5.549   6.049  1.00  0.00     0.016 A 
ATOM     37  C   UNL     1       0.763  -3.494   6.377  1.00  0.00     0.010 A 
ATOM     38  C   UNL     1      -0.844  -5.022   7.325  1.00  0.00     0.010 A 
ATOM     39  C   UNL     1       0.089  -3.985   7.511  1.00  0.00    -0.014 A 
BRANCH  39  40
ATOM     40  C   UNL     1       0.553  -3.667   8.901  1.00  0.00     0.031 A 
ATOM     41  C   UNL     1       1.581  -4.605   9.470  1.00  0.00     0.074 A 
ATOM     42  C   UNL     1       0.107  -2.650   9.675  1.00  0.00     0.049 A 
ATOM     43  N   UNL     1       2.207  -4.550  10.614  1.00  0.00    -0.248 NA
ATOM     44  C   UNL     1       1.962  -5.748   8.622  1.00  0.00     0.031 C 
ATOM     45  C   UNL     1      -0.848  -1.629   9.279  1.00  0.00     0.029 A 
ATOM     46  N   UNL     1       0.393  -2.303  10.981  1.00  0.00    -0.354 N 
ATOM     47  C   UNL     1       3.104  -5.607  10.589  1.00  0.00     0.074 A 
ATOM     48  C   UNL     1       2.874  -6.344   9.368  1.00  0.00     0.031 C 
ATOM     49  C   UNL     1      -1.122  -0.811  10.308  1.00  0.00     0.029 A 
ATOM     50  C   UNL     1      -0.325  -1.220  11.453  1.00  0.00     0.049 A 
ATOM     51  H   UNL     1       1.053  -2.787  11.529  1.00  0.00     0.167 HD
ATOM     52  C   UNL     1       4.071  -5.916  11.480  1.00  0.00     0.037 A 
ATOM     53  C   UNL     1      -0.329  -0.602  12.654  1.00  0.00     0.037 A 
ATOM     54  C   UNL     1       4.253  -5.250  12.734  1.00  0.00     0.049 A 
ATOM     55  C   UNL     1       0.650  -1.065  13.701  1.00  0.00     0.074 A 
ATOM     56  C   UNL     1       5.162  -5.535  13.734  1.00  0.00     0.029 A 
ATOM     57  N   UNL     1       3.483  -4.185  13.175  1.00  0.00    -0.354 N 
ATOM     58  N   UNL     1       1.555  -2.011  13.616  1.00  0.00    -0.248 NA
ATOM     59  C   UNL     1       0.636  -0.361  14.993  1.00  0.00     0.031 C 
ATOM     60  C   UNL     1       4.911  -4.669  14.804  1.00  0.00     0.029 A 
ATOM     61  C   UNL     1       3.878  -3.815  14.447  1.00  0.00     0.049 A 
ATOM     62  H   UNL     1       2.763  -3.755  12.659  1.00  0.00     0.167 HD
ATOM     63  C   UNL     1       2.252  -1.978  14.817  1.00  0.00     0.074 A 
ATOM     64  C   UNL     1       1.663  -0.924  15.616  1.00  0.00     0.031 C 
ATOM     65  C   UNL     1       3.295  -2.745  15.216  1.00  0.00     0.037 A 
BRANCH  52  66
ATOM     66  C   UNL     1       4.973  -7.045  11.090  1.00  0.00     0.058 A 
ATOM     67  C   UNL     1       5.915  -6.888  10.057  1.00  0.00     0.135 A 
ATOM     68  C   UNL     1       4.826  -8.314  11.666  1.00  0.00     0.135 A 
ATOM     69  F   UNL     1       6.060  -5.699   9.449  1.00  0.00    -0.206 F 
ATOM     70  C   UNL     1       6.646  -7.966   9.577  1.00  0.00     0.059 A 
ATOM     71  C   UNL     1       5.567  -9.401  11.217  1.00  0.00     0.059 A 
ATOM     72  F   UNL     1       3.924  -8.514  12.639  1.00  0.00    -0.206 F 
ATOM     73  C   UNL     1       6.455  -9.221  10.155  1.00  0.00     0.060 A 
BRANCH  73  74
ATOM     74  S   UNL     1       7.363 -10.625   9.479  1.00  0.00     0.124 S 
ATOM     75  O   UNL     1       6.652 -10.852   8.225  1.00  0.00    -0.237 OA
ATOM     76  O   UNL     1       8.716 -10.091   9.354  1.00  0.00    -0.237 OA
ATOM     77  O   UNL     1       7.192 -11.659  10.495  1.00  0.00    -0.744 OA
ENDBRANCH  73  74
ENDBRANCH  52  66
BRANCH  53  78
ATOM     78  C   UNL     1      -1.240   0.549  12.943  1.00  0.00     0.058 A 
ATOM     79  C   UNL     1      -0.738   1.848  13.128  1.00  0.00     0.135 A 
ATOM     80  C   UNL     1      -2.622   0.364  13.114  1.00  0.00     0.135 A 
ATOM     81  F   UNL     1       0.575   2.083  12.986  1.00  0.00    -0.206 F 
ATOM     82  C   UNL     1      -1.559   2.908  13.510  1.00  0.00     0.059 A 
ATOM     83  C   UNL     1      -3.468   1.413  13.475  1.00  0.00     0.059 A 
ATOM     84  F   UNL     1      -3.163  -0.852  12.940  1.00  0.00    -0.206 F 
ATOM     85  C   UNL     1      -2.924   2.679  13.689  1.00  0.00     0.060 A 
BRANCH  85  86
ATOM     86  S   UNL     1      -3.977   4.062  14.189  1.00  0.00     0.124 S 
ATOM     87  O   UNL     1      -3.566   4.261  15.574  1.00  0.00    -0.237 OA
ATOM     88  O   UNL     1      -3.579   5.105  13.249  1.00  0.00    -0.237 OA
ATOM     89  O   UNL     1      -5.328   3.540  14.001  1.00  0.00    -0.744 OA
ENDBRANCH  85  86
ENDBRANCH  53  78
BRANCH  65  90
ATOM     90  C   UNL     1       3.907  -2.452  16.555  1.00  0.00     0.058 A 
ATOM     91  C   UNL     1       3.268  -2.806  17.752  1.00  0.00     0.135 A 
ATOM     92  C   UNL     1       5.196  -1.900  16.633  1.00  0.00     0.135 A 
ATOM     93  F   UNL     1       2.031  -3.328  17.729  1.00  0.00    -0.206 F 
ATOM     94  C   UNL     1       3.885  -2.621  18.983  1.00  0.00     0.059 A 
ATOM     95  C   UNL     1       5.843  -1.732  17.851  1.00  0.00     0.059 A 
ATOM     96  F   UNL     1       5.851  -1.552  15.514  1.00  0.00    -0.206 F 
ATOM     97  C   UNL     1       5.178  -2.093  19.021  1.00  0.00     0.060 A 
BRANCH  97  98
ATOM     98  S   UNL     1       6.002  -1.936  20.619  1.00  0.00     0.124 S 
ATOM     99  O   UNL     1       5.330  -0.770  21.183  1.00  0.00    -0.237 OA
ATOM    100  O   UNL     1       5.696  -3.214  21.256  1.00  0.00    -0.237 OA
ATOM    101  O   UNL     1       7.404  -1.742  20.261  1.00  0.00    -0.744 OA
ENDBRANCH  97  98
ENDBRANCH  65  90
ENDBRANCH  39  40
ENDBRANCH  32  34
ENDBRANCH  31  32
ENDBRANCH  30  31
ENDBRANCH  29  30
ENDBRANCH  28  29
ENDBRANCH  27  28
ENDBRANCH   1  27
TORSDOF 26
