REMARK SMILES O=C(OCCOCCOCCOC(=O)[C@H](NC(=O)[C@H]1CC[C@@H](CNC(=O)[C@@H]2Cc3ccccc3C[NH2+]2)CC1)c1ccccc1)c1ccc(-c2c3nc(c(-c4c(F)cc(S(=O)(=O)[O-])cc4F)c4ccc([nH]4)c(-c4c(F)cc(S(=O)(=O)[O-])cc4F)c4nc(c(-c5c(F)cc(S(=O)(=O)[O-])cc5F)c5ccc2[nH]5)C=C4)C=C3)cc1
REMARK SMILES IDX 8 1 7 2 6 3 5 4 4 5 3 6 2 7 1 8 45 9 46 10 110 11 47 12
REMARK SMILES IDX 109 13 48 14 49 15 50 16 103 17 51 18 108 19 102 20 104 21
REMARK SMILES IDX 52 22 107 23 101 24 100 25 53 27 87 28 66 29 86 30 67 31
REMARK SMILES IDX 70 32 85 33 105 34 68 35 69 36 84 38 106 39 71 40 54 41
REMARK SMILES IDX 55 42 64 43 56 44 57 45 63 46 65 47 58 48 59 49 60 50 61 51
REMARK SMILES IDX 62 52 88 53 89 54 98 55 90 56 91 57 97 58 99 59 92 60 93 61
REMARK SMILES IDX 94 62 95 63 96 64 72 65 73 66 82 67 74 68 75 69 81 70 83 71
REMARK SMILES IDX 76 72 77 73 78 74 79 75 80 76 9 77 10 78 11 79 12 80 13 81
REMARK SMILES IDX 14 82 15 83 39 84 40 85 44 86 41 87 43 88 42 89 16 90 17 91
REMARK SMILES IDX 18 93 19 94 38 95 20 96 37 97 21 98 22 99 23 100 24 101
REMARK SMILES IDX 25 102 26 104 27 105 28 106 36 107 29 108 35 109 30 112
REMARK SMILES IDX 34 113 31 114 33 115 32 116
REMARK H PARENT 104 26 70 37 16 92 24 103 36 110 36 111
REMARK Flexibility Score: inf
ROOT
ATOM      1  C   UNL     1       9.828  -2.660  -1.002  1.00  0.00     0.188 C 
ENDROOT
BRANCH   1   2
ATOM      2  C   UNL     1      10.950  -2.729   0.026  1.00  0.00     0.188 C 
BRANCH   2   3
ATOM      3  O   UNL     1      11.723  -3.924  -0.036  1.00  0.00    -0.376 OA
BRANCH   3   4
ATOM      4  C   UNL     1      11.005  -5.147   0.076  1.00  0.00     0.202 C 
BRANCH   4   5
ATOM      5  C   UNL     1      10.610  -5.545   1.503  1.00  0.00     0.261 C 
BRANCH   5   6
ATOM      6  O   UNL     1      10.175  -4.444   2.313  1.00  0.00    -0.460 OA
BRANCH   6   7
ATOM      7  C   UNL     1      10.894  -3.830   3.291  1.00  0.00     0.338 C 
ATOM      8  O   UNL     1      10.285  -3.348   4.245  1.00  0.00    -0.246 OA
BRANCH   7   9
ATOM      9  C   UNL     1      12.365  -3.539   3.166  1.00  0.00     0.060 A 
ATOM     10  C   UNL     1      13.253  -4.191   2.308  1.00  0.00     0.016 A 
ATOM     11  C   UNL     1      12.891  -2.521   3.988  1.00  0.00     0.016 A 
ATOM     12  C   UNL     1      14.594  -3.837   2.230  1.00  0.00     0.010 A 
ATOM     13  C   UNL     1      14.256  -2.200   3.967  1.00  0.00     0.010 A 
ATOM     14  C   UNL     1      15.111  -2.883   3.100  1.00  0.00    -0.014 A 
BRANCH  14  15
ATOM     15  C   UNL     1      16.576  -2.888   3.268  1.00  0.00     0.031 A 
ATOM     16  C   UNL     1      17.139  -3.905   4.221  1.00  0.00     0.074 A 
ATOM     17  C   UNL     1      17.365  -2.154   2.467  1.00  0.00     0.049 A 
ATOM     18  N   UNL     1      18.382  -4.203   4.479  1.00  0.00    -0.248 NA
ATOM     19  C   UNL     1      16.158  -4.728   4.954  1.00  0.00     0.031 C 
ATOM     20  C   UNL     1      16.893  -1.246   1.422  1.00  0.00     0.029 A 
ATOM     21  N   UNL     1      18.729  -2.079   2.389  1.00  0.00    -0.354 N 
ATOM     22  C   UNL     1      18.331  -5.249   5.393  1.00  0.00     0.074 A 
ATOM     23  C   UNL     1      16.940  -5.535   5.650  1.00  0.00     0.031 C 
ATOM     24  C   UNL     1      17.957  -0.695   0.810  1.00  0.00     0.029 A 
ATOM     25  C   UNL     1      19.179  -1.187   1.444  1.00  0.00     0.049 A 
ATOM     26  H   UNL     1      19.332  -2.613   2.955  1.00  0.00     0.167 HD
ATOM     27  C   UNL     1      19.360  -5.902   5.978  1.00  0.00     0.037 A 
ATOM     28  C   UNL     1      20.439  -0.804   1.157  1.00  0.00     0.037 A 
ATOM     29  C   UNL     1      20.734  -5.553   5.751  1.00  0.00     0.049 A 
ATOM     30  C   UNL     1      21.569  -1.450   1.919  1.00  0.00     0.074 A 
ATOM     31  C   UNL     1      21.868  -6.066   6.351  1.00  0.00     0.029 A 
ATOM     32  N   UNL     1      21.154  -4.576   4.857  1.00  0.00    -0.354 N 
ATOM     33  N   UNL     1      21.514  -2.407   2.819  1.00  0.00    -0.248 NA
ATOM     34  C   UNL     1      22.927  -0.967   1.640  1.00  0.00     0.031 C 
ATOM     35  C   UNL     1      22.970  -5.360   5.856  1.00  0.00     0.029 A 
ATOM     36  C   UNL     1      22.529  -4.452   4.904  1.00  0.00     0.049 A 
ATOM     37  H   UNL     1      20.559  -4.050   4.275  1.00  0.00     0.167 HD
ATOM     38  C   UNL     1      22.829  -2.655   3.197  1.00  0.00     0.074 A 
ATOM     39  C   UNL     1      23.657  -1.754   2.419  1.00  0.00     0.031 C 
ATOM     40  C   UNL     1      23.314  -3.544   4.101  1.00  0.00     0.037 A 
BRANCH  27  41
ATOM     41  C   UNL     1      19.010  -6.970   6.974  1.00  0.00     0.058 A 
ATOM     42  C   UNL     1      18.465  -8.204   6.582  1.00  0.00     0.135 A 
ATOM     43  C   UNL     1      19.159  -6.727   8.349  1.00  0.00     0.135 A 
ATOM     44  F   UNL     1      18.265  -8.474   5.282  1.00  0.00    -0.206 F 
ATOM     45  C   UNL     1      18.048  -9.145   7.520  1.00  0.00     0.059 A 
ATOM     46  C   UNL     1      18.771  -7.663   9.303  1.00  0.00     0.059 A 
ATOM     47  F   UNL     1      19.656  -5.557   8.778  1.00  0.00    -0.206 F 
ATOM     48  C   UNL     1      18.198  -8.861   8.879  1.00  0.00     0.060 A 
BRANCH  48  49
ATOM     49  S   UNL     1      17.613 -10.070  10.085  1.00  0.00     0.124 S 
ATOM     50  O   UNL     1      16.166  -9.924   9.966  1.00  0.00    -0.237 OA
ATOM     51  O   UNL     1      18.168 -11.318   9.570  1.00  0.00    -0.237 OA
ATOM     52  O   UNL     1      18.189  -9.603  11.342  1.00  0.00    -0.744 OA
ENDBRANCH  48  49
ENDBRANCH  27  41
BRANCH  28  53
ATOM     53  C   UNL     1      20.686   0.261   0.144  1.00  0.00     0.058 A 
ATOM     54  C   UNL     1      21.355  -0.005  -1.059  1.00  0.00     0.135 A 
ATOM     55  C   UNL     1      20.246   1.578   0.363  1.00  0.00     0.135 A 
ATOM     56  F   UNL     1      21.808  -1.241  -1.316  1.00  0.00    -0.206 F 
ATOM     57  C   UNL     1      21.584   0.993  -2.005  1.00  0.00     0.059 A 
ATOM     58  C   UNL     1      20.438   2.586  -0.578  1.00  0.00     0.059 A 
ATOM     59  F   UNL     1      19.598   1.891   1.496  1.00  0.00    -0.206 F 
ATOM     60  C   UNL     1      21.115   2.285  -1.758  1.00  0.00     0.060 A 
BRANCH  60  61
ATOM     61  S   UNL     1      21.367   3.558  -3.015  1.00  0.00     0.124 S 
ATOM     62  O   UNL     1      22.806   3.778  -2.927  1.00  0.00    -0.237 OA
ATOM     63  O   UNL     1      20.895   2.889  -4.223  1.00  0.00    -0.237 OA
ATOM     64  O   UNL     1      20.530   4.661  -2.552  1.00  0.00    -0.744 OA
ENDBRANCH  60  61
ENDBRANCH  28  53
BRANCH  40  65
ATOM     65  C   UNL     1      24.804  -3.613   4.271  1.00  0.00     0.058 A 
ATOM     66  C   UNL     1      25.514  -2.620   4.961  1.00  0.00     0.135 A 
ATOM     67  C   UNL     1      25.512  -4.737   3.816  1.00  0.00     0.135 A 
ATOM     68  F   UNL     1      24.881  -1.526   5.412  1.00  0.00    -0.206 F 
ATOM     69  C   UNL     1      26.882  -2.733   5.184  1.00  0.00     0.059 A 
ATOM     70  C   UNL     1      26.874  -4.884   4.052  1.00  0.00     0.059 A 
ATOM     71  F   UNL     1      24.873  -5.721   3.163  1.00  0.00    -0.206 F 
ATOM     72  C   UNL     1      27.551  -3.872   4.730  1.00  0.00     0.060 A 
BRANCH  72  73
ATOM     73  S   UNL     1      29.315  -4.033   5.074  1.00  0.00     0.124 S 
ATOM     74  O   UNL     1      29.886  -3.082   4.126  1.00  0.00    -0.237 OA
ATOM     75  O   UNL     1      29.395  -3.652   6.481  1.00  0.00    -0.237 OA
ATOM     76  O   UNL     1      29.588  -5.440   4.795  1.00  0.00    -0.744 OA
ENDBRANCH  72  73
ENDBRANCH  40  65
ENDBRANCH  14  15
ENDBRANCH   7   9
ENDBRANCH   6   7
ENDBRANCH   5   6
ENDBRANCH   4   5
ENDBRANCH   3   4
ENDBRANCH   2   3
ENDBRANCH   1   2
BRANCH   1  77
ATOM     77  O   UNL     1      10.076  -3.383  -2.203  1.00  0.00    -0.376 OA
BRANCH  77  78
ATOM     78  C   UNL     1      10.824  -2.691  -3.200  1.00  0.00     0.202 C 
BRANCH  78  79
ATOM     79  C   UNL     1      12.348  -2.771  -3.024  1.00  0.00     0.261 C 
BRANCH  79  80
ATOM     80  O   UNL     1      12.890  -1.907  -2.005  1.00  0.00    -0.461 OA
BRANCH  80  81
ATOM     81  C   UNL     1      12.877  -0.577  -2.282  1.00  0.00     0.333 C 
ATOM     82  O   UNL     1      12.361  -0.118  -3.297  1.00  0.00    -0.249 OA
BRANCH  81  83
ATOM     83  C   UNL     1      13.564   0.261  -1.157  1.00  0.00     0.223 C 
BRANCH  83  84
ATOM     84  C   UNL     1      14.316   1.448  -1.760  1.00  0.00    -0.014 A 
ATOM     85  C   UNL     1      14.195   2.764  -1.286  1.00  0.00     0.006 A 
ATOM     86  C   UNL     1      15.158   1.216  -2.865  1.00  0.00     0.006 A 
ATOM     87  C   UNL     1      14.826   3.819  -1.949  1.00  0.00     0.000 A 
ATOM     88  C   UNL     1      15.783   2.270  -3.526  1.00  0.00     0.000 A 
ATOM     89  C   UNL     1      15.604   3.573  -3.076  1.00  0.00     0.000 A 
ENDBRANCH  83  84
BRANCH  83  90
ATOM     90  N   UNL     1      12.782   0.624   0.046  1.00  0.00    -0.339 N 
ATOM     91  C   UNL     1      11.575   1.246   0.189  1.00  0.00     0.224 C 
ATOM     92  H   UNL     1      13.209   0.370   0.896  1.00  0.00     0.164 HD
ATOM     93  O   UNL     1      11.342   1.864   1.228  1.00  0.00    -0.275 OA
BRANCH  91  94
ATOM     94  C   UNL     1      10.525   1.066  -0.885  1.00  0.00     0.078 C 
ATOM     95  C   UNL     1       9.090   1.108  -0.326  1.00  0.00     0.014 C 
ATOM     96  C   UNL     1      10.657   2.044  -2.043  1.00  0.00     0.014 C 
ATOM     97  C   UNL     1       8.043   0.823  -1.415  1.00  0.00     0.006 C 
ATOM     98  C   UNL     1       9.711   1.576  -3.148  1.00  0.00     0.006 C 
ATOM     99  C   UNL     1       8.244   1.659  -2.691  1.00  0.00     0.008 C 
BRANCH  99 100
ATOM    100  C   UNL     1       7.775   3.112  -2.477  1.00  0.00     0.119 C 
BRANCH 100 101
ATOM    101  N   UNL     1       8.186   3.945  -3.589  1.00  0.00    -0.351 N 
ATOM    102  C   UNL     1       7.508   4.276  -4.715  1.00  0.00     0.278 C 
ATOM    103  H   UNL     1       9.091   4.326  -3.517  1.00  0.00     0.163 HD
ATOM    104  O   UNL     1       8.134   4.274  -5.782  1.00  0.00    -0.268 OA
BRANCH 102 105
ATOM    105  C   UNL     1       6.086   4.864  -4.632  1.00  0.00     0.277 C 
ATOM    106  C   UNL     1       4.969   3.885  -4.209  1.00  0.00     0.111 C 
ATOM    107  N   UNL     1       5.853   5.594  -5.927  1.00  0.00    -0.332 N 
ATOM    108  C   UNL     1       3.626   4.528  -4.470  1.00  0.00    -0.033 A 
ATOM    109  C   UNL     1       4.663   5.134  -6.633  1.00  0.00     0.298 C 
ATOM    110  H   UNL     1       6.664   5.454  -6.530  1.00  0.00     0.347 HD
ATOM    111  H   UNL     1       5.714   6.579  -5.702  1.00  0.00     0.347 HD
ATOM    112  C   UNL     1       2.604   4.576  -3.522  1.00  0.00     0.004 A 
ATOM    113  C   UNL     1       3.485   5.192  -5.700  1.00  0.00     0.010 A 
ATOM    114  C   UNL     1       1.462   5.332  -3.787  1.00  0.00     0.000 A 
ATOM    115  C   UNL     1       2.338   5.939  -5.962  1.00  0.00     0.010 A 
ATOM    116  C   UNL     1       1.334   6.018  -4.998  1.00  0.00     0.001 A 
ENDBRANCH 102 105
ENDBRANCH 100 101
ENDBRANCH  99 100
ENDBRANCH  91  94
ENDBRANCH  83  90
ENDBRANCH  81  83
ENDBRANCH  80  81
ENDBRANCH  79  80
ENDBRANCH  78  79
ENDBRANCH  77  78
ENDBRANCH   1  77
TORSDOF 26
