REMARK SMILES O=C(COC1(Cc2ccccc2)CCCCC1)OCCOCCOCCOC(=O)c1ccc(-c2c3nc(c(-c4c(F)cc(S(=O)(=O)[O-])cc4F)c4ccc([nH]4)c(-c4c(F)cc(S(=O)(=O)[O-])cc4F)c4nc(c(-c5c(F)cc(S(=O)(=O)[O-])cc5F)c5ccc2[nH]5)C=C4)C=C3)cc1
REMARK SMILES IDX 22 1 21 2 20 3 19 4 18 5 2 6 1 7 3 8 4 9 5 10 13 11 17 12
REMARK SMILES IDX 14 13 16 14 15 15 6 16 7 17 8 18 12 19 9 20 11 21 10 22
REMARK SMILES IDX 23 23 24 24 25 25 26 26 27 27 28 28 29 29 30 30 31 31 95 32
REMARK SMILES IDX 32 33 94 34 33 35 34 36 35 37 88 38 36 39 93 40 87 41 89 42
REMARK SMILES IDX 37 43 92 44 86 45 85 46 38 48 72 49 51 50 71 51 52 52 55 53
REMARK SMILES IDX 70 54 90 55 53 56 54 57 69 59 91 60 56 61 39 62 40 63 49 64
REMARK SMILES IDX 41 65 42 66 48 67 50 68 43 69 44 70 45 71 46 72 47 73 73 74
REMARK SMILES IDX 74 75 83 76 75 77 76 78 82 79 84 80 77 81 78 82 79 83 80 84
REMARK SMILES IDX 81 85 57 86 58 87 67 88 59 89 60 90 66 91 68 92 61 93 62 94
REMARK SMILES IDX 63 95 64 96 65 97
REMARK H PARENT 89 47 55 58
REMARK Flexibility Score: inf
ROOT
ATOM      1  C   UNL     1       3.833   2.310  -0.579  1.00  0.00     0.188 C 
ENDROOT
BRANCH   1   2
ATOM      2  O   UNL     1       5.110   2.110  -1.157  1.00  0.00    -0.376 OA
BRANCH   2   3
ATOM      3  C   UNL     1       5.948   1.048  -0.757  1.00  0.00     0.202 C 
BRANCH   3   4
ATOM      4  C   UNL     1       5.535  -0.371  -1.165  1.00  0.00     0.261 C 
BRANCH   4   5
ATOM      5  O   UNL     1       4.132  -0.562  -1.337  1.00  0.00    -0.462 OA
BRANCH   5   6
ATOM      6  C   UNL     1       3.257  -0.773  -0.333  1.00  0.00     0.332 C 
ATOM      7  O   UNL     1       2.091  -0.993  -0.638  1.00  0.00    -0.250 OA
BRANCH   6   8
ATOM      8  C   UNL     1       3.736  -0.590   1.124  1.00  0.00     0.283 C 
BRANCH   8   9
ATOM      9  O   UNL     1       3.746  -1.637   2.022  1.00  0.00    -0.363 OA
BRANCH   9  10
ATOM     10  C   UNL     1       2.553  -2.261   2.499  1.00  0.00     0.073 C 
ATOM     11  C   UNL     1       2.940  -3.724   2.135  1.00  0.00     0.036 C 
ATOM     12  C   UNL     1       2.576  -2.079   4.030  1.00  0.00     0.036 C 
ATOM     13  C   UNL     1       2.206  -4.804   2.899  1.00  0.00     0.003 C 
ATOM     14  C   UNL     1       1.794  -3.158   4.773  1.00  0.00     0.003 C 
ATOM     15  C   UNL     1       2.284  -4.554   4.399  1.00  0.00     0.000 C 
BRANCH  10  16
ATOM     16  C   UNL     1       1.115  -1.946   1.916  1.00  0.00     0.071 C 
BRANCH  16  17
ATOM     17  C   UNL     1       0.300  -0.682   2.212  1.00  0.00    -0.045 A 
ATOM     18  C   UNL     1      -0.982  -0.821   2.775  1.00  0.00     0.004 A 
ATOM     19  C   UNL     1       0.657   0.615   1.825  1.00  0.00     0.004 A 
ATOM     20  C   UNL     1      -1.820   0.282   2.996  1.00  0.00     0.000 A 
ATOM     21  C   UNL     1      -0.153   1.729   2.087  1.00  0.00     0.000 A 
ATOM     22  C   UNL     1      -1.394   1.564   2.678  1.00  0.00     0.000 A 
ENDBRANCH  16  17
ENDBRANCH  10  16
ENDBRANCH   9  10
ENDBRANCH   8   9
ENDBRANCH   6   8
ENDBRANCH   5   6
ENDBRANCH   4   5
ENDBRANCH   3   4
ENDBRANCH   2   3
ENDBRANCH   1   2
BRANCH   1  23
ATOM     23  C   UNL     1       2.681   2.363  -1.610  1.00  0.00     0.188 C 
BRANCH  23  24
ATOM     24  O   UNL     1       2.897   2.791  -2.952  1.00  0.00    -0.376 OA
BRANCH  24  25
ATOM     25  C   UNL     1       4.167   3.284  -3.333  1.00  0.00     0.202 C 
BRANCH  25  26
ATOM     26  C   UNL     1       4.558   4.671  -2.784  1.00  0.00     0.261 C 
BRANCH  26  27
ATOM     27  O   UNL     1       4.140   4.986  -1.438  1.00  0.00    -0.460 OA
BRANCH  27  28
ATOM     28  C   UNL     1       2.932   5.599  -1.323  1.00  0.00     0.338 C 
ATOM     29  O   UNL     1       2.218   5.951  -2.243  1.00  0.00    -0.246 OA
BRANCH  28  30
ATOM     30  C   UNL     1       2.497   5.688   0.103  1.00  0.00     0.060 A 
ATOM     31  C   UNL     1       1.163   5.372   0.392  1.00  0.00     0.016 A 
ATOM     32  C   UNL     1       3.329   6.140   1.134  1.00  0.00     0.016 A 
ATOM     33  C   UNL     1       0.645   5.557   1.680  1.00  0.00     0.010 A 
ATOM     34  C   UNL     1       2.803   6.337   2.429  1.00  0.00     0.010 A 
ATOM     35  C   UNL     1       1.447   6.078   2.704  1.00  0.00    -0.014 A 
BRANCH  35  36
ATOM     36  C   UNL     1       0.795   6.528   3.972  1.00  0.00     0.031 A 
ATOM     37  C   UNL     1       0.299   7.952   4.062  1.00  0.00     0.074 A 
ATOM     38  C   UNL     1       0.561   5.689   5.001  1.00  0.00     0.049 A 
ATOM     39  N   UNL     1      -0.364   8.546   5.022  1.00  0.00    -0.248 NA
ATOM     40  C   UNL     1       0.584   8.816   2.906  1.00  0.00     0.031 C 
ATOM     41  C   UNL     1       0.944   4.280   5.052  1.00  0.00     0.029 A 
ATOM     42  N   UNL     1      -0.064   5.909   6.209  1.00  0.00    -0.354 N 
ATOM     43  C   UNL     1      -0.605   9.840   4.574  1.00  0.00     0.074 A 
ATOM     44  C   UNL     1       0.029   9.960   3.278  1.00  0.00     0.031 C 
ATOM     45  C   UNL     1       0.561   3.766   6.236  1.00  0.00     0.029 A 
ATOM     46  C   UNL     1      -0.083   4.808   7.036  1.00  0.00     0.049 A 
ATOM     47  H   UNL     1      -0.462   6.774   6.458  1.00  0.00     0.167 HD
ATOM     48  C   UNL     1      -1.304  10.837   5.171  1.00  0.00     0.037 A 
ATOM     49  C   UNL     1      -0.553   4.659   8.294  1.00  0.00     0.037 A 
ATOM     50  C   UNL     1      -1.906  10.747   6.477  1.00  0.00     0.049 A 
ATOM     51  C   UNL     1      -1.245   5.816   8.982  1.00  0.00     0.074 A 
ATOM     52  C   UNL     1      -2.612  11.717   7.168  1.00  0.00     0.029 A 
ATOM     53  N   UNL     1      -1.863   9.630   7.297  1.00  0.00    -0.354 N 
ATOM     54  N   UNL     1      -1.494   7.022   8.528  1.00  0.00    -0.248 NA
ATOM     55  C   UNL     1      -1.735   5.583  10.351  1.00  0.00     0.031 C 
ATOM     56  C   UNL     1      -2.951  11.205   8.425  1.00  0.00     0.029 A 
ATOM     57  C   UNL     1      -2.512   9.894   8.494  1.00  0.00     0.049 A 
ATOM     58  H   UNL     1      -1.436   8.774   7.064  1.00  0.00     0.167 HD
ATOM     59  C   UNL     1      -2.195   7.676   9.541  1.00  0.00     0.074 A 
ATOM     60  C   UNL     1      -2.347   6.727  10.622  1.00  0.00     0.031 C 
ATOM     61  C   UNL     1      -2.670   8.947   9.570  1.00  0.00     0.037 A 
BRANCH  48  62
ATOM     62  C   UNL     1      -1.448  12.129   4.412  1.00  0.00     0.058 A 
ATOM     63  C   UNL     1      -2.268  12.224   3.276  1.00  0.00     0.135 A 
ATOM     64  C   UNL     1      -0.791  13.292   4.844  1.00  0.00     0.135 A 
ATOM     65  F   UNL     1      -2.905  11.138   2.809  1.00  0.00    -0.206 F 
ATOM     66  C   UNL     1      -2.412  13.419   2.580  1.00  0.00     0.059 A 
ATOM     67  C   UNL     1      -0.944  14.506   4.180  1.00  0.00     0.059 A 
ATOM     68  F   UNL     1       0.005  13.258   5.923  1.00  0.00    -0.206 F 
ATOM     69  C   UNL     1      -1.746  14.556   3.041  1.00  0.00     0.060 A 
BRANCH  69  70
ATOM     70  S   UNL     1      -1.951  16.101   2.130  1.00  0.00     0.124 S 
ATOM     71  O   UNL     1      -1.206  15.819   0.906  1.00  0.00    -0.237 OA
ATOM     72  O   UNL     1      -3.400  16.187   1.985  1.00  0.00    -0.237 OA
ATOM     73  O   UNL     1      -1.351  17.099   3.011  1.00  0.00    -0.744 OA
ENDBRANCH  69  70
ENDBRANCH  48  62
BRANCH  49  74
ATOM     74  C   UNL     1      -0.368   3.368   9.020  1.00  0.00     0.058 A 
ATOM     75  C   UNL     1      -1.459   2.562   9.384  1.00  0.00     0.135 A 
ATOM     76  C   UNL     1       0.911   2.943   9.414  1.00  0.00     0.135 A 
ATOM     77  F   UNL     1      -2.705   2.932   9.052  1.00  0.00    -0.206 F 
ATOM     78  C   UNL     1      -1.293   1.401  10.134  1.00  0.00     0.059 A 
ATOM     79  C   UNL     1       1.105   1.769  10.137  1.00  0.00     0.059 A 
ATOM     80  F   UNL     1       1.991   3.672   9.093  1.00  0.00    -0.206 F 
ATOM     81  C   UNL     1      -0.005   1.012  10.506  1.00  0.00     0.060 A 
BRANCH  81  82
ATOM     82  S   UNL     1       0.206  -0.511  11.455  1.00  0.00     0.124 S 
ATOM     83  O   UNL     1      -0.309  -0.118  12.761  1.00  0.00    -0.237 OA
ATOM     84  O   UNL     1      -0.614  -1.456  10.703  1.00  0.00    -0.237 OA
ATOM     85  O   UNL     1       1.644  -0.751  11.390  1.00  0.00    -0.744 OA
ENDBRANCH  81  82
ENDBRANCH  49  74
BRANCH  61  86
ATOM     86  C   UNL     1      -3.439   9.383  10.793  1.00  0.00     0.058 A 
ATOM     87  C   UNL     1      -2.818   9.569  12.039  1.00  0.00     0.135 A 
ATOM     88  C   UNL     1      -4.817   9.652  10.710  1.00  0.00     0.135 A 
ATOM     89  F   UNL     1      -1.504   9.329  12.181  1.00  0.00    -0.206 F 
ATOM     90  C   UNL     1      -3.539   9.961  13.165  1.00  0.00     0.059 A 
ATOM     91  C   UNL     1      -5.551  10.078  11.814  1.00  0.00     0.059 A 
ATOM     92  F   UNL     1      -5.464   9.509   9.542  1.00  0.00    -0.206 F 
ATOM     93  C   UNL     1      -4.907  10.211  13.043  1.00  0.00     0.060 A 
BRANCH  93  94
ATOM     94  S   UNL     1      -5.830  10.722  14.508  1.00  0.00     0.124 S 
ATOM     95  O   UNL     1      -5.894   9.476  15.266  1.00  0.00    -0.237 OA
ATOM     96  O   UNL     1      -4.975  11.763  15.070  1.00  0.00    -0.237 OA
ATOM     97  O   UNL     1      -7.102  11.191  13.964  1.00  0.00    -0.744 OA
ENDBRANCH  93  94
ENDBRANCH  61  86
ENDBRANCH  35  36
ENDBRANCH  28  30
ENDBRANCH  27  28
ENDBRANCH  26  27
ENDBRANCH  25  26
ENDBRANCH  24  25
ENDBRANCH  23  24
ENDBRANCH   1  23
TORSDOF 24
