REMARK SMILES CCc1noc(C)c1C(=O)Nc1cc(Cl)ccc1C(=O)OCCOCCOCCOC(=O)c1ccc(-c2c3nc(c(-c4c(F)cc(S(=O)(=O)[O-])cc4F)c4ccc([nH]4)c(-c4c(F)cc(S(=O)(=O)[O-])cc4F)c4nc(c(-c5c(F)cc(S(=O)(=O)[O-])cc5F)c5ccc2[nH]5)C=C4)C=C3)cc1
REMARK SMILES IDX 25 1 24 2 23 3 22 4 21 5 19 6 20 7 18 8 12 9 13 10 14 11
REMARK SMILES IDX 17 12 15 13 16 14 11 15 9 16 10 17 8 19 3 20 4 21 5 22 6 23
REMARK SMILES IDX 7 24 2 25 1 26 26 27 27 28 28 29 29 30 30 31 31 32 32 33
REMARK SMILES IDX 33 34 34 35 98 36 35 37 97 38 36 39 37 40 38 41 91 42 39 43
REMARK SMILES IDX 96 44 90 45 92 46 40 47 95 48 89 49 88 50 41 52 75 53 54 54
REMARK SMILES IDX 74 55 55 56 58 57 73 58 93 59 56 60 57 61 72 63 94 64 59 65
REMARK SMILES IDX 42 66 43 67 52 68 44 69 45 70 51 71 53 72 46 73 47 74 48 75
REMARK SMILES IDX 49 76 50 77 76 78 77 79 86 80 78 81 79 82 85 83 87 84 80 85
REMARK SMILES IDX 81 86 82 87 83 88 84 89 60 90 61 91 70 92 62 93 63 94 69 95
REMARK SMILES IDX 71 96 64 97 65 98 66 99 67 100 68 101
REMARK H PARENT 11 18 92 51 58 62
REMARK Flexibility Score: inf
ROOT
ATOM      1  C   UNL     1       7.085   0.929   5.620  1.00  0.00     0.188 C 
ENDROOT
BRANCH   1   2
ATOM      2  O   UNL     1       7.913  -0.177   5.955  1.00  0.00    -0.376 OA
BRANCH   2   3
ATOM      3  C   UNL     1       7.405  -1.500   5.885  1.00  0.00     0.202 C 
BRANCH   3   4
ATOM      4  C   UNL     1       6.173  -1.860   6.724  1.00  0.00     0.261 C 
BRANCH   4   5
ATOM      5  O   UNL     1       5.058  -0.955   6.587  1.00  0.00    -0.460 OA
BRANCH   5   6
ATOM      6  C   UNL     1       4.761  -0.242   7.702  1.00  0.00     0.340 C 
ATOM      7  O   UNL     1       5.304  -0.371   8.789  1.00  0.00    -0.246 OA
BRANCH   6   8
ATOM      8  C   UNL     1       3.720   0.808   7.477  1.00  0.00     0.083 A 
ATOM      9  C   UNL     1       2.701   0.794   6.494  1.00  0.00     0.057 A 
ATOM     10  C   UNL     1       1.663   1.727   6.605  1.00  0.00     0.047 A 
ATOM     11  C   UNL     1       1.741   2.776   7.527  1.00  0.00     0.043 A 
ATOM     12  C   UNL     1       3.804   1.898   8.366  1.00  0.00     0.019 A 
ATOM     13  Cl  UNL     1       0.490   3.955   7.585  1.00  0.00    -0.084 Cl
ATOM     14  C   UNL     1       2.838   2.899   8.367  1.00  0.00     0.021 A 
BRANCH   9  15
ATOM     15  N   UNL     1       2.749  -0.125   5.427  1.00  0.00    -0.321 N 
ATOM     16  C   UNL     1       2.218  -0.173   4.151  1.00  0.00     0.261 C 
ATOM     17  O   UNL     1       2.309  -1.267   3.586  1.00  0.00    -0.269 OA
ATOM     18  H   UNL     1       3.287  -0.922   5.641  1.00  0.00     0.170 HD
BRANCH  16  19
ATOM     19  C   UNL     1       1.621   0.960   3.447  1.00  0.00     0.105 A 
ATOM     20  C   UNL     1       0.723   0.879   2.322  1.00  0.00     0.096 A 
ATOM     21  N   UNL     1       0.294   2.088   1.945  1.00  0.00    -0.084 NA
ATOM     22  O   UNL     1       1.025   2.984   2.675  1.00  0.00    -0.361 OA
ATOM     23  C   UNL     1       1.877   2.323   3.504  1.00  0.00     0.146 A 
ATOM     24  C   UNL     1       2.836   3.233   4.162  1.00  0.00     0.092 C 
BRANCH  20  25
ATOM     25  C   UNL     1       0.272  -0.296   1.515  1.00  0.00     0.057 C 
ATOM     26  C   UNL     1       0.852  -0.260   0.100  1.00  0.00     0.011 C 
ENDBRANCH  20  25
ENDBRANCH  16  19
ENDBRANCH   9  15
ENDBRANCH   6   8
ENDBRANCH   5   6
ENDBRANCH   4   5
ENDBRANCH   3   4
ENDBRANCH   2   3
ENDBRANCH   1   2
BRANCH   1  27
ATOM     27  C   UNL     1       6.061   0.824   4.473  1.00  0.00     0.188 C 
BRANCH  27  28
ATOM     28  O   UNL     1       6.129  -0.367   3.714  1.00  0.00    -0.376 OA
BRANCH  28  29
ATOM     29  C   UNL     1       6.558  -0.224   2.367  1.00  0.00     0.202 C 
BRANCH  29  30
ATOM     30  C   UNL     1       8.018   0.216   2.168  1.00  0.00     0.261 C 
BRANCH  30  31
ATOM     31  O   UNL     1       8.405   1.432   2.832  1.00  0.00    -0.460 OA
BRANCH  31  32
ATOM     32  C   UNL     1       7.853   2.579   2.374  1.00  0.00     0.338 C 
ATOM     33  O   UNL     1       7.045   2.687   1.472  1.00  0.00    -0.246 OA
BRANCH  32  34
ATOM     34  C   UNL     1       8.236   3.678   3.290  1.00  0.00     0.060 A 
ATOM     35  C   UNL     1       7.225   4.440   3.888  1.00  0.00     0.016 A 
ATOM     36  C   UNL     1       9.580   3.972   3.535  1.00  0.00     0.016 A 
ATOM     37  C   UNL     1       7.556   5.534   4.690  1.00  0.00     0.010 A 
ATOM     38  C   UNL     1       9.910   5.079   4.325  1.00  0.00     0.010 A 
ATOM     39  C   UNL     1       8.900   5.891   4.871  1.00  0.00    -0.014 A 
BRANCH  39  40
ATOM     40  C   UNL     1       9.232   7.229   5.426  1.00  0.00     0.031 A 
ATOM     41  C   UNL     1       9.497   8.353   4.457  1.00  0.00     0.074 A 
ATOM     42  C   UNL     1       9.266   7.460   6.752  1.00  0.00     0.049 A 
ATOM     43  N   UNL     1       9.807   9.601   4.694  1.00  0.00    -0.248 NA
ATOM     44  C   UNL     1       9.398   8.020   3.025  1.00  0.00     0.031 C 
ATOM     45  C   UNL     1       9.002   6.469   7.793  1.00  0.00     0.029 A 
ATOM     46  N   UNL     1       9.542   8.612   7.447  1.00  0.00    -0.354 N 
ATOM     47  C   UNL     1       9.945  10.199   3.446  1.00  0.00     0.074 A 
ATOM     48  C   UNL     1       9.714   9.173   2.454  1.00  0.00     0.031 C 
ATOM     49  C   UNL     1       9.136   7.056   8.997  1.00  0.00     0.029 A 
ATOM     50  C   UNL     1       9.516   8.456   8.813  1.00  0.00     0.049 A 
ATOM     51  H   UNL     1       9.740   9.471   7.008  1.00  0.00     0.167 HD
ATOM     52  C   UNL     1      10.230  11.489   3.150  1.00  0.00     0.037 A 
ATOM     53  C   UNL     1       9.782   9.339   9.797  1.00  0.00     0.037 A 
ATOM     54  C   UNL     1      10.455  12.513   4.135  1.00  0.00     0.049 A 
ATOM     55  C   UNL     1      10.145  10.761   9.441  1.00  0.00     0.074 A 
ATOM     56  C   UNL     1      10.732  13.854   3.933  1.00  0.00     0.029 A 
ATOM     57  N   UNL     1      10.436  12.310   5.506  1.00  0.00    -0.354 N 
ATOM     58  N   UNL     1      10.240  11.318   8.257  1.00  0.00    -0.248 NA
ATOM     59  C   UNL     1      10.430  11.675  10.557  1.00  0.00     0.031 C 
ATOM     60  C   UNL     1      10.922  14.454   5.183  1.00  0.00     0.029 A 
ATOM     61  C   UNL     1      10.713  13.497   6.163  1.00  0.00     0.049 A 
ATOM     62  H   UNL     1      10.252  11.450   5.947  1.00  0.00     0.167 HD
ATOM     63  C   UNL     1      10.557  12.655   8.489  1.00  0.00     0.074 A 
ATOM     64  C   UNL     1      10.632  12.823   9.924  1.00  0.00     0.031 C 
ATOM     65  C   UNL     1      10.764  13.654   7.594  1.00  0.00     0.037 A 
BRANCH  52  66
ATOM     66  C   UNL     1      10.334  11.863   1.698  1.00  0.00     0.058 A 
ATOM     67  C   UNL     1       9.200  11.957   0.876  1.00  0.00     0.135 A 
ATOM     68  C   UNL     1      11.582  12.166   1.131  1.00  0.00     0.135 A 
ATOM     69  F   UNL     1       7.985  11.655   1.363  1.00  0.00    -0.206 F 
ATOM     70  C   UNL     1       9.301  12.321  -0.463  1.00  0.00     0.059 A 
ATOM     71  C   UNL     1      11.704  12.557  -0.199  1.00  0.00     0.059 A 
ATOM     72  F   UNL     1      12.698  12.086   1.872  1.00  0.00    -0.206 F 
ATOM     73  C   UNL     1      10.559  12.621  -0.991  1.00  0.00     0.060 A 
BRANCH  73  74
ATOM     74  S   UNL     1      10.673  13.108  -2.725  1.00  0.00     0.124 S 
ATOM     75  O   UNL     1      10.449  11.834  -3.400  1.00  0.00    -0.237 OA
ATOM     76  O   UNL     1       9.597  14.087  -2.846  1.00  0.00    -0.237 OA
ATOM     77  O   UNL     1      12.024  13.649  -2.837  1.00  0.00    -0.744 OA
ENDBRANCH  73  74
ENDBRANCH  52  66
BRANCH  53  78
ATOM     78  C   UNL     1       9.722   8.918  11.224  1.00  0.00     0.058 A 
ATOM     79  C   UNL     1       8.731   9.412  12.086  1.00  0.00     0.135 A 
ATOM     80  C   UNL     1      10.678   8.044  11.764  1.00  0.00     0.135 A 
ATOM     81  F   UNL     1       7.801  10.261  11.621  1.00  0.00    -0.206 F 
ATOM     82  C   UNL     1       8.704   9.077  13.436  1.00  0.00     0.059 A 
ATOM     83  C   UNL     1      10.657   7.673  13.105  1.00  0.00     0.059 A 
ATOM     84  F   UNL     1      11.643   7.537  10.982  1.00  0.00    -0.206 F 
ATOM     85  C   UNL     1       9.674   8.207  13.937  1.00  0.00     0.060 A 
BRANCH  85  86
ATOM     86  S   UNL     1       9.615   7.756  15.685  1.00  0.00     0.124 S 
ATOM     87  O   UNL     1      10.107   8.974  16.319  1.00  0.00    -0.237 OA
ATOM     88  O   UNL     1       8.199   7.461  15.879  1.00  0.00    -0.237 OA
ATOM     89  O   UNL     1      10.504   6.600  15.761  1.00  0.00    -0.744 OA
ENDBRANCH  85  86
ENDBRANCH  53  78
BRANCH  65  90
ATOM     90  C   UNL     1      11.033  15.031   8.138  1.00  0.00     0.058 A 
ATOM     91  C   UNL     1      12.254  15.366   8.742  1.00  0.00     0.135 A 
ATOM     92  C   UNL     1      10.066  16.042   8.010  1.00  0.00     0.135 A 
ATOM     93  F   UNL     1      13.211  14.437   8.891  1.00  0.00    -0.206 F 
ATOM     94  C   UNL     1      12.495  16.647   9.231  1.00  0.00     0.059 A 
ATOM     95  C   UNL     1      10.296  17.336   8.466  1.00  0.00     0.059 A 
ATOM     96  F   UNL     1       8.886  15.780   7.425  1.00  0.00    -0.206 F 
ATOM     97  C   UNL     1      11.508  17.625   9.090  1.00  0.00     0.060 A 
BRANCH  97  98
ATOM     98  S   UNL     1      11.837  19.287   9.713  1.00  0.00     0.124 S 
ATOM     99  O   UNL     1      11.678  19.099  11.151  1.00  0.00    -0.237 OA
ATOM    100  O   UNL     1      13.201  19.532   9.253  1.00  0.00    -0.237 OA
ATOM    101  O   UNL     1      10.810  20.101   9.068  1.00  0.00    -0.744 OA
ENDBRANCH  97  98
ENDBRANCH  65  90
ENDBRANCH  39  40
ENDBRANCH  32  34
ENDBRANCH  31  32
ENDBRANCH  30  31
ENDBRANCH  29  30
ENDBRANCH  28  29
ENDBRANCH  27  28
ENDBRANCH   1  27
TORSDOF 23
