REMARK SMILES Cc1cnc(S[C@H]2CC[C@@]([NH2+]C(C)C)(C(=O)OCCOCCOCCOC(=O)c3ccc(-c4c5nc(c(-c6c(F)cc(S(=O)(=O)[O-])cc6F)c6ccc([nH]6)c(-c6c(F)cc(S(=O)(=O)[O-])cc6F)c6nc(c(-c7c(F)cc(S(=O)(=O)[O-])cc7F)c7ccc4[nH]7)C=C6)C=C5)cc3)C2)nc1
REMARK SMILES IDX 22 1 21 2 20 3 19 4 18 5 17 6 15 7 16 8 10 9 7 10 8 11 95 12
REMARK SMILES IDX 9 13 6 14 5 15 1 16 2 17 3 18 97 19 4 20 96 21 11 22 12 25
REMARK SMILES IDX 13 26 14 27 23 28 24 29 25 30 26 31 27 32 28 33 29 34 30 35
REMARK SMILES IDX 94 36 31 37 93 38 32 39 33 40 34 41 87 42 35 43 92 44 86 45
REMARK SMILES IDX 88 46 36 47 91 48 85 49 84 50 37 52 71 53 50 54 70 55 51 56
REMARK SMILES IDX 54 57 69 58 89 59 52 60 53 61 68 63 90 64 55 65 38 66 39 67
REMARK SMILES IDX 48 68 40 69 41 70 47 71 49 72 42 73 43 74 44 75 45 76 46 77
REMARK SMILES IDX 72 78 73 79 82 80 74 81 75 82 81 83 83 84 76 85 77 86 78 87
REMARK SMILES IDX 79 88 80 89 56 90 57 91 66 92 58 93 59 94 65 95 67 96 60 97
REMARK SMILES IDX 61 98 62 99 63 100 64 101
REMARK H PARENT 11 23 11 24 88 51 54 62
REMARK Flexibility Score: inf
ROOT
ATOM      1  C   UNL     1       7.275  -3.907  -1.150  1.00  0.00     0.188 C 
ENDROOT
BRANCH   1   2
ATOM      2  C   UNL     1       7.761  -3.610   0.284  1.00  0.00     0.188 C 
BRANCH   2   3
ATOM      3  O   UNL     1       8.334  -4.618   1.097  1.00  0.00    -0.376 OA
BRANCH   3   4
ATOM      4  C   UNL     1       8.069  -5.976   0.820  1.00  0.00     0.202 C 
BRANCH   4   5
ATOM      5  C   UNL     1       6.679  -6.507   1.179  1.00  0.00     0.261 C 
BRANCH   5   6
ATOM      6  O   UNL     1       5.568  -5.904   0.488  1.00  0.00    -0.459 OA
BRANCH   6   7
ATOM      7  C   UNL     1       5.007  -4.847   1.135  1.00  0.00     0.368 C 
ATOM      8  O   UNL     1       5.485  -4.348   2.154  1.00  0.00    -0.245 OA
BRANCH   7   9
ATOM      9  C   UNL     1       3.646  -4.375   0.562  1.00  0.00     0.195 C 
ATOM     10  C   UNL     1       3.234  -2.422  -1.069  1.00  0.00     0.062 C 
ATOM     11  C   UNL     1       2.389  -3.662  -1.390  1.00  0.00     0.022 C 
ATOM     12  C   UNL     1       3.708  -2.801   0.372  1.00  0.00     0.096 C 
ATOM     13  C   UNL     1       3.242  -4.834  -0.853  1.00  0.00     0.082 C 
BRANCH  10  14
ATOM     14  S   UNL     1       4.496  -2.429  -2.432  1.00  0.00    -0.083 SA
BRANCH  14  15
ATOM     15  C   UNL     1       4.970  -0.793  -2.937  1.00  0.00     0.187 A 
ATOM     16  C   UNL     1       6.498   2.502  -5.114  1.00  0.00     0.048 C 
ATOM     17  C   UNL     1       5.936   1.377  -4.309  1.00  0.00    -0.014 A 
ATOM     18  C   UNL     1       4.593   1.186  -4.033  1.00  0.00     0.119 A 
ATOM     19  C   UNL     1       6.747   0.375  -3.845  1.00  0.00     0.119 A 
ATOM     20  N   UNL     1       4.080   0.118  -3.352  1.00  0.00    -0.231 NA
ATOM     21  N   UNL     1       6.294  -0.707  -3.183  1.00  0.00    -0.231 NA
ENDBRANCH  14  15
ENDBRANCH  10  14
BRANCH   9  22
ATOM     22  N   UNL     1       2.526  -4.906   1.407  1.00  0.00    -0.330 N 
ATOM     23  H   UNL     1       2.143  -5.715   0.919  1.00  0.00     0.347 HD
ATOM     24  H   UNL     1       1.909  -4.102   1.521  1.00  0.00     0.347 HD
BRANCH  22  25
ATOM     25  C   UNL     1       2.801  -5.329   2.787  1.00  0.00     0.176 C 
ATOM     26  C   UNL     1       2.618  -4.166   3.753  1.00  0.00     0.075 C 
ATOM     27  C   UNL     1       1.869  -6.491   3.146  1.00  0.00     0.075 C 
ENDBRANCH  22  25
ENDBRANCH   9  22
ENDBRANCH   7   9
ENDBRANCH   6   7
ENDBRANCH   5   6
ENDBRANCH   4   5
ENDBRANCH   3   4
ENDBRANCH   2   3
ENDBRANCH   1   2
BRANCH   1  28
ATOM     28  O   UNL     1       8.007  -4.780  -1.992  1.00  0.00    -0.376 OA
BRANCH  28  29
ATOM     29  C   UNL     1       9.368  -4.461  -2.231  1.00  0.00     0.202 C 
BRANCH  29  30
ATOM     30  C   UNL     1       9.707  -3.008  -2.595  1.00  0.00     0.261 C 
BRANCH  30  31
ATOM     31  O   UNL     1       9.291  -2.073  -1.581  1.00  0.00    -0.460 OA
BRANCH  31  32
ATOM     32  C   UNL     1       9.512  -0.773  -1.873  1.00  0.00     0.338 C 
ATOM     33  O   UNL     1      10.215  -0.377  -2.789  1.00  0.00    -0.246 OA
BRANCH  32  34
ATOM     34  C   UNL     1       8.738   0.169  -1.004  1.00  0.00     0.060 A 
ATOM     35  C   UNL     1       7.437  -0.090  -0.558  1.00  0.00     0.016 A 
ATOM     36  C   UNL     1       9.245   1.461  -0.850  1.00  0.00     0.016 A 
ATOM     37  C   UNL     1       6.607   0.956  -0.123  1.00  0.00     0.010 A 
ATOM     38  C   UNL     1       8.442   2.490  -0.339  1.00  0.00     0.010 A 
ATOM     39  C   UNL     1       7.092   2.268  -0.025  1.00  0.00    -0.014 A 
BRANCH  39  40
ATOM     40  C   UNL     1       6.213   3.409   0.379  1.00  0.00     0.031 A 
ATOM     41  C   UNL     1       5.980   4.581  -0.551  1.00  0.00     0.074 A 
ATOM     42  C   UNL     1       5.623   3.416   1.591  1.00  0.00     0.049 A 
ATOM     43  N   UNL     1       5.417   5.740  -0.312  1.00  0.00    -0.248 NA
ATOM     44  C   UNL     1       6.428   4.422  -1.943  1.00  0.00     0.031 C 
ATOM     45  C   UNL     1       5.683   2.329   2.568  1.00  0.00     0.029 A 
ATOM     46  N   UNL     1       4.872   4.383   2.217  1.00  0.00    -0.354 N 
ATOM     47  C   UNL     1       5.469   6.455  -1.507  1.00  0.00     0.074 A 
ATOM     48  C   UNL     1       6.107   5.593  -2.479  1.00  0.00     0.031 C 
ATOM     49  C   UNL     1       5.002   2.687   3.667  1.00  0.00     0.029 A 
ATOM     50  C   UNL     1       4.541   4.062   3.514  1.00  0.00     0.049 A 
ATOM     51  H   UNL     1       4.598   5.222   1.781  1.00  0.00     0.167 HD
ATOM     52  C   UNL     1       5.044   7.719  -1.762  1.00  0.00     0.037 A 
ATOM     53  C   UNL     1       3.997   4.806   4.497  1.00  0.00     0.037 A 
ATOM     54  C   UNL     1       4.418   8.578  -0.784  1.00  0.00     0.049 A 
ATOM     55  C   UNL     1       3.644   6.243   4.227  1.00  0.00     0.074 A 
ATOM     56  C   UNL     1       3.972   9.881  -0.942  1.00  0.00     0.029 A 
ATOM     57  N   UNL     1       4.159   8.229   0.532  1.00  0.00    -0.354 N 
ATOM     58  N   UNL     1       3.743   6.922   3.109  1.00  0.00    -0.248 NA
ATOM     59  C   UNL     1       3.124   7.021   5.360  1.00  0.00     0.031 C 
ATOM     60  C   UNL     1       3.502  10.339   0.294  1.00  0.00     0.029 A 
ATOM     61  C   UNL     1       3.596   9.303   1.206  1.00  0.00     0.049 A 
ATOM     62  H   UNL     1       4.347   7.349   0.930  1.00  0.00     0.167 HD
ATOM     63  C   UNL     1       3.284   8.203   3.402  1.00  0.00     0.074 A 
ATOM     64  C   UNL     1       2.882   8.194   4.793  1.00  0.00     0.031 C 
ATOM     65  C   UNL     1       3.207   9.289   2.594  1.00  0.00     0.037 A 
BRANCH  52  66
ATOM     66  C   UNL     1       5.289   8.300  -3.132  1.00  0.00     0.058 A 
ATOM     67  C   UNL     1       4.517   7.944  -4.248  1.00  0.00     0.135 A 
ATOM     68  C   UNL     1       6.248   9.315  -3.302  1.00  0.00     0.135 A 
ATOM     69  F   UNL     1       3.597   6.972  -4.151  1.00  0.00    -0.206 F 
ATOM     70  C   UNL     1       4.687   8.571  -5.481  1.00  0.00     0.059 A 
ATOM     71  C   UNL     1       6.422   9.969  -4.519  1.00  0.00     0.059 A 
ATOM     72  F   UNL     1       7.016   9.696  -2.268  1.00  0.00    -0.206 F 
ATOM     73  C   UNL     1       5.639   9.586  -5.605  1.00  0.00     0.060 A 
BRANCH  73  74
ATOM     74  S   UNL     1       5.830  10.406  -7.205  1.00  0.00     0.124 S 
ATOM     75  O   UNL     1       6.436   9.345  -8.004  1.00  0.00    -0.237 OA
ATOM     76  O   UNL     1       4.454  10.749  -7.545  1.00  0.00    -0.237 OA
ATOM     77  O   UNL     1       6.701  11.540  -6.906  1.00  0.00    -0.744 OA
ENDBRANCH  73  74
ENDBRANCH  52  66
BRANCH  53  78
ATOM     78  C   UNL     1       3.831   4.229   5.860  1.00  0.00     0.058 A 
ATOM     79  C   UNL     1       2.561   4.036   6.422  1.00  0.00     0.135 A 
ATOM     80  C   UNL     1       4.948   3.869   6.634  1.00  0.00     0.135 A 
ATOM     81  F   UNL     1       1.463   4.379   5.731  1.00  0.00    -0.206 F 
ATOM     82  C   UNL     1       2.403   3.525   7.706  1.00  0.00     0.059 A 
ATOM     83  C   UNL     1       4.814   3.321   7.904  1.00  0.00     0.059 A 
ATOM     84  F   UNL     1       6.188   4.029   6.144  1.00  0.00    -0.206 F 
ATOM     85  C   UNL     1       3.537   3.167   8.438  1.00  0.00     0.060 A 
BRANCH  85  86
ATOM     86  S   UNL     1       3.323   2.469  10.089  1.00  0.00     0.124 S 
ATOM     87  O   UNL     1       2.979   3.655  10.865  1.00  0.00    -0.237 OA
ATOM     88  O   UNL     1       2.246   1.507   9.880  1.00  0.00    -0.237 OA
ATOM     89  O   UNL     1       4.629   1.883  10.376  1.00  0.00    -0.744 OA
ENDBRANCH  85  86
ENDBRANCH  53  78
BRANCH  65  90
ATOM     90  C   UNL     1       2.639  10.548   3.193  1.00  0.00     0.058 A 
ATOM     91  C   UNL     1       3.345  11.294   4.150  1.00  0.00     0.135 A 
ATOM     92  C   UNL     1       1.369  11.009   2.812  1.00  0.00     0.135 A 
ATOM     93  F   UNL     1       4.562  10.895   4.554  1.00  0.00    -0.206 F 
ATOM     94  C   UNL     1       2.792  12.424   4.745  1.00  0.00     0.059 A 
ATOM     95  C   UNL     1       0.809  12.154   3.370  1.00  0.00     0.059 A 
ATOM     96  F   UNL     1       0.655  10.343   1.891  1.00  0.00    -0.206 F 
ATOM     97  C   UNL     1       1.519  12.842   4.353  1.00  0.00     0.060 A 
BRANCH  97  98
ATOM     98  S   UNL     1       0.804  14.299   5.143  1.00  0.00     0.124 S 
ATOM     99  O   UNL     1       0.437  13.772   6.453  1.00  0.00    -0.237 OA
ATOM    100  O   UNL     1       1.917  15.243   5.129  1.00  0.00    -0.237 OA
ATOM    101  O   UNL     1      -0.314  14.644   4.270  1.00  0.00    -0.744 OA
ENDBRANCH  97  98
ENDBRANCH  65  90
ENDBRANCH  39  40
ENDBRANCH  32  34
ENDBRANCH  31  32
ENDBRANCH  30  31
ENDBRANCH  29  30
ENDBRANCH  28  29
ENDBRANCH   1  28
TORSDOF 24
