REMARK SMILES CCc1ccc(-c2cc(Cl)cc3c2O[C@H](C(F)(F)F)C(C(=O)OCCOCCOCCOC(=O)c2ccc(-c4c5nc(c(-c6c(F)cc(S(=O)(=O)[O-])cc6F)c6ccc([nH]6)c(-c6c(F)cc(S(=O)(=O)[O-])cc6F)c6nc(c(-c7c(F)cc(S(=O)(=O)[O-])cc7F)c7ccc4[nH]7)C=C6)C=C5)cc2)=C3)cc1
REMARK SMILES IDX 28 1 27 2 26 3 25 4 24 5 23 6 21 7 22 8 20 9 7 10 8 11 13 12
REMARK SMILES IDX 9 13 12 14 14 15 10 16 11 17 101 18 15 19 6 20 3 21 4 22
REMARK SMILES IDX 103 23 5 24 102 25 2 26 1 27 16 28 17 29 18 30 19 31 29 32
REMARK SMILES IDX 30 33 31 34 32 35 33 36 34 37 35 38 36 39 100 40 37 41 99 42
REMARK SMILES IDX 38 43 39 44 40 45 93 46 41 47 98 48 92 49 94 50 42 51 97 52
REMARK SMILES IDX 91 53 90 54 43 56 77 57 56 58 76 59 57 60 60 61 75 62 95 63
REMARK SMILES IDX 58 64 59 65 74 67 96 68 61 69 44 70 45 71 54 72 46 73 47 74
REMARK SMILES IDX 53 75 55 76 48 77 49 78 50 79 51 80 52 81 78 82 79 83 88 84
REMARK SMILES IDX 80 85 81 86 87 87 89 88 82 89 83 90 84 91 85 92 86 93 62 94
REMARK SMILES IDX 63 95 72 96 64 97 65 98 71 99 73 100 66 101 67 102 68 103
REMARK SMILES IDX 69 104 70 105
REMARK H PARENT 94 55 60 66
REMARK Flexibility Score: inf
ROOT
ATOM      1  C   UNL     1       6.048   6.161  -8.733  1.00  0.00     0.188 C 
ENDROOT
BRANCH   1   2
ATOM      2  C   UNL     1       4.607   5.636  -8.915  1.00  0.00     0.188 C 
BRANCH   2   3
ATOM      3  O   UNL     1       4.114   5.688 -10.243  1.00  0.00    -0.376 OA
BRANCH   3   4
ATOM      4  C   UNL     1       3.269   6.790 -10.561  1.00  0.00     0.202 C 
BRANCH   4   5
ATOM      5  C   UNL     1       3.864   8.177 -10.280  1.00  0.00     0.261 C 
BRANCH   5   6
ATOM      6  O   UNL     1       3.921   8.439  -8.857  1.00  0.00    -0.460 OA
BRANCH   6   7
ATOM      7  C   UNL     1       2.810   8.992  -8.331  1.00  0.00     0.338 C 
ATOM      8  O   UNL     1       1.873   9.441  -8.993  1.00  0.00    -0.246 OA
BRANCH   7   9
ATOM      9  C   UNL     1       2.760   8.857  -6.854  1.00  0.00     0.087 C 
ATOM     10  C   UNL     1       2.571   5.317  -4.715  1.00  0.00     0.026 A 
ATOM     11  C   UNL     1       2.007   4.349  -5.571  1.00  0.00     0.033 A 
ATOM     12  C   UNL     1       2.576   6.625  -5.201  1.00  0.00     0.135 A 
ATOM     13  C   UNL     1       1.307   4.690  -6.727  1.00  0.00     0.042 A 
ATOM     14  C   UNL     1       1.678   6.981  -6.223  1.00  0.00     0.019 A 
ATOM     15  O   UNL     1       3.495   7.594  -4.819  1.00  0.00    -0.475 OA
ATOM     16  Cl  UNL     1       0.678   3.461  -7.747  1.00  0.00    -0.084 Cl
ATOM     17  C   UNL     1       1.061   6.020  -7.011  1.00  0.00     0.032 A 
ATOM     18  C   UNL     1       1.534   8.424  -6.508  1.00  0.00     0.027 C 
ATOM     19  C   UNL     1       3.945   8.360  -6.024  1.00  0.00     0.316 C 
BRANCH  10  20
ATOM     20  C   UNL     1       2.660   4.919  -3.288  1.00  0.00    -0.015 A 
ATOM     21  C   UNL     1       2.105   3.629  -0.793  1.00  0.00    -0.048 A 
ATOM     22  C   UNL     1       3.131   3.174  -1.625  1.00  0.00     0.004 A 
ATOM     23  C   UNL     1       1.390   4.763  -1.199  1.00  0.00     0.004 A 
ATOM     24  C   UNL     1       3.404   3.811  -2.851  1.00  0.00     0.009 A 
ATOM     25  C   UNL     1       1.670   5.401  -2.414  1.00  0.00     0.009 A 
BRANCH  21  26
ATOM     26  C   UNL     1       1.689   2.956   0.497  1.00  0.00     0.032 C 
ATOM     27  C   UNL     1       2.400   1.663   0.877  1.00  0.00     0.009 C 
ENDBRANCH  21  26
ENDBRANCH  10  20
BRANCH  19  28
ATOM     28  C   UNL     1       4.857   9.532  -5.653  1.00  0.00     0.430 C 
ATOM     29  F   UNL     1       4.243  10.436  -4.860  1.00  0.00    -0.167 F 
ATOM     30  F   UNL     1       5.978   9.115  -5.022  1.00  0.00    -0.167 F 
ATOM     31  F   UNL     1       5.266  10.194  -6.768  1.00  0.00    -0.167 F 
ENDBRANCH  19  28
ENDBRANCH   7   9
ENDBRANCH   6   7
ENDBRANCH   5   6
ENDBRANCH   4   5
ENDBRANCH   3   4
ENDBRANCH   2   3
ENDBRANCH   1   2
BRANCH   1  32
ATOM     32  O   UNL     1       6.792   6.611  -9.858  1.00  0.00    -0.376 OA
BRANCH  32  33
ATOM     33  C   UNL     1       6.817   5.819 -11.039  1.00  0.00     0.202 C 
BRANCH  33  34
ATOM     34  C   UNL     1       7.239   4.347 -10.944  1.00  0.00     0.261 C 
BRANCH  34  35
ATOM     35  O   UNL     1       6.457   3.545 -10.037  1.00  0.00    -0.460 OA
BRANCH  35  36
ATOM     36  C   UNL     1       7.127   3.065  -8.969  1.00  0.00     0.338 C 
ATOM     37  O   UNL     1       8.320   3.256  -8.707  1.00  0.00    -0.246 OA
BRANCH  36  38
ATOM     38  C   UNL     1       6.233   2.389  -8.011  1.00  0.00     0.060 A 
ATOM     39  C   UNL     1       6.258   2.825  -6.681  1.00  0.00     0.016 A 
ATOM     40  C   UNL     1       5.496   1.254  -8.361  1.00  0.00     0.016 A 
ATOM     41  C   UNL     1       5.610   2.087  -5.690  1.00  0.00     0.010 A 
ATOM     42  C   UNL     1       4.847   0.510  -7.360  1.00  0.00     0.010 A 
ATOM     43  C   UNL     1       4.935   0.899  -6.012  1.00  0.00    -0.014 A 
BRANCH  43  44
ATOM     44  C   UNL     1       4.564  -0.032  -4.904  1.00  0.00     0.031 A 
ATOM     45  C   UNL     1       5.642  -0.926  -4.359  1.00  0.00     0.074 A 
ATOM     46  C   UNL     1       3.331  -0.055  -4.362  1.00  0.00     0.049 A 
ATOM     47  N   UNL     1       5.627  -1.694  -3.303  1.00  0.00    -0.248 NA
ATOM     48  C   UNL     1       6.899  -0.973  -5.124  1.00  0.00     0.031 C 
ATOM     49  C   UNL     1       2.216   0.740  -4.846  1.00  0.00     0.029 A 
ATOM     50  N   UNL     1       2.809  -0.722  -3.276  1.00  0.00    -0.354 N 
ATOM     51  C   UNL     1       6.850  -2.355  -3.305  1.00  0.00     0.074 A 
ATOM     52  C   UNL     1       7.591  -1.879  -4.452  1.00  0.00     0.031 C 
ATOM     53  C   UNL     1       1.188   0.635  -3.988  1.00  0.00     0.029 A 
ATOM     54  C   UNL     1       1.523  -0.330  -2.941  1.00  0.00     0.049 A 
ATOM     55  H   UNL     1       3.305  -1.414  -2.782  1.00  0.00     0.167 HD
ATOM     56  C   UNL     1       7.297  -3.298  -2.444  1.00  0.00     0.037 A 
ATOM     57  C   UNL     1       0.733  -0.704  -1.905  1.00  0.00     0.037 A 
ATOM     58  C   UNL     1       6.548  -3.758  -1.304  1.00  0.00     0.049 A 
ATOM     59  C   UNL     1       1.300  -1.736  -0.944  1.00  0.00     0.074 A 
ATOM     60  C   UNL     1       6.913  -4.697  -0.357  1.00  0.00     0.029 A 
ATOM     61  N   UNL     1       5.276  -3.319  -0.966  1.00  0.00    -0.354 N 
ATOM     62  N   UNL     1       2.525  -2.207  -0.851  1.00  0.00    -0.248 NA
ATOM     63  C   UNL     1       0.380  -2.280   0.065  1.00  0.00     0.031 C 
ATOM     64  C   UNL     1       5.841  -4.861   0.526  1.00  0.00     0.029 A 
ATOM     65  C   UNL     1       4.825  -3.993   0.156  1.00  0.00     0.049 A 
ATOM     66  H   UNL     1       4.768  -2.629  -1.452  1.00  0.00     0.167 HD
ATOM     67  C   UNL     1       2.535  -3.034   0.272  1.00  0.00     0.074 A 
ATOM     68  C   UNL     1       1.208  -2.957   0.847  1.00  0.00     0.031 C 
ATOM     69  C   UNL     1       3.532  -3.812   0.771  1.00  0.00     0.037 A 
BRANCH  56  70
ATOM     70  C   UNL     1       8.617  -3.946  -2.753  1.00  0.00     0.058 A 
ATOM     71  C   UNL     1       9.839  -3.273  -2.596  1.00  0.00     0.135 A 
ATOM     72  C   UNL     1       8.654  -5.269  -3.223  1.00  0.00     0.135 A 
ATOM     73  F   UNL     1       9.859  -1.997  -2.178  1.00  0.00    -0.206 F 
ATOM     74  C   UNL     1      11.049  -3.881  -2.917  1.00  0.00     0.059 A 
ATOM     75  C   UNL     1       9.854  -5.905  -3.526  1.00  0.00     0.059 A 
ATOM     76  F   UNL     1       7.514  -5.954  -3.403  1.00  0.00    -0.206 F 
ATOM     77  C   UNL     1      11.046  -5.198  -3.383  1.00  0.00     0.060 A 
BRANCH  77  78
ATOM     78  S   UNL     1      12.622  -5.975  -3.796  1.00  0.00     0.124 S 
ATOM     79  O   UNL     1      12.963  -5.296  -5.043  1.00  0.00    -0.237 OA
ATOM     80  O   UNL     1      13.449  -5.636  -2.643  1.00  0.00    -0.237 OA
ATOM     81  O   UNL     1      12.281  -7.388  -3.925  1.00  0.00    -0.744 OA
ENDBRANCH  77  78
ENDBRANCH  56  70
BRANCH  57  82
ATOM     82  C   UNL     1      -0.599  -0.040  -1.630  1.00  0.00     0.058 A 
ATOM     83  C   UNL     1      -0.888   0.505  -0.363  1.00  0.00     0.135 A 
ATOM     84  C   UNL     1      -1.607   0.113  -2.598  1.00  0.00     0.135 A 
ATOM     85  F   UNL     1      -0.036   0.340   0.658  1.00  0.00    -0.206 F 
ATOM     86  C   UNL     1      -2.052   1.218  -0.088  1.00  0.00     0.059 A 
ATOM     87  C   UNL     1      -2.764   0.866  -2.365  1.00  0.00     0.059 A 
ATOM     88  F   UNL     1      -1.471  -0.447  -3.810  1.00  0.00    -0.206 F 
ATOM     89  C   UNL     1      -2.966   1.433  -1.110  1.00  0.00     0.060 A 
BRANCH  89  90
ATOM     90  S   UNL     1      -4.390   2.488  -0.770  1.00  0.00     0.124 S 
ATOM     91  O   UNL     1      -5.013   1.806   0.359  1.00  0.00    -0.237 OA
ATOM     92  O   UNL     1      -3.746   3.763  -0.467  1.00  0.00    -0.237 OA
ATOM     93  O   UNL     1      -5.143   2.451  -2.019  1.00  0.00    -0.744 OA
ENDBRANCH  89  90
ENDBRANCH  57  82
BRANCH  69  94
ATOM     94  C   UNL     1       3.258  -4.567   2.050  1.00  0.00     0.058 A 
ATOM     95  C   UNL     1       2.316  -5.607   2.111  1.00  0.00     0.135 A 
ATOM     96  C   UNL     1       3.974  -4.271   3.223  1.00  0.00     0.135 A 
ATOM     97  F   UNL     1       1.613  -5.947   1.019  1.00  0.00    -0.206 F 
ATOM     98  C   UNL     1       2.043  -6.277   3.299  1.00  0.00     0.059 A 
ATOM     99  C   UNL     1       3.748  -4.958   4.413  1.00  0.00     0.059 A 
ATOM    100  F   UNL     1       4.913  -3.311   3.221  1.00  0.00    -0.206 F 
ATOM    101  C   UNL     1       2.760  -5.940   4.448  1.00  0.00     0.060 A 
BRANCH 101 102
ATOM    102  S   UNL     1       2.396  -6.814   5.985  1.00  0.00     0.124 S 
ATOM    103  O   UNL     1       1.185  -6.132   6.429  1.00  0.00    -0.237 OA
ATOM    104  O   UNL     1       2.217  -8.191   5.532  1.00  0.00    -0.237 OA
ATOM    105  O   UNL     1       3.586  -6.579   6.797  1.00  0.00    -0.744 OA
ENDBRANCH 101 102
ENDBRANCH  69  94
ENDBRANCH  43  44
ENDBRANCH  36  38
ENDBRANCH  35  36
ENDBRANCH  34  35
ENDBRANCH  33  34
ENDBRANCH  32  33
ENDBRANCH   1  32
TORSDOF 23
