REMARK SMILES C[NH+]1CC[NH+]([C@]2(C(=O)OCCOCCOCCOC(=O)c3ccc(-c4c5nc(c(-c6c(F)cc(S(=O)(=O)[O-])cc6F)c6ccc([nH]6)c(-c6c(F)cc(S(=O)(=O)[O-])cc6F)c6nc(c(-c7c(F)cc(S(=O)(=O)[O-])cc7F)c7ccc4[nH]7)C=C6)C=C5)cc3)CCCC2(C)C)CC1
REMARK SMILES IDX 14 1 13 2 12 3 11 4 10 5 9 6 7 7 8 8 6 9 87 10 90 11 88 12
REMARK SMILES IDX 89 13 91 14 92 15 5 16 1 17 2 18 3 19 94 20 4 22 93 23 15 25
REMARK SMILES IDX 16 26 17 27 18 28 19 29 20 30 21 31 22 32 86 33 23 34 85 35
REMARK SMILES IDX 24 36 25 37 26 38 79 39 27 40 84 41 78 42 80 43 28 44 83 45
REMARK SMILES IDX 77 46 76 47 29 49 63 50 42 51 62 52 43 53 46 54 61 55 81 56
REMARK SMILES IDX 44 57 45 58 60 60 82 61 47 62 30 63 31 64 40 65 32 66 33 67
REMARK SMILES IDX 39 68 41 69 34 70 35 71 36 72 37 73 38 74 64 75 65 76 74 77
REMARK SMILES IDX 66 78 67 79 73 80 75 81 68 82 69 83 70 84 71 85 72 86 48 87
REMARK SMILES IDX 49 88 58 89 50 90 51 91 57 92 59 93 52 94 53 95 54 96 55 97
REMARK SMILES IDX 56 98
REMARK H PARENT 2 21 5 24 80 48 46 59
REMARK Flexibility Score: inf
ROOT
ATOM      1  C   UNL     1      -1.302  -2.358  -0.924  1.00  0.00     0.188 C 
ENDROOT
BRANCH   1   2
ATOM      2  C   UNL     1      -2.470  -1.694  -1.676  1.00  0.00     0.188 C 
BRANCH   2   3
ATOM      3  O   UNL     1      -2.188  -0.917  -2.837  1.00  0.00    -0.376 OA
BRANCH   3   4
ATOM      4  C   UNL     1      -0.983  -0.166  -2.870  1.00  0.00     0.202 C 
BRANCH   4   5
ATOM      5  C   UNL     1      -0.730   0.826  -1.725  1.00  0.00     0.261 C 
BRANCH   5   6
ATOM      6  O   UNL     1      -1.016   0.311  -0.404  1.00  0.00    -0.459 OA
BRANCH   6   7
ATOM      7  C   UNL     1      -1.534   1.195   0.485  1.00  0.00     0.368 C 
ATOM      8  O   UNL     1      -1.657   2.388   0.202  1.00  0.00    -0.245 OA
BRANCH   7   9
ATOM      9  C   UNL     1      -1.873   0.586   1.958  1.00  0.00     0.201 C 
ATOM     10  C   UNL     1      -2.496  -0.851   2.011  1.00  0.00     0.082 C 
ATOM     11  C   UNL     1      -0.447   0.371   2.688  1.00  0.00     0.031 C 
ATOM     12  C   UNL     1      -1.474  -1.820   2.592  1.00  0.00     0.008 C 
ATOM     13  C   UNL     1      -0.139  -1.130   2.447  1.00  0.00     0.014 C 
ATOM     14  C   UNL     1       0.719   1.200   2.112  1.00  0.00     0.018 C 
ATOM     15  C   UNL     1      -0.413   0.577   4.212  1.00  0.00     0.018 C 
BRANCH   9  16
ATOM     16  N   UNL     1      -2.917   1.568   2.449  1.00  0.00    -0.311 N 
ATOM     17  C   UNL     1      -6.629   3.373   3.800  1.00  0.00     0.333 C 
ATOM     18  N   UNL     1      -5.603   2.400   3.442  1.00  0.00    -0.328 N 
ATOM     19  C   UNL     1      -4.386   2.590   4.239  1.00  0.00     0.324 C 
ATOM     20  C   UNL     1      -5.249   2.517   2.019  1.00  0.00     0.324 C 
ATOM     21  H   UNL     1      -5.991   1.475   3.630  1.00  0.00     0.348 HD
ATOM     22  C   UNL     1      -3.273   1.575   3.874  1.00  0.00     0.325 C 
ATOM     23  C   UNL     1      -4.185   1.468   1.645  1.00  0.00     0.325 C 
ATOM     24  H   UNL     1      -2.424   2.450   2.311  1.00  0.00     0.349 HD
ENDBRANCH   9  16
ENDBRANCH   7   9
ENDBRANCH   6   7
ENDBRANCH   5   6
ENDBRANCH   4   5
ENDBRANCH   3   4
ENDBRANCH   2   3
ENDBRANCH   1   2
BRANCH   1  25
ATOM     25  O   UNL     1      -0.147  -2.529  -1.720  1.00  0.00    -0.376 OA
BRANCH  25  26
ATOM     26  C   UNL     1       0.390  -3.833  -1.752  1.00  0.00     0.202 C 
BRANCH  26  27
ATOM     27  C   UNL     1      -0.466  -4.820  -2.555  1.00  0.00     0.261 C 
BRANCH  27  28
ATOM     28  O   UNL     1      -1.864  -4.880  -2.205  1.00  0.00    -0.460 OA
BRANCH  28  29
ATOM     29  C   UNL     1      -2.187  -5.432  -1.012  1.00  0.00     0.338 C 
ATOM     30  O   UNL     1      -1.405  -5.891  -0.192  1.00  0.00    -0.246 OA
BRANCH  29  31
ATOM     31  C   UNL     1      -3.629  -5.187  -0.758  1.00  0.00     0.060 A 
ATOM     32  C   UNL     1      -4.026  -4.543   0.424  1.00  0.00     0.016 A 
ATOM     33  C   UNL     1      -4.590  -5.594  -1.685  1.00  0.00     0.016 A 
ATOM     34  C   UNL     1      -5.384  -4.343   0.699  1.00  0.00     0.010 A 
ATOM     35  C   UNL     1      -5.947  -5.411  -1.400  1.00  0.00     0.010 A 
ATOM     36  C   UNL     1      -6.357  -4.816  -0.192  1.00  0.00    -0.014 A 
BRANCH  36  37
ATOM     37  C   UNL     1      -7.792  -4.863   0.198  1.00  0.00     0.031 A 
ATOM     38  C   UNL     1      -8.363  -6.176   0.670  1.00  0.00     0.074 A 
ATOM     39  C   UNL     1      -8.586  -3.779   0.123  1.00  0.00     0.049 A 
ATOM     40  N   UNL     1      -9.600  -6.495   0.949  1.00  0.00    -0.248 NA
ATOM     41  C   UNL     1      -7.403  -7.279   0.843  1.00  0.00     0.031 C 
ATOM     42  C   UNL     1      -8.156  -2.439  -0.268  1.00  0.00     0.029 A 
ATOM     43  N   UNL     1      -9.934  -3.643   0.358  1.00  0.00    -0.354 N 
ATOM     44  C   UNL     1      -9.572  -7.836   1.316  1.00  0.00     0.074 A 
ATOM     45  C   UNL     1      -8.198  -8.277   1.199  1.00  0.00     0.031 C 
ATOM     46  C   UNL     1      -9.223  -1.620  -0.266  1.00  0.00     0.029 A 
ATOM     47  C   UNL     1     -10.420  -2.385   0.086  1.00  0.00     0.049 A 
ATOM     48  H   UNL     1     -10.499  -4.378   0.691  1.00  0.00     0.167 HD
ATOM     49  C   UNL     1     -10.594  -8.628   1.718  1.00  0.00     0.037 A 
ATOM     50  C   UNL     1     -11.685  -1.915   0.087  1.00  0.00     0.037 A 
ATOM     51  C   UNL     1     -11.961  -8.189   1.832  1.00  0.00     0.049 A 
ATOM     52  C   UNL     1     -12.822  -2.837   0.459  1.00  0.00     0.074 A 
ATOM     53  C   UNL     1     -13.066  -8.914   2.244  1.00  0.00     0.029 A 
ATOM     54  N   UNL     1     -12.414  -6.914   1.523  1.00  0.00    -0.354 N 
ATOM     55  N   UNL     1     -12.781  -4.099   0.817  1.00  0.00    -0.248 NA
ATOM     56  C   UNL     1     -14.179  -2.270   0.426  1.00  0.00     0.031 C 
ATOM     57  C   UNL     1     -14.195  -8.098   2.127  1.00  0.00     0.029 A 
ATOM     58  C   UNL     1     -13.786  -6.842   1.708  1.00  0.00     0.049 A 
ATOM     59  H   UNL     1     -11.845  -6.171   1.218  1.00  0.00     0.167 HD
ATOM     60  C   UNL     1     -14.098  -4.464   1.085  1.00  0.00     0.074 A 
ATOM     61  C   UNL     1     -14.912  -3.289   0.855  1.00  0.00     0.031 C 
ATOM     62  C   UNL     1     -14.589  -5.663   1.488  1.00  0.00     0.037 A 
BRANCH  49  63
ATOM     63  C   UNL     1     -10.281 -10.066   2.034  1.00  0.00     0.058 A 
ATOM     64  C   UNL     1      -9.540 -10.434   3.168  1.00  0.00     0.135 A 
ATOM     65  C   UNL     1     -10.759 -11.095   1.204  1.00  0.00     0.135 A 
ATOM     66  F   UNL     1      -9.042  -9.493   3.986  1.00  0.00    -0.206 F 
ATOM     67  C   UNL     1      -9.260 -11.767   3.453  1.00  0.00     0.059 A 
ATOM     68  C   UNL     1     -10.519 -12.435   1.488  1.00  0.00     0.059 A 
ATOM     69  F   UNL     1     -11.472 -10.800   0.105  1.00  0.00    -0.206 F 
ATOM     70  C   UNL     1      -9.755 -12.761   2.607  1.00  0.00     0.060 A 
BRANCH  70  71
ATOM     71  S   UNL     1      -9.385 -14.485   2.994  1.00  0.00     0.124 S 
ATOM     72  O   UNL     1      -7.959 -14.551   2.692  1.00  0.00    -0.237 OA
ATOM     73  O   UNL     1      -9.738 -14.568   4.408  1.00  0.00    -0.237 OA
ATOM     74  O   UNL     1     -10.253 -15.232   2.089  1.00  0.00    -0.744 OA
ENDBRANCH  70  71
ENDBRANCH  49  63
BRANCH  50  75
ATOM     75  C   UNL     1     -11.957  -0.501  -0.298  1.00  0.00     0.058 A 
ATOM     76  C   UNL     1     -12.435   0.428   0.638  1.00  0.00     0.135 A 
ATOM     77  C   UNL     1     -11.761  -0.055  -1.615  1.00  0.00     0.135 A 
ATOM     78  F   UNL     1     -12.659   0.049   1.905  1.00  0.00    -0.206 F 
ATOM     79  C   UNL     1     -12.721   1.743   0.282  1.00  0.00     0.059 A 
ATOM     80  C   UNL     1     -12.011   1.262  -1.989  1.00  0.00     0.059 A 
ATOM     81  F   UNL     1     -11.304  -0.901  -2.551  1.00  0.00    -0.206 F 
ATOM     82  C   UNL     1     -12.500   2.152  -1.034  1.00  0.00     0.060 A 
BRANCH  82  83
ATOM     83  S   UNL     1     -12.826   3.874  -1.471  1.00  0.00     0.124 S 
ATOM     84  O   UNL     1     -14.283   3.920  -1.424  1.00  0.00    -0.237 OA
ATOM     85  O   UNL     1     -12.130   4.595  -0.410  1.00  0.00    -0.237 OA
ATOM     86  O   UNL     1     -12.234   4.002  -2.799  1.00  0.00    -0.744 OA
ENDBRANCH  82  83
ENDBRANCH  50  75
BRANCH  62  87
ATOM     87  C   UNL     1     -16.068  -5.766   1.759  1.00  0.00     0.058 A 
ATOM     88  C   UNL     1     -17.018  -5.744   0.726  1.00  0.00     0.135 A 
ATOM     89  C   UNL     1     -16.536  -5.952   3.071  1.00  0.00     0.135 A 
ATOM     90  F   UNL     1     -16.629  -5.565  -0.546  1.00  0.00    -0.206 F 
ATOM     91  C   UNL     1     -18.379  -5.880   0.986  1.00  0.00     0.059 A 
ATOM     92  C   UNL     1     -17.889  -6.122   3.350  1.00  0.00     0.059 A 
ATOM     93  F   UNL     1     -15.672  -5.993   4.098  1.00  0.00    -0.206 F 
ATOM     94  C   UNL     1     -18.805  -6.072   2.301  1.00  0.00     0.060 A 
BRANCH  94  95
ATOM     95  S   UNL     1     -20.570  -6.285   2.619  1.00  0.00     0.124 S 
ATOM     96  O   UNL     1     -21.075  -4.934   2.391  1.00  0.00    -0.237 OA
ATOM     97  O   UNL     1     -20.949  -7.280   1.621  1.00  0.00    -0.237 OA
ATOM     98  O   UNL     1     -20.615  -6.745   4.003  1.00  0.00    -0.744 OA
ENDBRANCH  94  95
ENDBRANCH  62  87
ENDBRANCH  36  37
ENDBRANCH  29  31
ENDBRANCH  28  29
ENDBRANCH  27  28
ENDBRANCH  26  27
ENDBRANCH  25  26
ENDBRANCH   1  25
TORSDOF 21
