REMARK SMILES Cc1nn(C)c(=O)c(C(=O)N2CC[C@@H](C(=O)OCCOCCOCCOC(=O)c3ccc(-c4c5nc(c(-c6c(F)cc(S(=O)(=O)[O-])cc6F)c6ccc([nH]6)c(-c6c(F)cc(S(=O)(=O)[O-])cc6F)c6nc(c(-c7c(F)cc(S(=O)(=O)[O-])cc7F)c7ccc4[nH]7)C=C6)C=C5)cc3)[C@@H]2C)c1C
REMARK SMILES IDX 22 1 21 2 20 3 19 4 18 5 17 6 15 7 16 8 14 9 11 10 12 11
REMARK SMILES IDX 95 12 13 13 96 14 9 15 10 16 8 17 1 18 2 19 3 20 97 21 4 22
REMARK SMILES IDX 98 23 5 24 6 25 7 26 23 27 24 28 25 29 26 30 27 31 28 32
REMARK SMILES IDX 29 33 30 34 94 35 31 36 93 37 32 38 33 39 34 40 87 41 35 42
REMARK SMILES IDX 92 43 86 44 88 45 36 46 91 47 85 48 84 49 37 51 71 52 50 53
REMARK SMILES IDX 70 54 51 55 54 56 69 57 89 58 52 59 53 60 68 62 90 63 55 64
REMARK SMILES IDX 38 65 39 66 48 67 40 68 41 69 47 70 49 71 42 72 43 73 44 74
REMARK SMILES IDX 45 75 46 76 72 77 73 78 82 79 74 80 75 81 81 82 83 83 76 84
REMARK SMILES IDX 77 85 78 86 79 87 80 88 56 89 57 90 66 91 58 92 59 93 65 94
REMARK SMILES IDX 67 95 60 96 61 97 62 98 63 99 64 100
REMARK H PARENT 88 50 54 61
REMARK Flexibility Score: inf
ROOT
ATOM      1  C   UNL     1      -2.229   4.189  -0.240  1.00  0.00     0.188 C 
ENDROOT
BRANCH   1   2
ATOM      2  C   UNL     1      -2.030   5.599  -0.807  1.00  0.00     0.188 C 
BRANCH   2   3
ATOM      3  O   UNL     1      -1.078   5.782  -1.842  1.00  0.00    -0.376 OA
BRANCH   3   4
ATOM      4  C   UNL     1       0.224   5.232  -1.679  1.00  0.00     0.202 C 
BRANCH   4   5
ATOM      5  C   UNL     1       0.967   5.414  -0.343  1.00  0.00     0.261 C 
BRANCH   5   6
ATOM      6  O   UNL     1       0.285   4.882   0.820  1.00  0.00    -0.463 OA
BRANCH   6   7
ATOM      7  C   UNL     1       0.168   5.717   1.880  1.00  0.00     0.311 C 
ATOM      8  O   UNL     1       0.628   6.855   1.894  1.00  0.00    -0.252 OA
BRANCH   7   9
ATOM      9  C   UNL     1      -0.587   5.170   3.090  1.00  0.00     0.123 C 
ATOM     10  N   UNL     1      -0.367   3.084   4.251  1.00  0.00    -0.335 N 
ATOM     11  C   UNL     1       0.055   4.108   5.183  1.00  0.00     0.121 C 
ATOM     12  C   UNL     1      -1.122   3.712   3.157  1.00  0.00     0.096 C 
ATOM     13  C   UNL     1       0.367   5.288   4.291  1.00  0.00     0.039 C 
ATOM     14  C   UNL     1      -2.618   3.723   3.536  1.00  0.00     0.032 C 
BRANCH  10  15
ATOM     15  C   UNL     1      -0.096   1.761   4.546  1.00  0.00     0.260 C 
ATOM     16  O   UNL     1       0.313   1.450   5.669  1.00  0.00    -0.269 OA
BRANCH  15  17
ATOM     17  C   UNL     1      -0.147   0.687   3.499  1.00  0.00     0.111 A 
ATOM     18  C   UNL     1       0.959  -0.266   0.011  1.00  0.00     0.069 C 
ATOM     19  C   UNL     1       0.564  -0.407   1.465  1.00  0.00     0.062 A 
ATOM     20  N   UNL     1       0.355  -1.609   1.890  1.00  0.00    -0.175 NA
ATOM     21  C   UNL     1       0.491   0.815   2.317  1.00  0.00    -0.010 A 
ATOM     22  N   UNL     1      -0.105  -1.749   3.168  1.00  0.00    -0.232 N 
ATOM     23  C   UNL     1       1.266   1.992   1.815  1.00  0.00     0.047 C 
ATOM     24  C   UNL     1      -0.193  -3.119   3.646  1.00  0.00     0.178 C 
ATOM     25  C   UNL     1      -0.579  -0.686   3.936  1.00  0.00     0.279 A 
ATOM     26  O   UNL     1      -1.268  -0.850   4.941  1.00  0.00    -0.267 OA
ENDBRANCH  15  17
ENDBRANCH  10  15
ENDBRANCH   7   9
ENDBRANCH   6   7
ENDBRANCH   5   6
ENDBRANCH   4   5
ENDBRANCH   3   4
ENDBRANCH   2   3
ENDBRANCH   1   2
BRANCH   1  27
ATOM     27  O   UNL     1      -1.413   3.165  -0.747  1.00  0.00    -0.376 OA
BRANCH  27  28
ATOM     28  C   UNL     1      -1.878   2.306  -1.774  1.00  0.00     0.202 C 
BRANCH  28  29
ATOM     29  C   UNL     1      -3.107   2.547  -2.676  1.00  0.00     0.261 C 
BRANCH  29  30
ATOM     30  O   UNL     1      -4.068   3.525  -2.279  1.00  0.00    -0.460 OA
BRANCH  30  31
ATOM     31  C   UNL     1      -5.029   3.118  -1.412  1.00  0.00     0.338 C 
ATOM     32  O   UNL     1      -5.145   2.010  -0.916  1.00  0.00    -0.246 OA
BRANCH  31  33
ATOM     33  C   UNL     1      -5.732   4.337  -0.955  1.00  0.00     0.060 A 
ATOM     34  C   UNL     1      -5.649   4.695   0.400  1.00  0.00     0.016 A 
ATOM     35  C   UNL     1      -6.402   5.156  -1.864  1.00  0.00     0.016 A 
ATOM     36  C   UNL     1      -6.232   5.878   0.848  1.00  0.00     0.010 A 
ATOM     37  C   UNL     1      -7.020   6.322  -1.406  1.00  0.00     0.010 A 
ATOM     38  C   UNL     1      -6.954   6.678  -0.046  1.00  0.00    -0.014 A 
BRANCH  38  39
ATOM     39  C   UNL     1      -7.822   7.759   0.475  1.00  0.00     0.031 A 
ATOM     40  C   UNL     1      -9.275   7.443   0.699  1.00  0.00     0.074 A 
ATOM     41  C   UNL     1      -7.336   8.979   0.768  1.00  0.00     0.049 A 
ATOM     42  N   UNL     1     -10.247   8.231   1.071  1.00  0.00    -0.248 NA
ATOM     43  C   UNL     1      -9.682   6.045   0.472  1.00  0.00     0.031 C 
ATOM     44  C   UNL     1      -5.936   9.382   0.659  1.00  0.00     0.029 A 
ATOM     45  N   UNL     1      -7.977  10.107   1.218  1.00  0.00    -0.354 N 
ATOM     46  C   UNL     1     -11.381   7.429   1.120  1.00  0.00     0.074 A 
ATOM     47  C   UNL     1     -10.984   6.101   0.708  1.00  0.00     0.031 C 
ATOM     48  C   UNL     1      -5.824  10.672   1.026  1.00  0.00     0.029 A 
ATOM     49  C   UNL     1      -7.150  11.196   1.356  1.00  0.00     0.049 A 
ATOM     50  H   UNL     1      -8.940  10.133   1.421  1.00  0.00     0.167 HD
ATOM     51  C   UNL     1     -12.638   7.767   1.487  1.00  0.00     0.037 A 
ATOM     52  C   UNL     1      -7.437  12.472   1.688  1.00  0.00     0.037 A 
ATOM     53  C   UNL     1     -13.026   9.091   1.891  1.00  0.00     0.049 A 
ATOM     54  C   UNL     1      -8.866  12.851   1.993  1.00  0.00     0.074 A 
ATOM     55  C   UNL     1     -14.278   9.539   2.271  1.00  0.00     0.029 A 
ATOM     56  N   UNL     1     -12.170  10.180   1.966  1.00  0.00    -0.354 N 
ATOM     57  N   UNL     1      -9.934  12.088   2.024  1.00  0.00    -0.248 NA
ATOM     58  C   UNL     1      -9.132  14.264   2.301  1.00  0.00     0.031 C 
ATOM     59  C   UNL     1     -14.191  10.911   2.523  1.00  0.00     0.029 A 
ATOM     60  C   UNL     1     -12.872  11.305   2.363  1.00  0.00     0.049 A 
ATOM     61  H   UNL     1     -11.206  10.156   1.767  1.00  0.00     0.167 HD
ATOM     62  C   UNL     1     -10.989  12.921   2.386  1.00  0.00     0.074 A 
ATOM     63  C   UNL     1     -10.431  14.245   2.568  1.00  0.00     0.031 C 
ATOM     64  C   UNL     1     -12.300  12.616   2.554  1.00  0.00     0.037 A 
BRANCH  51  65
ATOM     65  C   UNL     1     -13.689   6.695   1.447  1.00  0.00     0.058 A 
ATOM     66  C   UNL     1     -13.706   5.644   2.377  1.00  0.00     0.135 A 
ATOM     67  C   UNL     1     -14.719   6.743   0.494  1.00  0.00     0.135 A 
ATOM     68  F   UNL     1     -12.730   5.535   3.293  1.00  0.00    -0.206 F 
ATOM     69  C   UNL     1     -14.698   4.670   2.355  1.00  0.00     0.059 A 
ATOM     70  C   UNL     1     -15.739   5.797   0.472  1.00  0.00     0.059 A 
ATOM     71  F   UNL     1     -14.745   7.722  -0.424  1.00  0.00    -0.206 F 
ATOM     72  C   UNL     1     -15.714   4.759   1.402  1.00  0.00     0.060 A 
BRANCH  72  73
ATOM     73  S   UNL     1     -17.004   3.497   1.403  1.00  0.00     0.124 S 
ATOM     74  O   UNL     1     -16.258   2.317   0.976  1.00  0.00    -0.237 OA
ATOM     75  O   UNL     1     -17.440   3.503   2.795  1.00  0.00    -0.237 OA
ATOM     76  O   UNL     1     -17.977   4.003   0.440  1.00  0.00    -0.744 OA
ENDBRANCH  72  73
ENDBRANCH  51  65
BRANCH  52  77
ATOM     77  C   UNL     1      -6.351  13.489   1.748  1.00  0.00     0.058 A 
ATOM     78  C   UNL     1      -5.958  14.055   2.970  1.00  0.00     0.135 A 
ATOM     79  C   UNL     1      -5.678  13.909   0.590  1.00  0.00     0.135 A 
ATOM     80  F   UNL     1      -6.581  13.701   4.104  1.00  0.00    -0.206 F 
ATOM     81  C   UNL     1      -4.941  15.003   3.042  1.00  0.00     0.059 A 
ATOM     82  C   UNL     1      -4.639  14.835   0.640  1.00  0.00     0.059 A 
ATOM     83  F   UNL     1      -6.012  13.398  -0.605  1.00  0.00    -0.206 F 
ATOM     84  C   UNL     1      -4.281  15.380   1.872  1.00  0.00     0.060 A 
BRANCH  84  85
ATOM     85  S   UNL     1      -2.922  16.563   1.990  1.00  0.00     0.124 S 
ATOM     86  O   UNL     1      -3.625  17.785   2.365  1.00  0.00    -0.237 OA
ATOM     87  O   UNL     1      -2.088  15.963   3.026  1.00  0.00    -0.237 OA
ATOM     88  O   UNL     1      -2.348  16.553   0.648  1.00  0.00    -0.744 OA
ENDBRANCH  84  85
ENDBRANCH  52  77
BRANCH  64  89
ATOM     89  C   UNL     1     -13.234  13.714   2.989  1.00  0.00     0.058 A 
ATOM     90  C   UNL     1     -13.634  14.734   2.113  1.00  0.00     0.135 A 
ATOM     91  C   UNL     1     -13.817  13.682   4.268  1.00  0.00     0.135 A 
ATOM     92  F   UNL     1     -13.106  14.813   0.882  1.00  0.00    -0.206 F 
ATOM     93  C   UNL     1     -14.572  15.689   2.491  1.00  0.00     0.059 A 
ATOM     94  C   UNL     1     -14.779  14.610   4.657  1.00  0.00     0.059 A 
ATOM     95  F   UNL     1     -13.479  12.720   5.141  1.00  0.00    -0.206 F 
ATOM     96  C   UNL     1     -15.147  15.613   3.762  1.00  0.00     0.060 A 
BRANCH  96  97
ATOM     97  S   UNL     1     -16.406  16.826   4.213  1.00  0.00     0.124 S 
ATOM     98  O   UNL     1     -15.616  18.049   4.311  1.00  0.00    -0.237 OA
ATOM     99  O   UNL     1     -17.325  16.753   3.082  1.00  0.00    -0.237 OA
ATOM    100  O   UNL     1     -16.933  16.318   5.476  1.00  0.00    -0.744 OA
ENDBRANCH  96  97
ENDBRANCH  64  89
ENDBRANCH  38  39
ENDBRANCH  31  33
ENDBRANCH  30  31
ENDBRANCH  29  30
ENDBRANCH  28  29
ENDBRANCH  27  28
ENDBRANCH   1  27
TORSDOF 22
