REMARK SMILES Cc1nn(-c2ccc(C(=O)OCCOCCOCCOC(=O)c3ccc(-c4c5nc(c(-c6c(F)cc(S(=O)(=O)[O-])cc6F)c6ccc([nH]6)c(-c6c(F)cc(S(=O)(=O)[O-])cc6F)c6nc(c(-c7c(F)cc(S(=O)(=O)[O-])cc7F)c7ccc4[nH]7)C=C6)C=C5)cc3)cc2)c(=O)c2ccccc12
REMARK SMILES IDX 16 1 15 2 14 3 13 4 12 5 11 6 9 7 10 8 8 9 5 10 6 11 90 12
REMARK SMILES IDX 7 13 89 14 4 15 1 16 2 17 3 18 98 19 93 20 97 21 91 22 94 23
REMARK SMILES IDX 96 24 92 25 95 26 17 27 18 28 19 29 20 30 21 31 22 32 23 33
REMARK SMILES IDX 24 34 88 35 25 36 87 37 26 38 27 39 28 40 81 41 29 42 86 43
REMARK SMILES IDX 80 44 82 45 30 46 85 47 79 48 78 49 31 51 65 52 44 53 64 54
REMARK SMILES IDX 45 55 48 56 63 57 83 58 46 59 47 60 62 62 84 63 49 64 32 65
REMARK SMILES IDX 33 66 42 67 34 68 35 69 41 70 43 71 36 72 37 73 38 74 39 75
REMARK SMILES IDX 40 76 66 77 67 78 76 79 68 80 69 81 75 82 77 83 70 84 71 85
REMARK SMILES IDX 72 86 73 87 74 88 50 89 51 90 60 91 52 92 53 93 59 94 61 95
REMARK SMILES IDX 54 96 55 97 56 98 57 99 58 100
REMARK H PARENT 82 50 48 61
REMARK Flexibility Score: inf
ROOT
ATOM      1  C   UNL     1      -2.200   1.814   7.546  1.00  0.00     0.188 C 
ENDROOT
BRANCH   1   2
ATOM      2  C   UNL     1      -3.737   1.908   7.673  1.00  0.00     0.188 C 
BRANCH   2   3
ATOM      3  O   UNL     1      -4.312   2.106   8.944  1.00  0.00    -0.376 OA
BRANCH   3   4
ATOM      4  C   UNL     1      -4.398   1.058   9.894  1.00  0.00     0.202 C 
BRANCH   4   5
ATOM      5  C   UNL     1      -4.229  -0.439   9.588  1.00  0.00     0.261 C 
BRANCH   5   6
ATOM      6  O   UNL     1      -3.352  -0.776   8.514  1.00  0.00    -0.460 OA
BRANCH   6   7
ATOM      7  C   UNL     1      -3.954  -1.371   7.451  1.00  0.00     0.338 C 
ATOM      8  O   UNL     1      -5.132  -1.660   7.338  1.00  0.00    -0.246 OA
BRANCH   7   9
ATOM      9  C   UNL     1      -2.991  -1.464   6.338  1.00  0.00     0.060 A 
ATOM     10  C   UNL     1      -1.235  -1.668   4.172  1.00  0.00     0.069 A 
ATOM     11  C   UNL     1      -2.480  -1.048   4.007  1.00  0.00     0.029 A 
ATOM     12  C   UNL     1      -0.853  -2.114   5.448  1.00  0.00     0.029 A 
ATOM     13  C   UNL     1      -3.373  -0.983   5.079  1.00  0.00     0.018 A 
ATOM     14  C   UNL     1      -1.716  -1.995   6.537  1.00  0.00     0.018 A 
BRANCH  10  15
ATOM     15  N   UNL     1      -0.422  -1.940   3.039  1.00  0.00    -0.196 N 
ATOM     16  C   UNL     1       0.698   0.137   0.209  1.00  0.00     0.069 C 
ATOM     17  C   UNL     1       0.440  -1.063   1.092  1.00  0.00     0.066 A 
ATOM     18  N   UNL     1      -0.276  -0.890   2.162  1.00  0.00    -0.169 NA
ATOM     19  C   UNL     1       1.009  -2.369   0.699  1.00  0.00     0.010 A 
ATOM     20  C   UNL     1       0.824  -3.429   1.575  1.00  0.00     0.051 A 
ATOM     21  C   UNL     1       1.668  -2.587  -0.517  1.00  0.00     0.011 A 
ATOM     22  C   UNL     1       0.143  -3.204   2.858  1.00  0.00     0.279 A 
ATOM     23  C   UNL     1       1.254  -4.718   1.233  1.00  0.00     0.014 A 
ATOM     24  C   UNL     1       2.107  -3.872  -0.854  1.00  0.00     0.001 A 
ATOM     25  O   UNL     1       0.079  -4.148   3.645  1.00  0.00    -0.267 OA
ATOM     26  C   UNL     1       1.890  -4.940   0.015  1.00  0.00     0.001 A 
ENDBRANCH  10  15
ENDBRANCH   7   9
ENDBRANCH   6   7
ENDBRANCH   5   6
ENDBRANCH   4   5
ENDBRANCH   3   4
ENDBRANCH   2   3
ENDBRANCH   1   2
BRANCH   1  27
ATOM     27  O   UNL     1      -1.371   1.893   8.693  1.00  0.00    -0.376 OA
BRANCH  27  28
ATOM     28  C   UNL     1      -1.519   2.998   9.572  1.00  0.00     0.202 C 
BRANCH  28  29
ATOM     29  C   UNL     1      -1.464   4.427   9.021  1.00  0.00     0.261 C 
BRANCH  29  30
ATOM     30  O   UNL     1      -2.428   4.698   7.993  1.00  0.00    -0.460 OA
BRANCH  30  31
ATOM     31  C   UNL     1      -1.917   5.018   6.778  1.00  0.00     0.338 C 
ATOM     32  O   UNL     1      -0.740   5.124   6.475  1.00  0.00    -0.246 OA
BRANCH  31  33
ATOM     33  C   UNL     1      -3.014   5.045   5.792  1.00  0.00     0.060 A 
ATOM     34  C   UNL     1      -4.075   5.940   5.933  1.00  0.00     0.016 A 
ATOM     35  C   UNL     1      -2.967   4.160   4.705  1.00  0.00     0.016 A 
ATOM     36  C   UNL     1      -5.085   5.960   4.967  1.00  0.00     0.010 A 
ATOM     37  C   UNL     1      -3.987   4.170   3.752  1.00  0.00     0.010 A 
ATOM     38  C   UNL     1      -5.043   5.085   3.866  1.00  0.00    -0.014 A 
BRANCH  38  39
ATOM     39  C   UNL     1      -6.025   5.239   2.765  1.00  0.00     0.031 A 
ATOM     40  C   UNL     1      -7.226   4.350   2.648  1.00  0.00     0.074 A 
ATOM     41  C   UNL     1      -5.820   6.225   1.871  1.00  0.00     0.049 A 
ATOM     42  N   UNL     1      -8.222   4.429   1.803  1.00  0.00    -0.248 NA
ATOM     43  C   UNL     1      -7.325   3.231   3.596  1.00  0.00     0.031 C 
ATOM     44  C   UNL     1      -4.673   7.136   1.879  1.00  0.00     0.029 A 
ATOM     45  N   UNL     1      -6.568   6.638   0.800  1.00  0.00    -0.354 N 
ATOM     46  C   UNL     1      -9.089   3.396   2.137  1.00  0.00     0.074 A 
ATOM     47  C   UNL     1      -8.470   2.668   3.227  1.00  0.00     0.031 C 
ATOM     48  C   UNL     1      -4.814   8.025   0.883  1.00  0.00     0.029 A 
ATOM     49  C   UNL     1      -6.045   7.734   0.155  1.00  0.00     0.049 A 
ATOM     50  H   UNL     1      -7.400   6.193   0.519  1.00  0.00     0.167 HD
ATOM     51  C   UNL     1     -10.299   3.104   1.599  1.00  0.00     0.037 A 
ATOM     52  C   UNL     1      -6.511   8.435  -0.895  1.00  0.00     0.037 A 
ATOM     53  C   UNL     1     -10.894   3.821   0.496  1.00  0.00     0.049 A 
ATOM     54  C   UNL     1      -7.823   8.044  -1.517  1.00  0.00     0.074 A 
ATOM     55  C   UNL     1     -12.119   3.601  -0.112  1.00  0.00     0.029 A 
ATOM     56  N   UNL     1     -10.308   4.888  -0.171  1.00  0.00    -0.354 N 
ATOM     57  N   UNL     1      -8.656   7.097  -1.156  1.00  0.00    -0.248 NA
ATOM     58  C   UNL     1      -8.262   8.819  -2.685  1.00  0.00     0.031 C 
ATOM     59  C   UNL     1     -12.255   4.504  -1.171  1.00  0.00     0.029 A 
ATOM     60  C   UNL     1     -11.137   5.321  -1.195  1.00  0.00     0.049 A 
ATOM     61  H   UNL     1      -9.433   5.280   0.051  1.00  0.00     0.167 HD
ATOM     62  C   UNL     1      -9.729   7.180  -2.037  1.00  0.00     0.074 A 
ATOM     63  C   UNL     1      -9.445   8.277  -2.938  1.00  0.00     0.031 C 
ATOM     64  C   UNL     1     -10.847   6.414  -2.091  1.00  0.00     0.037 A 
BRANCH  51  65
ATOM     65  C   UNL     1     -11.085   1.973   2.205  1.00  0.00     0.058 A 
ATOM     66  C   UNL     1     -11.700   2.110   3.460  1.00  0.00     0.135 A 
ATOM     67  C   UNL     1     -11.312   0.784   1.493  1.00  0.00     0.135 A 
ATOM     68  F   UNL     1     -11.511   3.223   4.187  1.00  0.00    -0.206 F 
ATOM     69  C   UNL     1     -12.503   1.107   3.991  1.00  0.00     0.059 A 
ATOM     70  C   UNL     1     -12.131  -0.225   1.995  1.00  0.00     0.059 A 
ATOM     71  F   UNL     1     -10.752   0.602   0.286  1.00  0.00    -0.206 F 
ATOM     72  C   UNL     1     -12.719  -0.055   3.248  1.00  0.00     0.060 A 
BRANCH  72  73
ATOM     73  S   UNL     1     -13.797  -1.328   3.939  1.00  0.00     0.124 S 
ATOM     74  O   UNL     1     -12.994  -1.818   5.056  1.00  0.00    -0.237 OA
ATOM     75  O   UNL     1     -14.986  -0.564   4.303  1.00  0.00    -0.237 OA
ATOM     76  O   UNL     1     -13.971  -2.266   2.835  1.00  0.00    -0.744 OA
ENDBRANCH  72  73
ENDBRANCH  51  65
BRANCH  52  77
ATOM     77  C   UNL     1      -5.750   9.608  -1.398  1.00  0.00     0.058 A 
ATOM     78  C   UNL     1      -6.240  10.910  -1.222  1.00  0.00     0.135 A 
ATOM     79  C   UNL     1      -4.516   9.453  -2.048  1.00  0.00     0.135 A 
ATOM     80  F   UNL     1      -7.418  11.106  -0.610  1.00  0.00    -0.206 F 
ATOM     81  C   UNL     1      -5.543  12.018  -1.689  1.00  0.00     0.059 A 
ATOM     82  C   UNL     1      -3.788  10.548  -2.500  1.00  0.00     0.059 A 
ATOM     83  F   UNL     1      -3.997   8.228  -2.225  1.00  0.00    -0.206 F 
ATOM     84  C   UNL     1      -4.316  11.827  -2.325  1.00  0.00     0.060 A 
BRANCH  84  85
ATOM     85  S   UNL     1      -3.404  13.277  -2.896  1.00  0.00     0.124 S 
ATOM     86  O   UNL     1      -4.225  13.717  -4.018  1.00  0.00    -0.237 OA
ATOM     87  O   UNL     1      -3.425  14.134  -1.714  1.00  0.00    -0.237 OA
ATOM     88  O   UNL     1      -2.095  12.735  -3.246  1.00  0.00    -0.744 OA
ENDBRANCH  84  85
ENDBRANCH  52  77
BRANCH  64  89
ATOM     89  C   UNL     1     -11.861   6.743  -3.153  1.00  0.00     0.058 A 
ATOM     90  C   UNL     1     -11.626   6.457  -4.507  1.00  0.00     0.135 A 
ATOM     91  C   UNL     1     -13.103   7.301  -2.808  1.00  0.00     0.135 A 
ATOM     92  F   UNL     1     -10.452   5.932  -4.893  1.00  0.00    -0.206 F 
ATOM     93  C   UNL     1     -12.578   6.729  -5.484  1.00  0.00     0.059 A 
ATOM     94  C   UNL     1     -14.081   7.556  -3.765  1.00  0.00     0.059 A 
ATOM     95  F   UNL     1     -13.383   7.588  -1.527  1.00  0.00    -0.206 F 
ATOM     96  C   UNL     1     -13.805   7.275  -5.103  1.00  0.00     0.060 A 
BRANCH  96  97
ATOM     97  S   UNL     1     -15.044   7.585  -6.379  1.00  0.00     0.124 S 
ATOM     98  O   UNL     1     -14.461   8.720  -7.087  1.00  0.00    -0.237 OA
ATOM     99  O   UNL     1     -15.059   6.322  -7.111  1.00  0.00    -0.237 OA
ATOM    100  O   UNL     1     -16.254   7.877  -5.617  1.00  0.00    -0.744 OA
ENDBRANCH  96  97
ENDBRANCH  64  89
ENDBRANCH  38  39
ENDBRANCH  31  33
ENDBRANCH  30  31
ENDBRANCH  29  30
ENDBRANCH  28  29
ENDBRANCH  27  28
ENDBRANCH   1  27
TORSDOF 21
