REMARK SMILES C[C@H](C(=O)NCC(=O)OCCOCCOCCOC(=O)c1ccc(-c2c3nc(c(-c4c(F)cc(S(=O)(=O)[O-])cc4F)c4ccc([nH]4)c(-c4c(F)cc(S(=O)(=O)[O-])cc4F)c4nc(c(-c5c(F)cc(S(=O)(=O)[O-])cc5F)c5ccc2[nH]5)C=C4)C=C3)cc1)N1C(=O)/C(=C/c2ccc(O)cc2)SC1=S
REMARK SMILES IDX 13 1 12 2 11 3 10 4 9 5 7 6 8 7 6 8 5 9 3 10 4 11 2 13 1 14
REMARK SMILES IDX 87 15 88 16 100 17 89 18 90 19 99 20 101 21 91 22 92 23
REMARK SMILES IDX 93 24 98 25 94 26 97 27 95 28 96 29 14 31 15 32 16 33 17 34
REMARK SMILES IDX 18 35 19 36 20 37 21 38 22 39 86 40 23 41 85 42 24 43 25 44
REMARK SMILES IDX 26 45 79 46 27 47 84 48 78 49 80 50 28 51 83 52 77 53 76 54
REMARK SMILES IDX 29 56 63 57 42 58 62 59 43 60 46 61 61 62 81 63 44 64 45 65
REMARK SMILES IDX 60 67 82 68 47 69 30 70 31 71 40 72 32 73 33 74 39 75 41 76
REMARK SMILES IDX 34 77 35 78 36 79 37 80 38 81 64 82 65 83 74 84 66 85 67 86
REMARK SMILES IDX 73 87 75 88 68 89 69 90 70 91 71 92 72 93 48 94 49 95 58 96
REMARK SMILES IDX 50 97 51 98 57 99 59 100 52 101 53 102 54 103 55 104 56 105
REMARK H PARENT 5 12 96 30 80 55 46 66
REMARK Flexibility Score: inf
ROOT
ATOM      1  C   UNL     1      -1.510   4.593   0.866  1.00  0.00     0.188 C 
ENDROOT
BRANCH   1   2
ATOM      2  O   UNL     1      -2.922   4.733   0.829  1.00  0.00    -0.376 OA
BRANCH   2   3
ATOM      3  C   UNL     1      -3.726   3.601   0.519  1.00  0.00     0.202 C 
BRANCH   3   4
ATOM      4  C   UNL     1      -3.380   2.726  -0.700  1.00  0.00     0.261 C 
BRANCH   4   5
ATOM      5  O   UNL     1      -2.065   2.121  -0.692  1.00  0.00    -0.462 OA
BRANCH   5   6
ATOM      6  C   UNL     1      -1.226   2.462  -1.710  1.00  0.00     0.325 C 
ATOM      7  O   UNL     1      -1.532   3.203  -2.636  1.00  0.00    -0.250 OA
BRANCH   6   8
ATOM      8  C   UNL     1       0.210   1.911  -1.547  1.00  0.00     0.238 C 
BRANCH   8   9
ATOM      9  N   UNL     1       0.515   0.970  -0.467  1.00  0.00    -0.343 N 
ATOM     10  C   UNL     1       0.657  -0.379  -0.421  1.00  0.00     0.243 C 
ATOM     11  O   UNL     1       0.921  -0.865   0.681  1.00  0.00    -0.273 OA
ATOM     12  H   UNL     1       0.644   1.407   0.406  1.00  0.00     0.164 HD
BRANCH  10  13
ATOM     13  C   UNL     1       0.470  -1.245  -1.675  1.00  0.00     0.178 C 
ATOM     14  C   UNL     1       1.279  -2.534  -1.550  1.00  0.00     0.042 C 
BRANCH  13  15
ATOM     15  N   UNL     1      -0.975  -1.427  -1.905  1.00  0.00    -0.281 N 
ATOM     16  C   UNL     1      -1.749  -2.296  -1.145  1.00  0.00     0.266 C 
ATOM     17  C   UNL     1      -1.675  -0.728  -2.861  1.00  0.00     0.149 C 
ATOM     18  O   UNL     1      -1.358  -3.163  -0.379  1.00  0.00    -0.268 OA
ATOM     19  C   UNL     1      -3.200  -2.086  -1.451  1.00  0.00     0.081 C 
ATOM     20  S   UNL     1      -3.356  -0.669  -2.408  1.00  0.00    -0.054 SA
ATOM     21  S   UNL     1      -1.129  -0.089  -4.300  1.00  0.00    -0.052 S 
ATOM     22  C   UNL     1      -4.179  -2.915  -1.052  1.00  0.00     0.029 C 
BRANCH  22  23
ATOM     23  C   UNL     1      -5.633  -2.729  -1.245  1.00  0.00    -0.024 A 
ATOM     24  C   UNL     1      -6.498  -3.110  -0.211  1.00  0.00     0.012 A 
ATOM     25  C   UNL     1      -6.196  -2.163  -2.400  1.00  0.00     0.012 A 
ATOM     26  C   UNL     1      -7.868  -2.837  -0.290  1.00  0.00     0.047 A 
ATOM     27  C   UNL     1      -7.554  -1.849  -2.466  1.00  0.00     0.047 A 
ATOM     28  C   UNL     1      -8.378  -2.178  -1.400  1.00  0.00     0.115 A 
BRANCH  28  29
ATOM     29  O   UNL     1      -9.704  -1.861  -1.411  1.00  0.00    -0.508 OA
ATOM     30  H   UNL     1     -10.246  -2.091  -0.682  1.00  0.00     0.293 HD
ENDBRANCH  28  29
ENDBRANCH  22  23
ENDBRANCH  13  15
ENDBRANCH  10  13
ENDBRANCH   8   9
ENDBRANCH   6   8
ENDBRANCH   5   6
ENDBRANCH   4   5
ENDBRANCH   3   4
ENDBRANCH   2   3
ENDBRANCH   1   2
BRANCH   1  31
ATOM     31  C   UNL     1      -0.913   3.378   1.589  1.00  0.00     0.188 C 
BRANCH  31  32
ATOM     32  O   UNL     1      -1.841   2.525   2.205  1.00  0.00    -0.376 OA
BRANCH  32  33
ATOM     33  C   UNL     1      -2.025   2.610   3.605  1.00  0.00     0.202 C 
BRANCH  33  34
ATOM     34  C   UNL     1      -1.869   3.924   4.402  1.00  0.00     0.261 C 
BRANCH  34  35
ATOM     35  O   UNL     1      -1.023   4.952   3.867  1.00  0.00    -0.460 OA
BRANCH  35  36
ATOM     36  C   UNL     1       0.306   4.866   4.114  1.00  0.00     0.338 C 
ATOM     37  O   UNL     1       0.873   3.992   4.752  1.00  0.00    -0.246 OA
BRANCH  36  38
ATOM     38  C   UNL     1       0.992   5.863   3.255  1.00  0.00     0.060 A 
ATOM     39  C   UNL     1       1.894   5.417   2.275  1.00  0.00     0.016 A 
ATOM     40  C   UNL     1       0.720   7.226   3.386  1.00  0.00     0.016 A 
ATOM     41  C   UNL     1       2.539   6.332   1.439  1.00  0.00     0.010 A 
ATOM     42  C   UNL     1       1.391   8.143   2.569  1.00  0.00     0.010 A 
ATOM     43  C   UNL     1       2.325   7.705   1.611  1.00  0.00    -0.014 A 
BRANCH  43  44
ATOM     44  C   UNL     1       3.220   8.691   0.951  1.00  0.00     0.031 A 
ATOM     45  C   UNL     1       4.362   9.255   1.754  1.00  0.00     0.074 A 
ATOM     46  C   UNL     1       3.032   9.087  -0.321  1.00  0.00     0.049 A 
ATOM     47  N   UNL     1       5.213  10.198   1.444  1.00  0.00    -0.248 NA
ATOM     48  C   UNL     1       4.565   8.677   3.093  1.00  0.00     0.031 C 
ATOM     49  C   UNL     1       1.997   8.584  -1.222  1.00  0.00     0.029 A 
ATOM     50  N   UNL     1       3.702  10.025  -1.070  1.00  0.00    -0.354 N 
ATOM     51  C   UNL     1       6.040  10.339   2.553  1.00  0.00     0.074 A 
ATOM     52  C   UNL     1       5.574   9.402   3.552  1.00  0.00     0.031 C 
ATOM     53  C   UNL     1       2.088   9.235  -2.396  1.00  0.00     0.029 A 
ATOM     54  C   UNL     1       3.160  10.227  -2.317  1.00  0.00     0.049 A 
ATOM     55  H   UNL     1       4.497  10.507  -0.743  1.00  0.00     0.167 HD
ATOM     56  C   UNL     1       7.096  11.170   2.723  1.00  0.00     0.037 A 
ATOM     57  C   UNL     1       3.472  11.131  -3.270  1.00  0.00     0.037 A 
ATOM     58  C   UNL     1       7.554  12.103   1.728  1.00  0.00     0.049 A 
ATOM     59  C   UNL     1       4.602  12.103  -3.030  1.00  0.00     0.074 A 
ATOM     60  C   UNL     1       8.624  12.978   1.798  1.00  0.00     0.029 A 
ATOM     61  N   UNL     1       6.964  12.294   0.486  1.00  0.00    -0.354 N 
ATOM     62  N   UNL     1       5.389  12.215  -1.985  1.00  0.00    -0.248 NA
ATOM     63  C   UNL     1       4.888  13.073  -4.098  1.00  0.00     0.031 C 
ATOM     64  C   UNL     1       8.645  13.739   0.626  1.00  0.00     0.029 A 
ATOM     65  C   UNL     1       7.630  13.292  -0.206  1.00  0.00     0.049 A 
ATOM     66  H   UNL     1       6.186  11.794   0.148  1.00  0.00     0.167 HD
ATOM     67  C   UNL     1       6.282  13.241  -2.286  1.00  0.00     0.074 A 
ATOM     68  C   UNL     1       5.944  13.711  -3.612  1.00  0.00     0.031 C 
ATOM     69  C   UNL     1       7.292  13.745  -1.533  1.00  0.00     0.037 A 
BRANCH  56  70
ATOM     70  C   UNL     1       7.807  11.131   4.048  1.00  0.00     0.058 A 
ATOM     71  C   UNL     1       8.592  10.034   4.438  1.00  0.00     0.135 A 
ATOM     72  C   UNL     1       7.728  12.223   4.927  1.00  0.00     0.135 A 
ATOM     73  F   UNL     1       8.687   8.954   3.646  1.00  0.00    -0.206 F 
ATOM     74  C   UNL     1       9.251  10.010   5.663  1.00  0.00     0.059 A 
ATOM     75  C   UNL     1       8.404  12.235   6.143  1.00  0.00     0.059 A 
ATOM     76  F   UNL     1       6.988  13.297   4.607  1.00  0.00    -0.206 F 
ATOM     77  C   UNL     1       9.152  11.117   6.508  1.00  0.00     0.060 A 
BRANCH  77  78
ATOM     78  S   UNL     1      10.021  11.073   8.090  1.00  0.00     0.124 S 
ATOM     79  O   UNL     1       9.232  10.091   8.828  1.00  0.00    -0.237 OA
ATOM     80  O   UNL     1      11.359  10.645   7.697  1.00  0.00    -0.237 OA
ATOM     81  O   UNL     1       9.920  12.447   8.572  1.00  0.00    -0.744 OA
ENDBRANCH  77  78
ENDBRANCH  56  70
BRANCH  57  82
ATOM     82  C   UNL     1       2.694  11.178  -4.540  1.00  0.00     0.058 A 
ATOM     83  C   UNL     1       3.282  10.833  -5.766  1.00  0.00     0.135 A 
ATOM     84  C   UNL     1       1.349  11.585  -4.556  1.00  0.00     0.135 A 
ATOM     85  F   UNL     1       4.569  10.456  -5.809  1.00  0.00    -0.206 F 
ATOM     86  C   UNL     1       2.573  10.900  -6.962  1.00  0.00     0.059 A 
ATOM     87  C   UNL     1       0.611  11.631  -5.734  1.00  0.00     0.059 A 
ATOM     88  F   UNL     1       0.736  11.924  -3.411  1.00  0.00    -0.206 F 
ATOM     89  C   UNL     1       1.235  11.296  -6.935  1.00  0.00     0.060 A 
BRANCH  89  90
ATOM     90  S   UNL     1       0.311  11.329  -8.487  1.00  0.00     0.124 S 
ATOM     91  O   UNL     1       0.909  12.475  -9.162  1.00  0.00    -0.237 OA
ATOM     92  O   UNL     1       0.621  10.020  -9.053  1.00  0.00    -0.237 OA
ATOM     93  O   UNL     1      -1.071  11.504  -8.052  1.00  0.00    -0.744 OA
ENDBRANCH  89  90
ENDBRANCH  57  82
BRANCH  69  94
ATOM     94  C   UNL     1       8.145  14.832  -2.136  1.00  0.00     0.058 A 
ATOM     95  C   UNL     1       7.662  16.135  -2.332  1.00  0.00     0.135 A 
ATOM     96  C   UNL     1       9.488  14.578  -2.462  1.00  0.00     0.135 A 
ATOM     97  F   UNL     1       6.386  16.434  -2.041  1.00  0.00    -0.206 F 
ATOM     98  C   UNL     1       8.473  17.141  -2.852  1.00  0.00     0.059 A 
ATOM     99  C   UNL     1      10.325  15.576  -2.953  1.00  0.00     0.059 A 
ATOM    100  F   UNL     1      10.008  13.353  -2.284  1.00  0.00    -0.206 F 
ATOM    101  C   UNL     1       9.805  16.852  -3.155  1.00  0.00     0.060 A 
BRANCH 101 102
ATOM    102  S   UNL     1      10.854  18.176  -3.794  1.00  0.00     0.124 S 
ATOM    103  O   UNL     1      10.322  18.348  -5.142  1.00  0.00    -0.237 OA
ATOM    104  O   UNL     1      10.583  19.265  -2.862  1.00  0.00    -0.237 OA
ATOM    105  O   UNL     1      12.199  17.612  -3.718  1.00  0.00    -0.744 OA
ENDBRANCH 101 102
ENDBRANCH  69  94
ENDBRANCH  43  44
ENDBRANCH  36  38
ENDBRANCH  35  36
ENDBRANCH  34  35
ENDBRANCH  33  34
ENDBRANCH  32  33
ENDBRANCH  31  32
ENDBRANCH   1  31
TORSDOF 25
