REMARK SMILES O=C(OCCOCCOCCOC(=O)c1ccc(-c2c3nc(c(-c4c(F)cc(S(=O)(=O)[O-])cc4F)c4ccc([nH]4)c(-c4c(F)cc(S(=O)(=O)[O-])cc4F)c4nc(c(-c5c(F)cc(S(=O)(=O)[O-])cc5F)c5ccc2[nH]5)C=C4)C=C3)cc1)C1=Cc2c(ccc(Cl)c2Oc2ccccc2)O[C@H]1C(F)(F)F
REMARK SMILES IDX 8 1 7 2 6 3 5 4 4 5 3 6 2 7 1 8 81 9 82 10 98 11 83 12 97 13
REMARK SMILES IDX 84 14 89 15 85 16 87 17 86 18 88 19 99 20 100 21 101 22
REMARK SMILES IDX 102 23 90 24 91 25 92 26 96 27 93 28 95 29 94 30 9 31 10 32
REMARK SMILES IDX 11 33 12 34 13 35 14 36 15 37 16 38 80 39 17 40 79 41 18 42
REMARK SMILES IDX 19 43 20 44 73 45 21 46 78 47 72 48 74 49 22 50 77 51 71 52
REMARK SMILES IDX 70 53 23 55 57 56 36 57 56 58 37 59 40 60 55 61 75 62 38 63
REMARK SMILES IDX 39 64 54 66 76 67 41 68 24 69 25 70 34 71 26 72 27 73 33 74
REMARK SMILES IDX 35 75 28 76 29 77 30 78 31 79 32 80 58 81 59 82 68 83 60 84
REMARK SMILES IDX 61 85 67 86 69 87 62 88 63 89 64 90 65 91 66 92 42 93 43 94
REMARK SMILES IDX 52 95 44 96 45 97 51 98 53 99 46 100 47 101 48 102 49 103
REMARK SMILES IDX 50 104
REMARK H PARENT 74 54 40 65
REMARK Flexibility Score: inf
ROOT
ATOM      1  C   UNL     1       2.082   0.876  -3.308  1.00  0.00     0.188 C 
ENDROOT
BRANCH   1   2
ATOM      2  C   UNL     1       1.495   0.792  -1.223  1.00  0.00     0.188 C 
BRANCH   2   3
ATOM      3  O   UNL     1       1.801   1.659  -0.032  1.00  0.00    -0.376 OA
BRANCH   3   4
ATOM      4  C   UNL     1       2.397   0.886   0.966  1.00  0.00     0.202 C 
BRANCH   4   5
ATOM      5  C   UNL     1       1.866  -0.517   1.400  1.00  0.00     0.261 C 
BRANCH   5   6
ATOM      6  O   UNL     1       2.001  -0.743   2.830  1.00  0.00    -0.460 OA
BRANCH   6   7
ATOM      7  C   UNL     1       3.073  -0.357   3.579  1.00  0.00     0.338 C 
ATOM      8  O   UNL     1       2.934   0.016   4.736  1.00  0.00    -0.246 OA
BRANCH   7   9
ATOM      9  C   UNL     1       4.429  -0.448   2.986  1.00  0.00     0.088 C 
ATOM     10  C   UNL     1       4.471  -0.566   1.663  1.00  0.00     0.031 C 
ATOM     11  C   UNL     1       5.583   0.377   3.501  1.00  0.00     0.316 C 
ATOM     12  C   UNL     1       5.569  -0.791   0.788  1.00  0.00     0.062 A 
ATOM     13  O   UNL     1       6.840  -0.092   2.810  1.00  0.00    -0.475 OA
ATOM     14  C   UNL     1       6.777  -0.617   1.514  1.00  0.00     0.131 A 
ATOM     15  C   UNL     1       5.399  -1.085  -0.607  1.00  0.00     0.156 A 
ATOM     16  C   UNL     1       7.929  -1.028   0.892  1.00  0.00     0.049 A 
ATOM     17  C   UNL     1       6.593  -1.565  -1.155  1.00  0.00     0.084 A 
ATOM     18  C   UNL     1       7.823  -1.552  -0.412  1.00  0.00     0.028 A 
ATOM     19  Cl  UNL     1       6.627  -2.328  -2.704  1.00  0.00    -0.080 Cl
BRANCH  11  20
ATOM     20  C   UNL     1       5.338   1.920   3.311  1.00  0.00     0.430 C 
ATOM     21  F   UNL     1       4.026   2.249   3.381  1.00  0.00    -0.167 F 
ATOM     22  F   UNL     1       5.983   2.668   4.228  1.00  0.00    -0.167 F 
ATOM     23  F   UNL     1       5.755   2.333   2.084  1.00  0.00    -0.167 F 
ENDBRANCH  11  20
BRANCH  15  24
ATOM     24  O   UNL     1       4.151  -1.301  -1.275  1.00  0.00    -0.455 OA
BRANCH  24  25
ATOM     25  C   UNL     1       3.231  -0.333  -1.844  1.00  0.00     0.127 A 
ATOM     26  C   UNL     1       1.600  -0.966  -2.373  1.00  0.00     0.047 A 
ATOM     27  C   UNL     1       3.483   1.422  -1.796  1.00  0.00     0.047 A 
ATOM     28  C   UNL     1       0.201   0.167  -2.689  1.00  0.00     0.004 A 
ATOM     29  C   UNL     1       2.121   2.583  -2.087  1.00  0.00     0.004 A 
ATOM     30  C   UNL     1       0.477   1.979  -2.573  1.00  0.00     0.000 A 
ENDBRANCH  24  25
ENDBRANCH  15  24
ENDBRANCH   7   9
ENDBRANCH   6   7
ENDBRANCH   5   6
ENDBRANCH   4   5
ENDBRANCH   3   4
ENDBRANCH   2   3
ENDBRANCH   1   2
BRANCH   1  31
ATOM     31  O   UNL     1       2.987  -0.001  -4.128  1.00  0.00    -0.376 OA
BRANCH  31  32
ATOM     32  C   UNL     1       4.059   0.586  -4.867  1.00  0.00     0.202 C 
BRANCH  32  33
ATOM     33  C   UNL     1       4.117   2.008  -5.507  1.00  0.00     0.261 C 
BRANCH  33  34
ATOM     34  O   UNL     1       3.735   3.153  -4.719  1.00  0.00    -0.460 OA
BRANCH  34  35
ATOM     35  C   UNL     1       2.701   3.899  -5.216  1.00  0.00     0.338 C 
ATOM     36  O   UNL     1       2.107   3.705  -6.264  1.00  0.00    -0.246 OA
BRANCH  35  37
ATOM     37  C   UNL     1       2.238   4.881  -4.200  1.00  0.00     0.060 A 
ATOM     38  C   UNL     1       0.866   4.921  -3.911  1.00  0.00     0.016 A 
ATOM     39  C   UNL     1       3.125   5.665  -3.451  1.00  0.00     0.016 A 
ATOM     40  C   UNL     1       0.391   5.675  -2.831  1.00  0.00     0.010 A 
ATOM     41  C   UNL     1       2.640   6.471  -2.405  1.00  0.00     0.010 A 
ATOM     42  C   UNL     1       1.269   6.481  -2.086  1.00  0.00    -0.014 A 
BRANCH  42  43
ATOM     43  C   UNL     1       0.679   7.571  -1.258  1.00  0.00     0.031 A 
ATOM     44  C   UNL     1       0.172   8.765  -2.027  1.00  0.00     0.074 A 
ATOM     45  C   UNL     1       0.533   7.521   0.082  1.00  0.00     0.049 A 
ATOM     46  N   UNL     1      -0.499   9.805  -1.611  1.00  0.00    -0.248 NA
ATOM     47  C   UNL     1       0.442   8.765  -3.478  1.00  0.00     0.031 C 
ATOM     48  C   UNL     1       0.951   6.426   0.956  1.00  0.00     0.029 A 
ATOM     49  N   UNL     1      -0.022   8.440   0.947  1.00  0.00    -0.354 N 
ATOM     50  C   UNL     1      -0.781  10.543  -2.753  1.00  0.00     0.074 A 
ATOM     51  C   UNL     1      -0.173   9.865  -3.873  1.00  0.00     0.031 C 
ATOM     52  C   UNL     1       0.659   6.748   2.233  1.00  0.00     0.029 A 
ATOM     53  C   UNL     1       0.034   8.071   2.274  1.00  0.00     0.049 A 
ATOM     54  H   UNL     1      -0.424   9.285   0.643  1.00  0.00     0.167 HD
ATOM     55  C   UNL     1      -1.494  11.684  -2.873  1.00  0.00     0.037 A 
ATOM     56  C   UNL     1      -0.367   8.734   3.383  1.00  0.00     0.037 A 
ATOM     57  C   UNL     1      -2.020  12.421  -1.761  1.00  0.00     0.049 A 
ATOM     58  C   UNL     1      -1.044  10.083   3.234  1.00  0.00     0.074 A 
ATOM     59  C   UNL     1      -2.704  13.621  -1.774  1.00  0.00     0.029 A 
ATOM     60  N   UNL     1      -1.890  12.041  -0.435  1.00  0.00    -0.354 N 
ATOM     61  N   UNL     1      -1.357  10.741   2.140  1.00  0.00    -0.248 NA
ATOM     62  C   UNL     1      -1.435  10.777   4.473  1.00  0.00     0.031 C 
ATOM     63  C   UNL     1      -2.940  13.998  -0.448  1.00  0.00     0.029 A 
ATOM     64  C   UNL     1      -2.460  12.999   0.384  1.00  0.00     0.049 A 
ATOM     65  H   UNL     1      -1.457  11.214  -0.123  1.00  0.00     0.167 HD
ATOM     66  C   UNL     1      -2.008  11.901   2.560  1.00  0.00     0.074 A 
ATOM     67  C   UNL     1      -2.063  11.846   4.005  1.00  0.00     0.031 C 
ATOM     68  C   UNL     1      -2.515  12.921   1.822  1.00  0.00     0.037 A 
BRANCH  55  69
ATOM     69  C   UNL     1      -1.704  12.210  -4.261  1.00  0.00     0.058 A 
ATOM     70  C   UNL     1      -2.583  11.574  -5.153  1.00  0.00     0.135 A 
ATOM     71  C   UNL     1      -1.026  13.354  -4.704  1.00  0.00     0.135 A 
ATOM     72  F   UNL     1      -3.222  10.450  -4.790  1.00  0.00    -0.206 F 
ATOM     73  C   UNL     1      -2.778  12.054  -6.442  1.00  0.00     0.059 A 
ATOM     74  C   UNL     1      -1.225  13.866  -5.981  1.00  0.00     0.059 A 
ATOM     75  F   UNL     1      -0.155  13.978  -3.896  1.00  0.00    -0.206 F 
ATOM     76  C   UNL     1      -2.100  13.207  -6.843  1.00  0.00     0.060 A 
BRANCH  76  77
ATOM     77  S   UNL     1      -2.395  13.838  -8.507  1.00  0.00     0.124 S 
ATOM     78  O   UNL     1      -1.741  12.823  -9.326  1.00  0.00    -0.237 OA
ATOM     79  O   UNL     1      -3.853  13.864  -8.573  1.00  0.00    -0.237 OA
ATOM     80  O   UNL     1      -1.748  15.146  -8.494  1.00  0.00    -0.744 OA
ENDBRANCH  76  77
ENDBRANCH  55  69
BRANCH  56  81
ATOM     81  C   UNL     1      -0.128   8.176   4.751  1.00  0.00     0.058 A 
ATOM     82  C   UNL     1      -1.190   7.841   5.608  1.00  0.00     0.135 A 
ATOM     83  C   UNL     1       1.173   8.062   5.267  1.00  0.00     0.135 A 
ATOM     84  F   UNL     1      -2.457   7.952   5.180  1.00  0.00    -0.206 F 
ATOM     85  C   UNL     1      -0.975   7.455   6.931  1.00  0.00     0.059 A 
ATOM     86  C   UNL     1       1.415   7.648   6.576  1.00  0.00     0.059 A 
ATOM     87  F   UNL     1       2.230   8.371   4.499  1.00  0.00    -0.206 F 
ATOM     88  C   UNL     1       0.333   7.367   7.408  1.00  0.00     0.060 A 
BRANCH  88  89
ATOM     89  S   UNL     1       0.604   6.874   9.127  1.00  0.00     0.124 S 
ATOM     90  O   UNL     1       0.162   8.062   9.848  1.00  0.00    -0.237 OA
ATOM     91  O   UNL     1      -0.253   5.698   9.248  1.00  0.00    -0.237 OA
ATOM     92  O   UNL     1       2.038   6.605   9.178  1.00  0.00    -0.744 OA
ENDBRANCH  88  89
ENDBRANCH  56  81
BRANCH  68  93
ATOM     93  C   UNL     1      -3.209  14.043   2.551  1.00  0.00     0.058 A 
ATOM     94  C   UNL     1      -2.506  14.958   3.350  1.00  0.00     0.135 A 
ATOM     95  C   UNL     1      -4.593  14.235   2.403  1.00  0.00     0.135 A 
ATOM     96  F   UNL     1      -1.181  14.826   3.522  1.00  0.00    -0.206 F 
ATOM     97  C   UNL     1      -3.155  15.997   4.010  1.00  0.00     0.059 A 
ATOM     98  C   UNL     1      -5.257  15.289   3.024  1.00  0.00     0.059 A 
ATOM     99  F   UNL     1      -5.314  13.405   1.632  1.00  0.00    -0.206 F 
ATOM    100  C   UNL     1      -4.532  16.153   3.841  1.00  0.00     0.060 A 
BRANCH 100 101
ATOM    101  S   UNL     1      -5.361  17.510   4.696  1.00  0.00     0.124 S 
ATOM    102  O   UNL     1      -5.358  17.034   6.075  1.00  0.00    -0.237 OA
ATOM    103  O   UNL     1      -4.484  18.641   4.413  1.00  0.00    -0.237 OA
ATOM    104  O   UNL     1      -6.672  17.566   4.055  1.00  0.00    -0.744 OA
ENDBRANCH 100 101
ENDBRANCH  68  93
ENDBRANCH  42  43
ENDBRANCH  35  37
ENDBRANCH  34  35
ENDBRANCH  33  34
ENDBRANCH  32  33
ENDBRANCH  31  32
ENDBRANCH   1  31
TORSDOF 23
