REMARK SMILES O=C(CSc1ccc(Br)cn1)OCCOCCOCCOC(=O)c1ccc(-c2c3nc(c(-c4c(F)cc(S(=O)(=O)[O-])cc4F)c4ccc([nH]4)c(-c4c(F)cc(S(=O)(=O)[O-])cc4F)c4nc(c(-c5c(F)cc(S(=O)(=O)[O-])cc5F)c5ccc2[nH]5)C=C4)C=C3)cc1
REMARK SMILES IDX 17 1 16 2 15 3 14 4 13 5 12 6 2 7 1 8 3 9 4 10 5 11 6 12
REMARK SMILES IDX 11 13 7 14 10 15 8 16 9 17 18 18 19 19 20 20 21 21 22 22
REMARK SMILES IDX 23 23 24 24 25 25 89 26 26 27 88 28 27 29 28 30 29 31 82 32
REMARK SMILES IDX 30 33 87 34 81 35 83 36 31 37 86 38 80 39 79 40 32 42 66 43
REMARK SMILES IDX 45 44 65 45 46 46 49 47 64 48 84 49 47 50 48 51 63 53 85 54
REMARK SMILES IDX 50 55 33 56 34 57 43 58 35 59 36 60 42 61 44 62 37 63 38 64
REMARK SMILES IDX 39 65 40 66 41 67 67 68 68 69 77 70 69 71 70 72 76 73 78 74
REMARK SMILES IDX 71 75 72 76 73 77 74 78 75 79 51 80 52 81 61 82 53 83 54 84
REMARK SMILES IDX 60 85 62 86 55 87 56 88 57 89 58 90 59 91
REMARK H PARENT 83 41 49 52
REMARK Flexibility Score: inf
ROOT
ATOM      1  C   UNL     1       2.351  -0.724  -2.826  1.00  0.00     0.188 C 
ENDROOT
BRANCH   1   2
ATOM      2  C   UNL     1       3.078   0.081  -1.734  1.00  0.00     0.188 C 
BRANCH   2   3
ATOM      3  O   UNL     1       4.408  -0.363  -1.533  1.00  0.00    -0.376 OA
BRANCH   3   4
ATOM      4  C   UNL     1       5.061   0.028  -0.339  1.00  0.00     0.202 C 
BRANCH   4   5
ATOM      5  C   UNL     1       4.629  -0.826   0.852  1.00  0.00     0.261 C 
BRANCH   5   6
ATOM      6  O   UNL     1       3.238  -0.744   1.242  1.00  0.00    -0.463 OA
BRANCH   6   7
ATOM      7  C   UNL     1       2.523   0.336   1.624  1.00  0.00     0.316 C 
ATOM      8  O   UNL     1       1.317   0.208   1.844  1.00  0.00    -0.251 OA
BRANCH   7   9
ATOM      9  C   UNL     1       3.161   1.704   1.656  1.00  0.00     0.199 C 
BRANCH   9  10
ATOM     10  S   UNL     1       4.447   1.872   2.917  1.00  0.00    -0.095 SA
BRANCH  10  11
ATOM     11  C   UNL     1       3.364   1.593   4.295  1.00  0.00     0.097 A 
ATOM     12  C   UNL     1       2.630   2.650   4.819  1.00  0.00     0.037 A 
ATOM     13  N   UNL     1       3.151   0.299   4.619  1.00  0.00    -0.249 NA
ATOM     14  C   UNL     1       1.586   2.363   5.693  1.00  0.00     0.020 A 
ATOM     15  C   UNL     1       2.125   0.050   5.466  1.00  0.00     0.128 A 
ATOM     16  C   UNL     1       1.319   1.037   6.012  1.00  0.00     0.036 A 
ATOM     17  Br  UNL     1      -0.123   0.591   7.138  1.00  0.00    -0.049 Br
ENDBRANCH  10  11
ENDBRANCH   9  10
ENDBRANCH   7   9
ENDBRANCH   6   7
ENDBRANCH   5   6
ENDBRANCH   4   5
ENDBRANCH   3   4
ENDBRANCH   2   3
ENDBRANCH   1   2
BRANCH   1  18
ATOM     18  O   UNL     1       3.049  -1.774  -3.484  1.00  0.00    -0.376 OA
BRANCH  18  19
ATOM     19  C   UNL     1       4.327  -1.496  -4.048  1.00  0.00     0.202 C 
BRANCH  19  20
ATOM     20  C   UNL     1       4.431  -0.353  -5.063  1.00  0.00     0.261 C 
BRANCH  20  21
ATOM     21  O   UNL     1       4.081   0.946  -4.544  1.00  0.00    -0.460 OA
BRANCH  21  22
ATOM     22  C   UNL     1       3.037   1.544  -5.173  1.00  0.00     0.338 C 
ATOM     23  O   UNL     1       2.362   1.084  -6.078  1.00  0.00    -0.246 OA
BRANCH  22  24
ATOM     24  C   UNL     1       2.711   2.839  -4.548  1.00  0.00     0.060 A 
ATOM     25  C   UNL     1       1.456   2.991  -3.944  1.00  0.00     0.016 A 
ATOM     26  C   UNL     1       3.549   3.941  -4.723  1.00  0.00     0.016 A 
ATOM     27  C   UNL     1       1.016   4.258  -3.553  1.00  0.00     0.010 A 
ATOM     28  C   UNL     1       3.100   5.212  -4.342  1.00  0.00     0.010 A 
ATOM     29  C   UNL     1       1.817   5.383  -3.792  1.00  0.00    -0.014 A 
BRANCH  29  30
ATOM     30  C   UNL     1       1.254   6.748  -3.624  1.00  0.00     0.031 A 
ATOM     31  C   UNL     1       0.707   7.468  -4.829  1.00  0.00     0.074 A 
ATOM     32  C   UNL     1       1.225   7.346  -2.419  1.00  0.00     0.049 A 
ATOM     33  N   UNL     1       0.232   8.683  -4.925  1.00  0.00    -0.248 NA
ATOM     34  C   UNL     1       0.694   6.715  -6.094  1.00  0.00     0.031 C 
ATOM     35  C   UNL     1       1.686   6.748  -1.168  1.00  0.00     0.029 A 
ATOM     36  N   UNL     1       0.800   8.601  -2.057  1.00  0.00    -0.354 N 
ATOM     37  C   UNL     1      -0.130   8.845  -6.258  1.00  0.00     0.074 A 
ATOM     38  C   UNL     1       0.201   7.611  -6.937  1.00  0.00     0.031 C 
ATOM     39  C   UNL     1       1.537   7.645  -0.177  1.00  0.00     0.029 A 
ATOM     40  C   UNL     1       0.998   8.888  -0.728  1.00  0.00     0.049 A 
ATOM     41  H   UNL     1       0.391   9.234  -2.690  1.00  0.00     0.167 HD
ATOM     42  C   UNL     1      -0.691   9.921  -6.861  1.00  0.00     0.037 A 
ATOM     43  C   UNL     1       0.792  10.030  -0.040  1.00  0.00     0.037 A 
ATOM     44  C   UNL     1      -1.019  11.152  -6.190  1.00  0.00     0.049 A 
ATOM     45  C   UNL     1       0.228  11.237  -0.745  1.00  0.00     0.074 A 
ATOM     46  C   UNL     1      -1.603  12.291  -6.718  1.00  0.00     0.029 A 
ATOM     47  N   UNL     1      -0.786  11.409  -4.848  1.00  0.00    -0.354 N 
ATOM     48  N   UNL     1      -0.126  11.368  -2.001  1.00  0.00    -0.248 NA
ATOM     49  C   UNL     1       0.035  12.451   0.063  1.00  0.00     0.031 C 
ATOM     50  C   UNL     1      -1.685  13.252  -5.703  1.00  0.00     0.029 A 
ATOM     51  C   UNL     1      -1.194  12.695  -4.534  1.00  0.00     0.049 A 
ATOM     52  H   UNL     1      -0.389  10.771  -4.211  1.00  0.00     0.167 HD
ATOM     53  C   UNL     1      -0.609  12.668  -2.127  1.00  0.00     0.074 A 
ATOM     54  C   UNL     1      -0.506  13.281  -0.819  1.00  0.00     0.031 C 
ATOM     55  C   UNL     1      -1.098  13.293  -3.226  1.00  0.00     0.037 A 
BRANCH  42  56
ATOM     56  C   UNL     1      -0.966   9.823  -8.335  1.00  0.00     0.058 A 
ATOM     57  C   UNL     1      -2.021   9.045  -8.838  1.00  0.00     0.135 A 
ATOM     58  C   UNL     1      -0.183  10.540  -9.254  1.00  0.00     0.135 A 
ATOM     59  F   UNL     1      -2.789   8.327  -8.003  1.00  0.00    -0.206 F 
ATOM     60  C   UNL     1      -2.274   8.961 -10.203  1.00  0.00     0.059 A 
ATOM     61  C   UNL     1      -0.433  10.489 -10.622  1.00  0.00     0.059 A 
ATOM     62  F   UNL     1       0.838  11.298  -8.825  1.00  0.00    -0.206 F 
ATOM     63  C   UNL     1      -1.472   9.685 -11.088  1.00  0.00     0.060 A 
BRANCH  63  64
ATOM     64  S   UNL     1      -1.811   9.566 -12.857  1.00  0.00     0.124 S 
ATOM     65  O   UNL     1      -1.286   8.239 -13.164  1.00  0.00    -0.237 OA
ATOM     66  O   UNL     1      -3.263   9.700 -12.909  1.00  0.00    -0.237 OA
ATOM     67  O   UNL     1      -1.061  10.684 -13.422  1.00  0.00    -0.744 OA
ENDBRANCH  63  64
ENDBRANCH  42  56
BRANCH  43  68
ATOM     68  C   UNL     1       1.136  10.094   1.405  1.00  0.00     0.058 A 
ATOM     69  C   UNL     1       0.135  10.160   2.385  1.00  0.00     0.135 A 
ATOM     70  C   UNL     1       2.473  10.092   1.831  1.00  0.00     0.135 A 
ATOM     71  F   UNL     1      -1.157  10.179   2.024  1.00  0.00    -0.206 F 
ATOM     72  C   UNL     1       0.447  10.229   3.739  1.00  0.00     0.059 A 
ATOM     73  C   UNL     1       2.809  10.137   3.180  1.00  0.00     0.059 A 
ATOM     74  F   UNL     1       3.466  10.021   0.932  1.00  0.00    -0.206 F 
ATOM     75  C   UNL     1       1.788  10.211   4.127  1.00  0.00     0.060 A 
BRANCH  75  76
ATOM     76  S   UNL     1       2.182  10.227   5.889  1.00  0.00     0.124 S 
ATOM     77  O   UNL     1       1.918  11.618   6.237  1.00  0.00    -0.237 OA
ATOM     78  O   UNL     1       1.243   9.244   6.421  1.00  0.00    -0.237 OA
ATOM     79  O   UNL     1       3.584   9.820   5.920  1.00  0.00    -0.744 OA
ENDBRANCH  75  76
ENDBRANCH  43  68
BRANCH  55  80
ATOM     80  C   UNL     1      -1.598  14.703  -3.064  1.00  0.00     0.058 A 
ATOM     81  C   UNL     1      -0.719  15.787  -2.922  1.00  0.00     0.135 A 
ATOM     82  C   UNL     1      -2.975  14.977  -3.114  1.00  0.00     0.135 A 
ATOM     83  F   UNL     1       0.606  15.580  -2.863  1.00  0.00    -0.206 F 
ATOM     84  C   UNL     1      -1.188  17.094  -2.819  1.00  0.00     0.059 A 
ATOM     85  C   UNL     1      -3.465  16.277  -3.035  1.00  0.00     0.059 A 
ATOM     86  F   UNL     1      -3.858  13.976  -3.258  1.00  0.00    -0.206 F 
ATOM     87  C   UNL     1      -2.563  17.329  -2.878  1.00  0.00     0.060 A 
BRANCH  87  88
ATOM     88  S   UNL     1      -3.159  19.031  -2.782  1.00  0.00     0.124 S 
ATOM     89  O   UNL     1      -3.010  19.315  -1.359  1.00  0.00    -0.237 OA
ATOM     90  O   UNL     1      -2.239  19.737  -3.669  1.00  0.00    -0.237 OA
ATOM     91  O   UNL     1      -4.534  18.937  -3.263  1.00  0.00    -0.744 OA
ENDBRANCH  87  88
ENDBRANCH  55  80
ENDBRANCH  29  30
ENDBRANCH  22  24
ENDBRANCH  21  22
ENDBRANCH  20  21
ENDBRANCH  19  20
ENDBRANCH  18  19
ENDBRANCH   1  18
TORSDOF 22
