REMARK SMILES O=C(OCCOCCOCCOC(=O)c1cc(S[C@H]2CCOC3(CCC3)C2)ccn1)c1ccc(-c2c3nc(c(-c4c(F)cc(S(=O)(=O)[O-])cc4F)c4ccc([nH]4)c(-c4c(F)cc(S(=O)(=O)[O-])cc4F)c4nc(c(-c5c(F)cc(S(=O)(=O)[O-])cc5F)c5ccc2[nH]5)C=C4)C=C3)cc1
REMARK SMILES IDX 7 1 6 2 5 3 4 4 3 5 2 6 1 7 31 8 32 9 96 10 33 11 95 12
REMARK SMILES IDX 34 13 35 14 36 15 89 16 37 17 94 18 88 19 90 20 38 21 93 22
REMARK SMILES IDX 87 23 86 24 39 26 73 27 52 28 72 29 53 30 56 31 71 32 91 33
REMARK SMILES IDX 54 34 55 35 70 37 92 38 57 39 40 40 41 41 50 42 42 43 43 44
REMARK SMILES IDX 49 45 51 46 44 47 45 48 46 49 47 50 48 51 74 52 75 53 84 54
REMARK SMILES IDX 76 55 77 56 83 57 85 58 78 59 79 60 80 61 81 62 82 63 58 64
REMARK SMILES IDX 59 65 68 66 60 67 61 68 67 69 69 70 62 71 63 72 64 73 65 74
REMARK SMILES IDX 66 75 8 76 9 77 10 78 11 79 12 80 13 81 14 82 15 83 16 84
REMARK SMILES IDX 30 85 17 86 29 87 28 88 18 89 19 90 20 91 27 92 21 93 23 94
REMARK SMILES IDX 22 95 24 96 26 97 25 98
REMARK H PARENT 90 25 56 36
REMARK Flexibility Score: inf
ROOT
ATOM      1  C   UNL     1      -1.027  15.579  -2.345  1.00  0.00     0.188 C 
ENDROOT
BRANCH   1   2
ATOM      2  O   UNL     1      -1.478  14.626  -1.372  1.00  0.00    -0.376 OA
BRANCH   2   3
ATOM      3  C   UNL     1      -2.749  14.943  -0.799  1.00  0.00     0.202 C 
BRANCH   3   4
ATOM      4  C   UNL     1      -2.670  15.830   0.448  1.00  0.00     0.261 C 
BRANCH   4   5
ATOM      5  O   UNL     1      -1.683  16.863   0.295  1.00  0.00    -0.460 OA
BRANCH   5   6
ATOM      6  C   UNL     1      -0.393  16.854   0.719  1.00  0.00     0.338 C 
ATOM      7  O   UNL     1       0.322  17.817   0.444  1.00  0.00    -0.246 OA
BRANCH   6   8
ATOM      8  C   UNL     1       0.183  15.778   1.583  1.00  0.00     0.060 A 
ATOM      9  C   UNL     1      -0.179  14.430   1.545  1.00  0.00     0.016 A 
ATOM     10  C   UNL     1       1.189  16.164   2.486  1.00  0.00     0.016 A 
ATOM     11  C   UNL     1       0.296  13.534   2.503  1.00  0.00     0.010 A 
ATOM     12  C   UNL     1       1.728  15.251   3.400  1.00  0.00     0.010 A 
ATOM     13  C   UNL     1       1.223  13.947   3.462  1.00  0.00    -0.014 A 
BRANCH  13  14
ATOM     14  C   UNL     1       1.519  13.053   4.607  1.00  0.00     0.031 A 
ATOM     15  C   UNL     1       0.959  13.407   5.963  1.00  0.00     0.074 A 
ATOM     16  C   UNL     1       2.185  11.898   4.418  1.00  0.00     0.049 A 
ATOM     17  N   UNL     1       1.062  12.765   7.098  1.00  0.00    -0.248 NA
ATOM     18  C   UNL     1       0.179  14.654   6.053  1.00  0.00     0.031 C 
ATOM     19  C   UNL     1       2.755  11.443   3.147  1.00  0.00     0.029 A 
ATOM     20  N   UNL     1       2.481  10.886   5.293  1.00  0.00    -0.354 N 
ATOM     21  C   UNL     1       0.389  13.542   8.036  1.00  0.00     0.074 A 
ATOM     22  C   UNL     1      -0.108  14.709   7.345  1.00  0.00     0.031 C 
ATOM     23  C   UNL     1       3.317  10.233   3.324  1.00  0.00     0.029 A 
ATOM     24  C   UNL     1       3.168   9.841   4.720  1.00  0.00     0.049 A 
ATOM     25  H   UNL     1       2.226  10.905   6.244  1.00  0.00     0.167 HD
ATOM     26  C   UNL     1       0.196  13.304   9.354  1.00  0.00     0.037 A 
ATOM     27  C   UNL     1       3.630   8.706   5.276  1.00  0.00     0.037 A 
ATOM     28  C   UNL     1       0.668  12.130  10.033  1.00  0.00     0.049 A 
ATOM     29  C   UNL     1       3.394   8.467   6.747  1.00  0.00     0.074 A 
ATOM     30  C   UNL     1       0.554  11.796  11.371  1.00  0.00     0.029 A 
ATOM     31  N   UNL     1       1.342  11.088   9.414  1.00  0.00    -0.354 N 
ATOM     32  N   UNL     1       2.744   9.210   7.612  1.00  0.00    -0.248 NA
ATOM     33  C   UNL     1       3.962   7.237   7.319  1.00  0.00     0.031 C 
ATOM     34  C   UNL     1       1.175  10.556  11.563  1.00  0.00     0.029 A 
ATOM     35  C   UNL     1       1.653  10.112  10.341  1.00  0.00     0.049 A 
ATOM     36  H   UNL     1       1.566  11.050   8.456  1.00  0.00     0.167 HD
ATOM     37  C   UNL     1       2.818   8.530   8.823  1.00  0.00     0.074 A 
ATOM     38  C   UNL     1       3.544   7.303   8.574  1.00  0.00     0.031 C 
ATOM     39  C   UNL     1       2.348   8.889  10.042  1.00  0.00     0.037 A 
BRANCH  26  40
ATOM     40  C   UNL     1      -0.527  14.357  10.142  1.00  0.00     0.058 A 
ATOM     41  C   UNL     1      -1.918  14.524  10.049  1.00  0.00     0.135 A 
ATOM     42  C   UNL     1       0.185  15.227  10.982  1.00  0.00     0.135 A 
ATOM     43  F   UNL     1      -2.641  13.733   9.241  1.00  0.00    -0.206 F 
ATOM     44  C   UNL     1      -2.574  15.542  10.734  1.00  0.00     0.059 A 
ATOM     45  C   UNL     1      -0.453  16.241  11.691  1.00  0.00     0.059 A 
ATOM     46  F   UNL     1       1.517  15.112  11.101  1.00  0.00    -0.206 F 
ATOM     47  C   UNL     1      -1.830  16.403  11.544  1.00  0.00     0.060 A 
BRANCH  47  48
ATOM     48  S   UNL     1      -2.682  17.747  12.397  1.00  0.00     0.124 S 
ATOM     49  O   UNL     1      -2.862  18.708  11.313  1.00  0.00    -0.237 OA
ATOM     50  O   UNL     1      -3.899  17.098  12.874  1.00  0.00    -0.237 OA
ATOM     51  O   UNL     1      -1.737  18.141  13.437  1.00  0.00    -0.744 OA
ENDBRANCH  47  48
ENDBRANCH  26  40
BRANCH  27  52
ATOM     52  C   UNL     1       4.425   7.718   4.498  1.00  0.00     0.058 A 
ATOM     53  C   UNL     1       3.941   6.422   4.260  1.00  0.00     0.135 A 
ATOM     54  C   UNL     1       5.751   7.999   4.140  1.00  0.00     0.135 A 
ATOM     55  F   UNL     1       2.674   6.113   4.575  1.00  0.00    -0.206 F 
ATOM     56  C   UNL     1       4.773   5.410   3.792  1.00  0.00     0.059 A 
ATOM     57  C   UNL     1       6.594   7.011   3.646  1.00  0.00     0.059 A 
ATOM     58  F   UNL     1       6.252   9.230   4.321  1.00  0.00    -0.206 F 
ATOM     59  C   UNL     1       6.109   5.708   3.525  1.00  0.00     0.060 A 
BRANCH  59  60
ATOM     60  S   UNL     1       7.258   4.394   3.059  1.00  0.00     0.124 S 
ATOM     61  O   UNL     1       7.892   4.099   4.338  1.00  0.00    -0.237 OA
ATOM     62  O   UNL     1       6.374   3.358   2.535  1.00  0.00    -0.237 OA
ATOM     63  O   UNL     1       8.101   5.055   2.067  1.00  0.00    -0.744 OA
ENDBRANCH  59  60
ENDBRANCH  27  52
BRANCH  39  64
ATOM     64  C   UNL     1       2.578   7.924  11.165  1.00  0.00     0.058 A 
ATOM     65  C   UNL     1       3.831   7.815  11.787  1.00  0.00     0.135 A 
ATOM     66  C   UNL     1       1.531   7.117  11.633  1.00  0.00     0.135 A 
ATOM     67  F   UNL     1       4.863   8.562  11.363  1.00  0.00    -0.206 F 
ATOM     68  C   UNL     1       4.045   6.918  12.826  1.00  0.00     0.059 A 
ATOM     69  C   UNL     1       1.718   6.226  12.683  1.00  0.00     0.059 A 
ATOM     70  F   UNL     1       0.315   7.192  11.069  1.00  0.00    -0.206 F 
ATOM     71  C   UNL     1       2.982   6.125  13.265  1.00  0.00     0.060 A 
BRANCH  71  72
ATOM     72  S   UNL     1       3.252   4.984  14.637  1.00  0.00     0.124 S 
ATOM     73  O   UNL     1       3.844   3.839  13.954  1.00  0.00    -0.237 OA
ATOM     74  O   UNL     1       4.149   5.737  15.508  1.00  0.00    -0.237 OA
ATOM     75  O   UNL     1       1.907   4.776  15.167  1.00  0.00    -0.744 OA
ENDBRANCH  71  72
ENDBRANCH  39  64
ENDBRANCH  13  14
ENDBRANCH   6   8
ENDBRANCH   5   6
ENDBRANCH   4   5
ENDBRANCH   3   4
ENDBRANCH   2   3
ENDBRANCH   1   2
BRANCH   1  76
ATOM     76  C   UNL     1      -0.232  14.901  -3.464  1.00  0.00     0.188 C 
BRANCH  76  77
ATOM     77  O   UNL     1      -1.021  14.106  -4.356  1.00  0.00    -0.376 OA
BRANCH  77  78
ATOM     78  C   UNL     1      -1.658  12.957  -3.796  1.00  0.00     0.202 C 
BRANCH  78  79
ATOM     79  C   UNL     1      -0.726  11.798  -3.444  1.00  0.00     0.261 C 
BRANCH  79  80
ATOM     80  O   UNL     1       0.220  12.146  -2.421  1.00  0.00    -0.459 OA
BRANCH  80  81
ATOM     81  C   UNL     1       1.503  11.845  -2.734  1.00  0.00     0.357 C 
ATOM     82  O   UNL     1       1.890  11.251  -3.732  1.00  0.00    -0.244 OA
BRANCH  81  83
ATOM     83  C   UNL     1       2.440  12.204  -1.647  1.00  0.00     0.149 A 
ATOM     84  C   UNL     1       3.153  11.136  -1.130  1.00  0.00     0.051 A 
ATOM     85  N   UNL     1       2.785  13.504  -1.486  1.00  0.00    -0.249 NA
ATOM     86  C   UNL     1       4.388  11.376  -0.548  1.00  0.00     0.011 A 
ATOM     87  C   UNL     1       3.929  13.719  -0.798  1.00  0.00     0.113 A 
ATOM     88  C   UNL     1       4.766  12.705  -0.346  1.00  0.00     0.035 A 
BRANCH  86  89
ATOM     89  S   UNL     1       5.571  10.081  -0.180  1.00  0.00    -0.122 SA
BRANCH  89  90
ATOM     90  C   UNL     1       4.773   8.549  -0.830  1.00  0.00     0.057 C 
ATOM     91  C   UNL     1       4.641   8.527  -2.361  1.00  0.00     0.043 C 
ATOM     92  C   UNL     1       5.567   7.304  -0.417  1.00  0.00     0.050 C 
ATOM     93  C   UNL     1       3.817   7.305  -2.741  1.00  0.00     0.162 C 
ATOM     94  C   UNL     1       4.785   6.058  -0.864  1.00  0.00     0.069 C 
ATOM     95  O   UNL     1       4.470   6.130  -2.284  1.00  0.00    -0.375 OA
ATOM     96  C   UNL     1       5.459   4.724  -0.460  1.00  0.00     0.035 C 
ATOM     97  C   UNL     1       3.608   5.668   0.077  1.00  0.00     0.035 C 
ATOM     98  C   UNL     1       4.085   4.210   0.001  1.00  0.00     0.006 C 
ENDBRANCH  89  90
ENDBRANCH  86  89
ENDBRANCH  81  83
ENDBRANCH  80  81
ENDBRANCH  79  80
ENDBRANCH  78  79
ENDBRANCH  77  78
ENDBRANCH  76  77
ENDBRANCH   1  76
TORSDOF 22
