REMARK SMILES CC(=O)c1nnn(-c2ccc(C(=O)OCCOCCOCCOC(=O)c3ccc(-c4c5nc(c(-c6c(F)cc(S(=O)(=O)[O-])cc6F)c6ccc([nH]6)c(-c6c(F)cc(S(=O)(=O)[O-])cc6F)c6nc(c(-c7c(F)cc(S(=O)(=O)[O-])cc7F)c7ccc4[nH]7)C=C6)C=C5)cc3)cc2)c1C
REMARK SMILES IDX 19 1 18 2 17 3 16 4 15 5 14 6 12 7 13 8 11 9 8 10 9 11 93 12
REMARK SMILES IDX 10 13 92 14 7 15 4 16 5 17 94 18 6 19 95 20 2 21 1 22 3 23
REMARK SMILES IDX 20 24 21 25 22 26 23 27 24 28 25 29 26 30 27 31 91 32 28 33
REMARK SMILES IDX 90 34 29 35 30 36 31 37 84 38 32 39 89 40 83 41 85 42 33 43
REMARK SMILES IDX 88 44 82 45 81 46 34 48 68 49 47 50 67 51 48 52 51 53 66 54
REMARK SMILES IDX 86 55 49 56 50 57 65 59 87 60 52 61 35 62 36 63 45 64 37 65
REMARK SMILES IDX 38 66 44 67 46 68 39 69 40 70 41 71 42 72 43 73 69 74 70 75
REMARK SMILES IDX 79 76 71 77 72 78 78 79 80 80 73 81 74 82 75 83 76 84 77 85
REMARK SMILES IDX 53 86 54 87 63 88 55 89 56 90 62 91 64 92 57 93 58 94 59 95
REMARK SMILES IDX 60 96 61 97
REMARK H PARENT 85 47 51 58
REMARK Flexibility Score: inf
ROOT
ATOM      1  C   UNL     1       6.832   8.846  -0.795  1.00  0.00     0.188 C 
ENDROOT
BRANCH   1   2
ATOM      2  C   UNL     1       6.997   9.337   0.661  1.00  0.00     0.188 C 
BRANCH   2   3
ATOM      3  O   UNL     1       8.272   9.672   1.195  1.00  0.00    -0.376 OA
BRANCH   3   4
ATOM      4  C   UNL     1       9.402   8.871   0.884  1.00  0.00     0.202 C 
BRANCH   4   5
ATOM      5  C   UNL     1       9.357   7.371   1.208  1.00  0.00     0.261 C 
BRANCH   5   6
ATOM      6  O   UNL     1       8.204   6.693   0.686  1.00  0.00    -0.460 OA
BRANCH   6   7
ATOM      7  C   UNL     1       7.349   6.194   1.609  1.00  0.00     0.338 C 
ATOM      8  O   UNL     1       7.514   6.141   2.815  1.00  0.00    -0.246 OA
BRANCH   7   9
ATOM      9  C   UNL     1       6.071   5.809   0.966  1.00  0.00     0.060 A 
ATOM     10  C   UNL     1       3.637   4.909  -0.034  1.00  0.00     0.067 A 
ATOM     11  C   UNL     1       3.655   5.643   1.155  1.00  0.00     0.029 A 
ATOM     12  C   UNL     1       4.806   4.747  -0.792  1.00  0.00     0.029 A 
ATOM     13  C   UNL     1       4.882   6.065   1.667  1.00  0.00     0.018 A 
ATOM     14  C   UNL     1       6.027   5.202  -0.293  1.00  0.00     0.018 A 
BRANCH  10  15
ATOM     15  N   UNL     1       2.470   4.185  -0.367  1.00  0.00    -0.217 N 
ATOM     16  C   UNL     1       1.024   2.587  -0.725  1.00  0.00     0.151 A 
ATOM     17  N   UNL     1       0.351   3.763  -0.522  1.00  0.00    -0.126 NA
ATOM     18  C   UNL     1       2.387   2.819  -0.619  1.00  0.00     0.073 A 
ATOM     19  N   UNL     1       1.234   4.698  -0.203  1.00  0.00    -0.061 NA
ATOM     20  C   UNL     1       3.559   1.911  -0.615  1.00  0.00     0.069 C 
BRANCH  16  21
ATOM     21  C   UNL     1       0.318   1.327  -0.913  1.00  0.00     0.181 C 
ATOM     22  C   UNL     1       0.619   0.202   0.047  1.00  0.00     0.095 C 
ATOM     23  O   UNL     1      -0.510   1.173  -1.810  1.00  0.00    -0.293 OA
ENDBRANCH  16  21
ENDBRANCH  10  15
ENDBRANCH   7   9
ENDBRANCH   6   7
ENDBRANCH   5   6
ENDBRANCH   4   5
ENDBRANCH   3   4
ENDBRANCH   2   3
ENDBRANCH   1   2
BRANCH   1  24
ATOM     24  O   UNL     1       8.035   8.603  -1.515  1.00  0.00    -0.376 OA
BRANCH  24  25
ATOM     25  C   UNL     1       8.203   9.386  -2.696  1.00  0.00     0.202 C 
BRANCH  25  26
ATOM     26  C   UNL     1       8.654  10.822  -2.422  1.00  0.00     0.261 C 
BRANCH  26  27
ATOM     27  O   UNL     1       7.800  11.534  -1.530  1.00  0.00    -0.460 OA
BRANCH  27  28
ATOM     28  C   UNL     1       6.549  11.774  -1.975  1.00  0.00     0.338 C 
ATOM     29  O   UNL     1       6.052  11.366  -3.009  1.00  0.00    -0.246 OA
BRANCH  28  30
ATOM     30  C   UNL     1       5.857  12.636  -1.004  1.00  0.00     0.060 A 
ATOM     31  C   UNL     1       4.492  12.857  -1.204  1.00  0.00     0.016 A 
ATOM     32  C   UNL     1       6.596  13.378  -0.071  1.00  0.00     0.016 A 
ATOM     33  C   UNL     1       3.917  13.979  -0.642  1.00  0.00     0.010 A 
ATOM     34  C   UNL     1       6.025  14.504   0.482  1.00  0.00     0.010 A 
ATOM     35  C   UNL     1       4.727  14.844   0.097  1.00  0.00    -0.014 A 
BRANCH  35  36
ATOM     36  C   UNL     1       4.283  16.222   0.220  1.00  0.00     0.031 A 
ATOM     37  C   UNL     1       3.450  16.581   1.382  1.00  0.00     0.074 A 
ATOM     38  C   UNL     1       4.742  17.144  -0.651  1.00  0.00     0.049 A 
ATOM     39  N   UNL     1       2.269  17.107   1.383  1.00  0.00    -0.248 NA
ATOM     40  C   UNL     1       3.984  16.282   2.718  1.00  0.00     0.031 C 
ATOM     41  C   UNL     1       5.820  16.972  -1.635  1.00  0.00     0.029 A 
ATOM     42  N   UNL     1       4.436  18.466  -0.753  1.00  0.00    -0.354 N 
ATOM     43  C   UNL     1       1.988  17.390   2.715  1.00  0.00     0.074 A 
ATOM     44  C   UNL     1       3.013  16.749   3.501  1.00  0.00     0.031 C 
ATOM     45  C   UNL     1       6.221  18.186  -2.066  1.00  0.00     0.029 A 
ATOM     46  C   UNL     1       5.362  19.200  -1.478  1.00  0.00     0.049 A 
ATOM     47  H   UNL     1       3.631  18.865  -0.349  1.00  0.00     0.167 HD
ATOM     48  C   UNL     1       1.057  18.308   3.083  1.00  0.00     0.037 A 
ATOM     49  C   UNL     1       5.483  20.548  -1.508  1.00  0.00     0.037 A 
ATOM     50  C   UNL     1       0.151  18.641   2.018  1.00  0.00     0.049 A 
ATOM     51  C   UNL     1       4.196  21.131  -1.051  1.00  0.00     0.074 A 
ATOM     52  C   UNL     1      -0.740  17.926   1.243  1.00  0.00     0.029 A 
ATOM     53  N   UNL     1       0.299  19.856   1.395  1.00  0.00    -0.354 N 
ATOM     54  N   UNL     1       3.073  21.063  -1.713  1.00  0.00    -0.248 NA
ATOM     55  C   UNL     1       4.064  21.488   0.354  1.00  0.00     0.031 C 
ATOM     56  C   UNL     1      -0.744  18.572  -0.027  1.00  0.00     0.029 A 
ATOM     57  C   UNL     1       0.143  19.646   0.048  1.00  0.00     0.049 A 
ATOM     58  H   UNL     1       0.482  20.718   1.834  1.00  0.00     0.167 HD
ATOM     59  C   UNL     1       2.087  20.974  -0.740  1.00  0.00     0.074 A 
ATOM     60  C   UNL     1       2.744  21.367   0.500  1.00  0.00     0.031 C 
ATOM     61  C   UNL     1       0.910  20.323  -0.978  1.00  0.00     0.037 A 
BRANCH  48  62
ATOM     62  C   UNL     1       1.178  19.132   4.333  1.00  0.00     0.058 A 
ATOM     63  C   UNL     1       0.046  19.759   4.881  1.00  0.00     0.135 A 
ATOM     64  C   UNL     1       2.428  19.530   4.859  1.00  0.00     0.135 A 
ATOM     65  F   UNL     1      -1.182  19.470   4.423  1.00  0.00    -0.206 F 
ATOM     66  C   UNL     1       0.150  20.744   5.863  1.00  0.00     0.059 A 
ATOM     67  C   UNL     1       2.551  20.468   5.875  1.00  0.00     0.059 A 
ATOM     68  F   UNL     1       3.583  19.091   4.340  1.00  0.00    -0.206 F 
ATOM     69  C   UNL     1       1.409  21.102   6.341  1.00  0.00     0.060 A 
BRANCH  69  70
ATOM     70  S   UNL     1       1.565  22.455   7.520  1.00  0.00     0.124 S 
ATOM     71  O   UNL     1       1.436  23.613   6.643  1.00  0.00    -0.237 OA
ATOM     72  O   UNL     1       0.448  22.210   8.426  1.00  0.00    -0.237 OA
ATOM     73  O   UNL     1       2.889  22.240   8.097  1.00  0.00    -0.744 OA
ENDBRANCH  69  70
ENDBRANCH  48  62
BRANCH  49  74
ATOM     74  C   UNL     1       6.744  21.327  -1.600  1.00  0.00     0.058 A 
ATOM     75  C   UNL     1       6.737  22.695  -1.915  1.00  0.00     0.135 A 
ATOM     76  C   UNL     1       7.973  20.801  -1.144  1.00  0.00     0.135 A 
ATOM     77  F   UNL     1       5.603  23.288  -2.318  1.00  0.00    -0.206 F 
ATOM     78  C   UNL     1       7.872  23.499  -1.766  1.00  0.00     0.059 A 
ATOM     79  C   UNL     1       9.121  21.576  -1.010  1.00  0.00     0.059 A 
ATOM     80  F   UNL     1       8.076  19.531  -0.726  1.00  0.00    -0.206 F 
ATOM     81  C   UNL     1       9.059  22.930  -1.302  1.00  0.00     0.060 A 
BRANCH  81  82
ATOM     82  S   UNL     1      10.485  23.988  -0.970  1.00  0.00     0.124 S 
ATOM     83  O   UNL     1      10.876  24.398  -2.314  1.00  0.00    -0.237 OA
ATOM     84  O   UNL     1       9.906  25.029  -0.127  1.00  0.00    -0.237 OA
ATOM     85  O   UNL     1      11.421  23.093  -0.293  1.00  0.00    -0.744 OA
ENDBRANCH  81  82
ENDBRANCH  49  74
BRANCH  61  86
ATOM     86  C   UNL     1       0.538  20.028  -2.406  1.00  0.00     0.058 A 
ATOM     87  C   UNL     1       1.250  19.140  -3.230  1.00  0.00     0.135 A 
ATOM     88  C   UNL     1      -0.671  20.538  -2.906  1.00  0.00     0.135 A 
ATOM     89  F   UNL     1       2.356  18.527  -2.785  1.00  0.00    -0.206 F 
ATOM     90  C   UNL     1       0.802  18.804  -4.508  1.00  0.00     0.059 A 
ATOM     91  C   UNL     1      -1.152  20.193  -4.168  1.00  0.00     0.059 A 
ATOM     92  F   UNL     1      -1.431  21.340  -2.141  1.00  0.00    -0.206 F 
ATOM     93  C   UNL     1      -0.403  19.333  -4.969  1.00  0.00     0.060 A 
BRANCH  93  94
ATOM     94  S   UNL     1      -1.034  18.812  -6.580  1.00  0.00     0.124 S 
ATOM     95  O   UNL     1      -0.217  19.599  -7.498  1.00  0.00    -0.237 OA
ATOM     96  O   UNL     1      -0.776  17.374  -6.577  1.00  0.00    -0.237 OA
ATOM     97  O   UNL     1      -2.447  19.180  -6.527  1.00  0.00    -0.744 OA
ENDBRANCH  93  94
ENDBRANCH  61  86
ENDBRANCH  35  36
ENDBRANCH  28  30
ENDBRANCH  27  28
ENDBRANCH  26  27
ENDBRANCH  25  26
ENDBRANCH  24  25
ENDBRANCH   1  24
TORSDOF 22
