REMARK SMILES Cc1ccccc1[C@@H]1[NH2+][C@H](C(=O)OCCOCCOCCOC(=O)c2ccc(-c3c4nc(c(-c5c(F)cc(S(=O)(=O)[O-])cc5F)c5ccc([nH]5)c(-c5c(F)cc(S(=O)(=O)[O-])cc5F)c5nc(c(-c6c(F)cc(S(=O)(=O)[O-])cc6F)c6ccc3[nH]6)C=C5)C=C4)cc2)CC2=c3ccccc3=N[C@@H]21
REMARK SMILES IDX 18 1 17 2 16 3 15 4 14 5 13 6 11 7 12 8 10 9 8 10 9 11
REMARK SMILES IDX 100 12 92 15 99 16 91 17 93 18 98 19 94 20 97 21 95 22 96 23
REMARK SMILES IDX 7 24 1 25 2 26 3 27 4 28 6 29 5 30 19 31 20 32 21 33 22 34
REMARK SMILES IDX 23 35 24 36 25 37 26 38 90 39 27 40 89 41 28 42 29 43 30 44
REMARK SMILES IDX 83 45 31 46 88 47 82 48 84 49 32 50 87 51 81 52 80 53 33 55
REMARK SMILES IDX 67 56 46 57 66 58 47 59 50 60 65 61 85 62 48 63 49 64 64 66
REMARK SMILES IDX 86 67 51 68 34 69 35 70 44 71 36 72 37 73 43 74 45 75 38 76
REMARK SMILES IDX 39 77 40 78 41 79 42 80 68 81 69 82 78 83 70 84 71 85 77 86
REMARK SMILES IDX 79 87 72 88 73 89 74 90 75 91 76 92 52 93 53 94 62 95 54 96
REMARK SMILES IDX 55 97 61 98 63 99 56 100 57 101 58 102 59 103 60 104
REMARK H PARENT 9 13 9 14 84 54 50 65
REMARK Flexibility Score: inf
ROOT
ATOM      1  C   UNL     1      -1.093   2.742  -0.707  1.00  0.00     0.188 C 
ENDROOT
BRANCH   1   2
ATOM      2  C   UNL     1      -1.664   4.071  -1.112  1.00  0.00     0.188 C 
BRANCH   2   3
ATOM      3  O   UNL     1      -1.843   4.393  -2.460  1.00  0.00    -0.376 OA
BRANCH   3   4
ATOM      4  C   UNL     1      -0.605   4.422  -3.112  1.00  0.00     0.202 C 
BRANCH   4   5
ATOM      5  C   UNL     1       0.658   4.988  -2.446  1.00  0.00     0.261 C 
BRANCH   5   6
ATOM      6  O   UNL     1       1.036   4.649  -0.994  1.00  0.00    -0.459 OA
BRANCH   6   7
ATOM      7  C   UNL     1       1.940   5.013   0.128  1.00  0.00     0.365 C 
ATOM      8  O   UNL     1       2.048   5.967   0.896  1.00  0.00    -0.245 OA
BRANCH   7   9
ATOM      9  C   UNL     1       2.542   3.775   0.536  1.00  0.00     0.298 C 
ATOM     10  C   UNL     1       2.814   1.843  -0.633  1.00  0.00     0.243 C 
ATOM     11  N   UNL     1       3.074   3.269  -0.733  1.00  0.00    -0.326 N 
ATOM     12  C   UNL     1       4.038   1.470   0.473  1.00  0.00     0.196 C 
ATOM     13  H   UNL     1       2.584   3.679  -1.528  1.00  0.00     0.347 HD
ATOM     14  H   UNL     1       4.058   3.495  -0.881  1.00  0.00     0.347 HD
ATOM     15  C   UNL     1       4.232   2.630   1.609  1.00  0.00    -0.024 C 
ATOM     16  N   UNL     1       5.353   1.550  -0.200  1.00  0.00    -0.270 NA
ATOM     17  C   UNL     1       3.116   3.564   1.931  1.00  0.00     0.111 C 
ATOM     18  C   UNL     1       5.439   3.199   1.575  1.00  0.00     0.002 A 
ATOM     19  C   UNL     1       5.965   2.558   0.360  1.00  0.00     0.066 A 
ATOM     20  C   UNL     1       5.837   4.535   1.982  1.00  0.00     0.010 A 
ATOM     21  C   UNL     1       7.078   3.281  -0.283  1.00  0.00     0.028 A 
ATOM     22  C   UNL     1       6.726   5.194   1.225  1.00  0.00     0.001 A 
ATOM     23  C   UNL     1       7.371   4.533   0.108  1.00  0.00     0.002 A 
BRANCH  10  24
ATOM     24  C   UNL     1       1.512   1.404  -1.866  1.00  0.00     0.015 A 
ATOM     25  C   UNL     1      -0.728   0.990   0.546  1.00  0.00     0.045 C 
ATOM     26  C   UNL     1      -0.190   0.939  -1.507  1.00  0.00    -0.042 A 
ATOM     27  C   UNL     1      -1.020   0.824  -2.639  1.00  0.00     0.004 A 
ATOM     28  C   UNL     1      -0.446   1.165  -3.904  1.00  0.00     0.000 A 
ATOM     29  C   UNL     1       1.877   1.789  -3.145  1.00  0.00     0.010 A 
ATOM     30  C   UNL     1       0.901   1.651  -4.136  1.00  0.00     0.001 A 
ENDBRANCH  10  24
ENDBRANCH   7   9
ENDBRANCH   6   7
ENDBRANCH   5   6
ENDBRANCH   4   5
ENDBRANCH   3   4
ENDBRANCH   2   3
ENDBRANCH   1   2
BRANCH   1  31
ATOM     31  O   UNL     1       0.545   2.036  -0.193  1.00  0.00    -0.376 OA
BRANCH  31  32
ATOM     32  C   UNL     1       0.742   0.025  -0.124  1.00  0.00     0.202 C 
BRANCH  32  33
ATOM     33  C   UNL     1      -1.144  -0.762  -0.254  1.00  0.00     0.261 C 
BRANCH  33  34
ATOM     34  O   UNL     1      -2.617   0.321   0.279  1.00  0.00    -0.460 OA
BRANCH  34  35
ATOM     35  C   UNL     1      -2.888   1.460   1.571  1.00  0.00     0.338 C 
ATOM     36  O   UNL     1      -3.673   0.962   2.392  1.00  0.00    -0.246 OA
BRANCH  35  37
ATOM     37  C   UNL     1      -2.044   3.024   2.154  1.00  0.00     0.060 A 
ATOM     38  C   UNL     1      -2.509   4.353   2.332  1.00  0.00     0.016 A 
ATOM     39  C   UNL     1      -0.714   3.347   2.285  1.00  0.00     0.016 A 
ATOM     40  C   UNL     1      -1.798   5.761   1.899  1.00  0.00     0.010 A 
ATOM     41  C   UNL     1      -0.178   4.588   1.553  1.00  0.00     0.010 A 
ATOM     42  C   UNL     1      -0.613   5.891   1.201  1.00  0.00    -0.014 A 
BRANCH  42  43
ATOM     43  C   UNL     1      -0.098   6.942  -0.188  1.00  0.00     0.031 A 
ATOM     44  C   UNL     1       1.571   7.463  -0.751  1.00  0.00     0.074 A 
ATOM     45  C   UNL     1      -1.063   7.155  -1.147  1.00  0.00     0.049 A 
ATOM     46  N   UNL     1       2.313   8.537  -0.463  1.00  0.00    -0.248 NA
ATOM     47  C   UNL     1       2.579   6.597  -1.575  1.00  0.00     0.031 C 
ATOM     48  C   UNL     1      -0.988   7.705  -2.526  1.00  0.00     0.029 A 
ATOM     49  N   UNL     1      -2.441   6.876  -1.067  1.00  0.00    -0.354 N 
ATOM     50  C   UNL     1       3.632   8.360  -1.114  1.00  0.00     0.074 A 
ATOM     51  C   UNL     1       3.798   6.960  -1.196  1.00  0.00     0.031 C 
ATOM     52  C   UNL     1      -2.221   8.059  -2.948  1.00  0.00     0.029 A 
ATOM     53  C   UNL     1      -3.103   7.866  -1.817  1.00  0.00     0.049 A 
ATOM     54  H   UNL     1      -2.861   6.130  -0.580  1.00  0.00     0.167 HD
ATOM     55  C   UNL     1       4.045   8.929  -2.326  1.00  0.00     0.037 A 
ATOM     56  C   UNL     1      -3.693   8.841  -1.075  1.00  0.00     0.037 A 
ATOM     57  C   UNL     1       2.868   9.440  -2.989  1.00  0.00     0.049 A 
ATOM     58  C   UNL     1      -2.800  10.078  -1.135  1.00  0.00     0.074 A 
ATOM     59  C   UNL     1       2.124   9.120  -4.109  1.00  0.00     0.029 A 
ATOM     60  N   UNL     1       2.102  10.281  -2.235  1.00  0.00    -0.354 N 
ATOM     61  N   UNL     1      -1.504  10.072  -1.363  1.00  0.00    -0.248 NA
ATOM     62  C   UNL     1      -3.355  11.421  -1.220  1.00  0.00     0.031 C 
ATOM     63  C   UNL     1       0.911   9.879  -4.029  1.00  0.00     0.029 A 
ATOM     64  C   UNL     1       0.928  10.595  -2.841  1.00  0.00     0.049 A 
ATOM     65  H   UNL     1       2.371  10.623  -1.351  1.00  0.00     0.167 HD
ATOM     66  C   UNL     1      -1.083  11.326  -1.729  1.00  0.00     0.074 A 
ATOM     67  C   UNL     1      -2.281  12.131  -1.608  1.00  0.00     0.031 C 
ATOM     68  C   UNL     1       0.167  11.640  -2.195  1.00  0.00     0.037 A 
BRANCH  55  69
ATOM     69  C   UNL     1       5.367   8.608  -3.131  1.00  0.00     0.058 A 
ATOM     70  C   UNL     1       5.559   9.136  -4.434  1.00  0.00     0.135 A 
ATOM     71  C   UNL     1       6.483   7.855  -2.672  1.00  0.00     0.135 A 
ATOM     72  F   UNL     1       4.631   9.915  -5.007  1.00  0.00    -0.206 F 
ATOM     73  C   UNL     1       6.716   8.928  -5.210  1.00  0.00     0.059 A 
ATOM     74  C   UNL     1       7.639   7.599  -3.448  1.00  0.00     0.059 A 
ATOM     75  F   UNL     1       6.519   7.349  -1.429  1.00  0.00    -0.206 F 
ATOM     76  C   UNL     1       7.758   8.161  -4.712  1.00  0.00     0.060 A 
BRANCH  76  77
ATOM     77  S   UNL     1       9.273   7.994  -5.696  1.00  0.00     0.124 S 
ATOM     78  O   UNL     1       8.778   7.407  -6.938  1.00  0.00    -0.237 OA
ATOM     79  O   UNL     1       9.732   9.376  -5.788  1.00  0.00    -0.237 OA
ATOM     80  O   UNL     1      10.112   7.113  -4.888  1.00  0.00    -0.744 OA
ENDBRANCH  76  77
ENDBRANCH  55  69
BRANCH  56  81
ATOM     81  C   UNL     1      -4.499   8.172   0.021  1.00  0.00     0.058 A 
ATOM     82  C   UNL     1      -5.476   7.241  -0.433  1.00  0.00     0.135 A 
ATOM     83  C   UNL     1      -4.082   8.002   1.347  1.00  0.00     0.135 A 
ATOM     84  F   UNL     1      -5.949   7.332  -1.687  1.00  0.00    -0.206 F 
ATOM     85  C   UNL     1      -5.850   6.111   0.292  1.00  0.00     0.059 A 
ATOM     86  C   UNL     1      -4.549   6.920   2.144  1.00  0.00     0.059 A 
ATOM     87  F   UNL     1      -3.092   8.764   1.839  1.00  0.00    -0.206 F 
ATOM     88  C   UNL     1      -5.363   5.935   1.575  1.00  0.00     0.060 A 
BRANCH  88  89
ATOM     89  S   UNL     1      -5.697   4.311   2.336  1.00  0.00     0.124 S 
ATOM     90  O   UNL     1      -7.152   4.247   2.315  1.00  0.00    -0.237 OA
ATOM     91  O   UNL     1      -5.021   3.425   1.391  1.00  0.00    -0.237 OA
ATOM     92  O   UNL     1      -5.113   4.420   3.670  1.00  0.00    -0.744 OA
ENDBRANCH  88  89
ENDBRANCH  56  81
BRANCH  68  93
ATOM     93  C   UNL     1       0.879  12.989  -2.010  1.00  0.00     0.058 A 
ATOM     94  C   UNL     1       0.343  14.044  -1.266  1.00  0.00     0.135 A 
ATOM     95  C   UNL     1       2.232  13.207  -2.436  1.00  0.00     0.135 A 
ATOM     96  F   UNL     1      -0.835  13.953  -0.641  1.00  0.00    -0.206 F 
ATOM     97  C   UNL     1       1.014  15.249  -1.083  1.00  0.00     0.059 A 
ATOM     98  C   UNL     1       2.965  14.351  -2.148  1.00  0.00     0.059 A 
ATOM     99  F   UNL     1       2.931  12.315  -3.151  1.00  0.00    -0.206 F 
ATOM    100  C   UNL     1       2.320  15.396  -1.527  1.00  0.00     0.060 A 
BRANCH 100 101
ATOM    101  S   UNL     1       3.140  16.972  -1.306  1.00  0.00     0.124 S 
ATOM    102  O   UNL     1       2.459  17.785  -2.309  1.00  0.00    -0.237 OA
ATOM    103  O   UNL     1       2.829  17.289   0.084  1.00  0.00    -0.237 OA
ATOM    104  O   UNL     1       4.542  16.675  -1.580  1.00  0.00    -0.744 OA
ENDBRANCH 100 101
ENDBRANCH  68  93
ENDBRANCH  42  43
ENDBRANCH  35  37
ENDBRANCH  34  35
ENDBRANCH  33  34
ENDBRANCH  32  33
ENDBRANCH  31  32
ENDBRANCH   1  31
TORSDOF 21
