REMARK SMILES CCCC[C@H](C(=O)OCCOCCOCCOC(=O)c1ccc(-c2c3nc(c(-c4c(F)cc(S(=O)(=O)[O-])cc4F)c4ccc([nH]4)c(-c4c(F)cc(S(=O)(=O)[O-])cc4F)c4nc(c(-c5c(F)cc(S(=O)(=O)[O-])cc5F)c5ccc2[nH]5)C=C4)C=C3)cc1)N1C(=O)/C(=C/c2ccc(C)cc2)SC1=S
REMARK SMILES IDX 12 1 11 2 10 3 9 4 8 5 6 6 7 7 5 8 4 9 3 10 2 11 1 12 86 13
REMARK SMILES IDX 87 14 99 15 88 16 89 17 98 18 100 19 90 20 91 21 92 22 97 23
REMARK SMILES IDX 93 24 96 25 94 26 95 27 13 28 14 29 15 30 16 31 17 32 18 33
REMARK SMILES IDX 19 34 20 35 21 36 85 37 22 38 84 39 23 40 24 41 25 42 78 43
REMARK SMILES IDX 26 44 83 45 77 46 79 47 27 48 82 49 76 50 75 51 28 53 62 54
REMARK SMILES IDX 41 55 61 56 42 57 45 58 60 59 80 60 43 61 44 62 59 64 81 65
REMARK SMILES IDX 46 66 29 67 30 68 39 69 31 70 32 71 38 72 40 73 33 74 34 75
REMARK SMILES IDX 35 76 36 77 37 78 63 79 64 80 73 81 65 82 66 83 72 84 74 85
REMARK SMILES IDX 67 86 68 87 69 88 70 89 71 90 47 91 48 92 57 93 49 94 50 95
REMARK SMILES IDX 56 96 58 97 51 98 52 99 53 100 54 101 55 102
REMARK H PARENT 79 52 45 63
REMARK Flexibility Score: inf
ROOT
ATOM      1  C   UNL     1       2.021  -0.667   4.242  1.00  0.00     0.188 C 
ENDROOT
BRANCH   1   2
ATOM      2  O   UNL     1       3.115  -1.331   3.617  1.00  0.00    -0.376 OA
BRANCH   2   3
ATOM      3  C   UNL     1       3.243  -1.327   2.206  1.00  0.00     0.202 C 
BRANCH   3   4
ATOM      4  C   UNL     1       2.255  -2.189   1.422  1.00  0.00     0.261 C 
BRANCH   4   5
ATOM      5  O   UNL     1       0.888  -1.740   1.448  1.00  0.00    -0.462 OA
BRANCH   5   6
ATOM      6  C   UNL     1       0.049  -2.416   2.290  1.00  0.00     0.329 C 
ATOM      7  O   UNL     1       0.425  -3.214   3.134  1.00  0.00    -0.250 OA
BRANCH   6   8
ATOM      8  C   UNL     1      -1.419  -2.049   2.009  1.00  0.00     0.202 C 
BRANCH   8   9
ATOM      9  C   UNL     1      -2.204  -3.330   1.662  1.00  0.00     0.038 C 
BRANCH   9  10
ATOM     10  C   UNL     1      -2.381  -3.568   0.157  1.00  0.00     0.002 C 
BRANCH  10  11
ATOM     11  C   UNL     1      -1.120  -3.506  -0.707  1.00  0.00    -0.003 C 
ATOM     12  C   UNL     1      -0.097  -4.584  -0.392  1.00  0.00     0.004 C 
ENDBRANCH  10  11
ENDBRANCH   9  10
ENDBRANCH   8   9
BRANCH   8  13
ATOM     13  N   UNL     1      -2.042  -1.271   3.105  1.00  0.00    -0.278 N 
ATOM     14  C   UNL     1      -2.374  -1.896   4.301  1.00  0.00     0.266 C 
ATOM     15  C   UNL     1      -2.392   0.061   3.002  1.00  0.00     0.149 C 
ATOM     16  O   UNL     1      -2.148  -3.053   4.590  1.00  0.00    -0.268 OA
ATOM     17  C   UNL     1      -3.078  -0.942   5.215  1.00  0.00     0.081 C 
ATOM     18  S   UNL     1      -3.084   0.619   4.512  1.00  0.00    -0.054 SA
ATOM     19  S   UNL     1      -2.255   1.084   1.690  1.00  0.00    -0.052 S 
ATOM     20  C   UNL     1      -3.558  -1.353   6.400  1.00  0.00     0.029 C 
BRANCH  20  21
ATOM     21  C   UNL     1      -4.143  -0.593   7.528  1.00  0.00    -0.024 A 
ATOM     22  C   UNL     1      -4.059  -1.178   8.803  1.00  0.00     0.008 A 
ATOM     23  C   UNL     1      -4.713   0.680   7.433  1.00  0.00     0.008 A 
ATOM     24  C   UNL     1      -4.437  -0.476   9.950  1.00  0.00     0.004 A 
ATOM     25  C   UNL     1      -5.084   1.390   8.579  1.00  0.00     0.004 A 
ATOM     26  C   UNL     1      -4.932   0.822   9.844  1.00  0.00    -0.051 A 
ATOM     27  C   UNL     1      -5.198   1.636  11.070  1.00  0.00     0.044 C 
ENDBRANCH  20  21
ENDBRANCH   8  13
ENDBRANCH   6   8
ENDBRANCH   5   6
ENDBRANCH   4   5
ENDBRANCH   3   4
ENDBRANCH   2   3
ENDBRANCH   1   2
BRANCH   1  28
ATOM     28  C   UNL     1       1.351   0.520   3.532  1.00  0.00     0.188 C 
BRANCH  28  29
ATOM     29  O   UNL     1       2.272   1.325   2.813  1.00  0.00    -0.376 OA
BRANCH  29  30
ATOM     30  C   UNL     1       2.421   2.654   3.284  1.00  0.00     0.202 C 
BRANCH  30  31
ATOM     31  C   UNL     1       3.276   2.758   4.552  1.00  0.00     0.261 C 
BRANCH  31  32
ATOM     32  O   UNL     1       2.791   2.016   5.689  1.00  0.00    -0.460 OA
BRANCH  32  33
ATOM     33  C   UNL     1       1.669   2.478   6.281  1.00  0.00     0.338 C 
ATOM     34  O   UNL     1       1.025   3.459   5.948  1.00  0.00    -0.246 OA
BRANCH  33  35
ATOM     35  C   UNL     1       1.222   1.494   7.292  1.00  0.00     0.060 A 
ATOM     36  C   UNL     1       0.020   0.826   7.067  1.00  0.00     0.016 A 
ATOM     37  C   UNL     1       1.934   1.265   8.473  1.00  0.00     0.016 A 
ATOM     38  C   UNL     1      -0.492  -0.032   8.039  1.00  0.00     0.010 A 
ATOM     39  C   UNL     1       1.402   0.409   9.456  1.00  0.00     0.010 A 
ATOM     40  C   UNL     1       0.158  -0.217   9.265  1.00  0.00    -0.014 A 
BRANCH  40  41
ATOM     41  C   UNL     1      -0.586  -0.907  10.365  1.00  0.00     0.031 A 
ATOM     42  C   UNL     1      -1.177  -0.074  11.483  1.00  0.00     0.074 A 
ATOM     43  C   UNL     1      -0.880  -2.223  10.297  1.00  0.00     0.049 A 
ATOM     44  N   UNL     1      -1.900  -0.446  12.511  1.00  0.00    -0.248 NA
ATOM     45  C   UNL     1      -0.934   1.377  11.425  1.00  0.00     0.031 C 
ATOM     46  C   UNL     1      -0.467  -3.130   9.225  1.00  0.00     0.029 A 
ATOM     47  N   UNL     1      -1.636  -3.020  11.128  1.00  0.00    -0.354 N 
ATOM     48  C   UNL     1      -2.180   0.717  13.225  1.00  0.00     0.074 A 
ATOM     49  C   UNL     1      -1.532   1.805  12.527  1.00  0.00     0.031 C 
ATOM     50  C   UNL     1      -0.997  -4.346   9.447  1.00  0.00     0.029 A 
ATOM     51  C   UNL     1      -1.752  -4.325  10.698  1.00  0.00     0.049 A 
ATOM     52  H   UNL     1      -2.056  -2.688  11.954  1.00  0.00     0.167 HD
ATOM     53  C   UNL     1      -2.929   0.875  14.344  1.00  0.00     0.037 A 
ATOM     54  C   UNL     1      -2.383  -5.382  11.252  1.00  0.00     0.037 A 
ATOM     55  C   UNL     1      -3.627  -0.194  15.008  1.00  0.00     0.049 A 
ATOM     56  C   UNL     1      -3.142  -5.195  12.545  1.00  0.00     0.074 A 
ATOM     57  C   UNL     1      -4.418  -0.128  16.142  1.00  0.00     0.029 A 
ATOM     58  N   UNL     1      -3.630  -1.518  14.596  1.00  0.00    -0.354 N 
ATOM     59  N   UNL     1      -3.365  -4.092  13.221  1.00  0.00    -0.248 NA
ATOM     60  C   UNL     1      -3.732  -6.398  13.150  1.00  0.00     0.031 C 
ATOM     61  C   UNL     1      -4.872  -1.419  16.435  1.00  0.00     0.029 A 
ATOM     62  C   UNL     1      -4.395  -2.283  15.462  1.00  0.00     0.049 A 
ATOM     63  H   UNL     1      -3.157  -1.864  13.805  1.00  0.00     0.167 HD
ATOM     64  C   UNL     1      -4.136  -4.467  14.319  1.00  0.00     0.074 A 
ATOM     65  C   UNL     1      -4.361  -5.893  14.202  1.00  0.00     0.031 C 
ATOM     66  C   UNL     1      -4.614  -3.703  15.334  1.00  0.00     0.037 A 
BRANCH  53  67
ATOM     67  C   UNL     1      -3.012   2.255  14.943  1.00  0.00     0.058 A 
ATOM     68  C   UNL     1      -3.875   3.238  14.437  1.00  0.00     0.135 A 
ATOM     69  C   UNL     1      -2.239   2.590  16.065  1.00  0.00     0.135 A 
ATOM     70  F   UNL     1      -4.669   2.973  13.393  1.00  0.00    -0.206 F 
ATOM     71  C   UNL     1      -3.935   4.516  14.981  1.00  0.00     0.059 A 
ATOM     72  C   UNL     1      -2.304   3.855  16.648  1.00  0.00     0.059 A 
ATOM     73  F   UNL     1      -1.411   1.685  16.608  1.00  0.00    -0.206 F 
ATOM     74  C   UNL     1      -3.139   4.818  16.083  1.00  0.00     0.060 A 
BRANCH  74  75
ATOM     75  S   UNL     1      -3.231   6.481  16.781  1.00  0.00     0.124 S 
ATOM     76  O   UNL     1      -2.420   7.237  15.832  1.00  0.00    -0.237 OA
ATOM     77  O   UNL     1      -4.664   6.758  16.750  1.00  0.00    -0.237 OA
ATOM     78  O   UNL     1      -2.656   6.320  18.113  1.00  0.00    -0.744 OA
ENDBRANCH  74  75
ENDBRANCH  53  67
BRANCH  54  79
ATOM     79  C   UNL     1      -2.311  -6.731  10.614  1.00  0.00     0.058 A 
ATOM     80  C   UNL     1      -3.454  -7.366  10.103  1.00  0.00     0.135 A 
ATOM     81  C   UNL     1      -1.096  -7.432  10.543  1.00  0.00     0.135 A 
ATOM     82  F   UNL     1      -4.646  -6.753  10.165  1.00  0.00    -0.206 F 
ATOM     83  C   UNL     1      -3.399  -8.649   9.562  1.00  0.00     0.059 A 
ATOM     84  C   UNL     1      -1.010  -8.702   9.979  1.00  0.00     0.059 A 
ATOM     85  F   UNL     1       0.029  -6.878  11.021  1.00  0.00    -0.206 F 
ATOM     86  C   UNL     1      -2.171  -9.309   9.503  1.00  0.00     0.060 A 
BRANCH  86  87
ATOM     87  S   UNL     1      -2.098 -10.959   8.769  1.00  0.00     0.124 S 
ATOM     88  O   UNL     1      -2.690 -11.777   9.822  1.00  0.00    -0.237 OA
ATOM     89  O   UNL     1      -2.901 -10.796   7.561  1.00  0.00    -0.237 OA
ATOM     90  O   UNL     1      -0.671 -11.162   8.540  1.00  0.00    -0.744 OA
ENDBRANCH  86  87
ENDBRANCH  54  79
BRANCH  66  91
ATOM     91  C   UNL     1      -5.451  -4.390  16.382  1.00  0.00     0.058 A 
ATOM     92  C   UNL     1      -4.887  -5.275  17.314  1.00  0.00     0.135 A 
ATOM     93  C   UNL     1      -6.832  -4.147  16.465  1.00  0.00     0.135 A 
ATOM     94  F   UNL     1      -3.572  -5.546  17.279  1.00  0.00    -0.206 F 
ATOM     95  C   UNL     1      -5.668  -5.927  18.265  1.00  0.00     0.059 A 
ATOM     96  C   UNL     1      -7.627  -4.765  17.427  1.00  0.00     0.059 A 
ATOM     97  F   UNL     1      -7.422  -3.297  15.610  1.00  0.00    -0.206 F 
ATOM     98  C   UNL     1      -7.039  -5.670  18.309  1.00  0.00     0.060 A 
BRANCH  98  99
ATOM     99  S   UNL     1      -8.044  -6.522  19.544  1.00  0.00     0.124 S 
ATOM    100  O   UNL     1      -8.145  -7.859  18.969  1.00  0.00    -0.237 OA
ATOM    101  O   UNL     1      -7.225  -6.410  20.748  1.00  0.00    -0.237 OA
ATOM    102  O   UNL     1      -9.283  -5.750  19.564  1.00  0.00    -0.744 OA
ENDBRANCH  98  99
ENDBRANCH  66  91
ENDBRANCH  40  41
ENDBRANCH  33  35
ENDBRANCH  32  33
ENDBRANCH  31  32
ENDBRANCH  30  31
ENDBRANCH  29  30
ENDBRANCH  28  29
ENDBRANCH   1  28
TORSDOF 25
