REMARK SMILES Cc1ccc(S(=O)(=O)n2cc(C(=O)C(=O)NCC(=O)OCCOCCOCCOC(=O)c3ccc(-c4c5nc(c(-c6c(F)cc(S(=O)(=O)[O-])cc6F)c6ccc([nH]6)c(-c6c(F)cc(S(=O)(=O)[O-])cc6F)c6nc(c(-c7c(F)cc(S(=O)(=O)[O-])cc7F)c7ccc4[nH]7)C=C6)C=C5)cc3)c3ccccc32)cc1
REMARK SMILES IDX 24 1 23 2 22 3 21 4 20 5 18 6 19 7 17 8 16 9 14 10 15 11
REMARK SMILES IDX 12 13 13 14 11 15 9 16 10 17 103 18 98 19 102 20 99 21
REMARK SMILES IDX 101 22 100 23 6 24 7 25 8 26 5 27 1 28 2 29 3 30 105 31 4 32
REMARK SMILES IDX 104 33 25 34 26 35 27 36 28 37 29 38 30 39 31 40 32 41 33 42
REMARK SMILES IDX 97 43 34 44 96 45 35 46 36 47 37 48 90 49 38 50 95 51 89 52
REMARK SMILES IDX 91 53 39 54 94 55 88 56 87 57 40 59 74 60 53 61 73 62 54 63
REMARK SMILES IDX 57 64 72 65 92 66 55 67 56 68 71 70 93 71 58 72 41 73 42 74
REMARK SMILES IDX 51 75 43 76 44 77 50 78 52 79 45 80 46 81 47 82 48 83 49 84
REMARK SMILES IDX 75 85 76 86 85 87 77 88 78 89 84 90 86 91 79 92 80 93 81 94
REMARK SMILES IDX 82 95 83 96 59 97 60 98 69 99 61 100 62 101 68 102 70 103
REMARK SMILES IDX 63 104 64 105 65 106 66 107 67 108
REMARK H PARENT 16 12 91 58 57 69
REMARK Flexibility Score: inf
ROOT
ATOM      1  C   UNL     1     -12.966   5.766   3.986  1.00  0.00     0.188 C 
ENDROOT
BRANCH   1   2
ATOM      2  O   UNL     1     -12.650   5.710   2.576  1.00  0.00    -0.376 OA
BRANCH   2   3
ATOM      3  C   UNL     1     -12.407   4.522   1.814  1.00  0.00     0.202 C 
BRANCH   3   4
ATOM      4  C   UNL     1     -10.968   4.021   1.031  1.00  0.00     0.261 C 
BRANCH   4   5
ATOM      5  O   UNL     1      -9.297   4.009   1.596  1.00  0.00    -0.462 OA
BRANCH   5   6
ATOM      6  C   UNL     1      -8.010   4.643   1.568  1.00  0.00     0.325 C 
ATOM      7  O   UNL     1      -7.431   5.158   0.609  1.00  0.00    -0.250 OA
BRANCH   6   8
ATOM      8  C   UNL     1      -7.175   4.766   2.853  1.00  0.00     0.239 C 
BRANCH   8   9
ATOM      9  N   UNL     1      -6.588   3.553   3.325  1.00  0.00    -0.338 N 
ATOM     10  C   UNL     1      -5.376   3.078   2.895  1.00  0.00     0.292 C 
ATOM     11  O   UNL     1      -4.845   2.124   3.451  1.00  0.00    -0.265 OA
ATOM     12  H   UNL     1      -7.082   3.028   3.996  1.00  0.00     0.164 HD
BRANCH  10  13
ATOM     13  C   UNL     1      -4.713   3.735   1.657  1.00  0.00     0.252 C 
ATOM     14  O   UNL     1      -4.270   4.874   1.759  1.00  0.00    -0.283 OA
BRANCH  13  15
ATOM     15  C   UNL     1      -4.524   2.920   0.463  1.00  0.00     0.054 A 
ATOM     16  N   UNL     1      -4.057   1.089  -0.699  1.00  0.00    -0.240 N 
ATOM     17  C   UNL     1      -4.594   1.541   0.474  1.00  0.00     0.117 A 
ATOM     18  C   UNL     1      -3.809   2.129  -1.566  1.00  0.00     0.065 A 
ATOM     19  C   UNL     1      -4.140   3.303  -0.867  1.00  0.00     0.012 A 
ATOM     20  C   UNL     1      -3.268   2.165  -2.865  1.00  0.00     0.028 A 
ATOM     21  C   UNL     1      -3.978   4.543  -1.524  1.00  0.00     0.011 A 
ATOM     22  C   UNL     1      -3.107   3.407  -3.481  1.00  0.00     0.002 A 
ATOM     23  C   UNL     1      -3.473   4.579  -2.830  1.00  0.00     0.001 A 
BRANCH  16  24
ATOM     24  S   UNL     1      -3.353  -0.460  -0.762  1.00  0.00     0.268 S 
ATOM     25  O   UNL     1      -3.421  -0.874  -2.175  1.00  0.00    -0.201 OA
ATOM     26  O   UNL     1      -3.960  -1.228   0.272  1.00  0.00    -0.201 OA
BRANCH  24  27
ATOM     27  C   UNL     1      -1.633  -0.257  -0.359  1.00  0.00     0.088 A 
ATOM     28  C   UNL     1       2.627  -0.014   0.143  1.00  0.00     0.044 C 
ATOM     29  C   UNL     1       1.134  -0.096   0.033  1.00  0.00    -0.051 A 
ATOM     30  C   UNL     1       0.511  -1.342  -0.112  1.00  0.00     0.005 A 
ATOM     31  C   UNL     1       0.350   1.062   0.046  1.00  0.00     0.005 A 
ATOM     32  C   UNL     1      -0.867  -1.424  -0.309  1.00  0.00     0.022 A 
ATOM     33  C   UNL     1      -1.032   0.985  -0.141  1.00  0.00     0.022 A 
ENDBRANCH  24  27
ENDBRANCH  16  24
ENDBRANCH  13  15
ENDBRANCH  10  13
ENDBRANCH   8   9
ENDBRANCH   6   8
ENDBRANCH   5   6
ENDBRANCH   4   5
ENDBRANCH   3   4
ENDBRANCH   2   3
ENDBRANCH   1   2
BRANCH   1  34
ATOM     34  C   UNL     1     -13.329   4.536   4.809  1.00  0.00     0.188 C 
BRANCH  34  35
ATOM     35  O   UNL     1     -12.579   3.425   4.366  1.00  0.00    -0.376 OA
BRANCH  35  36
ATOM     36  C   UNL     1     -12.739   2.222   5.082  1.00  0.00     0.202 C 
BRANCH  36  37
ATOM     37  C   UNL     1     -12.160   2.259   6.508  1.00  0.00     0.261 C 
BRANCH  37  38
ATOM     38  O   UNL     1     -10.707   2.337   6.556  1.00  0.00    -0.460 OA
BRANCH  38  39
ATOM     39  C   UNL     1     -10.090   3.499   7.002  1.00  0.00     0.338 C 
ATOM     40  O   UNL     1      -9.674   3.609   8.140  1.00  0.00    -0.246 OA
BRANCH  39  41
ATOM     41  C   UNL     1      -9.752   4.417   5.854  1.00  0.00     0.060 A 
ATOM     42  C   UNL     1      -9.484   5.794   5.781  1.00  0.00     0.016 A 
ATOM     43  C   UNL     1      -9.827   3.819   4.657  1.00  0.00     0.016 A 
ATOM     44  C   UNL     1      -9.499   6.561   4.502  1.00  0.00     0.010 A 
ATOM     45  C   UNL     1     -10.130   4.635   3.575  1.00  0.00     0.010 A 
ATOM     46  C   UNL     1      -9.874   5.995   3.273  1.00  0.00    -0.014 A 
BRANCH  46  47
ATOM     47  C   UNL     1     -10.129   6.757   1.785  1.00  0.00     0.031 A 
ATOM     48  C   UNL     1      -9.607   6.518   0.150  1.00  0.00     0.074 A 
ATOM     49  C   UNL     1     -10.979   7.812   1.859  1.00  0.00     0.049 A 
ATOM     50  N   UNL     1      -9.271   7.499  -0.677  1.00  0.00    -0.248 NA
ATOM     51  C   UNL     1      -9.398   5.250  -0.661  1.00  0.00     0.031 C 
ATOM     52  C   UNL     1     -11.615   8.550   0.768  1.00  0.00     0.029 A 
ATOM     53  N   UNL     1     -11.433   8.469   3.011  1.00  0.00    -0.354 N 
ATOM     54  C   UNL     1      -8.892   6.953  -1.932  1.00  0.00     0.074 A 
ATOM     55  C   UNL     1      -8.825   5.564  -1.800  1.00  0.00     0.031 C 
ATOM     56  C   UNL     1     -12.131   9.690   1.260  1.00  0.00     0.029 A 
ATOM     57  C   UNL     1     -11.731   9.787   2.652  1.00  0.00     0.049 A 
ATOM     58  H   UNL     1     -11.525   8.075   3.908  1.00  0.00     0.167 HD
ATOM     59  C   UNL     1      -8.821   7.571  -3.142  1.00  0.00     0.037 A 
ATOM     60  C   UNL     1     -11.053  10.816   3.231  1.00  0.00     0.037 A 
ATOM     61  C   UNL     1      -9.338   8.893  -3.003  1.00  0.00     0.049 A 
ATOM     62  C   UNL     1     -10.231  11.568   2.208  1.00  0.00     0.074 A 
ATOM     63  C   UNL     1     -10.639   9.360  -3.031  1.00  0.00     0.029 A 
ATOM     64  N   UNL     1      -8.588   9.798  -2.280  1.00  0.00    -0.354 N 
ATOM     65  N   UNL     1      -9.956  11.106   1.015  1.00  0.00    -0.248 NA
ATOM     66  C   UNL     1      -9.703  12.912   2.412  1.00  0.00     0.031 C 
ATOM     67  C   UNL     1     -10.693  10.492  -2.177  1.00  0.00     0.029 A 
ATOM     68  C   UNL     1      -9.411  10.757  -1.724  1.00  0.00     0.049 A 
ATOM     69  H   UNL     1      -7.609   9.765  -2.175  1.00  0.00     0.167 HD
ATOM     70  C   UNL     1      -9.246  12.036   0.309  1.00  0.00     0.074 A 
ATOM     71  C   UNL     1      -9.120  13.154   1.224  1.00  0.00     0.031 C 
ATOM     72  C   UNL     1      -8.815  11.841  -0.970  1.00  0.00     0.037 A 
BRANCH  59  73
ATOM     73  C   UNL     1      -8.662   6.729  -4.411  1.00  0.00     0.058 A 
ATOM     74  C   UNL     1      -9.646   6.721  -5.414  1.00  0.00     0.135 A 
ATOM     75  C   UNL     1      -7.631   5.766  -4.577  1.00  0.00     0.135 A 
ATOM     76  F   UNL     1     -10.663   7.592  -5.383  1.00  0.00    -0.206 F 
ATOM     77  C   UNL     1      -9.659   5.777  -6.454  1.00  0.00     0.059 A 
ATOM     78  C   UNL     1      -7.655   4.775  -5.574  1.00  0.00     0.059 A 
ATOM     79  F   UNL     1      -6.619   5.705  -3.695  1.00  0.00    -0.206 F 
ATOM     80  C   UNL     1      -8.679   4.789  -6.513  1.00  0.00     0.060 A 
BRANCH  80  81
ATOM     81  S   UNL     1      -8.800   3.505  -7.787  1.00  0.00     0.124 S 
ATOM     82  O   UNL     1     -10.228   3.195  -7.794  1.00  0.00    -0.237 OA
ATOM     83  O   UNL     1      -8.301   4.203  -8.966  1.00  0.00    -0.237 OA
ATOM     84  O   UNL     1      -7.945   2.436  -7.280  1.00  0.00    -0.744 OA
ENDBRANCH  80  81
ENDBRANCH  59  73
BRANCH  60  85
ATOM     85  C   UNL     1     -10.808  10.602   4.695  1.00  0.00     0.058 A 
ATOM     86  C   UNL     1     -11.956  10.456   5.511  1.00  0.00     0.135 A 
ATOM     87  C   UNL     1      -9.601  10.137   5.234  1.00  0.00     0.135 A 
ATOM     88  F   UNL     1     -13.146  10.902   5.074  1.00  0.00    -0.206 F 
ATOM     89  C   UNL     1     -11.945   9.734   6.702  1.00  0.00     0.059 A 
ATOM     90  C   UNL     1      -9.561   9.428   6.452  1.00  0.00     0.059 A 
ATOM     91  F   UNL     1      -8.468  10.218   4.520  1.00  0.00    -0.206 F 
ATOM     92  C   UNL     1     -10.753   9.170   7.135  1.00  0.00     0.060 A 
BRANCH  92  93
ATOM     93  S   UNL     1     -10.853   7.957   8.483  1.00  0.00     0.124 S 
ATOM     94  O   UNL     1     -11.495   8.723   9.545  1.00  0.00    -0.237 OA
ATOM     95  O   UNL     1     -11.677   6.914   7.870  1.00  0.00    -0.237 OA
ATOM     96  O   UNL     1      -9.457   7.604   8.716  1.00  0.00    -0.744 OA
ENDBRANCH  92  93
ENDBRANCH  60  85
BRANCH  72  97
ATOM     97  C   UNL     1      -7.804  12.697  -1.683  1.00  0.00     0.058 A 
ATOM     98  C   UNL     1      -6.731  13.317  -1.027  1.00  0.00     0.135 A 
ATOM     99  C   UNL     1      -7.787  12.755  -3.099  1.00  0.00     0.135 A 
ATOM    100  F   UNL     1      -6.582  13.227   0.302  1.00  0.00    -0.206 F 
ATOM    101  C   UNL     1      -5.750  14.019  -1.721  1.00  0.00     0.059 A 
ATOM    102  C   UNL     1      -6.778  13.384  -3.812  1.00  0.00     0.059 A 
ATOM    103  F   UNL     1      -8.748  12.179  -3.839  1.00  0.00    -0.206 F 
ATOM    104  C   UNL     1      -5.784  14.050  -3.112  1.00  0.00     0.060 A 
BRANCH 104 105
ATOM    105  S   UNL     1      -4.524  14.949  -4.026  1.00  0.00     0.124 S 
ATOM    106  O   UNL     1      -5.187  16.232  -4.236  1.00  0.00    -0.237 OA
ATOM    107  O   UNL     1      -3.396  14.967  -3.100  1.00  0.00    -0.237 OA
ATOM    108  O   UNL     1      -4.335  14.129  -5.219  1.00  0.00    -0.744 OA
ENDBRANCH 104 105
ENDBRANCH  72  97
ENDBRANCH  46  47
ENDBRANCH  39  41
ENDBRANCH  38  39
ENDBRANCH  37  38
ENDBRANCH  36  37
ENDBRANCH  35  36
ENDBRANCH  34  35
ENDBRANCH   1  34
TORSDOF 25
