REMARK SMILES Cc1cc(NS(=O)(=O)c2ccc(NC(=O)[C@@H]3CCCC[C@@H]3C(=O)OCCOCCOCCOC(=O)c3ccc(-c4c5nc(c(-c6c(F)cc(S(=O)(=O)[O-])cc6F)c6ccc([nH]6)c(-c6c(F)cc(S(=O)(=O)[O-])cc6F)c6nc(c(-c7c(F)cc(S(=O)(=O)[O-])cc7F)c7ccc4[nH]7)C=C6)C=C5)cc3)cc2)no1
REMARK SMILES IDX 28 1 27 2 26 3 25 4 24 5 22 6 23 7 21 8 16 9 17 10 18 11
REMARK SMILES IDX 20 12 19 13 14 14 13 15 15 17 12 18 9 19 10 20 103 21 11 22
REMARK SMILES IDX 102 23 6 24 7 25 8 26 5 27 4 29 1 30 2 31 3 32 105 33 104 34
REMARK SMILES IDX 29 35 30 36 31 37 32 38 33 39 34 40 35 41 36 42 37 43 101 44
REMARK SMILES IDX 38 45 100 46 39 47 40 48 41 49 94 50 42 51 99 52 93 53 95 54
REMARK SMILES IDX 43 55 98 56 92 57 91 58 44 60 78 61 57 62 77 63 58 64 61 65
REMARK SMILES IDX 76 66 96 67 59 68 60 69 75 71 97 72 62 73 45 74 46 75 55 76
REMARK SMILES IDX 47 77 48 78 54 79 56 80 49 81 50 82 51 83 52 84 53 85 79 86
REMARK SMILES IDX 80 87 89 88 81 89 82 90 88 91 90 92 83 93 84 94 85 95 86 96
REMARK SMILES IDX 87 97 63 98 64 99 73 100 65 101 66 102 72 103 74 104 67 105
REMARK SMILES IDX 68 106 69 107 70 108 71 109
REMARK H PARENT 13 16 5 28 95 59 61 70
REMARK Flexibility Score: inf
ROOT
ATOM      1  C   UNL     1      -5.179   4.417   3.596  1.00  0.00     0.188 C 
ENDROOT
BRANCH   1   2
ATOM      2  O   UNL     1      -5.973   5.228   4.450  1.00  0.00    -0.376 OA
BRANCH   2   3
ATOM      3  C   UNL     1      -5.945   6.640   4.319  1.00  0.00     0.202 C 
BRANCH   3   4
ATOM      4  C   UNL     1      -4.622   7.383   4.550  1.00  0.00     0.261 C 
BRANCH   4   5
ATOM      5  O   UNL     1      -3.501   7.027   3.708  1.00  0.00    -0.463 OA
BRANCH   5   6
ATOM      6  C   UNL     1      -2.555   6.274   4.325  1.00  0.00     0.309 C 
ATOM      7  O   UNL     1      -2.722   5.825   5.456  1.00  0.00    -0.252 OA
BRANCH   6   8
ATOM      8  C   UNL     1      -1.212   6.162   3.571  1.00  0.00     0.111 C 
ATOM      9  C   UNL     1      -1.075   5.411   2.191  1.00  0.00     0.093 C 
ATOM     10  C   UNL     1      -1.014   3.891   2.360  1.00  0.00     0.014 C 
ATOM     11  C   UNL     1      -0.279   3.292   3.550  1.00  0.00     0.001 C 
ATOM     12  C   UNL     1      -0.218   5.530   4.588  1.00  0.00     0.016 C 
ATOM     13  C   UNL     1      -0.515   4.047   4.824  1.00  0.00     0.001 C 
BRANCH   9  14
ATOM     14  C   UNL     1      -1.881   6.086   1.022  1.00  0.00     0.228 C 
ATOM     15  N   UNL     1      -2.481   5.548  -0.089  1.00  0.00    -0.326 N 
ATOM     16  H   UNL     1      -2.934   6.249  -0.611  1.00  0.00     0.169 HD
ATOM     17  O   UNL     1      -1.984   7.327   1.074  1.00  0.00    -0.274 OA
BRANCH  15  18
ATOM     18  C   UNL     1      -2.642   4.289  -0.706  1.00  0.00     0.041 A 
ATOM     19  C   UNL     1      -3.120   1.708  -1.792  1.00  0.00     0.088 A 
ATOM     20  C   UNL     1      -2.185   1.914  -0.799  1.00  0.00     0.024 A 
ATOM     21  C   UNL     1      -3.836   2.809  -2.267  1.00  0.00     0.024 A 
ATOM     22  C   UNL     1      -1.859   3.205  -0.416  1.00  0.00     0.027 A 
ATOM     23  C   UNL     1      -3.621   4.088  -1.694  1.00  0.00     0.027 A 
BRANCH  19  24
ATOM     24  S   UNL     1      -3.281   0.102  -2.557  1.00  0.00     0.263 S 
ATOM     25  O   UNL     1      -3.045   0.286  -3.980  1.00  0.00    -0.201 OA
ATOM     26  O   UNL     1      -4.528  -0.431  -2.074  1.00  0.00    -0.201 OA
BRANCH  24  27
ATOM     27  N   UNL     1      -2.086  -0.895  -1.924  1.00  0.00    -0.261 N 
ATOM     28  H   UNL     1      -2.368  -1.787  -1.618  1.00  0.00     0.182 HD
BRANCH  27  29
ATOM     29  C   UNL     1      -0.738  -0.586  -1.789  1.00  0.00     0.183 A 
ATOM     30  C   UNL     1       2.448  -0.314   0.013  1.00  0.00     0.091 C 
ATOM     31  C   UNL     1       1.227  -0.377  -0.811  1.00  0.00     0.135 A 
ATOM     32  C   UNL     1       0.107  -1.174  -0.816  1.00  0.00     0.096 A 
ATOM     33  O   UNL     1       1.098   0.572  -1.777  1.00  0.00    -0.360 OA
ATOM     34  N   UNL     1      -0.126   0.429  -2.404  1.00  0.00    -0.061 NA
ENDBRANCH  27  29
ENDBRANCH  24  27
ENDBRANCH  19  24
ENDBRANCH  15  18
ENDBRANCH   9  14
ENDBRANCH   6   8
ENDBRANCH   5   6
ENDBRANCH   4   5
ENDBRANCH   3   4
ENDBRANCH   2   3
ENDBRANCH   1   2
BRANCH   1  35
ATOM     35  C   UNL     1      -4.815   4.913   2.190  1.00  0.00     0.188 C 
BRANCH  35  36
ATOM     36  O   UNL     1      -5.620   5.952   1.669  1.00  0.00    -0.376 OA
BRANCH  36  37
ATOM     37  C   UNL     1      -6.449   5.600   0.572  1.00  0.00     0.202 C 
BRANCH  37  38
ATOM     38  C   UNL     1      -7.488   4.519   0.880  1.00  0.00     0.261 C 
BRANCH  38  39
ATOM     39  O   UNL     1      -6.892   3.277   1.310  1.00  0.00    -0.460 OA
BRANCH  39  40
ATOM     40  C   UNL     1      -6.647   2.352   0.357  1.00  0.00     0.338 C 
ATOM     41  O   UNL     1      -6.925   2.441  -0.826  1.00  0.00    -0.246 OA
BRANCH  40  42
ATOM     42  C   UNL     1      -5.964   1.184   0.963  1.00  0.00     0.060 A 
ATOM     43  C   UNL     1      -4.634   1.273   1.380  1.00  0.00     0.016 A 
ATOM     44  C   UNL     1      -6.609  -0.050   0.994  1.00  0.00     0.016 A 
ATOM     45  C   UNL     1      -3.920   0.123   1.724  1.00  0.00     0.010 A 
ATOM     46  C   UNL     1      -5.909  -1.196   1.402  1.00  0.00     0.010 A 
ATOM     47  C   UNL     1      -4.540  -1.133   1.711  1.00  0.00    -0.014 A 
BRANCH  47  48
ATOM     48  C   UNL     1      -3.733  -2.362   1.956  1.00  0.00     0.031 A 
ATOM     49  C   UNL     1      -3.510  -3.371   0.854  1.00  0.00     0.074 A 
ATOM     50  C   UNL     1      -3.110  -2.545   3.138  1.00  0.00     0.049 A 
ATOM     51  N   UNL     1      -2.678  -4.382   0.830  1.00  0.00    -0.248 NA
ATOM     52  C   UNL     1      -4.233  -3.177  -0.411  1.00  0.00     0.031 C 
ATOM     53  C   UNL     1      -3.149  -1.621   4.274  1.00  0.00     0.029 A 
ATOM     54  N   UNL     1      -2.335  -3.588   3.587  1.00  0.00    -0.354 N 
ATOM     55  C   UNL     1      -2.718  -4.884  -0.465  1.00  0.00     0.074 A 
ATOM     56  C   UNL     1      -3.668  -4.083  -1.199  1.00  0.00     0.031 C 
ATOM     57  C   UNL     1      -2.466  -2.156   5.298  1.00  0.00     0.029 A 
ATOM     58  C   UNL     1      -2.010  -3.490   4.919  1.00  0.00     0.049 A 
ATOM     59  H   UNL     1      -2.043  -4.332   3.011  1.00  0.00     0.167 HD
ATOM     60  C   UNL     1      -2.041  -5.930  -0.993  1.00  0.00     0.037 A 
ATOM     61  C   UNL     1      -1.487  -4.402   5.763  1.00  0.00     0.037 A 
ATOM     62  C   UNL     1      -1.315  -6.895  -0.211  1.00  0.00     0.049 A 
ATOM     63  C   UNL     1      -1.101  -5.754   5.234  1.00  0.00     0.074 A 
ATOM     64  C   UNL     1      -0.716  -8.069  -0.632  1.00  0.00     0.029 A 
ATOM     65  N   UNL     1      -1.193  -6.857   1.169  1.00  0.00    -0.354 N 
ATOM     66  N   UNL     1      -1.068  -6.169   3.990  1.00  0.00    -0.248 NA
ATOM     67  C   UNL     1      -0.704  -6.769   6.219  1.00  0.00     0.031 C 
ATOM     68  C   UNL     1      -0.336  -8.794   0.505  1.00  0.00     0.029 A 
ATOM     69  C   UNL     1      -0.622  -8.032   1.627  1.00  0.00     0.049 A 
ATOM     70  H   UNL     1      -1.471  -6.105   1.740  1.00  0.00     0.167 HD
ATOM     71  C   UNL     1      -0.630  -7.489   4.041  1.00  0.00     0.074 A 
ATOM     72  C   UNL     1      -0.406  -7.800   5.438  1.00  0.00     0.031 C 
ATOM     73  C   UNL     1      -0.424  -8.355   3.018  1.00  0.00     0.037 A 
BRANCH  60  74
ATOM     74  C   UNL     1      -2.142  -6.147  -2.474  1.00  0.00     0.058 A 
ATOM     75  C   UNL     1      -1.335  -5.425  -3.369  1.00  0.00     0.135 A 
ATOM     76  C   UNL     1      -3.006  -7.118  -3.001  1.00  0.00     0.135 A 
ATOM     77  F   UNL     1      -0.504  -4.475  -2.910  1.00  0.00    -0.206 F 
ATOM     78  C   UNL     1      -1.379  -5.665  -4.740  1.00  0.00     0.059 A 
ATOM     79  C   UNL     1      -3.062  -7.379  -4.366  1.00  0.00     0.059 A 
ATOM     80  F   UNL     1      -3.805  -7.820  -2.184  1.00  0.00    -0.206 F 
ATOM     81  C   UNL     1      -2.246  -6.647  -5.228  1.00  0.00     0.060 A 
BRANCH  81  82
ATOM     82  S   UNL     1      -2.283  -6.964  -7.007  1.00  0.00     0.124 S 
ATOM     83  O   UNL     1      -2.881  -5.733  -7.513  1.00  0.00    -0.237 OA
ATOM     84  O   UNL     1      -0.870  -7.158  -7.316  1.00  0.00    -0.237 OA
ATOM     85  O   UNL     1      -3.116  -8.157  -7.122  1.00  0.00    -0.744 OA
ENDBRANCH  81  82
ENDBRANCH  60  74
BRANCH  61  86
ATOM     86  C   UNL     1      -1.431  -4.100   7.218  1.00  0.00     0.058 A 
ATOM     87  C   UNL     1      -0.217  -3.974   7.903  1.00  0.00     0.135 A 
ATOM     88  C   UNL     1      -2.619  -3.919   7.950  1.00  0.00     0.135 A 
ATOM     89  F   UNL     1       0.943  -4.160   7.254  1.00  0.00    -0.206 F 
ATOM     90  C   UNL     1      -0.179  -3.667   9.261  1.00  0.00     0.059 A 
ATOM     91  C   UNL     1      -2.606  -3.582   9.297  1.00  0.00     0.059 A 
ATOM     92  F   UNL     1      -3.809  -4.037   7.341  1.00  0.00    -0.206 F 
ATOM     93  C   UNL     1      -1.380  -3.465   9.946  1.00  0.00     0.060 A 
BRANCH  93  94
ATOM     94  S   UNL     1      -1.324  -2.996  11.689  1.00  0.00     0.124 S 
ATOM     95  O   UNL     1      -0.976  -4.263  12.321  1.00  0.00    -0.237 OA
ATOM     96  O   UNL     1      -0.286  -1.970  11.696  1.00  0.00    -0.237 OA
ATOM     97  O   UNL     1      -2.676  -2.510  11.947  1.00  0.00    -0.744 OA
ENDBRANCH  93  94
ENDBRANCH  61  86
BRANCH  73  98
ATOM     98  C   UNL     1       0.084  -9.727   3.361  1.00  0.00     0.058 A 
ATOM     99  C   UNL     1      -0.734 -10.686   3.977  1.00  0.00     0.135 A 
ATOM    100  C   UNL     1       1.398 -10.100   3.032  1.00  0.00     0.135 A 
ATOM    101  F   UNL     1      -1.995 -10.378   4.320  1.00  0.00    -0.206 F 
ATOM    102  C   UNL     1      -0.261 -11.959   4.278  1.00  0.00     0.059 A 
ATOM    103  C   UNL     1       1.883 -11.376   3.297  1.00  0.00     0.059 A 
ATOM    104  F   UNL     1       2.220  -9.223   2.433  1.00  0.00    -0.206 F 
ATOM    105  C   UNL     1       1.050 -12.294   3.934  1.00  0.00     0.060 A 
BRANCH 105 106
ATOM    106  S   UNL     1       1.650 -13.956   4.308  1.00  0.00     0.124 S 
ATOM    107  O   UNL     1       1.868 -13.870   5.748  1.00  0.00    -0.237 OA
ATOM    108  O   UNL     1       0.533 -14.795   3.884  1.00  0.00    -0.237 OA
ATOM    109  O   UNL     1       2.857 -14.071   3.494  1.00  0.00    -0.744 OA
ENDBRANCH 105 106
ENDBRANCH  73  98
ENDBRANCH  47  48
ENDBRANCH  40  42
ENDBRANCH  39  40
ENDBRANCH  38  39
ENDBRANCH  37  38
ENDBRANCH  36  37
ENDBRANCH  35  36
ENDBRANCH   1  35
TORSDOF 25
