REMARK SMILES CC[NH+]1CC[NH+]([C@@H]2CC(=O)N(c3ccc(C(=O)OCCOCCOCCOC(=O)c4ccc(-c5c6nc(c(-c7c(F)cc(S(=O)(=O)[O-])cc7F)c7ccc([nH]7)c(-c7c(F)cc(S(=O)(=O)[O-])cc7F)c7nc(c(-c8c(F)cc(S(=O)(=O)[O-])cc8F)c8ccc5[nH]8)C=C7)C=C6)cc4)cc3)C2=O)CC1
REMARK SMILES IDX 22 1 21 2 20 3 19 4 18 5 16 6 17 7 15 8 12 9 13 10 97 11
REMARK SMILES IDX 14 12 96 13 11 14 7 15 8 16 98 17 9 18 99 19 10 20 6 21 3 22
REMARK SMILES IDX 4 23 101 24 5 26 100 27 2 29 1 30 23 31 24 32 25 33 26 34
REMARK SMILES IDX 27 35 28 36 29 37 30 38 31 39 95 40 32 41 94 42 33 43 34 44
REMARK SMILES IDX 35 45 88 46 36 47 93 48 87 49 89 50 37 51 92 52 86 53 85 54
REMARK SMILES IDX 38 56 72 57 51 58 71 59 52 60 55 61 70 62 90 63 53 64 54 65
REMARK SMILES IDX 69 67 91 68 56 69 39 70 40 71 49 72 41 73 42 74 48 75 50 76
REMARK SMILES IDX 43 77 44 78 45 79 46 80 47 81 73 82 74 83 83 84 75 85 76 86
REMARK SMILES IDX 82 87 84 88 77 89 78 90 79 91 80 92 81 93 57 94 58 95 67 96
REMARK SMILES IDX 59 97 60 98 66 99 68 100 61 101 62 102 63 103 64 104 65 105
REMARK H PARENT 3 25 6 28 89 55 55 66
REMARK Flexibility Score: inf
ROOT
ATOM      1  C   UNL     1      -4.300  10.509   3.595  1.00  0.00     0.188 C 
ENDROOT
BRANCH   1   2
ATOM      2  O   UNL     1      -4.975  11.454   4.391  1.00  0.00    -0.376 OA
BRANCH   2   3
ATOM      3  C   UNL     1      -4.538  11.755   5.705  1.00  0.00     0.202 C 
BRANCH   3   4
ATOM      4  C   UNL     1      -3.413  11.042   6.479  1.00  0.00     0.261 C 
BRANCH   4   5
ATOM      5  O   UNL     1      -2.448  10.314   5.722  1.00  0.00    -0.460 OA
BRANCH   5   6
ATOM      6  C   UNL     1      -2.510   8.964   5.856  1.00  0.00     0.338 C 
ATOM      7  O   UNL     1      -3.271   8.324   6.555  1.00  0.00    -0.246 OA
BRANCH   6   8
ATOM      8  C   UNL     1      -1.623   8.350   4.849  1.00  0.00     0.060 A 
ATOM      9  C   UNL     1      -0.008   7.128   2.920  1.00  0.00     0.052 A 
ATOM     10  C   UNL     1      -1.379   6.838   2.981  1.00  0.00     0.028 A 
ATOM     11  C   UNL     1       0.528   8.082   3.798  1.00  0.00     0.028 A 
ATOM     12  C   UNL     1      -2.176   7.413   3.970  1.00  0.00     0.018 A 
ATOM     13  C   UNL     1      -0.282   8.718   4.742  1.00  0.00     0.018 A 
BRANCH   9  14
ATOM     14  N   UNL     1       0.825   6.370   2.068  1.00  0.00    -0.245 N 
ATOM     15  C   UNL     1       1.450   4.882   0.356  1.00  0.00     0.285 C 
ATOM     16  C   UNL     1       2.533   4.908   1.426  1.00  0.00     0.176 C 
ATOM     17  C   UNL     1       0.460   5.949   0.810  1.00  0.00     0.292 C 
ATOM     18  C   UNL     1       2.043   5.875   2.456  1.00  0.00     0.240 C 
ATOM     19  O   UNL     1      -0.485   6.352   0.144  1.00  0.00    -0.267 OA
ATOM     20  O   UNL     1       2.661   6.094   3.491  1.00  0.00    -0.274 OA
BRANCH  15  21
ATOM     21  N   UNL     1       0.760   3.618   0.040  1.00  0.00    -0.315 N 
ATOM     22  N   UNL     1       1.216   1.091   1.608  1.00  0.00    -0.326 N 
ATOM     23  C   UNL     1       2.170   1.561   0.594  1.00  0.00     0.324 C 
ATOM     24  C   UNL     1       0.404   2.209   2.126  1.00  0.00     0.324 C 
ATOM     25  H   UNL     1       1.824   0.717   2.337  1.00  0.00     0.348 HD
ATOM     26  C   UNL     1       1.616   2.539  -0.471  1.00  0.00     0.325 C 
ATOM     27  C   UNL     1      -0.206   3.095   1.018  1.00  0.00     0.325 C 
ATOM     28  H   UNL     1       0.188   3.955  -0.734  1.00  0.00     0.349 HD
BRANCH  22  29
ATOM     29  C   UNL     1       0.369  -0.062   1.265  1.00  0.00     0.259 C 
ATOM     30  C   UNL     1       0.634  -0.822  -0.029  1.00  0.00     0.071 C 
ENDBRANCH  22  29
ENDBRANCH  15  21
ENDBRANCH   9  14
ENDBRANCH   6   8
ENDBRANCH   5   6
ENDBRANCH   4   5
ENDBRANCH   3   4
ENDBRANCH   2   3
ENDBRANCH   1   2
BRANCH   1  31
ATOM     31  C   UNL     1      -3.011  10.969   2.882  1.00  0.00     0.188 C 
BRANCH  31  32
ATOM     32  O   UNL     1      -2.412  12.201   3.226  1.00  0.00    -0.376 OA
BRANCH  32  33
ATOM     33  C   UNL     1      -3.133  13.410   3.058  1.00  0.00     0.202 C 
BRANCH  33  34
ATOM     34  C   UNL     1      -4.167  13.659   1.942  1.00  0.00     0.261 C 
BRANCH  34  35
ATOM     35  O   UNL     1      -4.966  12.549   1.524  1.00  0.00    -0.460 OA
BRANCH  35  36
ATOM     36  C   UNL     1      -4.661  12.044   0.301  1.00  0.00     0.338 C 
ATOM     37  O   UNL     1      -3.775  12.411  -0.448  1.00  0.00    -0.246 OA
BRANCH  36  38
ATOM     38  C   UNL     1      -5.484  10.844   0.063  1.00  0.00     0.060 A 
ATOM     39  C   UNL     1      -4.858   9.590  -0.009  1.00  0.00     0.016 A 
ATOM     40  C   UNL     1      -6.857  10.967  -0.143  1.00  0.00     0.016 A 
ATOM     41  C   UNL     1      -5.608   8.452  -0.307  1.00  0.00     0.010 A 
ATOM     42  C   UNL     1      -7.601   9.830  -0.466  1.00  0.00     0.010 A 
ATOM     43  C   UNL     1      -6.976   8.573  -0.578  1.00  0.00    -0.014 A 
BRANCH  43  44
ATOM     44  C   UNL     1      -7.732   7.443  -1.171  1.00  0.00     0.031 A 
ATOM     45  C   UNL     1      -7.952   7.447  -2.660  1.00  0.00     0.074 A 
ATOM     46  C   UNL     1      -8.241   6.459  -0.408  1.00  0.00     0.049 A 
ATOM     47  N   UNL     1      -8.707   6.668  -3.389  1.00  0.00    -0.248 NA
ATOM     48  C   UNL     1      -7.232   8.479  -3.428  1.00  0.00     0.031 C 
ATOM     49  C   UNL     1      -8.054   6.322   1.035  1.00  0.00     0.029 A 
ATOM     50  N   UNL     1      -9.046   5.399  -0.745  1.00  0.00    -0.354 N 
ATOM     51  C   UNL     1      -8.575   7.130  -4.693  1.00  0.00     0.074 A 
ATOM     52  C   UNL     1      -7.678   8.264  -4.657  1.00  0.00     0.031 C 
ATOM     53  C   UNL     1      -8.750   5.254   1.465  1.00  0.00     0.029 A 
ATOM     54  C   UNL     1      -9.466   4.660   0.337  1.00  0.00     0.049 A 
ATOM     55  H   UNL     1      -9.300   5.188  -1.673  1.00  0.00     0.167 HD
ATOM     56  C   UNL     1      -9.153   6.651  -5.818  1.00  0.00     0.037 A 
ATOM     57  C   UNL     1     -10.355   3.647   0.409  1.00  0.00     0.037 A 
ATOM     58  C   UNL     1     -10.032   5.512  -5.846  1.00  0.00     0.049 A 
ATOM     59  C   UNL     1     -11.035   3.171  -0.855  1.00  0.00     0.074 A 
ATOM     60  C   UNL     1     -10.643   4.928  -6.942  1.00  0.00     0.029 A 
ATOM     61  N   UNL     1     -10.427   4.788  -4.732  1.00  0.00    -0.354 N 
ATOM     62  N   UNL     1     -10.884   3.599  -2.087  1.00  0.00    -0.248 NA
ATOM     63  C   UNL     1     -12.007   2.076  -0.720  1.00  0.00     0.031 C 
ATOM     64  C   UNL     1     -11.456   3.888  -6.484  1.00  0.00     0.029 A 
ATOM     65  C   UNL     1     -11.295   3.778  -5.112  1.00  0.00     0.049 A 
ATOM     66  H   UNL     1     -10.135   4.965  -3.809  1.00  0.00     0.167 HD
ATOM     67  C   UNL     1     -11.702   2.793  -2.874  1.00  0.00     0.074 A 
ATOM     68  C   UNL     1     -12.348   1.855  -1.983  1.00  0.00     0.031 C 
ATOM     69  C   UNL     1     -11.896   2.823  -4.216  1.00  0.00     0.037 A 
BRANCH  56  70
ATOM     70  C   UNL     1      -8.885   7.363  -7.114  1.00  0.00     0.058 A 
ATOM     71  C   UNL     1      -7.646   7.277  -7.766  1.00  0.00     0.135 A 
ATOM     72  C   UNL     1      -9.915   8.072  -7.754  1.00  0.00     0.135 A 
ATOM     73  F   UNL     1      -6.621   6.630  -7.189  1.00  0.00    -0.206 F 
ATOM     74  C   UNL     1      -7.436   7.871  -9.006  1.00  0.00     0.059 A 
ATOM     75  C   UNL     1      -9.737   8.650  -9.006  1.00  0.00     0.059 A 
ATOM     76  F   UNL     1     -11.118   8.191  -7.169  1.00  0.00    -0.206 F 
ATOM     77  C   UNL     1      -8.492   8.546  -9.623  1.00  0.00     0.060 A 
BRANCH  77  78
ATOM     78  S   UNL     1      -8.218   9.261 -11.258  1.00  0.00     0.124 S 
ATOM     79  O   UNL     1      -7.325  10.373 -10.946  1.00  0.00    -0.237 OA
ATOM     80  O   UNL     1      -7.615   8.149 -11.986  1.00  0.00    -0.237 OA
ATOM     81  O   UNL     1      -9.559   9.639 -11.694  1.00  0.00    -0.744 OA
ENDBRANCH  77  78
ENDBRANCH  56  70
BRANCH  57  82
ATOM     82  C   UNL     1     -10.690   3.022   1.719  1.00  0.00     0.058 A 
ATOM     83  C   UNL     1     -10.371   1.681   1.984  1.00  0.00     0.135 A 
ATOM     84  C   UNL     1     -11.384   3.732   2.711  1.00  0.00     0.135 A 
ATOM     85  F   UNL     1      -9.717   0.953   1.066  1.00  0.00    -0.206 F 
ATOM     86  C   UNL     1     -10.761   1.056   3.165  1.00  0.00     0.059 A 
ATOM     87  C   UNL     1     -11.756   3.139   3.914  1.00  0.00     0.059 A 
ATOM     88  F   UNL     1     -11.707   5.021   2.516  1.00  0.00    -0.206 F 
ATOM     89  C   UNL     1     -11.458   1.794   4.123  1.00  0.00     0.060 A 
BRANCH  89  90
ATOM     90  S   UNL     1     -11.960   0.973   5.651  1.00  0.00     0.124 S 
ATOM     91  O   UNL     1     -13.036   0.108   5.180  1.00  0.00    -0.237 OA
ATOM     92  O   UNL     1     -10.729   0.299   6.055  1.00  0.00    -0.237 OA
ATOM     93  O   UNL     1     -12.370   2.081   6.508  1.00  0.00    -0.744 OA
ENDBRANCH  89  90
ENDBRANCH  57  82
BRANCH  69  94
ATOM     94  C   UNL     1     -12.774   1.766  -4.830  1.00  0.00     0.058 A 
ATOM     95  C   UNL     1     -14.169   1.775  -4.686  1.00  0.00     0.135 A 
ATOM     96  C   UNL     1     -12.208   0.781  -5.659  1.00  0.00     0.135 A 
ATOM     97  F   UNL     1     -14.762   2.690  -3.902  1.00  0.00    -0.206 F 
ATOM     98  C   UNL     1     -14.972   0.839  -5.332  1.00  0.00     0.059 A 
ATOM     99  C   UNL     1     -12.992  -0.144  -6.338  1.00  0.00     0.059 A 
ATOM    100  F   UNL     1     -10.878   0.734  -5.841  1.00  0.00    -0.206 F 
ATOM    101  C   UNL     1     -14.374  -0.112  -6.163  1.00  0.00     0.060 A 
BRANCH 101 102
ATOM    102  S   UNL     1     -15.432  -1.279  -7.045  1.00  0.00     0.124 S 
ATOM    103  O   UNL     1     -15.875  -2.152  -5.962  1.00  0.00    -0.237 OA
ATOM    104  O   UNL     1     -16.454  -0.406  -7.613  1.00  0.00    -0.237 OA
ATOM    105  O   UNL     1     -14.530  -1.893  -8.015  1.00  0.00    -0.744 OA
ENDBRANCH 101 102
ENDBRANCH  69  94
ENDBRANCH  43  44
ENDBRANCH  36  38
ENDBRANCH  35  36
ENDBRANCH  34  35
ENDBRANCH  33  34
ENDBRANCH  32  33
ENDBRANCH  31  32
ENDBRANCH   1  31
TORSDOF 23
