REMARK SMILES COc1ccc2c(CC(=O)OCCOCCOCCOC(=O)c3ccc(-c4c5nc(c(-c6c(F)cc(S(=O)(=O)[O-])cc6F)c6ccc([nH]6)c(-c6c(F)cc(S(=O)(=O)[O-])cc6F)c6nc(c(-c7c(F)cc(S(=O)(=O)[O-])cc7F)c7ccc4[nH]7)C=C6)C=C5)cc3)c(C(=O)c3cc(C)ccn3)[nH]c2c1
REMARK SMILES IDX 15 1 14 2 13 3 12 4 11 5 9 6 10 7 8 8 7 9 3 10 4 11 101 12
REMARK SMILES IDX 5 13 100 14 6 15 99 16 89 17 2 19 1 20 90 21 91 22 92 23
REMARK SMILES IDX 93 24 98 25 94 26 97 27 95 28 96 29 16 30 17 31 18 32 19 33
REMARK SMILES IDX 20 34 21 35 22 36 23 37 24 38 88 39 25 40 87 41 26 42 27 43
REMARK SMILES IDX 28 44 81 45 29 46 86 47 80 48 82 49 30 50 85 51 79 52 78 53
REMARK SMILES IDX 31 55 65 56 44 57 64 58 45 59 48 60 63 61 83 62 46 63 47 64
REMARK SMILES IDX 62 66 84 67 49 68 32 69 33 70 42 71 34 72 35 73 41 74 43 75
REMARK SMILES IDX 36 76 37 77 38 78 39 79 40 80 66 81 67 82 76 83 68 84 69 85
REMARK SMILES IDX 75 86 77 87 70 88 71 89 72 90 73 91 74 92 50 93 51 94 60 95
REMARK SMILES IDX 52 96 53 97 59 98 61 99 54 100 55 101 56 102 57 103 58 104
REMARK H PARENT 99 18 82 54 48 65
REMARK Flexibility Score: inf
ROOT
ATOM      1  C   UNL     1       1.990  -7.239  -6.983  1.00  0.00     0.188 C 
ENDROOT
BRANCH   1   2
ATOM      2  O   UNL     1       3.092  -8.138  -6.870  1.00  0.00    -0.376 OA
BRANCH   2   3
ATOM      3  C   UNL     1       3.758  -8.226  -5.617  1.00  0.00     0.202 C 
BRANCH   3   4
ATOM      4  C   UNL     1       4.394  -6.926  -5.109  1.00  0.00     0.261 C 
BRANCH   4   5
ATOM      5  O   UNL     1       3.409  -5.888  -4.928  1.00  0.00    -0.463 OA
BRANCH   5   6
ATOM      6  C   UNL     1       3.782  -4.622  -5.252  1.00  0.00     0.310 C 
ATOM      7  O   UNL     1       4.952  -4.284  -5.408  1.00  0.00    -0.252 OA
BRANCH   6   8
ATOM      8  C   UNL     1       2.607  -3.705  -5.577  1.00  0.00     0.161 C 
BRANCH   8   9
ATOM      9  C   UNL     1       1.456  -3.643  -4.598  1.00  0.00     0.000 A 
ATOM     10  C   UNL     1       1.025  -2.100  -0.726  1.00  0.00     0.120 A 
ATOM     11  C   UNL     1       2.340  -2.209  -1.171  1.00  0.00     0.047 A 
ATOM     12  C   UNL     1      -0.036  -2.647  -1.447  1.00  0.00     0.073 A 
ATOM     13  C   UNL     1       2.622  -2.785  -2.416  1.00  0.00     0.014 A 
ATOM     14  C   UNL     1       0.264  -3.172  -2.708  1.00  0.00     0.050 A 
ATOM     15  C   UNL     1       1.556  -3.224  -3.228  1.00  0.00     0.004 A 
ATOM     16  N   UNL     1      -0.574  -3.670  -3.673  1.00  0.00    -0.351 N 
ATOM     17  C   UNL     1       0.082  -3.692  -4.885  1.00  0.00     0.093 A 
ATOM     18  H   UNL     1      -1.501  -3.965  -3.523  1.00  0.00     0.167 HD
BRANCH  10  19
ATOM     19  O   UNL     1       0.722  -1.453   0.445  1.00  0.00    -0.497 OA
ATOM     20  C   UNL     1       0.987  -0.053   0.318  1.00  0.00     0.278 C 
ENDBRANCH  10  19
BRANCH  17  21
ATOM     21  C   UNL     1      -0.609  -3.660  -6.167  1.00  0.00     0.227 C 
ATOM     22  O   UNL     1      -0.057  -3.325  -7.211  1.00  0.00    -0.285 OA
BRANCH  21  23
ATOM     23  C   UNL     1      -2.066  -3.990  -6.222  1.00  0.00     0.113 A 
ATOM     24  C   UNL     1      -3.018  -2.978  -6.327  1.00  0.00     0.036 A 
ATOM     25  N   UNL     1      -2.365  -5.314  -6.221  1.00  0.00    -0.253 NA
ATOM     26  C   UNL     1      -4.361  -3.345  -6.475  1.00  0.00    -0.047 A 
ATOM     27  C   UNL     1      -3.660  -5.634  -6.440  1.00  0.00     0.112 A 
ATOM     28  C   UNL     1      -5.464  -2.331  -6.552  1.00  0.00     0.044 C 
ATOM     29  C   UNL     1      -4.675  -4.702  -6.576  1.00  0.00     0.023 A 
ENDBRANCH  21  23
ENDBRANCH  17  21
ENDBRANCH   8   9
ENDBRANCH   6   8
ENDBRANCH   5   6
ENDBRANCH   4   5
ENDBRANCH   3   4
ENDBRANCH   2   3
ENDBRANCH   1   2
BRANCH   1  30
ATOM     30  C   UNL     1       0.988  -7.150  -5.811  1.00  0.00     0.188 C 
BRANCH  30  31
ATOM     31  O   UNL     1       0.865  -8.363  -5.077  1.00  0.00    -0.376 OA
BRANCH  31  32
ATOM     32  C   UNL     1      -0.411  -8.978  -5.178  1.00  0.00     0.202 C 
BRANCH  32  33
ATOM     33  C   UNL     1      -0.649  -9.587  -6.559  1.00  0.00     0.261 C 
BRANCH  33  34
ATOM     34  O   UNL     1      -0.676  -8.573  -7.585  1.00  0.00    -0.460 OA
BRANCH  34  35
ATOM     35  C   UNL     1      -1.873  -8.220  -8.096  1.00  0.00     0.338 C 
ATOM     36  O   UNL     1      -2.952  -8.704  -7.804  1.00  0.00    -0.246 OA
BRANCH  35  37
ATOM     37  C   UNL     1      -1.696  -7.171  -9.138  1.00  0.00     0.060 A 
ATOM     38  C   UNL     1      -0.887  -6.046  -8.948  1.00  0.00     0.016 A 
ATOM     39  C   UNL     1      -2.427  -7.285 -10.318  1.00  0.00     0.016 A 
ATOM     40  C   UNL     1      -0.831  -5.028  -9.908  1.00  0.00     0.010 A 
ATOM     41  C   UNL     1      -2.324  -6.297 -11.305  1.00  0.00     0.010 A 
ATOM     42  C   UNL     1      -1.531  -5.152 -11.111  1.00  0.00    -0.014 A 
BRANCH  42  43
ATOM     43  C   UNL     1      -1.452  -4.119 -12.182  1.00  0.00     0.031 A 
ATOM     44  C   UNL     1      -2.700  -3.413 -12.640  1.00  0.00     0.074 A 
ATOM     45  C   UNL     1      -0.283  -3.857 -12.802  1.00  0.00     0.049 A 
ATOM     46  N   UNL     1      -2.916  -2.735 -13.737  1.00  0.00    -0.248 NA
ATOM     47  C   UNL     1      -3.862  -3.489 -11.740  1.00  0.00     0.031 C 
ATOM     48  C   UNL     1       1.023  -4.393 -12.419  1.00  0.00     0.029 A 
ATOM     49  N   UNL     1      -0.014  -3.092 -13.913  1.00  0.00    -0.354 N 
ATOM     50  C   UNL     1      -4.248  -2.343 -13.688  1.00  0.00     0.074 A 
ATOM     51  C   UNL     1      -4.790  -2.856 -12.446  1.00  0.00     0.031 C 
ATOM     52  C   UNL     1       1.949  -3.957 -13.286  1.00  0.00     0.029 A 
ATOM     53  C   UNL     1       1.292  -3.184 -14.336  1.00  0.00     0.049 A 
ATOM     54  H   UNL     1      -0.689  -2.534 -14.362  1.00  0.00     0.167 HD
ATOM     55  C   UNL     1      -4.953  -1.632 -14.602  1.00  0.00     0.037 A 
ATOM     56  C   UNL     1       1.886  -2.761 -15.470  1.00  0.00     0.037 A 
ATOM     57  C   UNL     1      -4.397  -1.105 -15.824  1.00  0.00     0.049 A 
ATOM     58  C   UNL     1       1.065  -2.058 -16.517  1.00  0.00     0.074 A 
ATOM     59  C   UNL     1      -5.032  -0.371 -16.812  1.00  0.00     0.029 A 
ATOM     60  N   UNL     1      -3.078  -1.251 -16.226  1.00  0.00    -0.354 N 
ATOM     61  N   UNL     1      -0.208  -1.744 -16.495  1.00  0.00    -0.248 NA
ATOM     62  C   UNL     1       1.758  -1.670 -17.755  1.00  0.00     0.031 C 
ATOM     63  C   UNL     1      -4.109  -0.115 -17.832  1.00  0.00     0.029 A 
ATOM     64  C   UNL     1      -2.885  -0.644 -17.458  1.00  0.00     0.049 A 
ATOM     65  H   UNL     1      -2.380  -1.718 -15.712  1.00  0.00     0.167 HD
ATOM     66  C   UNL     1      -0.465  -1.109 -17.706  1.00  0.00     0.074 A 
ATOM     67  C   UNL     1       0.788  -1.069 -18.431  1.00  0.00     0.031 C 
ATOM     68  C   UNL     1      -1.634  -0.607 -18.174  1.00  0.00     0.037 A 
BRANCH  55  69
ATOM     69  C   UNL     1      -6.420  -1.420 -14.345  1.00  0.00     0.058 A 
ATOM     70  C   UNL     1      -6.886  -0.529 -13.367  1.00  0.00     0.135 A 
ATOM     71  C   UNL     1      -7.376  -2.090 -15.127  1.00  0.00     0.135 A 
ATOM     72  F   UNL     1      -6.018   0.127 -12.581  1.00  0.00    -0.206 F 
ATOM     73  C   UNL     1      -8.247  -0.329 -13.155  1.00  0.00     0.059 A 
ATOM     74  C   UNL     1      -8.742  -1.888 -14.950  1.00  0.00     0.059 A 
ATOM     75  F   UNL     1      -6.986  -2.953 -16.079  1.00  0.00    -0.206 F 
ATOM     76  C   UNL     1      -9.168  -1.016 -13.950  1.00  0.00     0.060 A 
BRANCH  76  77
ATOM     77  S   UNL     1     -10.929  -0.756 -13.652  1.00  0.00     0.124 S 
ATOM     78  O   UNL     1     -11.117  -1.465 -12.390  1.00  0.00    -0.237 OA
ATOM     79  O   UNL     1     -11.023   0.699 -13.581  1.00  0.00    -0.237 OA
ATOM     80  O   UNL     1     -11.566  -1.367 -14.815  1.00  0.00    -0.744 OA
ENDBRANCH  76  77
ENDBRANCH  55  69
BRANCH  56  81
ATOM     81  C   UNL     1       3.327  -3.049 -15.703  1.00  0.00     0.058 A 
ATOM     82  C   UNL     1       4.277  -2.018 -15.717  1.00  0.00     0.135 A 
ATOM     83  C   UNL     1       3.784  -4.362 -15.909  1.00  0.00     0.135 A 
ATOM     84  F   UNL     1       3.888  -0.746 -15.544  1.00  0.00    -0.206 F 
ATOM     85  C   UNL     1       5.628  -2.275 -15.931  1.00  0.00     0.059 A 
ATOM     86  C   UNL     1       5.133  -4.647 -16.096  1.00  0.00     0.059 A 
ATOM     87  F   UNL     1       2.916  -5.386 -15.902  1.00  0.00    -0.206 F 
ATOM     88  C   UNL     1       6.046  -3.595 -16.115  1.00  0.00     0.060 A 
BRANCH  88  89
ATOM     89  S   UNL     1       7.808  -3.923 -16.340  1.00  0.00     0.124 S 
ATOM     90  O   UNL     1       8.020  -3.458 -17.706  1.00  0.00    -0.237 OA
ATOM     91  O   UNL     1       8.409  -3.109 -15.288  1.00  0.00    -0.237 OA
ATOM     92  O   UNL     1       7.908  -5.366 -16.141  1.00  0.00    -0.744 OA
ENDBRANCH  88  89
ENDBRANCH  56  81
BRANCH  68  93
ATOM     93  C   UNL     1      -1.612   0.059 -19.523  1.00  0.00     0.058 A 
ATOM     94  C   UNL     1      -1.504  -0.682 -20.710  1.00  0.00     0.135 A 
ATOM     95  C   UNL     1      -1.746   1.453 -19.632  1.00  0.00     0.135 A 
ATOM     96  F   UNL     1      -1.365  -2.017 -20.663  1.00  0.00    -0.206 F 
ATOM     97  C   UNL     1      -1.510  -0.064 -21.957  1.00  0.00     0.059 A 
ATOM     98  C   UNL     1      -1.780   2.090 -20.869  1.00  0.00     0.059 A 
ATOM     99  F   UNL     1      -1.861   2.209 -18.529  1.00  0.00    -0.206 F 
ATOM    100  C   UNL     1      -1.650   1.324 -22.026  1.00  0.00     0.060 A 
BRANCH 100 101
ATOM    101  S   UNL     1      -1.693   2.111 -23.651  1.00  0.00     0.124 S 
ATOM    102  O   UNL     1      -0.293   2.029 -24.055  1.00  0.00    -0.237 OA
ATOM    103  O   UNL     1      -2.617   1.255 -24.389  1.00  0.00    -0.237 OA
ATOM    104  O   UNL     1      -2.186   3.455 -23.365  1.00  0.00    -0.744 OA
ENDBRANCH 100 101
ENDBRANCH  68  93
ENDBRANCH  42  43
ENDBRANCH  35  37
ENDBRANCH  34  35
ENDBRANCH  33  34
ENDBRANCH  32  33
ENDBRANCH  31  32
ENDBRANCH  30  31
ENDBRANCH   1  30
TORSDOF 24
