REMARK SMILES CC[NH2+][C@]1(C(=O)OCCOCCOCCOC(=O)c2ccc(-c3c4nc(c(-c5c(F)cc(S(=O)(=O)[O-])cc5F)c5ccc([nH]5)c(-c5c(F)cc(S(=O)(=O)[O-])cc5F)c5nc(c(-c6c(F)cc(S(=O)(=O)[O-])cc6F)c6ccc3[nH]6)C=C5)C=C4)cc2)CCC[C@@H]([N@@H+](C)CC2CCCC2)C1
REMARK SMILES IDX 11 1 10 2 9 3 8 4 7 5 5 6 6 7 4 8 85 9 97 10 86 11 88 12
REMARK SMILES IDX 87 13 3 14 2 17 1 18 89 19 90 20 91 22 92 23 93 24 96 25
REMARK SMILES IDX 94 26 95 27 12 28 13 29 14 30 15 31 16 32 17 33 18 34 19 35
REMARK SMILES IDX 20 36 84 37 21 38 83 39 22 40 23 41 24 42 77 43 25 44 82 45
REMARK SMILES IDX 76 46 78 47 26 48 81 49 75 50 74 51 27 53 61 54 40 55 60 56
REMARK SMILES IDX 41 57 44 58 59 59 79 60 42 61 43 62 58 64 80 65 45 66 28 67
REMARK SMILES IDX 29 68 38 69 30 70 31 71 37 72 39 73 32 74 33 75 34 76 35 77
REMARK SMILES IDX 36 78 62 79 63 80 72 81 64 82 65 83 71 84 73 85 66 86 67 87
REMARK SMILES IDX 68 88 69 89 70 90 46 91 47 92 56 93 48 94 49 95 55 96 57 97
REMARK SMILES IDX 50 98 51 99 52 100 53 101 54 102
REMARK H PARENT 3 15 3 16 89 21 78 52 44 63
REMARK Flexibility Score: inf
ROOT
ATOM      1  C   UNL     1       2.623   0.004  -0.499  1.00  0.00     0.188 C 
ENDROOT
BRANCH   1   2
ATOM      2  O   UNL     1       2.641  -0.157   0.918  1.00  0.00    -0.376 OA
BRANCH   2   3
ATOM      3  C   UNL     1       2.849  -1.467   1.431  1.00  0.00     0.202 C 
BRANCH   3   4
ATOM      4  C   UNL     1       1.669  -2.420   1.262  1.00  0.00     0.261 C 
BRANCH   4   5
ATOM      5  O   UNL     1       1.569  -2.901  -0.089  1.00  0.00    -0.459 OA
BRANCH   5   6
ATOM      6  C   UNL     1       0.463  -2.516  -0.791  1.00  0.00     0.368 C 
ATOM      7  O   UNL     1      -0.389  -1.748  -0.359  1.00  0.00    -0.245 OA
BRANCH   6   8
ATOM      8  C   UNL     1       0.428  -3.148  -2.212  1.00  0.00     0.200 C 
ATOM      9  C   UNL     1       1.008  -4.588  -2.155  1.00  0.00     0.081 C 
ATOM     10  C   UNL     1      -1.075  -3.244  -2.592  1.00  0.00     0.146 C 
ATOM     11  C   UNL     1       0.807  -5.347  -3.468  1.00  0.00     0.013 C 
ATOM     12  C   UNL     1      -1.358  -4.056  -3.862  1.00  0.00     0.190 C 
ATOM     13  C   UNL     1      -0.673  -5.420  -3.798  1.00  0.00     0.065 C 
BRANCH   8  14
ATOM     14  N   UNL     1       1.328  -2.387  -3.121  1.00  0.00    -0.332 N 
ATOM     15  H   UNL     1       2.073  -1.993  -2.547  1.00  0.00     0.347 HD
ATOM     16  H   UNL     1       1.615  -3.072  -3.821  1.00  0.00     0.347 HD
BRANCH  14  17
ATOM     17  C   UNL     1       0.763  -1.297  -3.901  1.00  0.00     0.257 C 
ATOM     18  C   UNL     1       1.695  -1.038  -5.085  1.00  0.00     0.071 C 
ENDBRANCH  14  17
ENDBRANCH   8  14
BRANCH  12  19
ATOM     19  N   UNL     1      -2.795  -4.097  -4.138  1.00  0.00    -0.334 N 
ATOM     20  C   UNL     1      -3.165  -4.122  -5.543  1.00  0.00     0.332 C 
ATOM     21  H   UNL     1      -2.939  -3.158  -3.768  1.00  0.00     0.348 HD
BRANCH  19  22
ATOM     22  C   UNL     1      -3.763  -4.726  -3.243  1.00  0.00     0.265 C 
BRANCH  22  23
ATOM     23  C   UNL     1      -3.679  -6.213  -2.826  1.00  0.00     0.044 C 
ATOM     24  C   UNL     1      -5.055  -6.735  -2.386  1.00  0.00     0.009 C 
ATOM     25  C   UNL     1      -3.240  -7.264  -3.858  1.00  0.00     0.009 C 
ATOM     26  C   UNL     1      -4.860  -8.240  -2.334  1.00  0.00     0.001 C 
ATOM     27  C   UNL     1      -4.028  -8.539  -3.568  1.00  0.00     0.001 C 
ENDBRANCH  22  23
ENDBRANCH  19  22
ENDBRANCH  12  19
ENDBRANCH   6   8
ENDBRANCH   5   6
ENDBRANCH   4   5
ENDBRANCH   3   4
ENDBRANCH   2   3
ENDBRANCH   1   2
BRANCH   1  28
ATOM     28  C   UNL     1       3.709  -0.737  -1.297  1.00  0.00     0.188 C 
BRANCH  28  29
ATOM     29  O   UNL     1       5.024  -0.716  -0.738  1.00  0.00    -0.376 OA
BRANCH  29  30
ATOM     30  C   UNL     1       5.542   0.566  -0.382  1.00  0.00     0.202 C 
BRANCH  30  31
ATOM     31  C   UNL     1       5.751   1.485  -1.582  1.00  0.00     0.261 C 
BRANCH  31  32
ATOM     32  O   UNL     1       4.497   2.081  -1.959  1.00  0.00    -0.460 OA
BRANCH  32  33
ATOM     33  C   UNL     1       4.486   2.612  -3.193  1.00  0.00     0.338 C 
ATOM     34  O   UNL     1       5.436   2.671  -3.976  1.00  0.00    -0.246 OA
BRANCH  33  35
ATOM     35  C   UNL     1       3.144   3.102  -3.533  1.00  0.00     0.060 A 
ATOM     36  C   UNL     1       2.127   2.182  -3.788  1.00  0.00     0.016 A 
ATOM     37  C   UNL     1       2.949   4.453  -3.807  1.00  0.00     0.016 A 
ATOM     38  C   UNL     1       0.961   2.589  -4.444  1.00  0.00     0.010 A 
ATOM     39  C   UNL     1       1.757   4.869  -4.410  1.00  0.00     0.010 A 
ATOM     40  C   UNL     1       0.787   3.929  -4.814  1.00  0.00    -0.014 A 
BRANCH  40  41
ATOM     41  C   UNL     1      -0.263   4.326  -5.801  1.00  0.00     0.031 A 
ATOM     42  C   UNL     1       0.179   4.882  -7.138  1.00  0.00     0.074 A 
ATOM     43  C   UNL     1      -1.581   4.159  -5.577  1.00  0.00     0.049 A 
ATOM     44  N   UNL     1      -0.514   5.513  -8.052  1.00  0.00    -0.248 NA
ATOM     45  C   UNL     1       1.601   4.713  -7.479  1.00  0.00     0.031 C 
ATOM     46  C   UNL     1      -2.174   3.542  -4.393  1.00  0.00     0.029 A 
ATOM     47  N   UNL     1      -2.664   4.496  -6.354  1.00  0.00    -0.354 N 
ATOM     48  C   UNL     1       0.401   5.886  -9.031  1.00  0.00     0.074 A 
ATOM     49  C   UNL     1       1.696   5.401  -8.607  1.00  0.00     0.031 C 
ATOM     50  C   UNL     1      -3.511   3.523  -4.532  1.00  0.00     0.029 A 
ATOM     51  C   UNL     1      -3.876   4.196  -5.777  1.00  0.00     0.049 A 
ATOM     52  H   UNL     1      -2.580   4.914  -7.242  1.00  0.00     0.167 HD
ATOM     53  C   UNL     1       0.186   6.576 -10.178  1.00  0.00     0.037 A 
ATOM     54  C   UNL     1      -5.134   4.468  -6.182  1.00  0.00     0.037 A 
ATOM     55  C   UNL     1      -1.112   6.988 -10.644  1.00  0.00     0.049 A 
ATOM     56  C   UNL     1      -5.356   5.246  -7.455  1.00  0.00     0.074 A 
ATOM     57  C   UNL     1      -1.433   7.710 -11.781  1.00  0.00     0.029 A 
ATOM     58  N   UNL     1      -2.308   6.680 -10.015  1.00  0.00    -0.354 N 
ATOM     59  N   UNL     1      -4.473   5.706  -8.308  1.00  0.00    -0.248 NA
ATOM     60  C   UNL     1      -6.750   5.563  -7.804  1.00  0.00     0.031 C 
ATOM     61  C   UNL     1      -2.825   7.851 -11.831  1.00  0.00     0.029 A 
ATOM     62  C   UNL     1      -3.370   7.191 -10.742  1.00  0.00     0.049 A 
ATOM     63  H   UNL     1      -2.390   6.173  -9.175  1.00  0.00     0.167 HD
ATOM     64  C   UNL     1      -5.203   6.361  -9.296  1.00  0.00     0.074 A 
ATOM     65  C   UNL     1      -6.601   6.217  -8.948  1.00  0.00     0.031 C 
ATOM     66  C   UNL     1      -4.757   7.032 -10.387  1.00  0.00     0.037 A 
BRANCH  53  67
ATOM     67  C   UNL     1       1.393   6.971 -10.982  1.00  0.00     0.058 A 
ATOM     68  C   UNL     1       2.116   6.048 -11.752  1.00  0.00     0.135 A 
ATOM     69  C   UNL     1       1.832   8.306 -10.976  1.00  0.00     0.135 A 
ATOM     70  F   UNL     1       1.752   4.756 -11.774  1.00  0.00    -0.206 F 
ATOM     71  C   UNL     1       3.252   6.426 -12.462  1.00  0.00     0.059 A 
ATOM     72  C   UNL     1       2.950   8.711 -11.698  1.00  0.00     0.059 A 
ATOM     73  F   UNL     1       1.177   9.230 -10.256  1.00  0.00    -0.206 F 
ATOM     74  C   UNL     1       3.665   7.759 -12.423  1.00  0.00     0.060 A 
BRANCH  74  75
ATOM     75  S   UNL     1       5.150   8.238 -13.332  1.00  0.00     0.124 S 
ATOM     76  O   UNL     1       6.202   7.737 -12.452  1.00  0.00    -0.237 OA
ATOM     77  O   UNL     1       4.990   7.525 -14.595  1.00  0.00    -0.237 OA
ATOM     78  O   UNL     1       5.041   9.691 -13.418  1.00  0.00    -0.744 OA
ENDBRANCH  74  75
ENDBRANCH  53  67
BRANCH  54  79
ATOM     79  C   UNL     1      -6.294   4.045  -5.351  1.00  0.00     0.058 A 
ATOM     80  C   UNL     1      -7.171   3.041  -5.790  1.00  0.00     0.135 A 
ATOM     81  C   UNL     1      -6.556   4.644  -4.109  1.00  0.00     0.135 A 
ATOM     82  F   UNL     1      -6.974   2.452  -6.979  1.00  0.00    -0.206 F 
ATOM     83  C   UNL     1      -8.272   2.653  -5.033  1.00  0.00     0.059 A 
ATOM     84  C   UNL     1      -7.635   4.255  -3.322  1.00  0.00     0.059 A 
ATOM     85  F   UNL     1      -5.747   5.608  -3.643  1.00  0.00    -0.206 F 
ATOM     86  C   UNL     1      -8.495   3.265  -3.798  1.00  0.00     0.060 A 
BRANCH  86  87
ATOM     87  S   UNL     1      -9.894   2.721  -2.793  1.00  0.00     0.124 S 
ATOM     88  O   UNL     1     -11.005   3.404  -3.445  1.00  0.00    -0.237 OA
ATOM     89  O   UNL     1      -9.851   1.272  -2.957  1.00  0.00    -0.237 OA
ATOM     90  O   UNL     1      -9.551   3.203  -1.458  1.00  0.00    -0.744 OA
ENDBRANCH  86  87
ENDBRANCH  54  79
BRANCH  66  91
ATOM     91  C   UNL     1      -5.791   7.636 -11.296  1.00  0.00     0.058 A 
ATOM     92  C   UNL     1      -6.481   8.807 -10.946  1.00  0.00     0.135 A 
ATOM     93  C   UNL     1      -6.073   7.054 -12.541  1.00  0.00     0.135 A 
ATOM     94  F   UNL     1      -6.250   9.400  -9.764  1.00  0.00    -0.206 F 
ATOM     95  C   UNL     1      -7.439   9.364 -11.788  1.00  0.00     0.059 A 
ATOM     96  C   UNL     1      -7.011   7.606 -13.408  1.00  0.00     0.059 A 
ATOM     97  F   UNL     1      -5.431   5.941 -12.928  1.00  0.00    -0.206 F 
ATOM     98  C   UNL     1      -7.701   8.753 -13.016  1.00  0.00     0.060 A 
BRANCH  98  99
ATOM     99  S   UNL     1      -8.937   9.487 -14.109  1.00  0.00     0.124 S 
ATOM    100  O   UNL     1     -10.179   9.029 -13.496  1.00  0.00    -0.237 OA
ATOM    101  O   UNL     1      -8.659  10.915 -13.988  1.00  0.00    -0.237 OA
ATOM    102  O   UNL     1      -8.625   8.904 -15.411  1.00  0.00    -0.744 OA
ENDBRANCH  98  99
ENDBRANCH  66  91
ENDBRANCH  40  41
ENDBRANCH  33  35
ENDBRANCH  32  33
ENDBRANCH  31  32
ENDBRANCH  30  31
ENDBRANCH  29  30
ENDBRANCH  28  29
ENDBRANCH   1  28
TORSDOF 25
