REMARK SMILES C/C=C/C[C@@H](C(=O)OCCOCCOCCOC(=O)c1ccc(-c2c3nc(c(-c4c(F)cc(S(=O)(=O)[O-])cc4F)c4ccc([nH]4)c(-c4c(F)cc(S(=O)(=O)[O-])cc4F)c4nc(c(-c5c(F)cc(S(=O)(=O)[O-])cc5F)c5ccc2[nH]5)C=C4)C=C3)cc1)c1cccc(Cl)c1
REMARK SMILES IDX 13 1 12 2 11 3 10 4 9 5 8 6 6 7 7 8 5 9 4 10 3 11 1 12 2 13
REMARK SMILES IDX 86 14 87 15 92 16 88 17 90 18 89 19 91 20 14 21 15 22 16 23
REMARK SMILES IDX 17 24 18 25 19 26 20 27 21 28 85 29 22 30 84 31 23 32 24 33
REMARK SMILES IDX 25 34 78 35 26 36 83 37 77 38 79 39 27 40 82 41 76 42 75 43
REMARK SMILES IDX 28 45 62 46 41 47 61 48 42 49 45 50 60 51 80 52 43 53 44 54
REMARK SMILES IDX 59 56 81 57 46 58 29 59 30 60 39 61 31 62 32 63 38 64 40 65
REMARK SMILES IDX 33 66 34 67 35 68 36 69 37 70 63 71 64 72 73 73 65 74 66 75
REMARK SMILES IDX 72 76 74 77 67 78 68 79 69 80 70 81 71 82 47 83 48 84 57 85
REMARK SMILES IDX 49 86 50 87 56 88 58 89 51 90 52 91 53 92 54 93 55 94
REMARK H PARENT 79 44 45 55
REMARK Flexibility Score: inf
ROOT
ATOM      1  C   UNL     1      -3.007   4.070   0.742  1.00  0.00     0.188 C 
ENDROOT
BRANCH   1   2
ATOM      2  C   UNL     1      -2.915   5.602   0.832  1.00  0.00     0.188 C 
BRANCH   2   3
ATOM      3  O   UNL     1      -2.815   6.341  -0.380  1.00  0.00    -0.376 OA
BRANCH   3   4
ATOM      4  C   UNL     1      -1.859   5.909  -1.346  1.00  0.00     0.202 C 
BRANCH   4   5
ATOM      5  C   UNL     1      -0.426   5.600  -0.869  1.00  0.00     0.261 C 
BRANCH   5   6
ATOM      6  O   UNL     1      -0.351   4.700   0.261  1.00  0.00    -0.463 OA
BRANCH   6   7
ATOM      7  C   UNL     1       0.578   4.981   1.212  1.00  0.00     0.313 C 
ATOM      8  O   UNL     1       1.393   5.893   1.102  1.00  0.00    -0.252 OA
BRANCH   7   9
ATOM      9  C   UNL     1       0.486   4.115   2.487  1.00  0.00     0.133 C 
BRANCH   9  10
ATOM     10  C   UNL     1       0.045   2.632   2.323  1.00  0.00     0.047 C 
BRANCH  10  11
ATOM     11  C   UNL     1       0.369   1.869   1.069  1.00  0.00    -0.030 C 
ATOM     12  C   UNL     1       1.186  -0.171  -0.132  1.00  0.00     0.035 C 
ATOM     13  C   UNL     1       0.980   0.674   1.081  1.00  0.00    -0.035 C 
ENDBRANCH  10  11
ENDBRANCH   9  10
BRANCH   9  14
ATOM     14  C   UNL     1      -0.225   4.808   3.680  1.00  0.00    -0.032 A 
ATOM     15  C   UNL     1      -0.306   6.208   3.791  1.00  0.00     0.005 A 
ATOM     16  C   UNL     1      -0.719   4.059   4.772  1.00  0.00     0.025 A 
ATOM     17  C   UNL     1      -0.852   6.825   4.928  1.00  0.00     0.002 A 
ATOM     18  C   UNL     1      -1.261   4.677   5.905  1.00  0.00     0.041 A 
ATOM     19  C   UNL     1      -1.323   6.059   5.991  1.00  0.00     0.020 A 
ATOM     20  Cl  UNL     1      -1.831   3.709   7.209  1.00  0.00    -0.084 Cl
ENDBRANCH   9  14
ENDBRANCH   7   9
ENDBRANCH   6   7
ENDBRANCH   5   6
ENDBRANCH   4   5
ENDBRANCH   3   4
ENDBRANCH   2   3
ENDBRANCH   1   2
BRANCH   1  21
ATOM     21  O   UNL     1      -2.885   3.553  -0.566  1.00  0.00    -0.376 OA
BRANCH  21  22
ATOM     22  C   UNL     1      -3.868   2.639  -1.020  1.00  0.00     0.202 C 
BRANCH  22  23
ATOM     23  C   UNL     1      -5.321   3.147  -1.093  1.00  0.00     0.261 C 
BRANCH  23  24
ATOM     24  O   UNL     1      -5.854   3.736   0.108  1.00  0.00    -0.460 OA
BRANCH  24  25
ATOM     25  C   UNL     1      -6.038   2.909   1.165  1.00  0.00     0.338 C 
ATOM     26  O   UNL     1      -5.872   1.698   1.172  1.00  0.00    -0.246 OA
BRANCH  25  27
ATOM     27  C   UNL     1      -6.194   3.745   2.383  1.00  0.00     0.060 A 
ATOM     28  C   UNL     1      -5.325   3.521   3.464  1.00  0.00     0.016 A 
ATOM     29  C   UNL     1      -7.147   4.762   2.454  1.00  0.00     0.016 A 
ATOM     30  C   UNL     1      -5.443   4.277   4.632  1.00  0.00     0.010 A 
ATOM     31  C   UNL     1      -7.278   5.506   3.634  1.00  0.00     0.010 A 
ATOM     32  C   UNL     1      -6.455   5.239   4.745  1.00  0.00    -0.014 A 
BRANCH  32  33
ATOM     33  C   UNL     1      -6.782   5.799   6.083  1.00  0.00     0.031 A 
ATOM     34  C   UNL     1      -7.949   5.212   6.837  1.00  0.00     0.074 A 
ATOM     35  C   UNL     1      -6.041   6.769   6.649  1.00  0.00     0.049 A 
ATOM     36  N   UNL     1      -8.426   5.527   8.014  1.00  0.00    -0.248 NA
ATOM     37  C   UNL     1      -8.678   4.121   6.168  1.00  0.00     0.031 C 
ATOM     38  C   UNL     1      -4.870   7.403   6.046  1.00  0.00     0.029 A 
ATOM     39  N   UNL     1      -6.171   7.394   7.867  1.00  0.00    -0.354 N 
ATOM     40  C   UNL     1      -9.508   4.679   8.224  1.00  0.00     0.074 A 
ATOM     41  C   UNL     1      -9.643   3.864   7.037  1.00  0.00     0.031 C 
ATOM     42  C   UNL     1      -4.391   8.330   6.894  1.00  0.00     0.029 A 
ATOM     43  C   UNL     1      -5.234   8.375   8.089  1.00  0.00     0.049 A 
ATOM     44  H   UNL     1      -6.870   7.160   8.519  1.00  0.00     0.167 HD
ATOM     45  C   UNL     1     -10.309   4.574   9.312  1.00  0.00     0.037 A 
ATOM     46  C   UNL     1      -5.082   9.220   9.130  1.00  0.00     0.037 A 
ATOM     47  C   UNL     1     -10.176   5.386  10.494  1.00  0.00     0.049 A 
ATOM     48  C   UNL     1      -6.026   9.129  10.306  1.00  0.00     0.074 A 
ATOM     49  C   UNL     1     -10.931   5.346  11.653  1.00  0.00     0.029 A 
ATOM     50  N   UNL     1      -9.233   6.388  10.668  1.00  0.00    -0.354 N 
ATOM     51  N   UNL     1      -7.030   8.306  10.501  1.00  0.00    -0.248 NA
ATOM     52  C   UNL     1      -5.808  10.078  11.408  1.00  0.00     0.031 C 
ATOM     53  C   UNL     1     -10.484   6.362  12.504  1.00  0.00     0.029 A 
ATOM     54  C   UNL     1      -9.404   6.991  11.904  1.00  0.00     0.049 A 
ATOM     55  H   UNL     1      -8.543   6.635  10.010  1.00  0.00     0.167 HD
ATOM     56  C   UNL     1      -7.540   8.617  11.760  1.00  0.00     0.074 A 
ATOM     57  C   UNL     1      -6.723   9.691  12.285  1.00  0.00     0.031 C 
ATOM     58  C   UNL     1      -8.586   8.061  12.422  1.00  0.00     0.037 A 
BRANCH  45  59
ATOM     59  C   UNL     1     -11.422   3.561   9.262  1.00  0.00     0.058 A 
ATOM     60  C   UNL     1     -11.172   2.180   9.292  1.00  0.00     0.135 A 
ATOM     61  C   UNL     1     -12.762   3.981   9.217  1.00  0.00     0.135 A 
ATOM     62  F   UNL     1      -9.910   1.721   9.315  1.00  0.00    -0.206 F 
ATOM     63  C   UNL     1     -12.207   1.251   9.250  1.00  0.00     0.059 A 
ATOM     64  C   UNL     1     -13.814   3.070   9.207  1.00  0.00     0.059 A 
ATOM     65  F   UNL     1     -13.060   5.289   9.183  1.00  0.00    -0.206 F 
ATOM     66  C   UNL     1     -13.526   1.706   9.210  1.00  0.00     0.060 A 
BRANCH  66  67
ATOM     67  S   UNL     1     -14.858   0.488   9.166  1.00  0.00     0.124 S 
ATOM     68  O   UNL     1     -14.713  -0.053   7.818  1.00  0.00    -0.237 OA
ATOM     69  O   UNL     1     -14.491  -0.413  10.253  1.00  0.00    -0.237 OA
ATOM     70  O   UNL     1     -16.058   1.287   9.394  1.00  0.00    -0.744 OA
ENDBRANCH  66  67
ENDBRANCH  45  59
BRANCH  46  71
ATOM     71  C   UNL     1      -3.994  10.237   9.115  1.00  0.00     0.058 A 
ATOM     72  C   UNL     1      -2.918  10.168  10.014  1.00  0.00     0.135 A 
ATOM     73  C   UNL     1      -4.017  11.311   8.210  1.00  0.00     0.135 A 
ATOM     74  F   UNL     1      -2.856   9.171  10.910  1.00  0.00    -0.206 F 
ATOM     75  C   UNL     1      -1.914  11.132  10.028  1.00  0.00     0.059 A 
ATOM     76  C   UNL     1      -3.009  12.270   8.184  1.00  0.00     0.059 A 
ATOM     77  F   UNL     1      -5.020  11.423   7.325  1.00  0.00    -0.206 F 
ATOM     78  C   UNL     1      -1.966  12.177   9.104  1.00  0.00     0.060 A 
BRANCH  78  79
ATOM     79  S   UNL     1      -0.629  13.391   9.094  1.00  0.00     0.124 S 
ATOM     80  O   UNL     1      -0.890  14.128  10.325  1.00  0.00    -0.237 OA
ATOM     81  O   UNL     1       0.555  12.538   9.097  1.00  0.00    -0.237 OA
ATOM     82  O   UNL     1      -0.857  14.130   7.855  1.00  0.00    -0.744 OA
ENDBRANCH  78  79
ENDBRANCH  46  71
BRANCH  58  83
ATOM     83  C   UNL     1      -8.884   8.571  13.809  1.00  0.00     0.058 A 
ATOM     84  C   UNL     1      -9.391   9.861  14.038  1.00  0.00     0.135 A 
ATOM     85  C   UNL     1      -8.678   7.746  14.929  1.00  0.00     0.135 A 
ATOM     86  F   UNL     1      -9.609  10.693  13.007  1.00  0.00    -0.206 F 
ATOM     87  C   UNL     1      -9.638  10.330  15.325  1.00  0.00     0.059 A 
ATOM     88  C   UNL     1      -8.951   8.182  16.222  1.00  0.00     0.059 A 
ATOM     89  F   UNL     1      -8.211   6.497  14.772  1.00  0.00    -0.206 F 
ATOM     90  C   UNL     1      -9.411   9.483  16.412  1.00  0.00     0.060 A 
BRANCH  90  91
ATOM     91  S   UNL     1      -9.729  10.106  18.077  1.00  0.00     0.124 S 
ATOM     92  O   UNL     1      -8.614  11.028  18.264  1.00  0.00    -0.237 OA
ATOM     93  O   UNL     1     -11.044  10.722  17.934  1.00  0.00    -0.237 OA
ATOM     94  O   UNL     1      -9.693   8.903  18.903  1.00  0.00    -0.744 OA
ENDBRANCH  90  91
ENDBRANCH  58  83
ENDBRANCH  32  33
ENDBRANCH  25  27
ENDBRANCH  24  25
ENDBRANCH  23  24
ENDBRANCH  22  23
ENDBRANCH  21  22
ENDBRANCH   1  21
TORSDOF 23
