REMARK SMILES C[C@](NC(=O)Cc1cccc(F)c1F)(C(=O)OCCOCCOCCOC(=O)c1ccc(-c2c3nc(c(-c4c(F)cc(S(=O)(=O)[O-])cc4F)c4ccc([nH]4)c(-c4c(F)cc(S(=O)(=O)[O-])cc4F)c4nc(c(-c5c(F)cc(S(=O)(=O)[O-])cc5F)c5ccc2[nH]5)C=C4)C=C3)cc1)C1CC1
REMARK SMILES IDX 21 1 20 2 19 3 18 4 17 5 15 6 16 7 2 8 1 9 95 10 96 11 97 12
REMARK SMILES IDX 3 13 4 14 5 16 6 17 7 18 8 19 13 20 9 21 11 22 14 23 10 24
REMARK SMILES IDX 12 25 22 26 23 27 24 28 25 29 26 30 27 31 28 32 29 33 30 34
REMARK SMILES IDX 94 35 31 36 93 37 32 38 33 39 34 40 87 41 35 42 92 43 86 44
REMARK SMILES IDX 88 45 36 46 91 47 85 48 84 49 37 51 71 52 50 53 70 54 51 55
REMARK SMILES IDX 54 56 69 57 89 58 52 59 53 60 68 62 90 63 55 64 38 65 39 66
REMARK SMILES IDX 48 67 40 68 41 69 47 70 49 71 42 72 43 73 44 74 45 75 46 76
REMARK SMILES IDX 72 77 73 78 82 79 74 80 75 81 81 82 83 83 76 84 77 85 78 86
REMARK SMILES IDX 79 87 80 88 56 89 57 90 66 91 58 92 59 93 65 94 67 95 60 96
REMARK SMILES IDX 61 97 62 98 63 99 64 100
REMARK H PARENT 3 15 88 50 54 61
REMARK Flexibility Score: inf
ROOT
ATOM      1  C   UNL     1      -2.211  -1.165   1.467  1.00  0.00     0.188 C 
ENDROOT
BRANCH   1   2
ATOM      2  O   UNL     1      -3.407  -0.422   1.683  1.00  0.00    -0.376 OA
BRANCH   2   3
ATOM      3  C   UNL     1      -3.613   0.767   0.937  1.00  0.00     0.202 C 
BRANCH   3   4
ATOM      4  C   UNL     1      -2.608   1.902   1.141  1.00  0.00     0.261 C 
BRANCH   4   5
ATOM      5  O   UNL     1      -1.238   1.535   0.887  1.00  0.00    -0.461 OA
BRANCH   5   6
ATOM      6  C   UNL     1      -0.331   1.897   1.844  1.00  0.00     0.331 C 
ATOM      7  O   UNL     1      -0.626   2.511   2.864  1.00  0.00    -0.249 OA
BRANCH   6   8
ATOM      8  C   UNL     1       1.113   1.325   1.578  1.00  0.00     0.138 C 
ATOM      9  C   UNL     1       2.161   2.370   1.999  1.00  0.00     0.048 C 
BRANCH   8  10
ATOM     10  C   UNL     1       1.297   0.140   2.563  1.00  0.00     0.026 C 
ATOM     11  C   UNL     1       1.403  -1.339   2.238  1.00  0.00     0.007 C 
ATOM     12  C   UNL     1       2.624  -0.584   2.671  1.00  0.00     0.007 C 
ENDBRANCH   8  10
BRANCH   8  13
ATOM     13  N   UNL     1       1.313   0.850   0.189  1.00  0.00    -0.340 N 
ATOM     14  C   UNL     1       1.400   1.451  -1.024  1.00  0.00     0.225 C 
ATOM     15  H   UNL     1       1.403  -0.129   0.134  1.00  0.00     0.164 HD
ATOM     16  O   UNL     1       1.433   0.704  -2.011  1.00  0.00    -0.275 OA
BRANCH  14  17
ATOM     17  C   UNL     1       1.485   2.950  -1.220  1.00  0.00     0.138 C 
BRANCH  17  18
ATOM     18  C   UNL     1       0.155   3.656  -1.289  1.00  0.00     0.000 A 
ATOM     19  C   UNL     1      -0.672   3.524  -2.416  1.00  0.00     0.007 A 
ATOM     20  C   UNL     1      -0.287   4.468  -0.241  1.00  0.00     0.162 A 
ATOM     21  C   UNL     1      -1.912   4.173  -2.472  1.00  0.00     0.004 A 
ATOM     22  C   UNL     1      -1.529   5.089  -0.286  1.00  0.00     0.159 A 
ATOM     23  F   UNL     1       0.484   4.652   0.836  1.00  0.00    -0.203 F 
ATOM     24  C   UNL     1      -2.348   4.947  -1.398  1.00  0.00     0.042 A 
ATOM     25  F   UNL     1      -1.958   5.811   0.758  1.00  0.00    -0.204 F 
ENDBRANCH  17  18
ENDBRANCH  14  17
ENDBRANCH   8  13
ENDBRANCH   6   8
ENDBRANCH   5   6
ENDBRANCH   4   5
ENDBRANCH   3   4
ENDBRANCH   2   3
ENDBRANCH   1   2
BRANCH   1  26
ATOM     26  C   UNL     1      -1.665  -1.310   0.034  1.00  0.00     0.188 C 
BRANCH  26  27
ATOM     27  O   UNL     1      -2.647  -1.130  -0.976  1.00  0.00    -0.376 OA
BRANCH  27  28
ATOM     28  C   UNL     1      -2.884  -2.253  -1.810  1.00  0.00     0.202 C 
BRANCH  28  29
ATOM     29  C   UNL     1      -3.791  -3.292  -1.144  1.00  0.00     0.261 C 
BRANCH  29  30
ATOM     30  O   UNL     1      -3.242  -3.873   0.052  1.00  0.00    -0.460 OA
BRANCH  30  31
ATOM     31  C   UNL     1      -2.159  -4.663  -0.110  1.00  0.00     0.338 C 
ATOM     32  O   UNL     1      -1.632  -4.969  -1.174  1.00  0.00    -0.246 OA
BRANCH  31  33
ATOM     33  C   UNL     1      -1.573  -4.937   1.216  1.00  0.00     0.060 A 
ATOM     34  C   UNL     1      -0.225  -4.627   1.421  1.00  0.00     0.016 A 
ATOM     35  C   UNL     1      -2.334  -5.489   2.251  1.00  0.00     0.016 A 
ATOM     36  C   UNL     1       0.372  -4.886   2.655  1.00  0.00     0.010 A 
ATOM     37  C   UNL     1      -1.730  -5.766   3.484  1.00  0.00     0.010 A 
ATOM     38  C   UNL     1      -0.367  -5.484   3.686  1.00  0.00    -0.014 A 
BRANCH  38  39
ATOM     39  C   UNL     1       0.348  -5.974   4.891  1.00  0.00     0.031 A 
ATOM     40  C   UNL     1       0.867  -7.387   4.888  1.00  0.00     0.074 A 
ATOM     41  C   UNL     1       0.596  -5.170   5.941  1.00  0.00     0.049 A 
ATOM     42  N   UNL     1       1.555  -8.021   5.802  1.00  0.00    -0.248 NA
ATOM     43  C   UNL     1       0.580  -8.186   3.685  1.00  0.00     0.031 C 
ATOM     44  C   UNL     1       0.181  -3.773   6.058  1.00  0.00     0.029 A 
ATOM     45  N   UNL     1       1.266  -5.420   7.115  1.00  0.00    -0.354 N 
ATOM     46  C   UNL     1       1.804  -9.284   5.277  1.00  0.00     0.074 A 
ATOM     47  C   UNL     1       1.159  -9.340   3.982  1.00  0.00     0.031 C 
ATOM     48  C   UNL     1       0.595  -3.293   7.245  1.00  0.00     0.029 A 
ATOM     49  C   UNL     1       1.288  -4.351   7.980  1.00  0.00     0.049 A 
ATOM     50  H   UNL     1       1.690  -6.285   7.318  1.00  0.00     0.167 HD
ATOM     51  C   UNL     1       2.517 -10.302   5.814  1.00  0.00     0.037 A 
ATOM     52  C   UNL     1       1.795  -4.246   9.226  1.00  0.00     0.037 A 
ATOM     53  C   UNL     1       3.131 -10.266   7.115  1.00  0.00     0.049 A 
ATOM     54  C   UNL     1       2.515  -5.424   9.839  1.00  0.00     0.074 A 
ATOM     55  C   UNL     1       3.842 -11.264   7.759  1.00  0.00     0.029 A 
ATOM     56  N   UNL     1       3.102  -9.179   7.974  1.00  0.00    -0.354 N 
ATOM     57  N   UNL     1       2.751  -6.608   9.325  1.00  0.00    -0.248 NA
ATOM     58  C   UNL     1       3.045  -5.246  11.199  1.00  0.00     0.031 C 
ATOM     59  C   UNL     1       4.211 -10.792   9.024  1.00  0.00     0.029 A 
ATOM     60  C   UNL     1       3.771  -9.484   9.148  1.00  0.00     0.049 A 
ATOM     61  H   UNL     1       2.669  -8.316   7.779  1.00  0.00     0.167 HD
ATOM     62  C   UNL     1       3.475  -7.305  10.290  1.00  0.00     0.074 A 
ATOM     63  C   UNL     1       3.654  -6.404  11.409  1.00  0.00     0.031 C 
ATOM     64  C   UNL     1       3.947  -8.577  10.254  1.00  0.00     0.037 A 
BRANCH  51  65
ATOM     65  C   UNL     1       2.652 -11.551   4.991  1.00  0.00     0.058 A 
ATOM     66  C   UNL     1       3.485 -11.595   3.862  1.00  0.00     0.135 A 
ATOM     67  C   UNL     1       1.956 -12.718   5.341  1.00  0.00     0.135 A 
ATOM     68  F   UNL     1       4.154 -10.498   3.471  1.00  0.00    -0.206 F 
ATOM     69  C   UNL     1       3.606 -12.748   3.094  1.00  0.00     0.059 A 
ATOM     70  C   UNL     1       2.080 -13.890   4.601  1.00  0.00     0.059 A 
ATOM     71  F   UNL     1       1.141 -12.726   6.408  1.00  0.00    -0.206 F 
ATOM     72  C   UNL     1       2.897 -13.890   3.471  1.00  0.00     0.060 A 
BRANCH  72  73
ATOM     73  S   UNL     1       3.064 -15.379   2.464  1.00  0.00     0.124 S 
ATOM     74  O   UNL     1       2.293 -15.017   1.279  1.00  0.00    -0.237 OA
ATOM     75  O   UNL     1       4.509 -15.470   2.276  1.00  0.00    -0.237 OA
ATOM     76  O   UNL     1       2.477 -16.422   3.300  1.00  0.00    -0.744 OA
ENDBRANCH  72  73
ENDBRANCH  51  65
BRANCH  52  77
ATOM     77  C   UNL     1       1.623  -2.987  10.002  1.00  0.00     0.058 A 
ATOM     78  C   UNL     1       2.716  -2.168  10.322  1.00  0.00     0.135 A 
ATOM     79  C   UNL     1       0.360  -2.604  10.479  1.00  0.00     0.135 A 
ATOM     80  F   UNL     1       3.947  -2.499   9.903  1.00  0.00    -0.206 F 
ATOM     81  C   UNL     1       2.568  -1.027  11.107  1.00  0.00     0.059 A 
ATOM     82  C   UNL     1       0.182  -1.454  11.242  1.00  0.00     0.059 A 
ATOM     83  F   UNL     1      -0.720  -3.350  10.197  1.00  0.00    -0.206 F 
ATOM     84  C   UNL     1       1.296  -0.680  11.564  1.00  0.00     0.060 A 
BRANCH  84  85
ATOM     85  S   UNL     1       1.107   0.813  12.563  1.00  0.00     0.124 S 
ATOM     86  O   UNL     1       1.641   0.376  13.848  1.00  0.00    -0.237 OA
ATOM     87  O   UNL     1       1.919   1.779  11.829  1.00  0.00    -0.237 OA
ATOM     88  O   UNL     1      -0.332   1.059  12.527  1.00  0.00    -0.744 OA
ENDBRANCH  84  85
ENDBRANCH  52  77
BRANCH  64  89
ATOM     89  C   UNL     1       4.732  -9.061  11.444  1.00  0.00     0.058 A 
ATOM     90  C   UNL     1       4.114  -9.346  12.672  1.00  0.00     0.135 A 
ATOM     91  C   UNL     1       6.117  -9.272  11.346  1.00  0.00     0.135 A 
ATOM     92  F   UNL     1       2.792  -9.161  12.822  1.00  0.00    -0.206 F 
ATOM     93  C   UNL     1       4.845  -9.789  13.770  1.00  0.00     0.059 A 
ATOM     94  C   UNL     1       6.864  -9.740  12.423  1.00  0.00     0.059 A 
ATOM     95  F   UNL     1       6.758  -9.030  10.191  1.00  0.00    -0.206 F 
ATOM     96  C   UNL     1       6.222  -9.979  13.637  1.00  0.00     0.060 A 
BRANCH  96  97
ATOM     97  S   UNL     1       7.162 -10.560  15.065  1.00  0.00     0.124 S 
ATOM     98  O   UNL     1       7.246  -9.348  15.874  1.00  0.00    -0.237 OA
ATOM     99  O   UNL     1       6.307 -11.618  15.595  1.00  0.00    -0.237 OA
ATOM    100  O   UNL     1       8.420 -11.014  14.481  1.00  0.00    -0.744 OA
ENDBRANCH  96  97
ENDBRANCH  64  89
ENDBRANCH  38  39
ENDBRANCH  31  33
ENDBRANCH  30  31
ENDBRANCH  29  30
ENDBRANCH  28  29
ENDBRANCH  27  28
ENDBRANCH  26  27
ENDBRANCH   1  26
TORSDOF 24
