REMARK SMILES C[C@@H]1CN(S(=O)(=O)c2cccc(C(=O)N3CCC[C@@H]3C(=O)OCCOCCOCCOC(=O)c3ccc(-c4c5nc(c(-c6c(F)cc(S(=O)(=O)[O-])cc6F)c6ccc([nH]6)c(-c6c(F)cc(S(=O)(=O)[O-])cc6F)c6nc(c(-c7c(F)cc(S(=O)(=O)[O-])cc7F)c7ccc4[nH]7)C=C6)C=C5)cc3)c2)C[C@H](C)O1
REMARK SMILES IDX 26 1 25 2 24 3 23 4 22 5 20 6 21 7 19 8 15 9 16 10 17 11
REMARK SMILES IDX 18 12 13 13 14 14 12 15 8 16 9 17 100 18 10 19 11 20 5 21
REMARK SMILES IDX 6 22 7 23 4 24 1 25 2 26 3 27 104 28 102 29 101 30 103 31
REMARK SMILES IDX 27 32 28 33 29 34 30 35 31 36 32 37 33 38 34 39 35 40 99 41
REMARK SMILES IDX 36 42 98 43 37 44 38 45 39 46 92 47 40 48 97 49 91 50 93 51
REMARK SMILES IDX 41 52 96 53 90 54 89 55 42 57 76 58 55 59 75 60 56 61 59 62
REMARK SMILES IDX 74 63 94 64 57 65 58 66 73 68 95 69 60 70 43 71 44 72 53 73
REMARK SMILES IDX 45 74 46 75 52 76 54 77 47 78 48 79 49 80 50 81 51 82 77 83
REMARK SMILES IDX 78 84 87 85 79 86 80 87 86 88 88 89 81 90 82 91 83 92 84 93
REMARK SMILES IDX 85 94 61 95 62 96 71 97 63 98 64 99 70 100 72 101 65 102
REMARK SMILES IDX 66 103 67 104 68 105 69 106
REMARK H PARENT 93 56 59 67
REMARK Flexibility Score: inf
ROOT
ATOM      1  C   UNL     1      -0.976   5.091  -0.459  1.00  0.00     0.188 C 
ENDROOT
BRANCH   1   2
ATOM      2  O   UNL     1       0.339   5.327   0.028  1.00  0.00    -0.376 OA
BRANCH   2   3
ATOM      3  C   UNL     1       1.081   4.236   0.567  1.00  0.00     0.202 C 
BRANCH   3   4
ATOM      4  C   UNL     1       0.406   3.388   1.650  1.00  0.00     0.261 C 
BRANCH   4   5
ATOM      5  O   UNL     1      -0.766   2.682   1.185  1.00  0.00    -0.462 OA
BRANCH   5   6
ATOM      6  C   UNL     1      -1.786   2.624   2.081  1.00  0.00     0.328 C 
ATOM      7  O   UNL     1      -1.693   3.069   3.221  1.00  0.00    -0.250 OA
BRANCH   6   8
ATOM      8  C   UNL     1      -3.086   1.970   1.554  1.00  0.00     0.195 C 
ATOM      9  N   UNL     1      -3.530   0.865   2.400  1.00  0.00    -0.325 N 
ATOM     10  C   UNL     1      -4.466   0.048   1.669  1.00  0.00     0.121 C 
ATOM     11  C   UNL     1      -3.796  -0.041   0.317  1.00  0.00     0.024 C 
ATOM     12  C   UNL     1      -3.095   1.317   0.157  1.00  0.00     0.039 C 
BRANCH   9  13
ATOM     13  C   UNL     1      -3.629   1.003   3.768  1.00  0.00     0.254 C 
ATOM     14  O   UNL     1      -4.490   1.642   4.347  1.00  0.00    -0.269 OA
BRANCH  13  15
ATOM     15  C   UNL     1      -2.494   0.326   4.462  1.00  0.00     0.041 A 
ATOM     16  C   UNL     1      -0.750  -1.355   4.384  1.00  0.00     0.083 A 
ATOM     17  C   UNL     1      -0.183  -0.823   5.543  1.00  0.00     0.022 A 
ATOM     18  C   UNL     1      -1.923  -0.809   3.874  1.00  0.00     0.035 A 
ATOM     19  C   UNL     1      -0.782   0.284   6.161  1.00  0.00     0.002 A 
ATOM     20  C   UNL     1      -1.934   0.866   5.618  1.00  0.00     0.014 A 
BRANCH  16  21
ATOM     21  S   UNL     1      -0.129  -2.838   3.637  1.00  0.00     0.243 S 
ATOM     22  O   UNL     1      -1.273  -3.637   3.248  1.00  0.00    -0.207 OA
ATOM     23  O   UNL     1       0.881  -3.386   4.521  1.00  0.00    -0.207 OA
BRANCH  21  24
ATOM     24  N   UNL     1       0.677  -2.362   2.181  1.00  0.00    -0.193 NA
ATOM     25  C   UNL     1       1.427  -0.132  -0.101  1.00  0.00     0.040 C 
ATOM     26  C   UNL     1       0.577  -1.398  -0.162  1.00  0.00     0.130 C 
ATOM     27  C   UNL     1      -0.189  -1.696   1.147  1.00  0.00     0.134 C 
ATOM     28  O   UNL     1       1.321  -2.516  -0.663  1.00  0.00    -0.373 OA
ATOM     29  C   UNL     1       2.113  -3.217   0.300  1.00  0.00     0.130 C 
ATOM     30  C   UNL     1       1.314  -3.578   1.555  1.00  0.00     0.134 C 
ATOM     31  C   UNL     1       3.428  -2.512   0.609  1.00  0.00     0.040 C 
ENDBRANCH  21  24
ENDBRANCH  16  21
ENDBRANCH  13  15
ENDBRANCH   9  13
ENDBRANCH   6   8
ENDBRANCH   5   6
ENDBRANCH   4   5
ENDBRANCH   3   4
ENDBRANCH   2   3
ENDBRANCH   1   2
BRANCH   1  32
ATOM     32  C   UNL     1      -1.207   3.893  -1.391  1.00  0.00     0.188 C 
BRANCH  32  33
ATOM     33  O   UNL     1      -0.039   3.184  -1.764  1.00  0.00    -0.376 OA
BRANCH  33  34
ATOM     34  C   UNL     1       0.265   3.162  -3.153  1.00  0.00     0.202 C 
BRANCH  34  35
ATOM     35  C   UNL     1       0.622   4.531  -3.750  1.00  0.00     0.261 C 
BRANCH  35  36
ATOM     36  O   UNL     1      -0.456   5.484  -3.748  1.00  0.00    -0.460 OA
BRANCH  36  37
ATOM     37  C   UNL     1      -1.569   5.153  -4.447  1.00  0.00     0.338 C 
ATOM     38  O   UNL     1      -1.733   4.169  -5.142  1.00  0.00    -0.246 OA
BRANCH  37  39
ATOM     39  C   UNL     1      -2.648   6.065  -4.008  1.00  0.00     0.060 A 
ATOM     40  C   UNL     1      -3.849   5.514  -3.538  1.00  0.00     0.016 A 
ATOM     41  C   UNL     1      -2.457   7.448  -4.022  1.00  0.00     0.016 A 
ATOM     42  C   UNL     1      -4.874   6.353  -3.099  1.00  0.00     0.010 A 
ATOM     43  C   UNL     1      -3.492   8.286  -3.606  1.00  0.00     0.010 A 
ATOM     44  C   UNL     1      -4.713   7.744  -3.168  1.00  0.00    -0.014 A 
BRANCH  44  45
ATOM     45  C   UNL     1      -5.880   8.638  -2.989  1.00  0.00     0.031 A 
ATOM     46  C   UNL     1      -6.657   9.033  -4.215  1.00  0.00     0.074 A 
ATOM     47  C   UNL     1      -6.231   9.106  -1.779  1.00  0.00     0.049 A 
ATOM     48  N   UNL     1      -7.658   9.863  -4.331  1.00  0.00    -0.248 NA
ATOM     49  C   UNL     1      -6.242   8.406  -5.482  1.00  0.00     0.031 C 
ATOM     50  C   UNL     1      -5.575   8.772  -0.516  1.00  0.00     0.029 A 
ATOM     51  N   UNL     1      -7.225   9.982  -1.421  1.00  0.00    -0.354 N 
ATOM     52  C   UNL     1      -7.992   9.863  -5.679  1.00  0.00     0.074 A 
ATOM     53  C   UNL     1      -7.073   8.967  -6.347  1.00  0.00     0.031 C 
ATOM     54  C   UNL     1      -6.174   9.453   0.479  1.00  0.00     0.029 A 
ATOM     55  C   UNL     1      -7.233  10.290  -0.081  1.00  0.00     0.049 A 
ATOM     56  H   UNL     1      -7.871  10.355  -2.063  1.00  0.00     0.167 HD
ATOM     57  C   UNL     1      -8.977  10.545  -6.306  1.00  0.00     0.037 A 
ATOM     58  C   UNL     1      -7.994  11.168   0.604  1.00  0.00     0.037 A 
ATOM     59  C   UNL     1      -9.881  11.446  -5.645  1.00  0.00     0.049 A 
ATOM     60  C   UNL     1      -9.044  11.968  -0.128  1.00  0.00     0.074 A 
ATOM     61  C   UNL     1     -10.916  12.182  -6.192  1.00  0.00     0.029 A 
ATOM     62  N   UNL     1      -9.850  11.741  -4.290  1.00  0.00    -0.354 N 
ATOM     63  N   UNL     1      -9.364  11.942  -1.400  1.00  0.00    -0.248 NA
ATOM     64  C   UNL     1      -9.835  12.917   0.669  1.00  0.00     0.031 C 
ATOM     65  C   UNL     1     -11.489  12.951  -5.174  1.00  0.00     0.029 A 
ATOM     66  C   UNL     1     -10.837  12.661  -3.986  1.00  0.00     0.049 A 
ATOM     67  H   UNL     1      -9.219  11.353  -3.642  1.00  0.00     0.167 HD
ATOM     68  C   UNL     1     -10.409  12.849  -1.549  1.00  0.00     0.074 A 
ATOM     69  C   UNL     1     -10.672  13.402  -0.237  1.00  0.00     0.031 C 
ATOM     70  C   UNL     1     -11.093  13.191  -2.670  1.00  0.00     0.037 A 
BRANCH  57  71
ATOM     71  C   UNL     1      -9.108  10.357  -7.790  1.00  0.00     0.058 A 
ATOM     72  C   UNL     1      -9.634   9.177  -8.336  1.00  0.00     0.135 A 
ATOM     73  C   UNL     1      -8.716  11.375  -8.673  1.00  0.00     0.135 A 
ATOM     74  F   UNL     1      -9.998   8.164  -7.534  1.00  0.00    -0.206 F 
ATOM     75  C   UNL     1      -9.750   9.003  -9.711  1.00  0.00     0.059 A 
ATOM     76  C   UNL     1      -8.844  11.232 -10.051  1.00  0.00     0.059 A 
ATOM     77  F   UNL     1      -8.198  12.519  -8.200  1.00  0.00    -0.206 F 
ATOM     78  C   UNL     1      -9.350  10.037 -10.560  1.00  0.00     0.060 A 
BRANCH  78  79
ATOM     79  S   UNL     1      -9.509   9.799 -12.342  1.00  0.00     0.124 S 
ATOM     80  O   UNL     1      -8.402   8.886 -12.613  1.00  0.00    -0.237 OA
ATOM     81  O   UNL     1     -10.846   9.227 -12.464  1.00  0.00    -0.237 OA
ATOM     82  O   UNL     1      -9.355  11.148 -12.880  1.00  0.00    -0.744 OA
ENDBRANCH  78  79
ENDBRANCH  57  71
BRANCH  58  83
ATOM     83  C   UNL     1      -7.786  11.359   2.065  1.00  0.00     0.058 A 
ATOM     84  C   UNL     1      -8.741  10.925   2.996  1.00  0.00     0.135 A 
ATOM     85  C   UNL     1      -6.639  12.002   2.556  1.00  0.00     0.135 A 
ATOM     86  F   UNL     1      -9.861  10.318   2.574  1.00  0.00    -0.206 F 
ATOM     87  C   UNL     1      -8.577  11.138   4.361  1.00  0.00     0.059 A 
ATOM     88  C   UNL     1      -6.442  12.207   3.918  1.00  0.00     0.059 A 
ATOM     89  F   UNL     1      -5.692  12.430   1.706  1.00  0.00    -0.206 F 
ATOM     90  C   UNL     1      -7.424  11.783   4.813  1.00  0.00     0.060 A 
BRANCH  90  91
ATOM     91  S   UNL     1      -7.204  12.032   6.588  1.00  0.00     0.124 S 
ATOM     92  O   UNL     1      -8.117  13.140   6.844  1.00  0.00    -0.237 OA
ATOM     93  O   UNL     1      -7.603  10.738   7.133  1.00  0.00    -0.237 OA
ATOM     94  O   UNL     1      -5.783  12.342   6.708  1.00  0.00    -0.744 OA
ENDBRANCH  90  91
ENDBRANCH  58  83
BRANCH  70  95
ATOM     95  C   UNL     1     -12.218  14.177  -2.527  1.00  0.00     0.058 A 
ATOM     96  C   UNL     1     -11.978  15.548  -2.349  1.00  0.00     0.135 A 
ATOM     97  C   UNL     1     -13.551  13.752  -2.641  1.00  0.00     0.135 A 
ATOM     98  F   UNL     1     -10.721  16.005  -2.231  1.00  0.00    -0.206 F 
ATOM     99  C   UNL     1     -13.024  16.463  -2.270  1.00  0.00     0.059 A 
ATOM    100  C   UNL     1     -14.611  14.652  -2.588  1.00  0.00     0.059 A 
ATOM    101  F   UNL     1     -13.833  12.453  -2.825  1.00  0.00    -0.206 F 
ATOM    102  C   UNL     1     -14.337  16.005  -2.393  1.00  0.00     0.060 A 
BRANCH 102 103
ATOM    103  S   UNL     1     -15.685  17.205  -2.334  1.00  0.00     0.124 S 
ATOM    104  O   UNL     1     -15.762  17.490  -0.905  1.00  0.00    -0.237 OA
ATOM    105  O   UNL     1     -15.179  18.289  -3.170  1.00  0.00    -0.237 OA
ATOM    106  O   UNL     1     -16.817  16.471  -2.891  1.00  0.00    -0.744 OA
ENDBRANCH 102 103
ENDBRANCH  70  95
ENDBRANCH  44  45
ENDBRANCH  37  39
ENDBRANCH  36  37
ENDBRANCH  35  36
ENDBRANCH  34  35
ENDBRANCH  33  34
ENDBRANCH  32  33
ENDBRANCH   1  32
TORSDOF 24
