REMARK SMILES COc1ccc(OC)c(Nc2c(-c3ccc(C(=O)OCCOCCOCCOC(=O)c4ccc(-c5c6nc(c(-c7c(F)cc(S(=O)(=O)[O-])cc7F)c7ccc([nH]7)c(-c7c(F)cc(S(=O)(=O)[O-])cc7F)c7nc(c(-c8c(F)cc(S(=O)(=O)[O-])cc8F)c8ccc5[nH]8)C=C7)C=C6)cc4)cc3)nc3cnccn23)c1
REMARK SMILES IDX 23 1 22 2 21 3 20 4 19 5 17 6 18 7 16 8 13 9 14 10 98 11
REMARK SMILES IDX 15 12 97 13 12 14 11 15 105 16 99 17 100 18 104 19 101 20
REMARK SMILES IDX 103 21 102 22 10 23 9 25 3 26 4 27 106 28 5 29 6 30 2 31
REMARK SMILES IDX 1 32 7 33 8 34 24 35 25 36 26 37 27 38 28 39 29 40 30 41
REMARK SMILES IDX 31 42 32 43 96 44 33 45 95 46 34 47 35 48 36 49 89 50 37 51
REMARK SMILES IDX 94 52 88 53 90 54 38 55 93 56 87 57 86 58 39 60 73 61 52 62
REMARK SMILES IDX 72 63 53 64 56 65 71 66 91 67 54 68 55 69 70 71 92 72 57 73
REMARK SMILES IDX 40 74 41 75 50 76 42 77 43 78 49 79 51 80 44 81 45 82 46 83
REMARK SMILES IDX 47 84 48 85 74 86 75 87 84 88 76 89 77 90 83 91 85 92 78 93
REMARK SMILES IDX 79 94 80 95 81 96 82 97 58 98 59 99 68 100 60 101 61 102
REMARK SMILES IDX 67 103 69 104 62 105 63 106 64 107 65 108 66 109
REMARK H PARENT 10 24 90 59 56 70
REMARK Flexibility Score: inf
ROOT
ATOM      1  C   UNL     1       7.864  -5.622   0.627  1.00  0.00     0.188 C 
ENDROOT
BRANCH   1   2
ATOM      2  O   UNL     1       9.000  -6.175   1.283  1.00  0.00    -0.376 OA
BRANCH   2   3
ATOM      3  C   UNL     1       9.504  -7.369   0.701  1.00  0.00     0.202 C 
BRANCH   3   4
ATOM      4  C   UNL     1      10.073  -7.296  -0.730  1.00  0.00     0.261 C 
BRANCH   4   5
ATOM      5  O   UNL     1       9.316  -6.556  -1.704  1.00  0.00    -0.460 OA
BRANCH   5   6
ATOM      6  C   UNL     1       8.234  -7.142  -2.266  1.00  0.00     0.338 C 
ATOM      7  O   UNL     1       7.814  -8.259  -2.024  1.00  0.00    -0.246 OA
BRANCH   6   8
ATOM      8  C   UNL     1       7.530  -6.129  -3.104  1.00  0.00     0.060 A 
ATOM      9  C   UNL     1       6.145  -4.191  -4.624  1.00  0.00     0.004 A 
ATOM     10  C   UNL     1       5.448  -5.070  -3.783  1.00  0.00     0.011 A 
ATOM     11  C   UNL     1       7.545  -4.273  -4.672  1.00  0.00     0.011 A 
ATOM     12  C   UNL     1       6.133  -6.043  -3.038  1.00  0.00     0.016 A 
ATOM     13  C   UNL     1       8.236  -5.226  -3.909  1.00  0.00     0.016 A 
BRANCH   9  14
ATOM     14  C   UNL     1       5.447  -3.283  -5.527  1.00  0.00     0.114 A 
ATOM     15  C   UNL     1       4.354  -2.466  -5.233  1.00  0.00     0.143 A 
ATOM     16  N   UNL     1       4.064  -1.838  -6.428  1.00  0.00    -0.283 N 
ATOM     17  N   UNL     1       5.751  -3.249  -6.873  1.00  0.00    -0.225 NA
ATOM     18  C   UNL     1       4.866  -2.423  -7.378  1.00  0.00     0.157 A 
ATOM     19  C   UNL     1       3.158  -0.861  -6.810  1.00  0.00     0.115 A 
ATOM     20  C   UNL     1       4.642  -2.101  -8.759  1.00  0.00     0.158 A 
ATOM     21  C   UNL     1       3.038  -0.579  -8.121  1.00  0.00     0.129 A 
ATOM     22  N   UNL     1       3.759  -1.210  -9.126  1.00  0.00    -0.259 NA
BRANCH  15  23
ATOM     23  N   UNL     1       3.730  -2.209  -4.061  1.00  0.00    -0.336 N 
ATOM     24  H   UNL     1       4.339  -1.890  -3.356  1.00  0.00     0.168 HD
BRANCH  23  25
ATOM     25  C   UNL     1       2.374  -2.305  -3.635  1.00  0.00     0.086 A 
ATOM     26  C   UNL     1       0.931  -1.715  -1.698  1.00  0.00     0.121 A 
ATOM     27  C   UNL     1      -0.151  -2.312  -2.310  1.00  0.00     0.050 A 
ATOM     28  C   UNL     1       2.163  -1.703  -2.352  1.00  0.00     0.076 A 
ATOM     29  C   UNL     1       0.004  -2.846  -3.586  1.00  0.00     0.052 A 
ATOM     30  C   UNL     1       1.244  -2.854  -4.273  1.00  0.00     0.142 A 
BRANCH  26  31
ATOM     31  O   UNL     1       0.753  -1.282  -0.416  1.00  0.00    -0.497 OA
ATOM     32  C   UNL     1       1.145   0.069  -0.191  1.00  0.00     0.278 C 
ENDBRANCH  26  31
BRANCH  30  33
ATOM     33  O   UNL     1       1.040  -3.397  -5.506  1.00  0.00    -0.495 OA
ATOM     34  C   UNL     1       1.997  -4.157  -6.205  1.00  0.00     0.278 C 
ENDBRANCH  30  33
ENDBRANCH  23  25
ENDBRANCH  15  23
ENDBRANCH   9  14
ENDBRANCH   6   8
ENDBRANCH   5   6
ENDBRANCH   4   5
ENDBRANCH   3   4
ENDBRANCH   2   3
ENDBRANCH   1   2
BRANCH   1  35
ATOM     35  C   UNL     1       8.226  -4.317  -0.099  1.00  0.00     0.188 C 
BRANCH  35  36
ATOM     36  O   UNL     1       9.588  -3.945  -0.059  1.00  0.00    -0.376 OA
BRANCH  36  37
ATOM     37  C   UNL     1      10.177  -3.532   1.164  1.00  0.00     0.202 C 
BRANCH  37  38
ATOM     38  C   UNL     1       9.461  -3.343   2.525  1.00  0.00     0.261 C 
BRANCH  38  39
ATOM     39  O   UNL     1       8.056  -3.579   2.635  1.00  0.00    -0.460 OA
BRANCH  39  40
ATOM     40  C   UNL     1       7.227  -2.543   2.380  1.00  0.00     0.338 C 
ATOM     41  O   UNL     1       7.542  -1.420   2.018  1.00  0.00    -0.246 OA
BRANCH  40  42
ATOM     42  C   UNL     1       5.840  -3.057   2.428  1.00  0.00     0.060 A 
ATOM     43  C   UNL     1       5.081  -3.094   1.249  1.00  0.00     0.016 A 
ATOM     44  C   UNL     1       5.295  -3.508   3.631  1.00  0.00     0.016 A 
ATOM     45  C   UNL     1       3.764  -3.558   1.276  1.00  0.00     0.010 A 
ATOM     46  C   UNL     1       3.970  -3.954   3.660  1.00  0.00     0.010 A 
ATOM     47  C   UNL     1       3.189  -3.955   2.490  1.00  0.00    -0.014 A 
BRANCH  47  48
ATOM     48  C   UNL     1       1.728  -4.207   2.575  1.00  0.00     0.031 A 
ATOM     49  C   UNL     1       0.842  -3.116   3.113  1.00  0.00     0.074 A 
ATOM     50  C   UNL     1       1.194  -5.380   2.187  1.00  0.00     0.049 A 
ATOM     51  N   UNL     1      -0.446  -3.126   3.341  1.00  0.00    -0.248 NA
ATOM     52  C   UNL     1       1.505  -1.847   3.456  1.00  0.00     0.031 C 
ATOM     53  C   UNL     1       1.938  -6.501   1.615  1.00  0.00     0.029 A 
ATOM     54  N   UNL     1      -0.104  -5.825   2.228  1.00  0.00    -0.354 N 
ATOM     55  C   UNL     1      -0.746  -1.872   3.862  1.00  0.00     0.074 A 
ATOM     56  C   UNL     1       0.500  -1.142   3.951  1.00  0.00     0.031 C 
ATOM     57  C   UNL     1       1.083  -7.507   1.361  1.00  0.00     0.029 A 
ATOM     58  C   UNL     1      -0.261  -7.117   1.786  1.00  0.00     0.049 A 
ATOM     59  H   UNL     1      -0.853  -5.270   2.544  1.00  0.00     0.167 HD
ATOM     60  C   UNL     1      -1.950  -1.374   4.230  1.00  0.00     0.037 A 
ATOM     61  C   UNL     1      -1.359  -7.899   1.748  1.00  0.00     0.037 A 
ATOM     62  C   UNL     1      -3.187  -2.107   4.138  1.00  0.00     0.049 A 
ATOM     63  C   UNL     1      -2.678  -7.348   2.232  1.00  0.00     0.074 A 
ATOM     64  C   UNL     1      -4.465  -1.680   4.453  1.00  0.00     0.029 A 
ATOM     65  N   UNL     1      -3.299  -3.425   3.716  1.00  0.00    -0.354 N 
ATOM     66  N   UNL     1      -2.957  -6.149   2.687  1.00  0.00    -0.248 NA
ATOM     67  C   UNL     1      -3.833  -8.258   2.196  1.00  0.00     0.031 C 
ATOM     68  C   UNL     1      -5.340  -2.758   4.286  1.00  0.00     0.029 A 
ATOM     69  C   UNL     1      -4.620  -3.837   3.799  1.00  0.00     0.049 A 
ATOM     70  H   UNL     1      -2.551  -3.984   3.404  1.00  0.00     0.167 HD
ATOM     71  C   UNL     1      -4.324  -6.150   2.955  1.00  0.00     0.074 A 
ATOM     72  C   UNL     1      -4.815  -7.467   2.607  1.00  0.00     0.031 C 
ATOM     73  C   UNL     1      -5.101  -5.149   3.440  1.00  0.00     0.037 A 
BRANCH  60  74
ATOM     74  C   UNL     1      -1.983   0.016   4.805  1.00  0.00     0.058 A 
ATOM     75  C   UNL     1      -1.724   1.154   4.024  1.00  0.00     0.135 A 
ATOM     76  C   UNL     1      -2.299   0.212   6.160  1.00  0.00     0.135 A 
ATOM     77  F   UNL     1      -1.397   1.027   2.728  1.00  0.00    -0.206 F 
ATOM     78  C   UNL     1      -1.744   2.433   4.573  1.00  0.00     0.059 A 
ATOM     79  C   UNL     1      -2.355   1.484   6.723  1.00  0.00     0.059 A 
ATOM     80  F   UNL     1      -2.552  -0.839   6.955  1.00  0.00    -0.206 F 
ATOM     81  C   UNL     1      -2.059   2.587   5.924  1.00  0.00     0.060 A 
BRANCH  81  82
ATOM     82  S   UNL     1      -2.069   4.251   6.622  1.00  0.00     0.124 S 
ATOM     83  O   UNL     1      -0.644   4.568   6.637  1.00  0.00    -0.237 OA
ATOM     84  O   UNL     1      -2.871   4.990   5.651  1.00  0.00    -0.237 OA
ATOM     85  O   UNL     1      -2.685   4.069   7.932  1.00  0.00    -0.744 OA
ENDBRANCH  81  82
ENDBRANCH  60  74
BRANCH  61  86
ATOM     86  C   UNL     1      -1.268  -9.291   1.227  1.00  0.00     0.058 A 
ATOM     87  C   UNL     1      -1.894  -9.654   0.025  1.00  0.00     0.135 A 
ATOM     88  C   UNL     1      -0.564 -10.288   1.921  1.00  0.00     0.135 A 
ATOM     89  F   UNL     1      -2.594  -8.742  -0.667  1.00  0.00    -0.206 F 
ATOM     90  C   UNL     1      -1.837 -10.955  -0.465  1.00  0.00     0.059 A 
ATOM     91  C   UNL     1      -0.468 -11.590   1.436  1.00  0.00     0.059 A 
ATOM     92  F   UNL     1       0.057  -9.995   3.074  1.00  0.00    -0.206 F 
ATOM     93  C   UNL     1      -1.116 -11.915   0.246  1.00  0.00     0.060 A 
BRANCH  93  94
ATOM     94  S   UNL     1      -1.008 -13.588  -0.428  1.00  0.00     0.124 S 
ATOM     95  O   UNL     1      -2.370 -14.073  -0.232  1.00  0.00    -0.237 OA
ATOM     96  O   UNL     1      -0.613 -13.334  -1.810  1.00  0.00    -0.237 OA
ATOM     97  O   UNL     1       0.012 -14.220   0.403  1.00  0.00    -0.744 OA
ENDBRANCH  93  94
ENDBRANCH  61  86
BRANCH  73  98
ATOM     98  C   UNL     1      -6.578  -5.414   3.581  1.00  0.00     0.058 A 
ATOM     99  C   UNL     1      -7.091  -6.274   4.564  1.00  0.00     0.135 A 
ATOM    100  C   UNL     1      -7.498  -4.747   2.754  1.00  0.00     0.135 A 
ATOM    101  F   UNL     1      -6.259  -6.941   5.380  1.00  0.00    -0.206 F 
ATOM    102  C   UNL     1      -8.460  -6.484   4.706  1.00  0.00     0.059 A 
ATOM    103  C   UNL     1      -8.872  -4.917   2.899  1.00  0.00     0.059 A 
ATOM    104  F   UNL     1      -7.066  -3.903   1.804  1.00  0.00    -0.206 F 
ATOM    105  C   UNL     1      -9.343  -5.797   3.871  1.00  0.00     0.060 A 
BRANCH 105 106
ATOM    106  S   UNL     1     -11.118  -6.051   4.089  1.00  0.00     0.124 S 
ATOM    107  O   UNL     1     -11.289  -7.402   3.566  1.00  0.00    -0.237 OA
ATOM    108  O   UNL     1     -11.278  -5.906   5.533  1.00  0.00    -0.237 OA
ATOM    109  O   UNL     1     -11.716  -4.987   3.288  1.00  0.00    -0.744 OA
ENDBRANCH 105 106
ENDBRANCH  73  98
ENDBRANCH  47  48
ENDBRANCH  40  42
ENDBRANCH  39  40
ENDBRANCH  38  39
ENDBRANCH  37  38
ENDBRANCH  36  37
ENDBRANCH  35  36
ENDBRANCH   1  35
TORSDOF 25
