REMARK SMILES Cc1ccc(-c2cnnc(-n3nc(C)c4c3NC(=O)C[C@@H]4c3ccc(C(=O)OCCOCCOCCOC(=O)c4ccc(-c5c6nc(c(-c7c(F)cc(S(=O)(=O)[O-])cc7F)c7ccc([nH]7)c(-c7c(F)cc(S(=O)(=O)[O-])cc7F)c7nc(c(-c8c(F)cc(S(=O)(=O)[O-])cc8F)c8ccc5[nH]8)C=C7)C=C6)cc4)cc3)n2)cc1
REMARK SMILES IDX 32 1 31 2 30 3 29 4 28 5 26 6 27 7 25 8 22 9 23 10 107 11
REMARK SMILES IDX 24 12 106 13 21 14 11 15 12 16 16 17 13 18 15 19 17 20 14 21
REMARK SMILES IDX 18 22 20 24 19 25 10 26 6 27 7 28 108 29 8 30 9 31 5 32 1 33
REMARK SMILES IDX 2 34 3 35 110 36 4 37 109 38 33 39 34 40 35 41 36 42 37 43
REMARK SMILES IDX 38 44 39 45 40 46 41 47 105 48 42 49 104 50 43 51 44 52
REMARK SMILES IDX 45 53 98 54 46 55 103 56 97 57 99 58 47 59 102 60 96 61
REMARK SMILES IDX 95 62 48 64 82 65 61 66 81 67 62 68 65 69 80 70 100 71 63 72
REMARK SMILES IDX 64 73 79 75 101 76 66 77 49 78 50 79 59 80 51 81 52 82 58 83
REMARK SMILES IDX 60 84 53 85 54 86 55 87 56 88 57 89 83 90 84 91 93 92 85 93
REMARK SMILES IDX 86 94 92 95 94 96 87 97 88 98 89 99 90 100 91 101 67 102
REMARK SMILES IDX 68 103 77 104 69 105 70 106 76 107 78 108 71 109 72 110
REMARK SMILES IDX 73 111 74 112 75 113
REMARK H PARENT 17 23 99 63 65 74
REMARK Flexibility Score: inf
ROOT
ATOM      1  C   UNL     1     -11.791   7.832 -10.289  1.00  0.00     0.188 C 
ENDROOT
BRANCH   1   2
ATOM      2  O   UNL     1     -12.861   7.507  -9.379  1.00  0.00    -0.376 OA
BRANCH   2   3
ATOM      3  C   UNL     1     -12.911   7.942  -8.011  1.00  0.00     0.202 C 
BRANCH   3   4
ATOM      4  C   UNL     1     -13.038   6.860  -6.834  1.00  0.00     0.261 C 
BRANCH   4   5
ATOM      5  O   UNL     1     -11.887   5.960  -6.494  1.00  0.00    -0.460 OA
BRANCH   5   6
ATOM      6  C   UNL     1     -10.986   6.079  -5.472  1.00  0.00     0.338 C 
ATOM      7  O   UNL     1     -11.093   6.914  -4.580  1.00  0.00    -0.246 OA
BRANCH   6   8
ATOM      8  C   UNL     1      -9.723   5.148  -5.547  1.00  0.00     0.060 A 
ATOM      9  C   UNL     1      -7.541   3.255  -5.499  1.00  0.00    -0.040 A 
ATOM     10  C   UNL     1      -8.469   3.175  -6.485  1.00  0.00     0.005 A 
ATOM     11  C   UNL     1      -7.540   4.440  -4.718  1.00  0.00     0.005 A 
ATOM     12  C   UNL     1      -9.507   4.091  -6.438  1.00  0.00     0.016 A 
ATOM     13  C   UNL     1      -8.630   5.355  -4.726  1.00  0.00     0.016 A 
BRANCH   9  14
ATOM     14  C   UNL     1      -6.869   1.934  -5.205  1.00  0.00     0.064 C 
ATOM     15  N   UNL     1      -5.729   1.998  -1.810  1.00  0.00    -0.180 N 
ATOM     16  N   UNL     1      -7.041   2.235  -1.543  1.00  0.00    -0.168 NA
ATOM     17  C   UNL     1      -5.468   2.129  -3.159  1.00  0.00     0.143 A 
ATOM     18  C   UNL     1      -7.651   2.031  -2.709  1.00  0.00     0.066 A 
ATOM     19  C   UNL     1      -6.691   1.960  -3.752  1.00  0.00     0.026 A 
ATOM     20  N   UNL     1      -4.328   2.320  -3.921  1.00  0.00    -0.310 N 
ATOM     21  C   UNL     1      -9.135   2.053  -2.770  1.00  0.00     0.069 C 
ATOM     22  C   UNL     1      -4.401   2.252  -5.359  1.00  0.00     0.226 C 
ATOM     23  H   UNL     1      -3.466   2.502  -3.481  1.00  0.00     0.171 HD
ATOM     24  C   UNL     1      -5.606   1.602  -5.976  1.00  0.00     0.113 C 
ATOM     25  O   UNL     1      -3.398   2.582  -5.970  1.00  0.00    -0.275 OA
BRANCH  15  26
ATOM     26  C   UNL     1      -4.933   1.334  -0.857  1.00  0.00     0.272 A 
ATOM     27  C   UNL     1      -3.045   0.231  -0.289  1.00  0.00     0.095 A 
ATOM     28  C   UNL     1      -3.760  -0.455   0.679  1.00  0.00     0.164 A 
ATOM     29  N   UNL     1      -3.630   1.120  -1.121  1.00  0.00    -0.208 NA
ATOM     30  N   UNL     1      -5.052  -0.195   0.906  1.00  0.00    -0.153 NA
ATOM     31  N   UNL     1      -5.631   0.747   0.153  1.00  0.00    -0.109 NA
BRANCH  27  32
ATOM     32  C   UNL     1      -1.591   0.133  -0.355  1.00  0.00     0.002 A 
ATOM     33  C   UNL     1       2.694  -0.074   0.061  1.00  0.00     0.044 C 
ATOM     34  C   UNL     1       1.210   0.006  -0.122  1.00  0.00    -0.051 A 
ATOM     35  C   UNL     1       0.452  -1.167  -0.184  1.00  0.00     0.004 A 
ATOM     36  C   UNL     1       0.569   1.244  -0.224  1.00  0.00     0.004 A 
ATOM     37  C   UNL     1      -0.936  -1.105  -0.304  1.00  0.00     0.011 A 
ATOM     38  C   UNL     1      -0.817   1.304  -0.345  1.00  0.00     0.011 A 
ENDBRANCH  27  32
ENDBRANCH  15  26
ENDBRANCH   9  14
ENDBRANCH   6   8
ENDBRANCH   5   6
ENDBRANCH   4   5
ENDBRANCH   3   4
ENDBRANCH   2   3
ENDBRANCH   1   2
BRANCH   1  39
ATOM     39  C   UNL     1     -10.935   9.111 -10.182  1.00  0.00     0.188 C 
BRANCH  39  40
ATOM     40  O   UNL     1     -10.361   9.243  -8.889  1.00  0.00    -0.376 OA
BRANCH  40  41
ATOM     41  C   UNL     1      -9.453  10.318  -8.687  1.00  0.00     0.202 C 
BRANCH  41  42
ATOM     42  C   UNL     1      -8.039  10.086  -9.262  1.00  0.00     0.261 C 
BRANCH  42  43
ATOM     43  O   UNL     1      -7.269   9.132  -8.481  1.00  0.00    -0.460 OA
BRANCH  43  44
ATOM     44  C   UNL     1      -6.840   7.990  -9.120  1.00  0.00     0.338 C 
ATOM     45  O   UNL     1      -5.736   7.901  -9.628  1.00  0.00    -0.246 OA
BRANCH  44  46
ATOM     46  C   UNL     1      -7.826   6.869  -8.966  1.00  0.00     0.060 A 
ATOM     47  C   UNL     1      -7.881   5.679  -9.704  1.00  0.00     0.016 A 
ATOM     48  C   UNL     1      -8.860   7.079  -8.109  1.00  0.00     0.016 A 
ATOM     49  C   UNL     1      -9.031   4.790  -9.648  1.00  0.00     0.010 A 
ATOM     50  C   UNL     1     -10.022   6.328  -8.271  1.00  0.00     0.010 A 
ATOM     51  C   UNL     1     -10.193   5.106  -8.931  1.00  0.00    -0.014 A 
BRANCH  51  52
ATOM     52  C   UNL     1     -11.597   4.362  -8.861  1.00  0.00     0.031 A 
ATOM     53  C   UNL     1     -12.484   3.707  -7.642  1.00  0.00     0.074 A 
ATOM     54  C   UNL     1     -12.297   4.491 -10.003  1.00  0.00     0.049 A 
ATOM     55  N   UNL     1     -13.796   3.723  -7.620  1.00  0.00    -0.248 NA
ATOM     56  C   UNL     1     -12.049   2.983  -6.399  1.00  0.00     0.031 C 
ATOM     57  C   UNL     1     -13.735   4.438 -10.201  1.00  0.00     0.029 A 
ATOM     58  N   UNL     1     -11.763   4.372 -11.278  1.00  0.00    -0.354 N 
ATOM     59  C   UNL     1     -14.270   3.290  -6.396  1.00  0.00     0.074 A 
ATOM     60  C   UNL     1     -13.138   2.884  -5.636  1.00  0.00     0.031 C 
ATOM     61  C   UNL     1     -13.983   4.006 -11.440  1.00  0.00     0.029 A 
ATOM     62  C   UNL     1     -12.712   3.668 -12.041  1.00  0.00     0.049 A 
ATOM     63  H   UNL     1     -10.892   4.713 -11.588  1.00  0.00     0.167 HD
ATOM     64  C   UNL     1     -15.584   3.093  -6.116  1.00  0.00     0.037 A 
ATOM     65  C   UNL     1     -12.372   2.450 -12.549  1.00  0.00     0.037 A 
ATOM     66  C   UNL     1     -16.246   2.597  -7.303  1.00  0.00     0.049 A 
ATOM     67  C   UNL     1     -13.137   1.291 -11.939  1.00  0.00     0.074 A 
ATOM     68  C   UNL     1     -16.909   3.141  -8.382  1.00  0.00     0.029 A 
ATOM     69  N   UNL     1     -15.923   1.301  -7.668  1.00  0.00    -0.354 N 
ATOM     70  N   UNL     1     -14.172   1.402 -11.146  1.00  0.00    -0.248 NA
ATOM     71  C   UNL     1     -12.741  -0.105 -12.132  1.00  0.00     0.031 C 
ATOM     72  C   UNL     1     -16.750   2.223  -9.476  1.00  0.00     0.029 A 
ATOM     73  C   UNL     1     -16.042   1.114  -9.031  1.00  0.00     0.049 A 
ATOM     74  H   UNL     1     -15.644   0.600  -7.035  1.00  0.00     0.167 HD
ATOM     75  C   UNL     1     -14.491   0.167 -10.640  1.00  0.00     0.074 A 
ATOM     76  C   UNL     1     -13.601  -0.752 -11.328  1.00  0.00     0.031 C 
ATOM     77  C   UNL     1     -15.395  -0.047  -9.639  1.00  0.00     0.037 A 
BRANCH  64  78
ATOM     78  C   UNL     1     -16.183   3.243  -4.730  1.00  0.00     0.058 A 
ATOM     79  C   UNL     1     -17.550   2.989  -4.493  1.00  0.00     0.135 A 
ATOM     80  C   UNL     1     -15.496   3.838  -3.640  1.00  0.00     0.135 A 
ATOM     81  F   UNL     1     -18.323   2.457  -5.452  1.00  0.00    -0.206 F 
ATOM     82  C   UNL     1     -18.188   3.325  -3.288  1.00  0.00     0.059 A 
ATOM     83  C   UNL     1     -16.101   4.141  -2.418  1.00  0.00     0.059 A 
ATOM     84  F   UNL     1     -14.214   4.217  -3.736  1.00  0.00    -0.206 F 
ATOM     85  C   UNL     1     -17.458   3.917  -2.261  1.00  0.00     0.060 A 
BRANCH  85  86
ATOM     86  S   UNL     1     -18.297   4.464  -0.756  1.00  0.00     0.124 S 
ATOM     87  O   UNL     1     -19.075   5.598  -1.246  1.00  0.00    -0.237 OA
ATOM     88  O   UNL     1     -19.063   3.283  -0.375  1.00  0.00    -0.237 OA
ATOM     89  O   UNL     1     -17.197   4.806   0.142  1.00  0.00    -0.744 OA
ENDBRANCH  85  86
ENDBRANCH  64  78
BRANCH  65  90
ATOM     90  C   UNL     1     -10.971   2.478 -13.070  1.00  0.00     0.058 A 
ATOM     91  C   UNL     1     -10.723   3.413 -14.103  1.00  0.00     0.135 A 
ATOM     92  C   UNL     1      -9.869   2.046 -12.319  1.00  0.00     0.135 A 
ATOM     93  F   UNL     1     -11.743   3.873 -14.847  1.00  0.00    -0.206 F 
ATOM     94  C   UNL     1      -9.491   4.036 -14.253  1.00  0.00     0.059 A 
ATOM     95  C   UNL     1      -8.605   2.624 -12.490  1.00  0.00     0.059 A 
ATOM     96  F   UNL     1     -10.034   1.188 -11.300  1.00  0.00    -0.206 F 
ATOM     97  C   UNL     1      -8.455   3.675 -13.399  1.00  0.00     0.060 A 
BRANCH  97  98
ATOM     98  S   UNL     1      -7.004   4.755 -13.348  1.00  0.00     0.124 S 
ATOM     99  O   UNL     1      -6.527   4.694 -14.724  1.00  0.00    -0.237 OA
ATOM    100  O   UNL     1      -7.605   6.022 -12.937  1.00  0.00    -0.237 OA
ATOM    101  O   UNL     1      -6.152   4.114 -12.351  1.00  0.00    -0.744 OA
ENDBRANCH  97  98
ENDBRANCH  65  90
BRANCH  77 102
ATOM    102  C   UNL     1     -15.667  -1.437  -9.133  1.00  0.00     0.058 A 
ATOM    103  C   UNL     1     -16.184  -2.429  -9.981  1.00  0.00     0.135 A 
ATOM    104  C   UNL     1     -15.519  -1.784  -7.776  1.00  0.00     0.135 A 
ATOM    105  F   UNL     1     -16.335  -2.186 -11.293  1.00  0.00    -0.206 F 
ATOM    106  C   UNL     1     -16.552  -3.688  -9.507  1.00  0.00     0.059 A 
ATOM    107  C   UNL     1     -15.925  -3.015  -7.270  1.00  0.00     0.059 A 
ATOM    108  F   UNL     1     -14.960  -0.929  -6.904  1.00  0.00    -0.206 F 
ATOM    109  C   UNL     1     -16.431  -3.968  -8.146  1.00  0.00     0.060 A 
BRANCH 109 110
ATOM    110  S   UNL     1     -16.962  -5.570  -7.507  1.00  0.00     0.124 S 
ATOM    111  O   UNL     1     -18.038  -5.943  -8.419  1.00  0.00    -0.237 OA
ATOM    112  O   UNL     1     -15.732  -6.347  -7.627  1.00  0.00    -0.237 OA
ATOM    113  O   UNL     1     -17.382  -5.257  -6.145  1.00  0.00    -0.744 OA
ENDBRANCH 109 110
ENDBRANCH  77 102
ENDBRANCH  51  52
ENDBRANCH  44  46
ENDBRANCH  43  44
ENDBRANCH  42  43
ENDBRANCH  41  42
ENDBRANCH  40  41
ENDBRANCH  39  40
ENDBRANCH   1  39
TORSDOF 23
