REMARK SMILES N#Cc1cccnc1N1CC[NH+]([C@@H](C(=O)OCCOCCOCCOC(=O)c2ccc(-c3c4nc(c(-c5c(F)cc(S(=O)(=O)[O-])cc5F)c5ccc([nH]5)c(-c5c(F)cc(S(=O)(=O)[O-])cc5F)c5nc(c(-c6c(F)cc(S(=O)(=O)[O-])cc6F)c6ccc3[nH]6)C=C5)C=C4)cc2)c2c[nH]c3cc(CO)ccc23)CC1
REMARK SMILES IDX 20 1 19 2 18 3 17 4 16 5 14 6 15 7 13 8 12 9 9 10 10 11
REMARK SMILES IDX 106 12 11 13 105 14 8 16 3 17 4 18 5 19 7 20 6 21 2 22 1 23
REMARK SMILES IDX 94 24 95 25 104 26 96 27 97 28 103 29 98 31 102 32 99 33
REMARK SMILES IDX 100 34 101 35 21 37 22 38 23 39 24 40 25 41 26 42 27 43
REMARK SMILES IDX 28 44 29 45 93 46 30 47 92 48 31 49 32 50 33 51 86 52 34 53
REMARK SMILES IDX 91 54 85 55 87 56 35 57 90 58 84 59 83 60 36 62 70 63 49 64
REMARK SMILES IDX 69 65 50 66 53 67 68 68 88 69 51 70 52 71 67 73 89 74 54 75
REMARK SMILES IDX 37 76 38 77 47 78 39 79 40 80 46 81 48 82 41 83 42 84 43 85
REMARK SMILES IDX 44 86 45 87 71 88 72 89 81 90 73 91 74 92 80 93 82 94 75 95
REMARK SMILES IDX 76 96 77 97 78 98 79 99 55 100 56 101 65 102 57 103 58 104
REMARK SMILES IDX 64 105 66 106 59 107 60 108 61 109 62 110 63 111
REMARK H PARENT 12 15 96 30 101 36 87 61 53 72
REMARK Flexibility Score: inf
ROOT
ATOM      1  C   UNL     1      -2.942  -5.135   1.334  1.00  0.00     0.188 C 
ENDROOT
BRANCH   1   2
ATOM      2  O   UNL     1      -3.385  -4.861   2.647  1.00  0.00    -0.376 OA
BRANCH   2   3
ATOM      3  C   UNL     1      -2.493  -4.100   3.456  1.00  0.00     0.202 C 
BRANCH   3   4
ATOM      4  C   UNL     1      -1.008  -4.530   3.505  1.00  0.00     0.261 C 
BRANCH   4   5
ATOM      5  O   UNL     1      -0.296  -4.444   2.240  1.00  0.00    -0.459 OA
BRANCH   5   6
ATOM      6  C   UNL     1       0.160  -5.593   1.664  1.00  0.00     0.370 C 
ATOM      7  O   UNL     1       0.075  -6.688   2.217  1.00  0.00    -0.245 OA
BRANCH   6   8
ATOM      8  C   UNL     1       0.788  -5.402   0.245  1.00  0.00     0.328 C 
BRANCH   8   9
ATOM      9  N   UNL     1       1.954  -4.415   0.111  1.00  0.00    -0.316 N 
ATOM     10  N   UNL     1       1.767  -1.433   0.054  1.00  0.00    -0.344 N 
ATOM     11  C   UNL     1       1.324  -2.293  -1.040  1.00  0.00     0.179 C 
ATOM     12  C   UNL     1       1.765  -2.124   1.366  1.00  0.00     0.179 C 
ATOM     13  C   UNL     1       2.225  -3.530  -1.024  1.00  0.00     0.285 C 
ATOM     14  C   UNL     1       2.325  -3.603   1.296  1.00  0.00     0.285 C 
ATOM     15  H   UNL     1       2.495  -5.260  -0.072  1.00  0.00     0.349 HD
BRANCH  10  16
ATOM     16  C   UNL     1       1.234  -0.144  -0.005  1.00  0.00     0.146 A 
ATOM     17  C   UNL     1       2.017   0.986   0.229  1.00  0.00     0.095 A 
ATOM     18  C   UNL     1       1.426   2.261   0.208  1.00  0.00     0.025 A 
ATOM     19  C   UNL     1       0.086   2.399  -0.106  1.00  0.00     0.022 A 
ATOM     20  N   UNL     1      -0.062   0.011  -0.358  1.00  0.00    -0.238 NA
ATOM     21  C   UNL     1      -0.595   1.253  -0.426  1.00  0.00     0.113 A 
BRANCH  17  22
ATOM     22  C   UNL     1       3.433   0.885   0.389  1.00  0.00     0.103 C 
ATOM     23  N   UNL     1       4.589   0.874   0.501  1.00  0.00    -0.192 NA
ENDBRANCH  17  22
ENDBRANCH  10  16
ENDBRANCH   8   9
BRANCH   8  24
ATOM     24  C   UNL     1      -0.130  -6.009  -1.014  1.00  0.00     0.046 A 
ATOM     25  C   UNL     1       0.588  -6.705  -1.988  1.00  0.00     0.094 A 
ATOM     26  C   UNL     1      -0.994  -5.386  -2.011  1.00  0.00     0.009 A 
ATOM     27  N   UNL     1       1.174  -5.615  -2.679  1.00  0.00    -0.361 N 
ATOM     28  C   UNL     1       0.209  -4.488  -2.746  1.00  0.00     0.046 A 
ATOM     29  C   UNL     1      -2.561  -5.557  -2.933  1.00  0.00     0.011 A 
ATOM     30  H   UNL     1       2.083  -5.607  -3.058  1.00  0.00     0.166 HD
ATOM     31  C   UNL     1      -0.023  -3.381  -4.115  1.00  0.00     0.032 A 
ATOM     32  C   UNL     1      -2.838  -4.404  -4.579  1.00  0.00     0.007 A 
ATOM     33  C   UNL     1      -1.509  -3.316  -5.060  1.00  0.00    -0.021 A 
BRANCH  33  34
ATOM     34  C   UNL     1      -1.724  -2.253  -6.084  1.00  0.00     0.191 C 
BRANCH  34  35
ATOM     35  O   UNL     1      -2.297  -1.109  -5.465  1.00  0.00    -0.392 OA
ATOM     36  H   UNL     1      -3.148  -1.350  -5.065  1.00  0.00     0.211 HD
ENDBRANCH  34  35
ENDBRANCH  33  34
ENDBRANCH   8  24
ENDBRANCH   6   8
ENDBRANCH   5   6
ENDBRANCH   4   5
ENDBRANCH   3   4
ENDBRANCH   2   3
ENDBRANCH   1   2
BRANCH   1  37
ATOM     37  C   UNL     1      -2.528  -3.928   0.503  1.00  0.00     0.188 C 
BRANCH  37  38
ATOM     38  O   UNL     1      -1.925  -2.808   1.129  1.00  0.00    -0.376 OA
BRANCH  38  39
ATOM     39  C   UNL     1      -2.482  -1.523   0.882  1.00  0.00     0.202 C 
BRANCH  39  40
ATOM     40  C   UNL     1      -3.041  -1.234  -0.514  1.00  0.00     0.261 C 
BRANCH  40  41
ATOM     41  O   UNL     1      -2.689  -2.268  -1.434  1.00  0.00    -0.460 OA
BRANCH  41  42
ATOM     42  C   UNL     1      -1.782  -2.320  -2.417  1.00  0.00     0.338 C 
ATOM     43  O   UNL     1      -1.113  -1.388  -2.811  1.00  0.00    -0.246 OA
BRANCH  42  44
ATOM     44  C   UNL     1      -2.054  -3.751  -3.018  1.00  0.00     0.060 A 
ATOM     45  C   UNL     1      -1.211  -5.196  -4.169  1.00  0.00     0.016 A 
ATOM     46  C   UNL     1      -3.880  -3.908  -2.827  1.00  0.00     0.016 A 
ATOM     47  C   UNL     1      -2.180  -6.468  -4.872  1.00  0.00     0.010 A 
ATOM     48  C   UNL     1      -4.717  -5.224  -3.630  1.00  0.00     0.010 A 
ATOM     49  C   UNL     1      -3.870  -6.401  -4.620  1.00  0.00    -0.014 A 
BRANCH  49  50
ATOM     50  C   UNL     1      -4.549  -7.322  -5.509  1.00  0.00     0.031 A 
ATOM     51  C   UNL     1      -4.520  -7.059  -6.986  1.00  0.00     0.074 A 
ATOM     52  C   UNL     1      -4.906  -8.470  -4.929  1.00  0.00     0.049 A 
ATOM     53  N   UNL     1      -5.046  -7.758  -7.949  1.00  0.00    -0.248 NA
ATOM     54  C   UNL     1      -3.766  -5.886  -7.473  1.00  0.00     0.031 C 
ATOM     55  C   UNL     1      -4.700  -8.800  -3.512  1.00  0.00     0.029 A 
ATOM     56  N   UNL     1      -5.502  -9.571  -5.447  1.00  0.00    -0.354 N 
ATOM     57  C   UNL     1      -4.704  -7.100  -9.129  1.00  0.00     0.074 A 
ATOM     58  C   UNL     1      -3.909  -5.958  -8.786  1.00  0.00     0.031 C 
ATOM     59  C   UNL     1      -5.245  -9.997  -3.259  1.00  0.00     0.029 A 
ATOM     60  C   UNL     1      -5.872 -10.469  -4.480  1.00  0.00     0.049 A 
ATOM     61  H   UNL     1      -5.651  -9.711  -6.410  1.00  0.00     0.167 HD
ATOM     62  C   UNL     1      -5.056  -7.442 -10.385  1.00  0.00     0.037 A 
ATOM     63  C   UNL     1      -6.714 -11.505  -4.591  1.00  0.00     0.037 A 
ATOM     64  C   UNL     1      -5.866  -8.601 -10.626  1.00  0.00     0.049 A 
ATOM     65  C   UNL     1      -7.235 -11.773  -5.972  1.00  0.00     0.074 A 
ATOM     66  C   UNL     1      -6.378  -9.073 -11.815  1.00  0.00     0.029 A 
ATOM     67  N   UNL     1      -6.289  -9.464  -9.619  1.00  0.00    -0.354 N 
ATOM     68  N   UNL     1      -6.983 -11.111  -7.082  1.00  0.00    -0.248 NA
ATOM     69  C   UNL     1      -8.129 -12.916  -6.134  1.00  0.00     0.031 C 
ATOM     70  C   UNL     1      -7.179 -10.178 -11.511  1.00  0.00     0.029 A 
ATOM     71  C   UNL     1      -7.088 -10.449 -10.150  1.00  0.00     0.049 A 
ATOM     72  H   UNL     1      -6.052  -9.381  -8.668  1.00  0.00     0.167 HD
ATOM     73  C   UNL     1      -7.642 -11.792  -8.089  1.00  0.00     0.074 A 
ATOM     74  C   UNL     1      -8.314 -12.910  -7.447  1.00  0.00     0.031 C 
ATOM     75  C   UNL     1      -7.688 -11.541  -9.421  1.00  0.00     0.037 A 
BRANCH  62  76
ATOM     76  C   UNL     1      -4.681  -6.531 -11.521  1.00  0.00     0.058 A 
ATOM     77  C   UNL     1      -3.366  -6.402 -11.997  1.00  0.00     0.135 A 
ATOM     78  C   UNL     1      -5.681  -5.788 -12.170  1.00  0.00     0.135 A 
ATOM     79  F   UNL     1      -2.357  -7.042 -11.384  1.00  0.00    -0.206 F 
ATOM     80  C   UNL     1      -3.062  -5.591 -13.090  1.00  0.00     0.059 A 
ATOM     81  C   UNL     1      -5.405  -4.991 -13.277  1.00  0.00     0.059 A 
ATOM     82  F   UNL     1      -6.948  -5.838 -11.732  1.00  0.00    -0.206 F 
ATOM     83  C   UNL     1      -4.093  -4.904 -13.735  1.00  0.00     0.060 A 
BRANCH  83  84
ATOM     84  S   UNL     1      -3.701  -3.931 -15.206  1.00  0.00     0.124 S 
ATOM     85  O   UNL     1      -2.907  -2.844 -14.640  1.00  0.00    -0.237 OA
ATOM     86  O   UNL     1      -2.967  -4.892 -16.023  1.00  0.00    -0.237 OA
ATOM     87  O   UNL     1      -5.011  -3.546 -15.721  1.00  0.00    -0.744 OA
ENDBRANCH  83  84
ENDBRANCH  62  76
BRANCH  63  88
ATOM     88  C   UNL     1      -7.137 -12.255  -3.386  1.00  0.00     0.058 A 
ATOM     89  C   UNL     1      -6.822 -13.608  -3.223  1.00  0.00     0.135 A 
ATOM     90  C   UNL     1      -7.858 -11.623  -2.356  1.00  0.00     0.135 A 
ATOM     91  F   UNL     1      -6.110 -14.249  -4.163  1.00  0.00    -0.206 F 
ATOM     92  C   UNL     1      -7.254 -14.325  -2.113  1.00  0.00     0.059 A 
ATOM     93  C   UNL     1      -8.271 -12.308  -1.221  1.00  0.00     0.059 A 
ATOM     94  F   UNL     1      -8.153 -10.315  -2.441  1.00  0.00    -0.206 F 
ATOM     95  C   UNL     1      -7.989 -13.668  -1.123  1.00  0.00     0.060 A 
BRANCH  95  96
ATOM     96  S   UNL     1      -8.588 -14.625   0.283  1.00  0.00     0.124 S 
ATOM     97  O   UNL     1      -9.585 -15.479  -0.353  1.00  0.00    -0.237 OA
ATOM     98  O   UNL     1      -7.373 -15.292   0.739  1.00  0.00    -0.237 OA
ATOM     99  O   UNL     1      -9.116 -13.607   1.186  1.00  0.00    -0.744 OA
ENDBRANCH  95  96
ENDBRANCH  63  88
BRANCH  75 100
ATOM    100  C   UNL     1      -8.409 -12.544 -10.256  1.00  0.00     0.058 A 
ATOM    101  C   UNL     1      -9.807 -12.612 -10.275  1.00  0.00     0.135 A 
ATOM    102  C   UNL     1      -7.676 -13.359 -11.132  1.00  0.00     0.135 A 
ATOM    103  F   UNL     1     -10.536 -11.853  -9.441  1.00  0.00    -0.206 F 
ATOM    104  C   UNL     1     -10.462 -13.471 -11.140  1.00  0.00     0.059 A 
ATOM    105  C   UNL     1      -8.312 -14.192 -12.035  1.00  0.00     0.059 A 
ATOM    106  F   UNL     1      -6.334 -13.305 -11.146  1.00  0.00    -0.206 F 
ATOM    107  C   UNL     1      -9.705 -14.243 -12.027  1.00  0.00     0.060 A 
BRANCH 107 108
ATOM    108  S   UNL     1     -10.576 -15.282 -13.209  1.00  0.00     0.124 S 
ATOM    109  O   UNL     1     -11.113 -16.324 -12.341  1.00  0.00    -0.237 OA
ATOM    110  O   UNL     1     -11.555 -14.355 -13.770  1.00  0.00    -0.237 OA
ATOM    111  O   UNL     1      -9.525 -15.708 -14.128  1.00  0.00    -0.744 OA
ENDBRANCH 107 108
ENDBRANCH  75 100
ENDBRANCH  49  50
ENDBRANCH  42  44
ENDBRANCH  41  42
ENDBRANCH  40  41
ENDBRANCH  39  40
ENDBRANCH  38  39
ENDBRANCH  37  38
ENDBRANCH   1  37
TORSDOF 26
