REMARK SMILES C[C@H](NC(=O)NCCc1ccccc1F)C(=O)OCCOCCOCCOC(=O)c1ccc(-c2c3nc(c(-c4c(F)cc(S(=O)(=O)[O-])cc4F)c4ccc([nH]4)c(-c4c(F)cc(S(=O)(=O)[O-])cc4F)c4nc(c(-c5c(F)cc(S(=O)(=O)[O-])cc5F)c5ccc2[nH]5)C=C4)C=C3)cc1
REMARK SMILES IDX 22 1 21 2 20 3 19 4 18 5 16 6 17 7 2 8 1 9 3 10 4 11 5 13
REMARK SMILES IDX 6 14 7 16 8 17 9 18 10 19 14 20 11 21 13 22 15 23 12 24
REMARK SMILES IDX 23 25 24 26 25 27 26 28 27 29 28 30 29 31 30 32 31 33 95 34
REMARK SMILES IDX 32 35 94 36 33 37 34 38 35 39 88 40 36 41 93 42 87 43 89 44
REMARK SMILES IDX 37 45 92 46 86 47 85 48 38 50 72 51 51 52 71 53 52 54 55 55
REMARK SMILES IDX 70 56 90 57 53 58 54 59 69 61 91 62 56 63 39 64 40 65 49 66
REMARK SMILES IDX 41 67 42 68 48 69 50 70 43 71 44 72 45 73 46 74 47 75 73 76
REMARK SMILES IDX 74 77 83 78 75 79 76 80 82 81 84 82 77 83 78 84 79 85 80 86
REMARK SMILES IDX 81 87 57 88 58 89 67 90 59 91 60 92 66 93 68 94 61 95 62 96
REMARK SMILES IDX 63 97 64 98 65 99
REMARK H PARENT 3 12 6 15 89 49 55 60
REMARK Flexibility Score: inf
ROOT
ATOM      1  C   UNL     1      -2.268  -1.711   1.104  1.00  0.00     0.188 C 
ENDROOT
BRANCH   1   2
ATOM      2  O   UNL     1      -3.540  -1.212   1.509  1.00  0.00    -0.376 OA
BRANCH   2   3
ATOM      3  C   UNL     1      -3.905   0.121   1.184  1.00  0.00     0.202 C 
BRANCH   3   4
ATOM      4  C   UNL     1      -2.980   1.263   1.633  1.00  0.00     0.261 C 
BRANCH   4   5
ATOM      5  O   UNL     1      -1.585   1.050   1.356  1.00  0.00    -0.462 OA
BRANCH   5   6
ATOM      6  C   UNL     1      -0.748   0.939   2.424  1.00  0.00     0.328 C 
ATOM      7  O   UNL     1      -1.093   1.105   3.588  1.00  0.00    -0.250 OA
BRANCH   6   8
ATOM      8  C   UNL     1       0.685   0.489   2.027  1.00  0.00     0.190 C 
ATOM      9  C   UNL     1       1.766   1.045   2.945  1.00  0.00     0.043 C 
BRANCH   8  10
ATOM     10  N   UNL     1       1.109   0.453   0.623  1.00  0.00    -0.325 N 
ATOM     11  C   UNL     1       1.189   1.315  -0.390  1.00  0.00     0.315 C 
ATOM     12  H   UNL     1       1.414  -0.446   0.360  1.00  0.00     0.166 HD
ATOM     13  O   UNL     1       1.580   0.881  -1.476  1.00  0.00    -0.249 OA
ATOM     14  N   UNL     1       0.852   2.602  -0.310  1.00  0.00    -0.338 N 
ATOM     15  H   UNL     1       0.728   3.027  -1.190  1.00  0.00     0.165 HD
BRANCH  14  16
ATOM     16  C   UNL     1       0.631   3.502   0.798  1.00  0.00     0.122 C 
BRANCH  16  17
ATOM     17  C   UNL     1       1.950   4.032   1.364  1.00  0.00     0.060 C 
BRANCH  17  18
ATOM     18  C   UNL     1       2.383   5.331   0.737  1.00  0.00    -0.010 A 
ATOM     19  C   UNL     1       2.581   6.458   1.546  1.00  0.00     0.007 A 
ATOM     20  C   UNL     1       2.600   5.452  -0.639  1.00  0.00     0.126 A 
ATOM     21  C   UNL     1       2.951   7.678   0.979  1.00  0.00     0.000 A 
ATOM     22  C   UNL     1       2.963   6.666  -1.210  1.00  0.00     0.039 A 
ATOM     23  F   UNL     1       2.446   4.396  -1.450  1.00  0.00    -0.207 F 
ATOM     24  C   UNL     1       3.134   7.785  -0.399  1.00  0.00     0.003 A 
ENDBRANCH  17  18
ENDBRANCH  16  17
ENDBRANCH  14  16
ENDBRANCH   8  10
ENDBRANCH   6   8
ENDBRANCH   5   6
ENDBRANCH   4   5
ENDBRANCH   3   4
ENDBRANCH   2   3
ENDBRANCH   1   2
BRANCH   1  25
ATOM     25  C   UNL     1      -1.669  -1.280  -0.249  1.00  0.00     0.188 C 
BRANCH  25  26
ATOM     26  O   UNL     1      -2.584  -0.629  -1.106  1.00  0.00    -0.376 OA
BRANCH  26  27
ATOM     27  C   UNL     1      -2.859  -1.297  -2.322  1.00  0.00     0.202 C 
BRANCH  27  28
ATOM     28  C   UNL     1      -3.612  -2.627  -2.168  1.00  0.00     0.261 C 
BRANCH  28  29
ATOM     29  O   UNL     1      -3.033  -3.585  -1.256  1.00  0.00    -0.460 OA
BRANCH  29  30
ATOM     30  C   UNL     1      -1.894  -4.203  -1.643  1.00  0.00     0.338 C 
ATOM     31  O   UNL     1      -1.318  -4.053  -2.712  1.00  0.00    -0.246 OA
BRANCH  30  32
ATOM     32  C   UNL     1      -1.324  -4.935  -0.484  1.00  0.00     0.060 A 
ATOM     33  C   UNL     1      -0.039  -4.602  -0.033  1.00  0.00     0.016 A 
ATOM     34  C   UNL     1      -2.039  -5.953   0.152  1.00  0.00     0.016 A 
ATOM     35  C   UNL     1       0.547  -5.312   1.021  1.00  0.00     0.010 A 
ATOM     36  C   UNL     1      -1.443  -6.676   1.198  1.00  0.00     0.010 A 
ATOM     37  C   UNL     1      -0.132  -6.386   1.617  1.00  0.00    -0.014 A 
BRANCH  37  38
ATOM     38  C   UNL     1       0.593  -7.289   2.557  1.00  0.00     0.031 A 
ATOM     39  C   UNL     1       1.110  -8.613   2.047  1.00  0.00     0.074 A 
ATOM     40  C   UNL     1       0.845  -6.925   3.830  1.00  0.00     0.049 A 
ATOM     41  N   UNL     1       1.781  -9.542   2.678  1.00  0.00    -0.248 NA
ATOM     42  C   UNL     1       0.836  -8.929   0.635  1.00  0.00     0.031 C 
ATOM     43  C   UNL     1       0.434  -5.664   4.446  1.00  0.00     0.029 A 
ATOM     44  N   UNL     1       1.516  -7.582   4.835  1.00  0.00    -0.354 N 
ATOM     45  C   UNL     1       2.015 -10.546   1.744  1.00  0.00     0.074 A 
ATOM     46  C   UNL     1       1.380 -10.132   0.512  1.00  0.00     0.031 C 
ATOM     47  C   UNL     1       0.869  -5.636   5.718  1.00  0.00     0.029 A 
ATOM     48  C   UNL     1       1.564  -6.886   6.022  1.00  0.00     0.049 A 
ATOM     49  H   UNL     1       1.925  -8.470   4.716  1.00  0.00     0.167 HD
ATOM     50  C   UNL     1       2.710 -11.700   1.891  1.00  0.00     0.037 A 
ATOM     51  C   UNL     1       2.098  -7.220   7.216  1.00  0.00     0.037 A 
ATOM     52  C   UNL     1       3.351 -12.113   3.114  1.00  0.00     0.049 A 
ATOM     53  C   UNL     1       2.804  -8.545   7.372  1.00  0.00     0.074 A 
ATOM     54  C   UNL     1       4.093 -13.259   3.348  1.00  0.00     0.029 A 
ATOM     55  N   UNL     1       3.328 -11.405   4.305  1.00  0.00    -0.354 N 
ATOM     56  N   UNL     1       3.035  -9.471   6.471  1.00  0.00    -0.248 NA
ATOM     57  C   UNL     1       3.325  -8.870   8.709  1.00  0.00     0.031 C 
ATOM     58  C   UNL     1       4.471 -13.271   4.693  1.00  0.00     0.029 A 
ATOM     59  C   UNL     1       4.017 -12.104   5.284  1.00  0.00     0.049 A 
ATOM     60  H   UNL     1       2.888 -10.534   4.437  1.00  0.00     0.167 HD
ATOM     61  C   UNL     1       3.744 -10.474   7.127  1.00  0.00     0.074 A 
ATOM     62  C   UNL     1       3.929 -10.030   8.492  1.00  0.00     0.031 C 
ATOM     63  C   UNL     1       4.194 -11.660   6.644  1.00  0.00     0.037 A 
BRANCH  50  64
ATOM     64  C   UNL     1       2.829 -12.616   0.702  1.00  0.00     0.058 A 
ATOM     65  C   UNL     1       2.192 -13.867   0.700  1.00  0.00     0.135 A 
ATOM     66  C   UNL     1       3.663 -12.304  -0.383  1.00  0.00     0.135 A 
ATOM     67  F   UNL     1       1.377 -14.213   1.709  1.00  0.00    -0.206 F 
ATOM     68  C   UNL     1       2.406 -14.791  -0.317  1.00  0.00     0.059 A 
ATOM     69  C   UNL     1       3.871 -13.204  -1.426  1.00  0.00     0.059 A 
ATOM     70  F   UNL     1       4.278 -11.112  -0.443  1.00  0.00    -0.206 F 
ATOM     71  C   UNL     1       3.254 -14.453  -1.373  1.00  0.00     0.060 A 
BRANCH  71  72
ATOM     72  S   UNL     1       3.535 -15.674  -2.673  1.00  0.00     0.124 S 
ATOM     73  O   UNL     1       4.259 -16.717  -1.956  1.00  0.00    -0.237 OA
ATOM     74  O   UNL     1       2.172 -16.006  -3.078  1.00  0.00    -0.237 OA
ATOM     75  O   UNL     1       4.313 -14.938  -3.666  1.00  0.00    -0.744 OA
ENDBRANCH  71  72
ENDBRANCH  50  64
BRANCH  51  76
ATOM     76  C   UNL     1       1.991  -6.286   8.374  1.00  0.00     0.058 A 
ATOM     77  C   UNL     1       0.752  -6.002   8.970  1.00  0.00     0.135 A 
ATOM     78  C   UNL     1       3.130  -5.675   8.922  1.00  0.00     0.135 A 
ATOM     79  F   UNL     1      -0.370  -6.559   8.490  1.00  0.00    -0.206 F 
ATOM     80  C   UNL     1       0.643  -5.130  10.049  1.00  0.00     0.059 A 
ATOM     81  C   UNL     1       3.051  -4.824  10.022  1.00  0.00     0.059 A 
ATOM     82  F   UNL     1       4.342  -5.931   8.404  1.00  0.00    -0.206 F 
ATOM     83  C   UNL     1       1.799  -4.546  10.568  1.00  0.00     0.060 A 
BRANCH  83  84
ATOM     84  S   UNL     1       1.635  -3.424  11.974  1.00  0.00     0.124 S 
ATOM     85  O   UNL     1       0.956  -2.287  11.361  1.00  0.00    -0.237 OA
ATOM     86  O   UNL     1       0.837  -4.215  12.905  1.00  0.00    -0.237 OA
ATOM     87  O   UNL     1       3.016  -3.186  12.380  1.00  0.00    -0.744 OA
ENDBRANCH  83  84
ENDBRANCH  51  76
BRANCH  63  88
ATOM     88  C   UNL     1       4.942 -12.563   7.591  1.00  0.00     0.058 A 
ATOM     89  C   UNL     1       6.313 -12.813   7.413  1.00  0.00     0.135 A 
ATOM     90  C   UNL     1       4.294 -13.216   8.653  1.00  0.00     0.135 A 
ATOM     91  F   UNL     1       6.984 -12.228   6.409  1.00  0.00    -0.206 F 
ATOM     92  C   UNL     1       7.013 -13.676   8.252  1.00  0.00     0.059 A 
ATOM     93  C   UNL     1       4.981 -14.057   9.524  1.00  0.00     0.059 A 
ATOM     94  F   UNL     1       2.986 -13.011   8.872  1.00  0.00    -0.206 F 
ATOM     95  C   UNL     1       6.340 -14.288   9.309  1.00  0.00     0.060 A 
BRANCH  95  96
ATOM     96  S   UNL     1       7.277 -15.356  10.424  1.00  0.00     0.124 S 
ATOM     97  O   UNL     1       7.546 -16.512   9.577  1.00  0.00    -0.237 OA
ATOM     98  O   UNL     1       8.432 -14.524  10.749  1.00  0.00    -0.237 OA
ATOM     99  O   UNL     1       6.351 -15.588  11.529  1.00  0.00    -0.744 OA
ENDBRANCH  95  96
ENDBRANCH  63  88
ENDBRANCH  37  38
ENDBRANCH  30  32
ENDBRANCH  29  30
ENDBRANCH  28  29
ENDBRANCH  27  28
ENDBRANCH  26  27
ENDBRANCH  25  26
ENDBRANCH   1  25
TORSDOF 24
