REMARK SMILES CC(=O)NS(=O)(=O)c1ccc(-c2ccn(C(F)F)c(=O)c2)cc1C(=O)OCCOCCOCCOC(=O)c1ccc(-c2c3nc(c(-c4c(F)cc(S(=O)(=O)[O-])cc4F)c4ccc([nH]4)c(-c4c(F)cc(S(=O)(=O)[O-])cc4F)c4nc(c(-c5c(F)cc(S(=O)(=O)[O-])cc5F)c5ccc2[nH]5)C=C4)C=C3)cc1
REMARK SMILES IDX 31 1 30 2 29 3 28 4 27 5 26 6 24 7 25 8 23 9 8 10 9 11 10 12
REMARK SMILES IDX 22 13 11 14 5 15 6 16 7 17 4 18 1 19 2 20 3 21 12 23 13 24
REMARK SMILES IDX 21 25 14 26 19 27 15 28 20 29 16 30 17 31 18 32 32 33 33 34
REMARK SMILES IDX 34 35 35 36 36 37 37 38 38 39 39 40 103 41 40 42 102 43
REMARK SMILES IDX 41 44 42 45 43 46 96 47 44 48 101 49 95 50 97 51 45 52
REMARK SMILES IDX 100 53 94 54 93 55 46 57 80 58 59 59 79 60 60 61 63 62 78 63
REMARK SMILES IDX 98 64 61 65 62 66 77 68 99 69 64 70 47 71 48 72 57 73 49 74
REMARK SMILES IDX 50 75 56 76 58 77 51 78 52 79 53 80 54 81 55 82 81 83 82 84
REMARK SMILES IDX 91 85 83 86 84 87 90 88 92 89 85 90 86 91 87 92 88 93 89 94
REMARK SMILES IDX 65 95 66 96 75 97 67 98 68 99 74 100 76 101 69 102 70 103
REMARK SMILES IDX 71 104 72 105 73 106
REMARK H PARENT 4 22 97 56 63 67
REMARK Flexibility Score: inf
ROOT
ATOM      1  C   UNL     1       0.099   4.198   2.565  1.00  0.00     0.188 C 
ENDROOT
BRANCH   1   2
ATOM      2  C   UNL     1       0.904   4.992   3.618  1.00  0.00     0.188 C 
BRANCH   2   3
ATOM      3  O   UNL     1       1.085   6.350   3.278  1.00  0.00    -0.376 OA
BRANCH   3   4
ATOM      4  C   UNL     1       2.378   6.776   2.892  1.00  0.00     0.202 C 
BRANCH   4   5
ATOM      5  C   UNL     1       3.154   6.029   1.792  1.00  0.00     0.261 C 
BRANCH   5   6
ATOM      6  O   UNL     1       2.826   4.643   1.610  1.00  0.00    -0.460 OA
BRANCH   6   7
ATOM      7  C   UNL     1       3.672   3.732   2.113  1.00  0.00     0.339 C 
ATOM      8  O   UNL     1       4.666   3.972   2.777  1.00  0.00    -0.246 OA
BRANCH   7   9
ATOM      9  C   UNL     1       3.196   2.337   1.911  1.00  0.00     0.081 A 
ATOM     10  C   UNL     1       2.954   1.736   0.668  1.00  0.00     0.102 A 
ATOM     11  C   UNL     1       2.961   0.340   0.572  1.00  0.00     0.024 A 
ATOM     12  C   UNL     1       2.979  -0.449   1.719  1.00  0.00     0.010 A 
ATOM     13  C   UNL     1       3.210   1.529   3.071  1.00  0.00     0.025 A 
ATOM     14  C   UNL     1       3.057   0.140   2.984  1.00  0.00    -0.017 A 
BRANCH  10  15
ATOM     15  S   UNL     1       2.493   2.647  -0.776  1.00  0.00     0.264 S 
ATOM     16  O   UNL     1       3.705   2.948  -1.486  1.00  0.00    -0.201 OA
ATOM     17  O   UNL     1       1.528   3.671  -0.434  1.00  0.00    -0.201 OA
BRANCH  15  18
ATOM     18  N   UNL     1       1.636   1.566  -1.755  1.00  0.00    -0.249 N 
ATOM     19  C   UNL     1       0.023   0.233  -0.378  1.00  0.00     0.115 C 
ATOM     20  C   UNL     1       0.296   1.159  -1.534  1.00  0.00     0.230 C 
ATOM     21  O   UNL     1      -0.538   1.358  -2.406  1.00  0.00    -0.274 OA
ATOM     22  H   UNL     1       2.102   1.191  -2.537  1.00  0.00     0.183 HD
ENDBRANCH  15  18
ENDBRANCH  10  15
BRANCH  14  23
ATOM     23  C   UNL     1       3.075  -0.719   4.182  1.00  0.00    -0.011 A 
ATOM     24  C   UNL     1       2.048  -0.721   5.209  1.00  0.00     0.027 A 
ATOM     25  C   UNL     1       4.107  -1.571   4.294  1.00  0.00     0.080 A 
ATOM     26  C   UNL     1       2.142  -1.551   6.258  1.00  0.00     0.095 A 
ATOM     27  C   UNL     1       4.202  -2.527   5.425  1.00  0.00     0.255 A 
ATOM     28  N   UNL     1       3.203  -2.433   6.377  1.00  0.00    -0.258 N 
ATOM     29  O   UNL     1       5.131  -3.328   5.421  1.00  0.00    -0.269 OA
BRANCH  28  30
ATOM     30  C   UNL     1       3.311  -3.316   7.512  1.00  0.00     0.451 C 
ATOM     31  F   UNL     1       3.252  -4.612   7.111  1.00  0.00    -0.185 F 
ATOM     32  F   UNL     1       4.491  -3.133   8.150  1.00  0.00    -0.185 F 
ENDBRANCH  28  30
ENDBRANCH  14  23
ENDBRANCH   7   9
ENDBRANCH   6   7
ENDBRANCH   5   6
ENDBRANCH   4   5
ENDBRANCH   3   4
ENDBRANCH   2   3
ENDBRANCH   1   2
BRANCH   1  33
ATOM     33  O   UNL     1      -0.542   4.828   1.465  1.00  0.00    -0.376 OA
BRANCH  33  34
ATOM     34  C   UNL     1      -1.066   6.137   1.589  1.00  0.00     0.202 C 
BRANCH  34  35
ATOM     35  C   UNL     1      -2.193   6.381   2.601  1.00  0.00     0.261 C 
BRANCH  35  36
ATOM     36  O   UNL     1      -2.013   5.771   3.888  1.00  0.00    -0.460 OA
BRANCH  36  37
ATOM     37  C   UNL     1      -2.702   4.618   4.081  1.00  0.00     0.338 C 
ATOM     38  O   UNL     1      -3.452   4.063   3.297  1.00  0.00    -0.246 OA
BRANCH  37  39
ATOM     39  C   UNL     1      -2.267   3.998   5.349  1.00  0.00     0.060 A 
ATOM     40  C   UNL     1      -1.744   2.697   5.307  1.00  0.00     0.016 A 
ATOM     41  C   UNL     1      -2.407   4.666   6.566  1.00  0.00     0.016 A 
ATOM     42  C   UNL     1      -1.364   2.056   6.482  1.00  0.00     0.010 A 
ATOM     43  C   UNL     1      -2.060   4.007   7.750  1.00  0.00     0.010 A 
ATOM     44  C   UNL     1      -1.560   2.692   7.713  1.00  0.00    -0.014 A 
BRANCH  44  45
ATOM     45  C   UNL     1      -1.431   1.905   8.960  1.00  0.00     0.031 A 
ATOM     46  C   UNL     1      -2.676   1.312   9.559  1.00  0.00     0.074 A 
ATOM     47  C   UNL     1      -0.231   1.691   9.528  1.00  0.00     0.049 A 
ATOM     48  N   UNL     1      -2.822   0.640  10.669  1.00  0.00    -0.248 NA
ATOM     49  C   UNL     1      -3.922   1.501   8.798  1.00  0.00     0.031 C 
ATOM     50  C   UNL     1       1.050   2.168   9.007  1.00  0.00     0.029 A 
ATOM     51  N   UNL     1       0.101   1.026  10.682  1.00  0.00    -0.354 N 
ATOM     52  C   UNL     1      -4.176   0.335  10.749  1.00  0.00     0.074 A 
ATOM     53  C   UNL     1      -4.811   0.913   9.584  1.00  0.00     0.031 C 
ATOM     54  C   UNL     1       2.027   1.803   9.855  1.00  0.00     0.029 A 
ATOM     55  C   UNL     1       1.437   1.102  10.995  1.00  0.00     0.049 A 
ATOM     56  H   UNL     1      -0.556   0.542  11.232  1.00  0.00     0.167 HD
ATOM     57  C   UNL     1      -4.830  -0.364  11.705  1.00  0.00     0.037 A 
ATOM     58  C   UNL     1       2.097   0.685  12.094  1.00  0.00     0.037 A 
ATOM     59  C   UNL     1      -4.192  -0.925  12.867  1.00  0.00     0.049 A 
ATOM     60  C   UNL     1       1.335  -0.016  13.191  1.00  0.00     0.074 A 
ATOM     61  C   UNL     1      -4.762  -1.658  13.892  1.00  0.00     0.029 A 
ATOM     62  N   UNL     1      -2.843  -0.801  13.166  1.00  0.00    -0.354 N 
ATOM     63  N   UNL     1       0.058  -0.315  13.247  1.00  0.00    -0.248 NA
ATOM     64  C   UNL     1       2.102  -0.439  14.371  1.00  0.00     0.031 C 
ATOM     65  C   UNL     1      -3.768  -1.933  14.837  1.00  0.00     0.029 A 
ATOM     66  C   UNL     1      -2.566  -1.426  14.370  1.00  0.00     0.049 A 
ATOM     67  H   UNL     1      -2.180  -0.338  12.605  1.00  0.00     0.167 HD
ATOM     68  C   UNL     1      -0.125  -0.986  14.453  1.00  0.00     0.074 A 
ATOM     69  C   UNL     1       1.174  -1.058  15.089  1.00  0.00     0.031 C 
ATOM     70  C   UNL     1      -1.262  -1.500  14.984  1.00  0.00     0.037 A 
BRANCH  57  71
ATOM     71  C   UNL     1      -6.316  -0.531  11.552  1.00  0.00     0.058 A 
ATOM     72  C   UNL     1      -6.870  -1.363  10.566  1.00  0.00     0.135 A 
ATOM     73  C   UNL     1      -7.198   0.132  12.420  1.00  0.00     0.135 A 
ATOM     74  F   UNL     1      -6.073  -2.002   9.694  1.00  0.00    -0.206 F 
ATOM     75  C   UNL     1      -8.246  -1.512  10.430  1.00  0.00     0.059 A 
ATOM     76  C   UNL     1      -8.576  -0.024  12.322  1.00  0.00     0.059 A 
ATOM     77  F   UNL     1      -6.721   0.945  13.377  1.00  0.00    -0.206 F 
ATOM     78  C   UNL     1      -9.092  -0.838  11.315  1.00  0.00     0.060 A 
BRANCH  78  79
ATOM     79  S   UNL     1     -10.875  -1.047  11.129  1.00  0.00     0.124 S 
ATOM     80  O   UNL     1     -11.129  -0.295   9.904  1.00  0.00    -0.237 OA
ATOM     81  O   UNL     1     -11.008  -2.496  11.022  1.00  0.00    -0.237 OA
ATOM     82  O   UNL     1     -11.416  -0.459  12.350  1.00  0.00    -0.744 OA
ENDBRANCH  78  79
ENDBRANCH  57  71
BRANCH  58  83
ATOM     83  C   UNL     1       3.557   0.937  12.227  1.00  0.00     0.058 A 
ATOM     84  C   UNL     1       4.482  -0.116  12.196  1.00  0.00     0.135 A 
ATOM     85  C   UNL     1       4.055   2.239  12.399  1.00  0.00     0.135 A 
ATOM     86  F   UNL     1       4.052  -1.379  12.044  1.00  0.00    -0.206 F 
ATOM     87  C   UNL     1       5.847   0.107  12.346  1.00  0.00     0.059 A 
ATOM     88  C   UNL     1       5.417   2.491  12.524  1.00  0.00     0.059 A 
ATOM     89  F   UNL     1       3.213   3.283  12.426  1.00  0.00    -0.206 F 
ATOM     90  C   UNL     1       6.305   1.416  12.507  1.00  0.00     0.060 A 
BRANCH  90  91
ATOM     91  S   UNL     1       8.082   1.702  12.661  1.00  0.00     0.124 S 
ATOM     92  O   UNL     1       8.347   1.187  13.999  1.00  0.00    -0.237 OA
ATOM     93  O   UNL     1       8.614   0.913  11.554  1.00  0.00    -0.237 OA
ATOM     94  O   UNL     1       8.203   3.148  12.505  1.00  0.00    -0.744 OA
ENDBRANCH  90  91
ENDBRANCH  58  83
BRANCH  70  95
ATOM     95  C   UNL     1      -1.153  -2.234  16.294  1.00  0.00     0.058 A 
ATOM     96  C   UNL     1      -0.927  -1.562  17.506  1.00  0.00     0.135 A 
ATOM     97  C   UNL     1      -1.342  -3.625  16.343  1.00  0.00     0.135 A 
ATOM     98  F   UNL     1      -0.735  -0.234  17.516  1.00  0.00    -0.206 F 
ATOM     99  C   UNL     1      -0.868  -2.247  18.716  1.00  0.00     0.059 A 
ATOM    100  C   UNL     1      -1.318  -4.326  17.544  1.00  0.00     0.059 A 
ATOM    101  F   UNL     1      -1.575  -4.316  15.215  1.00  0.00    -0.206 F 
ATOM    102  C   UNL     1      -1.068  -3.629  18.725  1.00  0.00     0.060 A 
BRANCH 102 103
ATOM    103  S   UNL     1      -1.026  -4.500  20.306  1.00  0.00     0.124 S 
ATOM    104  O   UNL     1       0.400  -4.479  20.615  1.00  0.00    -0.237 OA
ATOM    105  O   UNL     1      -1.870  -3.659  21.148  1.00  0.00    -0.237 OA
ATOM    106  O   UNL     1      -1.579  -5.813  19.986  1.00  0.00    -0.744 OA
ENDBRANCH 102 103
ENDBRANCH  70  95
ENDBRANCH  44  45
ENDBRANCH  37  39
ENDBRANCH  36  37
ENDBRANCH  35  36
ENDBRANCH  34  35
ENDBRANCH  33  34
ENDBRANCH   1  33
TORSDOF 24
