REMARK SMILES O=C(OCCOCCOCCOC(=O)[C@H](c1c[nH]c2cc(F)ccc12)[NH+]1CC[NH+](Cc2cccc(Cl)c2)CC1)c1ccc(-c2c3nc(c(-c4c(F)cc(S(=O)(=O)[O-])cc4F)c4ccc([nH]4)c(-c4c(F)cc(S(=O)(=O)[O-])cc4F)c4nc(c(-c5c(F)cc(S(=O)(=O)[O-])cc5F)c5ccc2[nH]5)C=C4)C=C3)cc1
REMARK SMILES IDX 7 1 6 2 5 3 4 4 3 5 2 6 1 7 40 8 41 9 105 10 42 11 104 12
REMARK SMILES IDX 43 13 44 14 45 15 98 16 46 17 103 18 97 19 99 20 47 21
REMARK SMILES IDX 102 22 96 23 95 24 48 26 82 27 61 28 81 29 62 30 65 31 80 32
REMARK SMILES IDX 100 33 63 34 64 35 79 37 101 38 66 39 49 40 50 41 59 42
REMARK SMILES IDX 51 43 52 44 58 45 60 46 53 47 54 48 55 49 56 50 57 51 83 52
REMARK SMILES IDX 84 53 93 54 85 55 86 56 92 57 94 58 87 59 88 60 89 61 90 62
REMARK SMILES IDX 91 63 67 64 68 65 77 66 69 67 70 68 76 69 78 70 71 71 72 72
REMARK SMILES IDX 73 73 74 74 75 75 8 76 9 77 10 78 11 79 12 80 13 81 14 82
REMARK SMILES IDX 15 83 26 84 27 85 39 86 28 88 38 89 29 90 30 92 31 93 32 94
REMARK SMILES IDX 37 95 33 96 35 97 34 98 36 99 16 100 17 101 25 102 18 103
REMARK SMILES IDX 19 104 24 105 20 107 23 108 21 109 22 110
REMARK H PARENT 99 25 65 36 26 87 29 91 18 106
REMARK Flexibility Score: inf
ROOT
ATOM      1  C   UNL     1       1.455   2.362   0.262  1.00  0.00     0.188 C 
ENDROOT
BRANCH   1   2
ATOM      2  O   UNL     1       0.888   3.543  -0.301  1.00  0.00    -0.376 OA
BRANCH   2   3
ATOM      3  C   UNL     1       0.279   4.428   0.632  1.00  0.00     0.202 C 
BRANCH   3   4
ATOM      4  C   UNL     1      -1.121   4.006   1.112  1.00  0.00     0.261 C 
BRANCH   4   5
ATOM      5  O   UNL     1      -1.389   2.591   1.109  1.00  0.00    -0.460 OA
BRANCH   5   6
ATOM      6  C   UNL     1      -1.634   1.724   0.098  1.00  0.00     0.338 C 
ATOM      7  O   UNL     1      -1.723   0.529   0.388  1.00  0.00    -0.246 OA
BRANCH   6   8
ATOM      8  C   UNL     1      -1.792   2.094  -1.347  1.00  0.00     0.060 A 
ATOM      9  C   UNL     1      -1.532   3.346  -1.903  1.00  0.00     0.016 A 
ATOM     10  C   UNL     1      -2.228   1.074  -2.220  1.00  0.00     0.016 A 
ATOM     11  C   UNL     1      -1.704   3.594  -3.260  1.00  0.00     0.010 A 
ATOM     12  C   UNL     1      -2.440   1.319  -3.582  1.00  0.00     0.010 A 
ATOM     13  C   UNL     1      -2.208   2.598  -4.094  1.00  0.00    -0.014 A 
BRANCH  13  14
ATOM     14  C   UNL     1      -2.740   3.029  -5.400  1.00  0.00     0.031 A 
ATOM     15  C   UNL     1      -4.203   3.379  -5.455  1.00  0.00     0.074 A 
ATOM     16  C   UNL     1      -1.915   3.242  -6.441  1.00  0.00     0.049 A 
ATOM     17  N   UNL     1      -4.914   3.822  -6.454  1.00  0.00    -0.248 NA
ATOM     18  C   UNL     1      -4.967   3.215  -4.202  1.00  0.00     0.031 C 
ATOM     19  C   UNL     1      -0.472   2.997  -6.443  1.00  0.00     0.029 A 
ATOM     20  N   UNL     1      -2.168   3.736  -7.692  1.00  0.00    -0.354 N 
ATOM     21  C   UNL     1      -6.210   3.951  -5.965  1.00  0.00     0.074 A 
ATOM     22  C   UNL     1      -6.190   3.554  -4.577  1.00  0.00     0.031 C 
ATOM     23  C   UNL     1       0.034   3.349  -7.639  1.00  0.00     0.029 A 
ATOM     24  C   UNL     1      -1.050   3.828  -8.490  1.00  0.00     0.049 A 
ATOM     25  H   UNL     1      -3.067   4.001  -7.993  1.00  0.00     0.167 HD
ATOM     26  C   UNL     1      -7.318   4.350  -6.628  1.00  0.00     0.037 A 
ATOM     27  C   UNL     1      -0.946   4.246  -9.767  1.00  0.00     0.037 A 
ATOM     28  C   UNL     1      -7.304   4.731  -8.013  1.00  0.00     0.049 A 
ATOM     29  C   UNL     1      -2.203   4.668 -10.477  1.00  0.00     0.074 A 
ATOM     30  C   UNL     1      -8.362   5.099  -8.822  1.00  0.00     0.029 A 
ATOM     31  N   UNL     1      -6.158   4.786  -8.795  1.00  0.00    -0.354 N 
ATOM     32  N   UNL     1      -3.428   4.750 -10.014  1.00  0.00    -0.248 NA
ATOM     33  C   UNL     1      -2.063   5.036 -11.892  1.00  0.00     0.031 C 
ATOM     34  C   UNL     1      -7.862   5.327 -10.108  1.00  0.00     0.029 A 
ATOM     35  C   UNL     1      -6.485   5.162 -10.084  1.00  0.00     0.049 A 
ATOM     36  H   UNL     1      -5.247   4.586  -8.479  1.00  0.00     0.167 HD
ATOM     37  C   UNL     1      -4.206   5.168 -11.085  1.00  0.00     0.074 A 
ATOM     38  C   UNL     1      -3.305   5.374 -12.201  1.00  0.00     0.031 C 
ATOM     39  C   UNL     1      -5.547   5.345 -11.159  1.00  0.00     0.037 A 
BRANCH  26  40
ATOM     40  C   UNL     1      -8.626   4.303  -5.889  1.00  0.00     0.058 A 
ATOM     41  C   UNL     1      -8.943   5.204  -4.861  1.00  0.00     0.135 A 
ATOM     42  C   UNL     1      -9.575   3.318  -6.210  1.00  0.00     0.135 A 
ATOM     43  F   UNL     1      -8.059   6.145  -4.490  1.00  0.00    -0.206 F 
ATOM     44  C   UNL     1     -10.141   5.114  -4.158  1.00  0.00     0.059 A 
ATOM     45  C   UNL     1     -10.791   3.226  -5.540  1.00  0.00     0.059 A 
ATOM     46  F   UNL     1      -9.319   2.421  -7.175  1.00  0.00    -0.206 F 
ATOM     47  C   UNL     1     -11.059   4.120  -4.505  1.00  0.00     0.060 A 
BRANCH  47  48
ATOM     48  S   UNL     1     -12.606   4.010  -3.581  1.00  0.00     0.124 S 
ATOM     49  O   UNL     1     -12.141   3.501  -2.294  1.00  0.00    -0.237 OA
ATOM     50  O   UNL     1     -13.068   5.394  -3.584  1.00  0.00    -0.237 OA
ATOM     51  O   UNL     1     -13.409   3.082  -4.370  1.00  0.00    -0.744 OA
ENDBRANCH  47  48
ENDBRANCH  26  40
BRANCH  27  52
ATOM     52  C   UNL     1       0.346   4.258 -10.502  1.00  0.00     0.058 A 
ATOM     53  C   UNL     1       0.933   5.468 -10.915  1.00  0.00     0.135 A 
ATOM     54  C   UNL     1       0.980   3.066 -10.877  1.00  0.00     0.135 A 
ATOM     55  F   UNL     1       0.370   6.636 -10.571  1.00  0.00    -0.206 F 
ATOM     56  C   UNL     1       2.105   5.496 -11.667  1.00  0.00     0.059 A 
ATOM     57  C   UNL     1       2.154   3.067 -11.624  1.00  0.00     0.059 A 
ATOM     58  F   UNL     1       0.467   1.885 -10.499  1.00  0.00    -0.206 F 
ATOM     59  C   UNL     1       2.712   4.288 -12.013  1.00  0.00     0.060 A 
BRANCH  59  60
ATOM     60  S   UNL     1       4.334   4.326 -12.819  1.00  0.00     0.124 S 
ATOM     61  O   UNL     1       3.969   4.600 -14.203  1.00  0.00    -0.237 OA
ATOM     62  O   UNL     1       5.010   5.409 -12.112  1.00  0.00    -0.237 OA
ATOM     63  O   UNL     1       4.860   2.990 -12.552  1.00  0.00    -0.744 OA
ENDBRANCH  59  60
ENDBRANCH  27  52
BRANCH  39  64
ATOM     64  C   UNL     1      -6.092   5.781 -12.485  1.00  0.00     0.058 A 
ATOM     65  C   UNL     1      -6.147   4.903 -13.578  1.00  0.00     0.135 A 
ATOM     66  C   UNL     1      -6.596   7.080 -12.647  1.00  0.00     0.135 A 
ATOM     67  F   UNL     1      -5.660   3.657 -13.471  1.00  0.00    -0.206 F 
ATOM     68  C   UNL     1      -6.667   5.308 -14.800  1.00  0.00     0.059 A 
ATOM     69  C   UNL     1      -7.150   7.494 -13.850  1.00  0.00     0.059 A 
ATOM     70  F   UNL     1      -6.566   7.951 -11.626  1.00  0.00    -0.206 F 
ATOM     71  C   UNL     1      -7.171   6.604 -14.924  1.00  0.00     0.060 A 
BRANCH  71  72
ATOM     72  S   UNL     1      -7.884   7.102 -16.502  1.00  0.00     0.124 S 
ATOM     73  O   UNL     1      -6.691   7.252 -17.329  1.00  0.00    -0.237 OA
ATOM     74  O   UNL     1      -8.743   5.967 -16.826  1.00  0.00    -0.237 OA
ATOM     75  O   UNL     1      -8.587   8.341 -16.181  1.00  0.00    -0.744 OA
ENDBRANCH  71  72
ENDBRANCH  39  64
ENDBRANCH  13  14
ENDBRANCH   6   8
ENDBRANCH   5   6
ENDBRANCH   4   5
ENDBRANCH   3   4
ENDBRANCH   2   3
ENDBRANCH   1   2
BRANCH   1  76
ATOM     76  C   UNL     1       2.860   2.510   0.841  1.00  0.00     0.188 C 
BRANCH  76  77
ATOM     77  O   UNL     1       3.179   3.844   1.217  1.00  0.00    -0.376 OA
BRANCH  77  78
ATOM     78  C   UNL     1       4.180   4.432   0.389  1.00  0.00     0.202 C 
BRANCH  78  79
ATOM     79  C   UNL     1       3.686   4.910  -0.978  1.00  0.00     0.261 C 
BRANCH  79  80
ATOM     80  O   UNL     1       3.085   3.937  -1.853  1.00  0.00    -0.459 OA
BRANCH  80  81
ATOM     81  C   UNL     1       3.834   2.897  -2.311  1.00  0.00     0.370 C 
ATOM     82  O   UNL     1       4.935   2.609  -1.837  1.00  0.00    -0.245 OA
BRANCH  81  83
ATOM     83  C   UNL     1       3.130   2.224  -3.514  1.00  0.00     0.328 C 
BRANCH  83  84
ATOM     84  N   UNL     1       3.312   2.991  -4.774  1.00  0.00    -0.310 N 
ATOM     85  C   UNL     1       2.709   4.328  -4.828  1.00  0.00     0.325 C 
ATOM     86  C   UNL     1       4.681   3.054  -5.295  1.00  0.00     0.325 C 
ATOM     87  H   UNL     1       2.766   2.395  -5.396  1.00  0.00     0.349 HD
ATOM     88  C   UNL     1       3.598   5.562  -4.471  1.00  0.00     0.324 C 
ATOM     89  C   UNL     1       5.588   4.123  -4.651  1.00  0.00     0.324 C 
ATOM     90  N   UNL     1       5.064   5.497  -4.636  1.00  0.00    -0.322 N 
ATOM     91  H   UNL     1       5.427   5.929  -3.787  1.00  0.00     0.348 HD
BRANCH  90  92
ATOM     92  C   UNL     1       5.602   6.336  -5.729  1.00  0.00     0.299 C 
BRANCH  92  93
ATOM     93  C   UNL     1       5.327   5.778  -7.102  1.00  0.00     0.008 A 
ATOM     94  C   UNL     1       4.049   5.919  -7.644  1.00  0.00     0.009 A 
ATOM     95  C   UNL     1       6.241   4.891  -7.699  1.00  0.00     0.030 A 
ATOM     96  C   UNL     1       3.619   5.019  -8.604  1.00  0.00     0.002 A 
ATOM     97  C   UNL     1       5.806   4.010  -8.682  1.00  0.00     0.041 A 
ATOM     98  C   UNL     1       4.482   4.039  -9.093  1.00  0.00     0.020 A 
ATOM     99  Cl  UNL     1       6.854   2.760  -9.227  1.00  0.00    -0.084 Cl
ENDBRANCH  92  93
ENDBRANCH  90  92
ENDBRANCH  83  84
BRANCH  83 100
ATOM    100  C   UNL     1       3.571   0.779  -3.795  1.00  0.00     0.046 A 
ATOM    101  C   UNL     1       4.823   0.229  -3.559  1.00  0.00     0.094 A 
ATOM    102  C   UNL     1       2.827  -0.240  -4.506  1.00  0.00     0.009 A 
ATOM    103  N   UNL     1       4.917  -0.963  -4.218  1.00  0.00    -0.361 N 
ATOM    104  C   UNL     1       3.721  -1.273  -4.811  1.00  0.00     0.049 A 
ATOM    105  C   UNL     1       1.502  -0.358  -4.989  1.00  0.00     0.014 A 
ATOM    106  H   UNL     1       5.728  -1.520  -4.260  1.00  0.00     0.166 HD
ATOM    107  C   UNL     1       3.385  -2.370  -5.612  1.00  0.00     0.065 A 
ATOM    108  C   UNL     1       1.137  -1.474  -5.760  1.00  0.00     0.040 A 
ATOM    109  C   UNL     1       2.076  -2.446  -6.074  1.00  0.00     0.125 A 
ATOM    110  F   UNL     1       1.718  -3.489  -6.837  1.00  0.00    -0.207 F 
ENDBRANCH  83 100
ENDBRANCH  81  83
ENDBRANCH  80  81
ENDBRANCH  79  80
ENDBRANCH  78  79
ENDBRANCH  77  78
ENDBRANCH  76  77
ENDBRANCH   1  76
TORSDOF 24
