REMARK SMILES O=C(OCCOCCOCCOC(=O)[C@@H]1O[C@H](OC(=O)c2cccnc2)[C@@H](O)[C@H](O)[C@H]1O)c1ccc(-c2c3nc(c(-c4c(F)cc(S(=O)(=O)[O-])cc4F)c4ccc([nH]4)c(-c4c(F)cc(S(=O)(=O)[O-])cc4F)c4nc(c(-c5c(F)cc(S(=O)(=O)[O-])cc5F)c5ccc2[nH]5)C=C4)C=C3)cc1
REMARK SMILES IDX 7 1 6 2 5 3 4 4 3 5 2 6 1 7 33 8 34 9 98 10 35 11 97 12
REMARK SMILES IDX 36 13 37 14 38 15 91 16 39 17 96 18 90 19 92 20 40 21 95 22
REMARK SMILES IDX 89 23 88 24 41 26 75 27 54 28 74 29 55 30 58 31 73 32 93 33
REMARK SMILES IDX 56 34 57 35 72 37 94 38 59 39 42 40 43 41 52 42 44 43 45 44
REMARK SMILES IDX 51 45 53 46 46 47 47 48 48 49 49 50 50 51 76 52 77 53 86 54
REMARK SMILES IDX 78 55 79 56 85 57 87 58 80 59 81 60 82 61 83 62 84 63 60 64
REMARK SMILES IDX 61 65 70 66 62 67 63 68 69 69 71 70 64 71 65 72 66 73 67 74
REMARK SMILES IDX 68 75 8 76 9 77 10 78 11 79 12 80 13 81 14 82 15 83 16 84
REMARK SMILES IDX 31 85 17 86 29 87 27 88 32 89 18 91 19 92 20 93 21 94 22 95
REMARK SMILES IDX 26 96 23 97 25 98 24 99 30 100 28 102
REMARK H PARENT 92 25 58 36 32 90 30 101 28 103
REMARK Flexibility Score: inf
ROOT
ATOM      1  C   UNL     1       6.452  -1.304  -6.420  1.00  0.00     0.188 C 
ENDROOT
BRANCH   1   2
ATOM      2  O   UNL     1       5.819  -0.088  -6.837  1.00  0.00    -0.376 OA
BRANCH   2   3
ATOM      3  C   UNL     1       6.641   0.734  -7.670  1.00  0.00     0.202 C 
BRANCH   3   4
ATOM      4  C   UNL     1       7.777   1.486  -6.958  1.00  0.00     0.261 C 
BRANCH   4   5
ATOM      5  O   UNL     1       8.263   0.828  -5.781  1.00  0.00    -0.460 OA
BRANCH   5   6
ATOM      6  C   UNL     1       7.820   0.936  -4.504  1.00  0.00     0.338 C 
ATOM      7  O   UNL     1       8.453   0.339  -3.633  1.00  0.00    -0.246 OA
BRANCH   6   8
ATOM      8  C   UNL     1       6.601   1.707  -4.078  1.00  0.00     0.060 A 
ATOM      9  C   UNL     1       5.635   2.273  -4.918  1.00  0.00     0.016 A 
ATOM     10  C   UNL     1       6.405   1.842  -2.693  1.00  0.00     0.016 A 
ATOM     11  C   UNL     1       4.559   3.011  -4.427  1.00  0.00     0.010 A 
ATOM     12  C   UNL     1       5.318   2.558  -2.188  1.00  0.00     0.010 A 
ATOM     13  C   UNL     1       4.415   3.186  -3.061  1.00  0.00    -0.014 A 
BRANCH  13  14
ATOM     14  C   UNL     1       3.495   4.210  -2.534  1.00  0.00     0.031 A 
ATOM     15  C   UNL     1       4.119   5.466  -2.010  1.00  0.00     0.074 A 
ATOM     16  C   UNL     1       2.161   4.048  -2.525  1.00  0.00     0.049 A 
ATOM     17  N   UNL     1       3.579   6.432  -1.325  1.00  0.00    -0.248 NA
ATOM     18  C   UNL     1       5.540   5.675  -2.344  1.00  0.00     0.031 C 
ATOM     19  C   UNL     1       1.412   3.006  -3.221  1.00  0.00     0.029 A 
ATOM     20  N   UNL     1       1.198   4.728  -1.825  1.00  0.00    -0.354 N 
ATOM     21  C   UNL     1       4.581   7.381  -1.181  1.00  0.00     0.074 A 
ATOM     22  C   UNL     1       5.784   6.839  -1.768  1.00  0.00     0.031 C 
ATOM     23  C   UNL     1       0.145   3.001  -2.772  1.00  0.00     0.029 A 
ATOM     24  C   UNL     1       0.007   4.041  -1.768  1.00  0.00     0.049 A 
ATOM     25  H   UNL     1       1.343   5.609  -1.410  1.00  0.00     0.167 HD
ATOM     26  C   UNL     1       4.481   8.615  -0.640  1.00  0.00     0.037 A 
ATOM     27  C   UNL     1      -1.045   4.208  -0.948  1.00  0.00     0.037 A 
ATOM     28  C   UNL     1       3.272   9.095  -0.033  1.00  0.00     0.049 A 
ATOM     29  C   UNL     1      -1.067   5.445  -0.100  1.00  0.00     0.074 A 
ATOM     30  C   UNL     1       3.023  10.317   0.558  1.00  0.00     0.029 A 
ATOM     31  N   UNL     1       2.109   8.342   0.085  1.00  0.00    -0.354 N 
ATOM     32  N   UNL     1      -0.130   6.355   0.031  1.00  0.00    -0.248 NA
ATOM     33  C   UNL     1      -2.302   5.731   0.635  1.00  0.00     0.031 C 
ATOM     34  C   UNL     1       1.732  10.276   1.096  1.00  0.00     0.029 A 
ATOM     35  C   UNL     1       1.151   9.055   0.778  1.00  0.00     0.049 A 
ATOM     36  H   UNL     1       1.986   7.434  -0.273  1.00  0.00     0.167 HD
ATOM     37  C   UNL     1      -0.699   7.376   0.777  1.00  0.00     0.074 A 
ATOM     38  C   UNL     1      -2.038   6.937   1.124  1.00  0.00     0.031 C 
ATOM     39  C   UNL     1      -0.180   8.588   1.091  1.00  0.00     0.037 A 
BRANCH  26  40
ATOM     40  C   UNL     1       5.721   9.461  -0.652  1.00  0.00     0.058 A 
ATOM     41  C   UNL     1       6.281   9.939  -1.851  1.00  0.00     0.135 A 
ATOM     42  C   UNL     1       6.409   9.723   0.541  1.00  0.00     0.135 A 
ATOM     43  F   UNL     1       5.680   9.692  -3.026  1.00  0.00    -0.206 F 
ATOM     44  C   UNL     1       7.510  10.590  -1.870  1.00  0.00     0.059 A 
ATOM     45  C   UNL     1       7.624  10.401   0.549  1.00  0.00     0.059 A 
ATOM     46  F   UNL     1       5.924   9.282   1.712  1.00  0.00    -0.206 F 
ATOM     47  C   UNL     1       8.180  10.804  -0.664  1.00  0.00     0.060 A 
BRANCH  47  48
ATOM     48  S   UNL     1       9.805  11.586  -0.709  1.00  0.00     0.124 S 
ATOM     49  O   UNL     1      10.626  10.516  -1.268  1.00  0.00    -0.237 OA
ATOM     50  O   UNL     1       9.577  12.731  -1.585  1.00  0.00    -0.237 OA
ATOM     51  O   UNL     1      10.065  11.912   0.689  1.00  0.00    -0.744 OA
ENDBRANCH  47  48
ENDBRANCH  26  40
BRANCH  27  52
ATOM     52  C   UNL     1      -2.131   3.197  -0.886  1.00  0.00     0.058 A 
ATOM     53  C   UNL     1      -3.353   3.387  -1.542  1.00  0.00     0.135 A 
ATOM     54  C   UNL     1      -1.966   2.017  -0.141  1.00  0.00     0.135 A 
ATOM     55  F   UNL     1      -3.549   4.489  -2.280  1.00  0.00    -0.206 F 
ATOM     56  C   UNL     1      -4.396   2.471  -1.420  1.00  0.00     0.059 A 
ATOM     57  C   UNL     1      -2.992   1.084  -0.007  1.00  0.00     0.059 A 
ATOM     58  F   UNL     1      -0.796   1.770   0.471  1.00  0.00    -0.206 F 
ATOM     59  C   UNL     1      -4.217   1.337  -0.626  1.00  0.00     0.060 A 
BRANCH  59  60
ATOM     60  S   UNL     1      -5.594   0.188  -0.388  1.00  0.00     0.124 S 
ATOM     61  O   UNL     1      -6.238   0.743   0.796  1.00  0.00    -0.237 OA
ATOM     62  O   UNL     1      -6.344   0.312  -1.633  1.00  0.00    -0.237 OA
ATOM     63  O   UNL     1      -4.922  -1.095  -0.200  1.00  0.00    -0.744 OA
ENDBRANCH  59  60
ENDBRANCH  27  52
BRANCH  39  64
ATOM     64  C   UNL     1      -1.086   9.567   1.773  1.00  0.00     0.058 A 
ATOM     65  C   UNL     1      -1.413   9.456   3.130  1.00  0.00     0.135 A 
ATOM     66  C   UNL     1      -1.529  10.700   1.069  1.00  0.00     0.135 A 
ATOM     67  F   UNL     1      -1.026   8.381   3.834  1.00  0.00    -0.206 F 
ATOM     68  C   UNL     1      -2.140  10.448   3.775  1.00  0.00     0.059 A 
ATOM     69  C   UNL     1      -2.229  11.717   1.702  1.00  0.00     0.059 A 
ATOM     70  F   UNL     1      -1.237  10.846  -0.233  1.00  0.00    -0.206 F 
ATOM     71  C   UNL     1      -2.526  11.583   3.057  1.00  0.00     0.060 A 
BRANCH  71  72
ATOM     72  S   UNL     1      -3.365  12.914   3.937  1.00  0.00     0.124 S 
ATOM     73  O   UNL     1      -4.683  12.332   4.163  1.00  0.00    -0.237 OA
ATOM     74  O   UNL     1      -2.529  13.075   5.123  1.00  0.00    -0.237 OA
ATOM     75  O   UNL     1      -3.322  14.026   2.992  1.00  0.00    -0.744 OA
ENDBRANCH  71  72
ENDBRANCH  39  64
ENDBRANCH  13  14
ENDBRANCH   6   8
ENDBRANCH   5   6
ENDBRANCH   4   5
ENDBRANCH   3   4
ENDBRANCH   2   3
ENDBRANCH   1   2
BRANCH   1  76
ATOM     76  C   UNL     1       5.510  -2.508  -6.419  1.00  0.00     0.188 C 
BRANCH  76  77
ATOM     77  O   UNL     1       4.994  -2.937  -7.678  1.00  0.00    -0.376 OA
BRANCH  77  78
ATOM     78  C   UNL     1       4.424  -1.948  -8.524  1.00  0.00     0.202 C 
BRANCH  78  79
ATOM     79  C   UNL     1       3.129  -1.239  -8.088  1.00  0.00     0.261 C 
BRANCH  79  80
ATOM     80  O   UNL     1       2.959  -1.048  -6.677  1.00  0.00    -0.461 OA
BRANCH  80  81
ATOM     81  C   UNL     1       2.287  -2.058  -6.060  1.00  0.00     0.338 C 
ATOM     82  O   UNL     1       1.848  -3.044  -6.651  1.00  0.00    -0.249 OA
BRANCH  81  83
ATOM     83  C   UNL     1       2.106  -1.877  -4.554  1.00  0.00     0.263 C 
ATOM     84  O   UNL     1       0.685  -1.842  -4.433  1.00  0.00    -0.322 OA
ATOM     85  C   UNL     1       2.761  -0.671  -3.877  1.00  0.00     0.186 C 
ATOM     86  C   UNL     1       0.174  -1.739  -3.114  1.00  0.00     0.343 C 
ATOM     87  C   UNL     1       2.272  -0.605  -2.417  1.00  0.00     0.181 C 
ATOM     88  C   UNL     1       0.749  -0.545  -2.335  1.00  0.00     0.214 C 
BRANCH  85  89
ATOM     89  O   UNL     1       4.188  -0.799  -3.825  1.00  0.00    -0.387 OA
ATOM     90  H   UNL     1       4.423  -1.589  -3.313  1.00  0.00     0.211 HD
ENDBRANCH  85  89
BRANCH  86  91
ATOM     91  O   UNL     1      -1.258  -1.704  -3.169  1.00  0.00    -0.429 OA
BRANCH  91  92
ATOM     92  C   UNL     1      -1.811  -0.824  -4.036  1.00  0.00     0.342 C 
ATOM     93  O   UNL     1      -1.245   0.072  -4.647  1.00  0.00    -0.246 OA
BRANCH  92  94
ATOM     94  C   UNL     1      -3.218  -1.194  -4.236  1.00  0.00     0.078 A 
ATOM     95  C   UNL     1      -3.983  -1.767  -3.226  1.00  0.00     0.019 A 
ATOM     96  C   UNL     1      -3.812  -0.979  -5.473  1.00  0.00     0.126 A 
ATOM     97  C   UNL     1      -5.314  -2.074  -3.477  1.00  0.00     0.021 A 
ATOM     98  N   UNL     1      -5.100  -1.298  -5.759  1.00  0.00    -0.264 NA
ATOM     99  C   UNL     1      -5.826  -1.813  -4.738  1.00  0.00     0.111 A 
ENDBRANCH  92  94
ENDBRANCH  91  92
ENDBRANCH  86  91
BRANCH  87 100
ATOM    100  O   UNL     1       2.913   0.484  -1.737  1.00  0.00    -0.387 OA
ATOM    101  H   UNL     1       2.677   1.319  -2.171  1.00  0.00     0.211 HD
ENDBRANCH  87 100
BRANCH  88 102
ATOM    102  O   UNL     1       0.337  -0.583  -0.966  1.00  0.00    -0.384 OA
ATOM    103  H   UNL     1       0.655  -1.402  -0.555  1.00  0.00     0.211 HD
ENDBRANCH  88 102
ENDBRANCH  81  83
ENDBRANCH  80  81
ENDBRANCH  79  80
ENDBRANCH  78  79
ENDBRANCH  77  78
ENDBRANCH  76  77
ENDBRANCH   1  76
TORSDOF 26
