REMARK SMILES C/C(=N/OCc1ccccc1Nc1c(Cl)cccc1Cl)C(=O)OCCOCCOCCOC(=O)c1ccc(-c2c3nc(c(-c4c(F)cc(S(=O)(=O)[O-])cc4F)c4ccc([nH]4)c(-c4c(F)cc(S(=O)(=O)[O-])cc4F)c4nc(c(-c5c(F)cc(S(=O)(=O)[O-])cc5F)c5ccc2[nH]5)C=C4)C=C3)cc1
REMARK SMILES IDX 27 1 26 2 25 3 24 4 23 5 21 6 22 7 2 8 1 9 3 10 4 11 5 12
REMARK SMILES IDX 6 13 7 14 11 15 8 16 10 17 9 18 12 19 13 21 14 22 19 23
REMARK SMILES IDX 15 24 16 25 18 26 20 27 17 28 28 29 29 30 30 31 31 32 32 33
REMARK SMILES IDX 33 34 34 35 35 36 36 37 100 38 37 39 99 40 38 41 39 42 40 43
REMARK SMILES IDX 93 44 41 45 98 46 92 47 94 48 42 49 97 50 91 51 90 52 43 54
REMARK SMILES IDX 77 55 56 56 76 57 57 58 60 59 75 60 95 61 58 62 59 63 74 65
REMARK SMILES IDX 96 66 61 67 44 68 45 69 54 70 46 71 47 72 53 73 55 74 48 75
REMARK SMILES IDX 49 76 50 77 51 78 52 79 78 80 79 81 88 82 80 83 81 84 87 85
REMARK SMILES IDX 89 86 82 87 83 88 84 89 85 90 86 91 62 92 63 93 72 94 64 95
REMARK SMILES IDX 65 96 71 97 73 98 66 99 67 100 68 101 69 102 70 103
REMARK H PARENT 12 20 94 53 60 64
REMARK Flexibility Score: inf
ROOT
ATOM      1  C   UNL     1       0.585   3.591  -1.248  1.00  0.00     0.188 C 
ENDROOT
BRANCH   1   2
ATOM      2  O   UNL     1       1.270   4.471  -2.138  1.00  0.00    -0.376 OA
BRANCH   2   3
ATOM      3  C   UNL     1       1.394   4.097  -3.509  1.00  0.00     0.202 C 
BRANCH   3   4
ATOM      4  C   UNL     1       2.082   2.757  -3.775  1.00  0.00     0.261 C 
BRANCH   4   5
ATOM      5  O   UNL     1       1.280   1.693  -3.248  1.00  0.00    -0.459 OA
BRANCH   5   6
ATOM      6  C   UNL     1       1.940   0.603  -2.819  1.00  0.00     0.355 C 
ATOM      7  O   UNL     1       3.099   0.299  -3.027  1.00  0.00    -0.245 OA
BRANCH   6   8
ATOM      8  C   UNL     1       1.079  -0.117  -1.792  1.00  0.00     0.161 C 
ATOM      9  C   UNL     1       1.605  -0.125  -0.385  1.00  0.00     0.079 C 
ATOM     10  N   UNL     1      -0.076  -0.665  -2.034  1.00  0.00    -0.084 NA
BRANCH  10  11
ATOM     11  O   UNL     1      -0.387  -0.637  -3.404  1.00  0.00    -0.390 OA
BRANCH  11  12
ATOM     12  C   UNL     1      -1.290  -1.718  -3.707  1.00  0.00     0.302 C 
BRANCH  12  13
ATOM     13  C   UNL     1      -0.517  -2.946  -4.148  1.00  0.00     0.016 A 
ATOM     14  C   UNL     1       0.532  -3.407  -3.322  1.00  0.00     0.009 A 
ATOM     15  C   UNL     1      -0.828  -3.677  -5.312  1.00  0.00     0.045 A 
ATOM     16  C   UNL     1       1.307  -4.511  -3.659  1.00  0.00     0.001 A 
ATOM     17  C   UNL     1      -0.030  -4.793  -5.634  1.00  0.00     0.026 A 
ATOM     18  C   UNL     1       1.032  -5.201  -4.826  1.00  0.00     0.002 A 
BRANCH  15  19
ATOM     19  N   UNL     1      -1.941  -3.342  -6.119  1.00  0.00    -0.353 N 
ATOM     20  H   UNL     1      -2.295  -2.431  -5.999  1.00  0.00     0.167 HD
BRANCH  19  21
ATOM     21  C   UNL     1      -2.615  -4.141  -7.079  1.00  0.00     0.076 A 
ATOM     22  C   UNL     1      -2.748  -3.666  -8.400  1.00  0.00     0.066 A 
ATOM     23  C   UNL     1      -3.073  -5.449  -6.815  1.00  0.00     0.066 A 
ATOM     24  Cl  UNL     1      -2.252  -2.058  -8.817  1.00  0.00    -0.082 Cl
ATOM     25  C   UNL     1      -3.266  -4.471  -9.421  1.00  0.00     0.023 A 
ATOM     26  C   UNL     1      -3.586  -6.256  -7.840  1.00  0.00     0.023 A 
ATOM     27  Cl  UNL     1      -3.118  -6.114  -5.215  1.00  0.00    -0.082 Cl
ATOM     28  C   UNL     1      -3.671  -5.773  -9.143  1.00  0.00     0.003 A 
ENDBRANCH  19  21
ENDBRANCH  15  19
ENDBRANCH  12  13
ENDBRANCH  11  12
ENDBRANCH  10  11
ENDBRANCH   6   8
ENDBRANCH   5   6
ENDBRANCH   4   5
ENDBRANCH   3   4
ENDBRANCH   2   3
ENDBRANCH   1   2
BRANCH   1  29
ATOM     29  C   UNL     1      -0.796   3.045  -1.664  1.00  0.00     0.188 C 
BRANCH  29  30
ATOM     30  O   UNL     1      -1.395   3.777  -2.724  1.00  0.00    -0.376 OA
BRANCH  30  31
ATOM     31  C   UNL     1      -2.605   4.443  -2.393  1.00  0.00     0.202 C 
BRANCH  31  32
ATOM     32  C   UNL     1      -2.386   5.730  -1.592  1.00  0.00     0.261 C 
BRANCH  32  33
ATOM     33  O   UNL     1      -1.733   5.554  -0.324  1.00  0.00    -0.460 OA
BRANCH  33  34
ATOM     34  C   UNL     1      -2.410   4.870   0.627  1.00  0.00     0.338 C 
ATOM     35  O   UNL     1      -3.521   4.384   0.525  1.00  0.00    -0.246 OA
BRANCH  34  36
ATOM     36  C   UNL     1      -1.496   4.657   1.771  1.00  0.00     0.060 A 
ATOM     37  C   UNL     1      -1.299   3.358   2.254  1.00  0.00     0.016 A 
ATOM     38  C   UNL     1      -0.837   5.738   2.363  1.00  0.00     0.016 A 
ATOM     39  C   UNL     1      -0.460   3.142   3.352  1.00  0.00     0.010 A 
ATOM     40  C   UNL     1      -0.012   5.522   3.470  1.00  0.00     0.010 A 
ATOM     41  C   UNL     1       0.160   4.227   3.988  1.00  0.00    -0.014 A 
BRANCH  41  42
ATOM     42  C   UNL     1       0.849   4.043   5.290  1.00  0.00     0.031 A 
ATOM     43  C   UNL     1       0.070   4.284   6.554  1.00  0.00     0.074 A 
ATOM     44  C   UNL     1       2.145   3.686   5.355  1.00  0.00     0.049 A 
ATOM     45  N   UNL     1       0.471   4.242   7.798  1.00  0.00    -0.248 NA
ATOM     46  C   UNL     1      -1.354   4.621   6.391  1.00  0.00     0.031 C 
ATOM     47  C   UNL     1       3.005   3.402   4.208  1.00  0.00     0.029 A 
ATOM     48  N   UNL     1       2.966   3.515   6.443  1.00  0.00    -0.354 N 
ATOM     49  C   UNL     1      -0.647   4.546   8.566  1.00  0.00     0.074 A 
ATOM     50  C   UNL     1      -1.737   4.795   7.647  1.00  0.00     0.031 C 
ATOM     51  C   UNL     1       4.240   3.106   4.653  1.00  0.00     0.029 A 
ATOM     52  C   UNL     1       4.264   3.205   6.112  1.00  0.00     0.049 A 
ATOM     53  H   UNL     1       2.655   3.605   7.372  1.00  0.00     0.167 HD
ATOM     54  C   UNL     1      -0.760   4.606   9.914  1.00  0.00     0.037 A 
ATOM     55  C   UNL     1       5.349   3.043   6.896  1.00  0.00     0.037 A 
ATOM     56  C   UNL     1       0.325   4.374  10.830  1.00  0.00     0.049 A 
ATOM     57  C   UNL     1       5.216   3.180   8.392  1.00  0.00     0.074 A 
ATOM     58  C   UNL     1       0.304   4.403  12.213  1.00  0.00     0.029 A 
ATOM     59  N   UNL     1       1.627   4.081  10.455  1.00  0.00    -0.354 N 
ATOM     60  N   UNL     1       4.146   3.439   9.106  1.00  0.00    -0.248 NA
ATOM     61  C   UNL     1       6.439   3.003   9.190  1.00  0.00     0.031 C 
ATOM     62  C   UNL     1       1.604   4.165  12.675  1.00  0.00     0.029 A 
ATOM     63  C   UNL     1       2.424   3.947  11.579  1.00  0.00     0.049 A 
ATOM     64  H   UNL     1       1.939   3.983   9.526  1.00  0.00     0.167 HD
ATOM     65  C   UNL     1       4.561   3.430  10.434  1.00  0.00     0.074 A 
ATOM     66  C   UNL     1       5.979   3.135  10.427  1.00  0.00     0.031 C 
ATOM     67  C   UNL     1       3.833   3.644  11.558  1.00  0.00     0.037 A 
BRANCH  54  68
ATOM     68  C   UNL     1      -2.107   4.961  10.474  1.00  0.00     0.058 A 
ATOM     69  C   UNL     1      -3.171   4.046  10.463  1.00  0.00     0.135 A 
ATOM     70  C   UNL     1      -2.334   6.226  11.039  1.00  0.00     0.135 A 
ATOM     71  F   UNL     1      -3.011   2.830   9.916  1.00  0.00    -0.206 F 
ATOM     72  C   UNL     1      -4.423   4.381  10.968  1.00  0.00     0.059 A 
ATOM     73  C   UNL     1      -3.571   6.576  11.569  1.00  0.00     0.059 A 
ATOM     74  F   UNL     1      -1.350   7.139  11.069  1.00  0.00    -0.206 F 
ATOM     75  C   UNL     1      -4.614   5.652  11.515  1.00  0.00     0.060 A 
BRANCH  75  76
ATOM     76  S   UNL     1      -6.246   6.079  12.157  1.00  0.00     0.124 S 
ATOM     77  O   UNL     1      -6.994   6.301  10.924  1.00  0.00    -0.237 OA
ATOM     78  O   UNL     1      -6.610   4.884  12.912  1.00  0.00    -0.237 OA
ATOM     79  O   UNL     1      -5.993   7.271  12.961  1.00  0.00    -0.744 OA
ENDBRANCH  75  76
ENDBRANCH  54  68
BRANCH  55  80
ATOM     80  C   UNL     1       6.671   2.740   6.284  1.00  0.00     0.058 A 
ATOM     81  C   UNL     1       7.259   1.474   6.421  1.00  0.00     0.135 A 
ATOM     82  C   UNL     1       7.375   3.714   5.560  1.00  0.00     0.135 A 
ATOM     83  F   UNL     1       6.631   0.515   7.118  1.00  0.00    -0.206 F 
ATOM     84  C   UNL     1       8.503   1.186   5.870  1.00  0.00     0.059 A 
ATOM     85  C   UNL     1       8.611   3.443   4.981  1.00  0.00     0.059 A 
ATOM     86  F   UNL     1       6.853   4.939   5.397  1.00  0.00    -0.206 F 
ATOM     87  C   UNL     1       9.171   2.177   5.149  1.00  0.00     0.060 A 
BRANCH  87  88
ATOM     88  S   UNL     1      10.763   1.779   4.393  1.00  0.00     0.124 S 
ATOM     89  O   UNL     1      11.650   1.795   5.550  1.00  0.00    -0.237 OA
ATOM     90  O   UNL     1      10.504   0.469   3.804  1.00  0.00    -0.237 OA
ATOM     91  O   UNL     1      10.956   2.861   3.432  1.00  0.00    -0.744 OA
ENDBRANCH  87  88
ENDBRANCH  55  80
BRANCH  67  92
ATOM     92  C   UNL     1       4.542   3.535  12.880  1.00  0.00     0.058 A 
ATOM     93  C   UNL     1       5.407   4.540  13.339  1.00  0.00     0.135 A 
ATOM     94  C   UNL     1       4.305   2.437  13.724  1.00  0.00     0.135 A 
ATOM     95  F   UNL     1       5.670   5.607  12.569  1.00  0.00    -0.206 F 
ATOM     96  C   UNL     1       6.026   4.454  14.582  1.00  0.00     0.059 A 
ATOM     97  C   UNL     1       4.896   2.341  14.980  1.00  0.00     0.059 A 
ATOM     98  F   UNL     1       3.478   1.453  13.337  1.00  0.00    -0.206 F 
ATOM     99  C   UNL     1       5.763   3.350  15.397  1.00  0.00     0.060 A 
BRANCH  99 100
ATOM    100  S   UNL     1       6.540   3.267  17.025  1.00  0.00     0.124 S 
ATOM    101  O   UNL     1       7.901   2.868  16.681  1.00  0.00    -0.237 OA
ATOM    102  O   UNL     1       6.386   4.632  17.519  1.00  0.00    -0.237 OA
ATOM    103  O   UNL     1       5.748   2.261  17.727  1.00  0.00    -0.744 OA
ENDBRANCH  99 100
ENDBRANCH  67  92
ENDBRANCH  41  42
ENDBRANCH  34  36
ENDBRANCH  33  34
ENDBRANCH  32  33
ENDBRANCH  31  32
ENDBRANCH  30  31
ENDBRANCH  29  30
ENDBRANCH   1  29
TORSDOF 25
