REMARK SMILES CC[C@H]1CCCC[C@@H]1C1(C(=O)OCCOCCOCCOC(=O)c2ccc(-c3c4nc(c(-c5c(F)cc(S(=O)(=O)[O-])cc5F)c5ccc([nH]5)c(-c5c(F)cc(S(=O)(=O)[O-])cc5F)c5nc(c(-c6c(F)cc(S(=O)(=O)[O-])cc6F)c6ccc3[nH]6)C=C5)C=C4)cc2)CC1
REMARK SMILES IDX 17 1 16 2 15 3 14 4 13 5 12 6 10 7 11 8 9 9 90 10 91 11 8 12
REMARK SMILES IDX 3 13 4 14 5 15 7 16 6 17 2 18 1 19 18 20 19 21 20 22 21 23
REMARK SMILES IDX 22 24 23 25 24 26 25 27 89 28 26 29 88 30 27 31 28 32 29 33
REMARK SMILES IDX 82 34 30 35 87 36 81 37 83 38 31 39 86 40 80 41 79 42 32 44
REMARK SMILES IDX 66 45 45 46 65 47 46 48 49 49 64 50 84 51 47 52 48 53 63 55
REMARK SMILES IDX 85 56 50 57 33 58 34 59 43 60 35 61 36 62 42 63 44 64 37 65
REMARK SMILES IDX 38 66 39 67 40 68 41 69 67 70 68 71 77 72 69 73 70 74 76 75
REMARK SMILES IDX 78 76 71 77 72 78 73 79 74 80 75 81 51 82 52 83 61 84 53 85
REMARK SMILES IDX 54 86 60 87 62 88 55 89 56 90 57 91 58 92 59 93
REMARK H PARENT 83 43 49 54
REMARK Flexibility Score: inf
ROOT
ATOM      1  C   UNL     1      -0.499   6.432   0.793  1.00  0.00     0.188 C 
ENDROOT
BRANCH   1   2
ATOM      2  C   UNL     1       0.834   6.108   0.068  1.00  0.00     0.188 C 
BRANCH   2   3
ATOM      3  O   UNL     1       1.076   6.599  -1.235  1.00  0.00    -0.376 OA
BRANCH   3   4
ATOM      4  C   UNL     1       0.132   6.343  -2.258  1.00  0.00     0.202 C 
BRANCH   4   5
ATOM      5  C   UNL     1      -0.484   4.943  -2.438  1.00  0.00     0.261 C 
BRANCH   5   6
ATOM      6  O   UNL     1      -0.828   4.263  -1.221  1.00  0.00    -0.463 OA
BRANCH   6   7
ATOM      7  C   UNL     1      -0.655   2.913  -1.229  1.00  0.00     0.312 C 
ATOM      8  O   UNL     1      -0.322   2.240  -2.199  1.00  0.00    -0.252 OA
BRANCH   7   9
ATOM      9  C   UNL     1      -0.887   2.272   0.134  1.00  0.00     0.071 C 
ATOM     10  C   UNL     1      -1.921   1.145   0.119  1.00  0.00     0.020 C 
ATOM     11  C   UNL     1      -2.273   2.446   0.758  1.00  0.00     0.020 C 
BRANCH   9  12
ATOM     12  C   UNL     1       0.371   2.213   1.043  1.00  0.00     0.009 C 
ATOM     13  C   UNL     1       0.807   0.887   1.703  1.00  0.00    -0.007 C 
ATOM     14  C   UNL     1       0.104   0.654   3.067  1.00  0.00     0.004 C 
ATOM     15  C   UNL     1       0.232   1.824   4.043  1.00  0.00     0.000 C 
ATOM     16  C   UNL     1       0.440   3.346   2.059  1.00  0.00     0.005 C 
ATOM     17  C   UNL     1      -0.223   3.117   3.408  1.00  0.00     0.000 C 
BRANCH  13  18
ATOM     18  C   UNL     1       2.355   0.827   1.939  1.00  0.00     0.000 C 
ATOM     19  C   UNL     1       3.237   1.268   0.776  1.00  0.00     0.004 C 
ENDBRANCH  13  18
ENDBRANCH   9  12
ENDBRANCH   7   9
ENDBRANCH   6   7
ENDBRANCH   5   6
ENDBRANCH   4   5
ENDBRANCH   3   4
ENDBRANCH   2   3
ENDBRANCH   1   2
BRANCH   1  20
ATOM     20  O   UNL     1      -1.191   7.631   0.503  1.00  0.00    -0.376 OA
BRANCH  20  21
ATOM     21  C   UNL     1      -0.425   8.820   0.421  1.00  0.00     0.202 C 
BRANCH  21  22
ATOM     22  C   UNL     1       0.345   9.254   1.676  1.00  0.00     0.261 C 
BRANCH  22  23
ATOM     23  O   UNL     1       1.404   8.354   2.069  1.00  0.00    -0.460 OA
BRANCH  23  24
ATOM     24  C   UNL     1       1.465   8.080   3.398  1.00  0.00     0.338 C 
ATOM     25  O   UNL     1       0.693   8.472   4.257  1.00  0.00    -0.246 OA
BRANCH  24  26
ATOM     26  C   UNL     1       2.555   7.136   3.724  1.00  0.00     0.060 A 
ATOM     27  C   UNL     1       2.259   5.778   3.709  1.00  0.00     0.016 A 
ATOM     28  C   UNL     1       3.754   7.562   4.292  1.00  0.00     0.016 A 
ATOM     29  C   UNL     1       3.121   4.840   4.290  1.00  0.00     0.010 A 
ATOM     30  C   UNL     1       4.638   6.617   4.853  1.00  0.00     0.010 A 
ATOM     31  C   UNL     1       4.317   5.245   4.892  1.00  0.00    -0.014 A 
BRANCH  31  32
ATOM     32  C   UNL     1       5.131   4.265   5.684  1.00  0.00     0.031 A 
ATOM     33  C   UNL     1       5.252   4.439   7.180  1.00  0.00     0.074 A 
ATOM     34  C   UNL     1       5.692   3.174   5.119  1.00  0.00     0.049 A 
ATOM     35  N   UNL     1       6.035   3.826   8.032  1.00  0.00    -0.248 NA
ATOM     36  C   UNL     1       4.359   5.432   7.798  1.00  0.00     0.031 C 
ATOM     37  C   UNL     1       5.556   2.780   3.717  1.00  0.00     0.029 A 
ATOM     38  N   UNL     1       6.488   2.187   5.660  1.00  0.00    -0.354 N 
ATOM     39  C   UNL     1       5.770   4.395   9.274  1.00  0.00     0.074 A 
ATOM     40  C   UNL     1       4.744   5.394   9.066  1.00  0.00     0.031 C 
ATOM     41  C   UNL     1       6.228   1.635   3.513  1.00  0.00     0.029 A 
ATOM     42  C   UNL     1       6.923   1.257   4.741  1.00  0.00     0.049 A 
ATOM     43  H   UNL     1       6.724   2.150   6.615  1.00  0.00     0.167 HD
ATOM     44  C   UNL     1       6.338   4.120  10.475  1.00  0.00     0.037 A 
ATOM     45  C   UNL     1       7.820   0.252   4.851  1.00  0.00     0.037 A 
ATOM     46  C   UNL     1       7.333   3.098  10.686  1.00  0.00     0.049 A 
ATOM     47  C   UNL     1       8.519   0.029   6.170  1.00  0.00     0.074 A 
ATOM     48  C   UNL     1       7.999   2.773  11.856  1.00  0.00     0.029 A 
ATOM     49  N   UNL     1       7.798   2.228   9.711  1.00  0.00    -0.354 N 
ATOM     50  N   UNL     1       8.340   0.644   7.315  1.00  0.00    -0.248 NA
ATOM     51  C   UNL     1       9.560  -1.010   6.208  1.00  0.00     0.031 C 
ATOM     52  C   UNL     1       8.907   1.746  11.575  1.00  0.00     0.029 A 
ATOM     53  C   UNL     1       8.758   1.384  10.246  1.00  0.00     0.049 A 
ATOM     54  H   UNL     1       7.491   2.212   8.776  1.00  0.00     0.167 HD
ATOM     55  C   UNL     1       9.227   0.052   8.211  1.00  0.00     0.074 A 
ATOM     56  C   UNL     1       9.928  -0.982   7.482  1.00  0.00     0.031 C 
ATOM     57  C   UNL     1       9.443   0.344   9.518  1.00  0.00     0.037 A 
BRANCH  44  58
ATOM     58  C   UNL     1       5.960   4.992  11.644  1.00  0.00     0.058 A 
ATOM     59  C   UNL     1       4.707   4.918  12.270  1.00  0.00     0.135 A 
ATOM     60  C   UNL     1       6.894   5.908  12.160  1.00  0.00     0.135 A 
ATOM     61  F   UNL     1       3.769   4.076  11.809  1.00  0.00    -0.206 F 
ATOM     62  C   UNL     1       4.382   5.742  13.346  1.00  0.00     0.059 A 
ATOM     63  C   UNL     1       6.602   6.719  13.252  1.00  0.00     0.059 A 
ATOM     64  F   UNL     1       8.109   6.021  11.601  1.00  0.00    -0.206 F 
ATOM     65  C   UNL     1       5.337   6.640  13.829  1.00  0.00     0.060 A 
BRANCH  65  66
ATOM     66  S   UNL     1       4.900   7.707  15.218  1.00  0.00     0.124 S 
ATOM     67  O   UNL     1       3.953   8.626  14.594  1.00  0.00    -0.237 OA
ATOM     68  O   UNL     1       4.330   6.760  16.171  1.00  0.00    -0.237 OA
ATOM     69  O   UNL     1       6.176   8.296  15.611  1.00  0.00    -0.744 OA
ENDBRANCH  65  66
ENDBRANCH  44  58
BRANCH  45  70
ATOM     70  C   UNL     1       8.182  -0.575   3.660  1.00  0.00     0.058 A 
ATOM     71  C   UNL     1       7.936  -1.956   3.619  1.00  0.00     0.135 A 
ATOM     72  C   UNL     1       8.822  -0.001   2.548  1.00  0.00     0.135 A 
ATOM     73  F   UNL     1       7.350  -2.564   4.662  1.00  0.00    -0.206 F 
ATOM     74  C   UNL     1       8.323  -2.739   2.533  1.00  0.00     0.059 A 
ATOM     75  C   UNL     1       9.184  -0.754   1.435  1.00  0.00     0.059 A 
ATOM     76  F   UNL     1       9.089   1.314   2.529  1.00  0.00    -0.206 F 
ATOM     77  C   UNL     1       8.943  -2.126   1.442  1.00  0.00     0.060 A 
BRANCH  77  78
ATOM     78  S   UNL     1       9.409  -3.139   0.021  1.00  0.00     0.124 S 
ATOM     79  O   UNL     1      10.539  -3.892   0.553  1.00  0.00    -0.237 OA
ATOM     80  O   UNL     1       8.190  -3.902  -0.223  1.00  0.00    -0.237 OA
ATOM     81  O   UNL     1       9.737  -2.150  -1.002  1.00  0.00    -0.744 OA
ENDBRANCH  77  78
ENDBRANCH  45  70
BRANCH  57  82
ATOM     82  C   UNL     1      10.441  -0.499  10.269  1.00  0.00     0.058 A 
ATOM     83  C   UNL     1      11.822  -0.408  10.032  1.00  0.00     0.135 A 
ATOM     84  C   UNL     1      10.008  -1.377  11.277  1.00  0.00     0.135 A 
ATOM     85  F   UNL     1      12.291   0.410   9.077  1.00  0.00    -0.206 F 
ATOM     86  C   UNL     1      12.735  -1.177  10.749  1.00  0.00     0.059 A 
ATOM     87  C   UNL     1      10.906  -2.131  12.028  1.00  0.00     0.059 A 
ATOM     88  F   UNL     1       8.700  -1.497  11.555  1.00  0.00    -0.206 F 
ATOM     89  C   UNL     1      12.268  -2.033  11.748  1.00  0.00     0.060 A 
BRANCH  89  90
ATOM     90  S   UNL     1      13.465  -3.002  12.690  1.00  0.00     0.124 S 
ATOM     91  O   UNL     1      13.885  -3.992  11.704  1.00  0.00    -0.237 OA
ATOM     92  O   UNL     1      14.464  -2.000  13.048  1.00  0.00    -0.237 OA
ATOM     93  O   UNL     1      12.681  -3.522  13.806  1.00  0.00    -0.744 OA
ENDBRANCH  89  90
ENDBRANCH  57  82
ENDBRANCH  31  32
ENDBRANCH  24  26
ENDBRANCH  23  24
ENDBRANCH  22  23
ENDBRANCH  21  22
ENDBRANCH  20  21
ENDBRANCH   1  20
TORSDOF 22
