REMARK SMILES O=C(CS(=O)(=O)NCc1ccc(N2CCOCC2)nc1)OCCOCCOCCOC(=O)c1ccc(-c2c3nc(c(-c4c(F)cc(S(=O)(=O)[O-])cc4F)c4ccc([nH]4)c(-c4c(F)cc(S(=O)(=O)[O-])cc4F)c4nc(c(-c5c(F)cc(S(=O)(=O)[O-])cc5F)c5ccc2[nH]5)C=C4)C=C3)cc1
REMARK SMILES IDX 25 1 24 2 23 3 22 4 21 5 2 6 1 7 3 8 4 9 5 10 6 11 7 12 8 14
REMARK SMILES IDX 9 15 10 16 20 17 11 18 19 19 12 20 13 21 14 22 18 23 15 24
REMARK SMILES IDX 17 25 16 26 26 27 27 28 28 29 29 30 30 31 31 32 32 33 33 34
REMARK SMILES IDX 34 35 98 36 35 37 97 38 36 39 37 40 38 41 91 42 39 43 96 44
REMARK SMILES IDX 90 45 92 46 40 47 95 48 89 49 88 50 41 52 75 53 54 54 74 55
REMARK SMILES IDX 55 56 58 57 73 58 93 59 56 60 57 61 72 63 94 64 59 65 42 66
REMARK SMILES IDX 43 67 52 68 44 69 45 70 51 71 53 72 46 73 47 74 48 75 49 76
REMARK SMILES IDX 50 77 76 78 77 79 86 80 78 81 79 82 85 83 87 84 80 85 81 86
REMARK SMILES IDX 82 87 83 88 84 89 60 90 61 91 70 92 62 93 63 94 69 95 71 96
REMARK SMILES IDX 64 97 65 98 66 99 67 100 68 101
REMARK H PARENT 7 13 92 51 58 62
REMARK Flexibility Score: inf
ROOT
ATOM      1  C   UNL     1       3.246   0.708   2.046  1.00  0.00     0.188 C 
ENDROOT
BRANCH   1   2
ATOM      2  O   UNL     1       4.624   0.799   1.748  1.00  0.00    -0.376 OA
BRANCH   2   3
ATOM      3  C   UNL     1       5.109   0.146   0.590  1.00  0.00     0.202 C 
BRANCH   3   4
ATOM      4  C   UNL     1       4.390   0.509  -0.697  1.00  0.00     0.261 C 
BRANCH   4   5
ATOM      5  O   UNL     1       2.982   0.162  -0.780  1.00  0.00    -0.462 OA
BRANCH   5   6
ATOM      6  C   UNL     1       2.307  -0.990  -0.630  1.00  0.00     0.322 C 
ATOM      7  O   UNL     1       1.096  -0.977  -0.868  1.00  0.00    -0.251 OA
BRANCH   6   8
ATOM      8  C   UNL     1       2.919  -2.217  -0.075  1.00  0.00     0.276 C 
BRANCH   8   9
ATOM      9  S   UNL     1       3.957  -3.082  -1.198  1.00  0.00     0.222 S 
ATOM     10  O   UNL     1       5.065  -2.238  -1.571  1.00  0.00    -0.212 OA
ATOM     11  O   UNL     1       4.228  -4.372  -0.595  1.00  0.00    -0.212 OA
BRANCH   9  12
ATOM     12  N   UNL     1       3.059  -3.438  -2.539  1.00  0.00    -0.210 NA
ATOM     13  H   UNL     1       2.302  -4.033  -2.201  1.00  0.00     0.141 HD
BRANCH  12  14
ATOM     14  C   UNL     1       2.417  -2.477  -3.432  1.00  0.00     0.135 C 
BRANCH  14  15
ATOM     15  C   UNL     1       3.268  -1.338  -3.902  1.00  0.00    -0.015 A 
ATOM     16  C   UNL     1       2.860  -0.012  -3.782  1.00  0.00     0.010 A 
ATOM     17  C   UNL     1       4.504  -1.562  -4.495  1.00  0.00     0.118 A 
ATOM     18  C   UNL     1       3.725   1.008  -4.170  1.00  0.00     0.047 A 
ATOM     19  N   UNL     1       5.324  -0.585  -4.948  1.00  0.00    -0.239 NA
ATOM     20  C   UNL     1       4.948   0.691  -4.751  1.00  0.00     0.128 A 
BRANCH  20  21
ATOM     21  N   UNL     1       5.742   1.693  -5.231  1.00  0.00    -0.352 N 
ATOM     22  C   UNL     1       6.385   2.678  -4.373  1.00  0.00     0.146 C 
ATOM     23  C   UNL     1       6.256   1.602  -6.587  1.00  0.00     0.146 C 
ATOM     24  C   UNL     1       6.319   4.045  -5.077  1.00  0.00     0.181 C 
ATOM     25  C   UNL     1       6.117   3.003  -7.203  1.00  0.00     0.181 C 
ATOM     26  O   UNL     1       6.826   3.991  -6.427  1.00  0.00    -0.378 OA
ENDBRANCH  20  21
ENDBRANCH  14  15
ENDBRANCH  12  14
ENDBRANCH   9  12
ENDBRANCH   8   9
ENDBRANCH   6   8
ENDBRANCH   5   6
ENDBRANCH   4   5
ENDBRANCH   3   4
ENDBRANCH   2   3
ENDBRANCH   1   2
BRANCH   1  27
ATOM     27  C   UNL     1       2.421   1.984   1.792  1.00  0.00     0.188 C 
BRANCH  27  28
ATOM     28  O   UNL     1       3.063   3.225   1.532  1.00  0.00    -0.376 OA
BRANCH  28  29
ATOM     29  C   UNL     1       4.308   3.526   2.146  1.00  0.00     0.202 C 
BRANCH  29  30
ATOM     30  C   UNL     1       4.410   3.525   3.680  1.00  0.00     0.261 C 
BRANCH  30  31
ATOM     31  O   UNL     1       4.054   2.290   4.331  1.00  0.00    -0.460 OA
BRANCH  31  32
ATOM     32  C   UNL     1       2.881   2.306   5.015  1.00  0.00     0.338 C 
ATOM     33  O   UNL     1       2.131   3.260   5.144  1.00  0.00    -0.246 OA
BRANCH  32  34
ATOM     34  C   UNL     1       2.497   0.941   5.453  1.00  0.00     0.060 A 
ATOM     35  C   UNL     1       1.215   0.487   5.106  1.00  0.00     0.016 A 
ATOM     36  C   UNL     1       3.331   0.139   6.235  1.00  0.00     0.016 A 
ATOM     37  C   UNL     1       0.728  -0.719   5.612  1.00  0.00     0.010 A 
ATOM     38  C   UNL     1       2.833  -1.065   6.762  1.00  0.00     0.010 A 
ATOM     39  C   UNL     1       1.506  -1.465   6.505  1.00  0.00    -0.014 A 
BRANCH  39  40
ATOM     40  C   UNL     1       0.824  -2.459   7.380  1.00  0.00     0.031 A 
ATOM     41  C   UNL     1       0.386  -2.002   8.752  1.00  0.00     0.074 A 
ATOM     42  C   UNL     1       0.521  -3.703   6.965  1.00  0.00     0.049 A 
ATOM     43  N   UNL     1      -0.253  -2.657   9.687  1.00  0.00    -0.248 NA
ATOM     44  C   UNL     1       0.715  -0.612   9.114  1.00  0.00     0.031 C 
ATOM     45  C   UNL     1       0.838  -4.262   5.653  1.00  0.00     0.029 A 
ATOM     46  N   UNL     1      -0.132  -4.724   7.615  1.00  0.00    -0.354 N 
ATOM     47  C   UNL     1      -0.392  -1.766  10.747  1.00  0.00     0.074 A 
ATOM     48  C   UNL     1       0.259  -0.536  10.354  1.00  0.00     0.031 C 
ATOM     49  C   UNL     1       0.381  -5.527   5.595  1.00  0.00     0.029 A 
ATOM     50  C   UNL     1      -0.242  -5.876   6.872  1.00  0.00     0.049 A 
ATOM     51  H   UNL     1      -0.488  -4.638   8.529  1.00  0.00     0.167 HD
ATOM     52  C   UNL     1      -1.014  -1.944  11.937  1.00  0.00     0.037 A 
ATOM     53  C   UNL     1      -0.777  -7.074   7.189  1.00  0.00     0.037 A 
ATOM     54  C   UNL     1      -1.670  -3.163  12.329  1.00  0.00     0.049 A 
ATOM     55  C   UNL     1      -1.419  -7.269   8.543  1.00  0.00     0.074 A 
ATOM     56  C   UNL     1      -2.343  -3.435  13.508  1.00  0.00     0.029 A 
ATOM     57  N   UNL     1      -1.732  -4.314  11.559  1.00  0.00    -0.354 N 
ATOM     58  N   UNL     1      -1.562  -6.410   9.524  1.00  0.00    -0.248 NA
ATOM     59  C   UNL     1      -1.984  -8.597   8.826  1.00  0.00     0.031 C 
ATOM     60  C   UNL     1      -2.765  -4.768  13.472  1.00  0.00     0.029 A 
ATOM     61  C   UNL     1      -2.413  -5.306  12.244  1.00  0.00     0.049 A 
ATOM     62  H   UNL     1      -1.348  -4.411  10.657  1.00  0.00     0.167 HD
ATOM     63  C   UNL     1      -2.273  -7.079  10.519  1.00  0.00     0.074 A 
ATOM     64  C   UNL     1      -2.531  -8.413  10.020  1.00  0.00     0.031 C 
ATOM     65  C   UNL     1      -2.682  -6.626  11.731  1.00  0.00     0.037 A 
BRANCH  52  66
ATOM     66  C   UNL     1      -0.983  -0.801  12.915  1.00  0.00     0.058 A 
ATOM     67  C   UNL     1      -1.712   0.380  12.704  1.00  0.00     0.135 A 
ATOM     68  C   UNL     1      -0.224  -0.899  14.092  1.00  0.00     0.135 A 
ATOM     69  F   UNL     1      -2.438   0.537  11.585  1.00  0.00    -0.206 F 
ATOM     70  C   UNL     1      -1.666   1.435  13.610  1.00  0.00     0.059 A 
ATOM     71  C   UNL     1      -0.188   0.131  15.027  1.00  0.00     0.059 A 
ATOM     72  F   UNL     1       0.496  -2.004  14.343  1.00  0.00    -0.206 F 
ATOM     73  C   UNL     1      -0.900   1.301  14.769  1.00  0.00     0.060 A 
BRANCH  73  74
ATOM     74  S   UNL     1      -0.851   2.677  15.936  1.00  0.00     0.124 S 
ATOM     75  O   UNL     1      -0.028   3.642  15.213  1.00  0.00    -0.237 OA
ATOM     76  O   UNL     1      -2.262   3.022  16.071  1.00  0.00    -0.237 OA
ATOM     77  O   UNL     1      -0.234   2.094  17.124  1.00  0.00    -0.744 OA
ENDBRANCH  73  74
ENDBRANCH  52  66
BRANCH  53  78
ATOM     78  C   UNL     1      -0.746  -8.194   6.207  1.00  0.00     0.058 A 
ATOM     79  C   UNL     1      -1.924  -8.677   5.616  1.00  0.00     0.135 A 
ATOM     80  C   UNL     1       0.461  -8.820   5.857  1.00  0.00     0.135 A 
ATOM     81  F   UNL     1      -3.106  -8.124   5.928  1.00  0.00    -0.206 F 
ATOM     82  C   UNL     1      -1.911  -9.749   4.729  1.00  0.00     0.059 A 
ATOM     83  C   UNL     1       0.503  -9.876   4.951  1.00  0.00     0.059 A 
ATOM     84  F   UNL     1       1.617  -8.396   6.389  1.00  0.00    -0.206 F 
ATOM     85  C   UNL     1      -0.690 -10.340   4.399  1.00  0.00     0.060 A 
BRANCH  85  86
ATOM     86  S   UNL     1      -0.680 -11.698   3.208  1.00  0.00     0.124 S 
ATOM     87  O   UNL     1      -1.271 -12.779   3.987  1.00  0.00    -0.237 OA
ATOM     88  O   UNL     1      -1.504 -11.162   2.129  1.00  0.00    -0.237 OA
ATOM     89  O   UNL     1       0.736 -11.851   2.886  1.00  0.00    -0.744 OA
ENDBRANCH  85  86
ENDBRANCH  53  78
BRANCH  65  90
ATOM     90  C   UNL     1      -3.515  -7.551  12.581  1.00  0.00     0.058 A 
ATOM     91  C   UNL     1      -2.978  -8.694  13.195  1.00  0.00     0.135 A 
ATOM     92  C   UNL     1      -4.872  -7.264  12.812  1.00  0.00     0.135 A 
ATOM     93  F   UNL     1      -1.688  -9.016  13.010  1.00  0.00    -0.206 F 
ATOM     94  C   UNL     1      -3.764  -9.540  13.973  1.00  0.00     0.059 A 
ATOM     95  C   UNL     1      -5.668  -8.078  13.612  1.00  0.00     0.059 A 
ATOM     96  F   UNL     1      -5.436  -6.176  12.265  1.00  0.00    -0.206 F 
ATOM     97  C   UNL     1      -5.109  -9.225  14.172  1.00  0.00     0.060 A 
BRANCH  97  98
ATOM     98  S   UNL     1      -6.119 -10.328  15.185  1.00  0.00     0.124 S 
ATOM     99  O   UNL     1      -6.307 -11.461  14.285  1.00  0.00    -0.237 OA
ATOM    100  O   UNL     1      -5.258 -10.570  16.338  1.00  0.00    -0.237 OA
ATOM    101  O   UNL     1      -7.316  -9.538  15.458  1.00  0.00    -0.744 OA
ENDBRANCH  97  98
ENDBRANCH  65  90
ENDBRANCH  39  40
ENDBRANCH  32  34
ENDBRANCH  31  32
ENDBRANCH  30  31
ENDBRANCH  29  30
ENDBRANCH  28  29
ENDBRANCH  27  28
ENDBRANCH   1  27
TORSDOF 25
