REMARK SMILES C[C@@H]1CCC[C@H](NC(=O)N(C)CC(=O)OCCOCCOCCOC(=O)c2ccc(-c3c4nc(c(-c5c(F)cc(S(=O)(=O)[O-])cc5F)c5ccc([nH]5)c(-c5c(F)cc(S(=O)(=O)[O-])cc5F)c5nc(c(-c6c(F)cc(S(=O)(=O)[O-])cc6F)c6ccc3[nH]6)C=C5)C=C4)cc2)C1
REMARK SMILES IDX 19 1 18 2 17 3 16 4 15 5 13 6 14 7 12 8 10 9 11 10 8 11 7 12
REMARK SMILES IDX 9 14 6 15 1 16 2 17 3 18 93 19 4 20 5 21 20 22 21 23 22 24
REMARK SMILES IDX 23 25 24 26 25 27 26 28 27 29 28 30 92 31 29 32 91 33 30 34
REMARK SMILES IDX 31 35 32 36 85 37 33 38 90 39 84 40 86 41 34 42 89 43 83 44
REMARK SMILES IDX 82 45 35 47 69 48 48 49 68 50 49 51 52 52 67 53 87 54 50 55
REMARK SMILES IDX 51 56 66 58 88 59 53 60 36 61 37 62 46 63 38 64 39 65 45 66
REMARK SMILES IDX 47 67 40 68 41 69 42 70 43 71 44 72 70 73 71 74 80 75 72 76
REMARK SMILES IDX 73 77 79 78 81 79 74 80 75 81 76 82 77 83 78 84 54 85 55 86
REMARK SMILES IDX 64 87 56 88 57 89 63 90 65 91 58 92 59 93 60 94 61 95 62 96
REMARK H PARENT 7 13 86 46 52 57
REMARK Flexibility Score: inf
ROOT
ATOM      1  C   UNL     1      -1.083  -4.515   4.957  1.00  0.00     0.188 C 
ENDROOT
BRANCH   1   2
ATOM      2  O   UNL     1      -0.773  -5.849   5.368  1.00  0.00    -0.376 OA
BRANCH   2   3
ATOM      3  C   UNL     1      -0.214  -6.728   4.401  1.00  0.00     0.202 C 
BRANCH   3   4
ATOM      4  C   UNL     1      -1.181  -7.198   3.315  1.00  0.00     0.261 C 
BRANCH   4   5
ATOM      5  O   UNL     1      -1.703  -6.102   2.536  1.00  0.00    -0.462 OA
BRANCH   5   6
ATOM      6  C   UNL     1      -3.055  -6.080   2.385  1.00  0.00     0.325 C 
ATOM      7  O   UNL     1      -3.807  -6.969   2.773  1.00  0.00    -0.250 OA
BRANCH   6   8
ATOM      8  C   UNL     1      -3.587  -4.824   1.684  1.00  0.00     0.243 C 
BRANCH   8   9
ATOM      9  N   UNL     1      -2.652  -3.859   1.066  1.00  0.00    -0.317 N 
ATOM     10  C   UNL     1      -2.065  -4.295  -0.184  1.00  0.00     0.149 C 
BRANCH   9  11
ATOM     11  C   UNL     1      -2.453  -2.674   1.710  1.00  0.00     0.317 C 
ATOM     12  N   UNL     1      -1.854  -1.603   1.153  1.00  0.00    -0.335 N 
ATOM     13  H   UNL     1      -1.651  -0.910   1.821  1.00  0.00     0.165 HD
ATOM     14  O   UNL     1      -2.833  -2.514   2.874  1.00  0.00    -0.249 OA
BRANCH  12  15
ATOM     15  C   UNL     1      -1.427  -1.205  -0.189  1.00  0.00     0.084 C 
ATOM     16  C   UNL     1       1.073  -0.050   1.703  1.00  0.00     0.008 C 
ATOM     17  C   UNL     1       0.878  -0.019   0.192  1.00  0.00    -0.012 C 
ATOM     18  C   UNL     1       0.237   1.298  -0.246  1.00  0.00     0.003 C 
ATOM     19  C   UNL     1       0.106  -1.247  -0.334  1.00  0.00     0.028 C 
ATOM     20  C   UNL     1      -1.252   1.349   0.072  1.00  0.00     0.002 C 
ATOM     21  C   UNL     1      -1.993   0.177  -0.565  1.00  0.00     0.025 C 
ENDBRANCH  12  15
ENDBRANCH   9  11
ENDBRANCH   8   9
ENDBRANCH   6   8
ENDBRANCH   5   6
ENDBRANCH   4   5
ENDBRANCH   3   4
ENDBRANCH   2   3
ENDBRANCH   1   2
BRANCH   1  22
ATOM     22  C   UNL     1      -0.133  -3.846   3.954  1.00  0.00     0.188 C 
BRANCH  22  23
ATOM     23  O   UNL     1       1.232  -4.113   4.283  1.00  0.00    -0.376 OA
BRANCH  23  24
ATOM     24  C   UNL     1       2.058  -2.960   4.294  1.00  0.00     0.202 C 
BRANCH  24  25
ATOM     25  C   UNL     1       2.141  -2.364   5.697  1.00  0.00     0.261 C 
BRANCH  25  26
ATOM     26  O   UNL     1       0.864  -2.001   6.250  1.00  0.00    -0.460 OA
BRANCH  26  27
ATOM     27  C   UNL     1       0.275  -0.903   5.723  1.00  0.00     0.338 C 
ATOM     28  O   UNL     1       0.707  -0.202   4.829  1.00  0.00    -0.246 OA
BRANCH  27  29
ATOM     29  C   UNL     1      -1.050  -0.737   6.351  1.00  0.00     0.060 A 
ATOM     30  C   UNL     1      -2.187  -0.681   5.540  1.00  0.00     0.016 A 
ATOM     31  C   UNL     1      -1.161  -0.588   7.735  1.00  0.00     0.016 A 
ATOM     32  C   UNL     1      -3.443  -0.457   6.111  1.00  0.00     0.010 A 
ATOM     33  C   UNL     1      -2.415  -0.347   8.303  1.00  0.00     0.010 A 
ATOM     34  C   UNL     1      -3.561  -0.254   7.492  1.00  0.00    -0.014 A 
BRANCH  34  35
ATOM     35  C   UNL     1      -4.844   0.202   8.082  1.00  0.00     0.031 A 
ATOM     36  C   UNL     1      -5.020   1.666   8.386  1.00  0.00     0.074 A 
ATOM     37  C   UNL     1      -5.836  -0.665   8.354  1.00  0.00     0.049 A 
ATOM     38  N   UNL     1      -6.006   2.278   8.988  1.00  0.00    -0.248 NA
ATOM     39  C   UNL     1      -3.932   2.558   7.954  1.00  0.00     0.031 C 
ATOM     40  C   UNL     1      -5.808  -2.099   8.071  1.00  0.00     0.029 A 
ATOM     41  N   UNL     1      -7.060  -0.462   8.943  1.00  0.00    -0.354 N 
ATOM     42  C   UNL     1      -5.656   3.622   9.018  1.00  0.00     0.074 A 
ATOM     43  C   UNL     1      -4.356   3.734   8.392  1.00  0.00     0.031 C 
ATOM     44  C   UNL     1      -6.959  -2.650   8.497  1.00  0.00     0.029 A 
ATOM     45  C   UNL     1      -7.788  -1.615   9.113  1.00  0.00     0.049 A 
ATOM     46  H   UNL     1      -7.385   0.426   9.217  1.00  0.00     0.167 HD
ATOM     47  C   UNL     1      -6.355   4.670   9.516  1.00  0.00     0.037 A 
ATOM     48  C   UNL     1      -8.977  -1.815   9.718  1.00  0.00     0.037 A 
ATOM     49  C   UNL     1      -7.649   4.559  10.137  1.00  0.00     0.049 A 
ATOM     50  C   UNL     1      -9.710  -0.643  10.321  1.00  0.00     0.074 A 
ATOM     51  C   UNL     1      -8.438   5.563  10.670  1.00  0.00     0.029 A 
ATOM     52  N   UNL     1      -8.344   3.371  10.310  1.00  0.00    -0.354 N 
ATOM     53  N   UNL     1      -9.366   0.623  10.345  1.00  0.00    -0.248 NA
ATOM     54  C   UNL     1     -10.992  -0.929  10.982  1.00  0.00     0.031 C 
ATOM     55  C   UNL     1      -9.595   4.978  11.198  1.00  0.00     0.029 A 
ATOM     56  C   UNL     1      -9.545   3.614  10.956  1.00  0.00     0.049 A 
ATOM     57  H   UNL     1      -8.030   2.485  10.017  1.00  0.00     0.167 HD
ATOM     58  C   UNL     1     -10.398   1.286  11.004  1.00  0.00     0.074 A 
ATOM     59  C   UNL     1     -11.383   0.284  11.352  1.00  0.00     0.031 C 
ATOM     60  C   UNL     1     -10.518   2.606  11.293  1.00  0.00     0.037 A 
BRANCH  47  61
ATOM     61  C   UNL     1      -5.718   6.028   9.429  1.00  0.00     0.058 A 
ATOM     62  C   UNL     1      -5.620   6.719   8.211  1.00  0.00     0.135 A 
ATOM     63  C   UNL     1      -5.212   6.652  10.581  1.00  0.00     0.135 A 
ATOM     64  F   UNL     1      -6.070   6.159   7.077  1.00  0.00    -0.206 F 
ATOM     65  C   UNL     1      -5.019   7.972   8.134  1.00  0.00     0.059 A 
ATOM     66  C   UNL     1      -4.628   7.914  10.530  1.00  0.00     0.059 A 
ATOM     67  F   UNL     1      -5.278   6.032  11.770  1.00  0.00    -0.206 F 
ATOM     68  C   UNL     1      -4.522   8.559   9.299  1.00  0.00     0.060 A 
BRANCH  68  69
ATOM     69  S   UNL     1      -3.738  10.181   9.183  1.00  0.00     0.124 S 
ATOM     70  O   UNL     1      -2.452   9.841   8.582  1.00  0.00    -0.237 OA
ATOM     71  O   UNL     1      -4.662  10.916   8.325  1.00  0.00    -0.237 OA
ATOM     72  O   UNL     1      -3.683  10.632  10.570  1.00  0.00    -0.744 OA
ENDBRANCH  68  69
ENDBRANCH  47  61
BRANCH  48  73
ATOM     73  C   UNL     1      -9.550  -3.185   9.799  1.00  0.00     0.058 A 
ATOM     74  C   UNL     1     -10.682  -3.542   9.053  1.00  0.00     0.135 A 
ATOM     75  C   UNL     1      -8.982  -4.162  10.632  1.00  0.00     0.135 A 
ATOM     76  F   UNL     1     -11.272  -2.637   8.256  1.00  0.00    -0.206 F 
ATOM     77  C   UNL     1     -11.239  -4.814   9.136  1.00  0.00     0.059 A 
ATOM     78  C   UNL     1      -9.506  -5.448  10.714  1.00  0.00     0.059 A 
ATOM     79  F   UNL     1      -7.895  -3.872  11.364  1.00  0.00    -0.206 F 
ATOM     80  C   UNL     1     -10.642  -5.762   9.969  1.00  0.00     0.060 A 
BRANCH  80  81
ATOM     81  S   UNL     1     -11.344  -7.425  10.036  1.00  0.00     0.124 S 
ATOM     82  O   UNL     1     -12.531  -7.210  10.856  1.00  0.00    -0.237 OA
ATOM     83  O   UNL     1     -11.588  -7.715   8.626  1.00  0.00    -0.237 OA
ATOM     84  O   UNL     1     -10.282  -8.212  10.655  1.00  0.00    -0.744 OA
ENDBRANCH  80  81
ENDBRANCH  48  73
BRANCH  60  85
ATOM     85  C   UNL     1     -11.773   3.050  11.994  1.00  0.00     0.058 A 
ATOM     86  C   UNL     1     -11.985   2.794  13.357  1.00  0.00     0.135 A 
ATOM     87  C   UNL     1     -12.753   3.780  11.303  1.00  0.00     0.135 A 
ATOM     88  F   UNL     1     -11.081   2.096  14.062  1.00  0.00    -0.206 F 
ATOM     89  C   UNL     1     -13.138   3.226  14.007  1.00  0.00     0.059 A 
ATOM     90  C   UNL     1     -13.902   4.242  11.938  1.00  0.00     0.059 A 
ATOM     91  F   UNL     1     -12.594   4.063  10.000  1.00  0.00    -0.206 F 
ATOM     92  C   UNL     1     -14.092   3.949  13.287  1.00  0.00     0.060 A 
BRANCH  92  93
ATOM     93  S   UNL     1     -15.572   4.529  14.145  1.00  0.00     0.124 S 
ATOM     94  O   UNL     1     -16.359   3.303  14.234  1.00  0.00    -0.237 OA
ATOM     95  O   UNL     1     -15.031   5.028  15.405  1.00  0.00    -0.237 OA
ATOM     96  O   UNL     1     -16.103   5.553  13.250  1.00  0.00    -0.744 OA
ENDBRANCH  92  93
ENDBRANCH  60  85
ENDBRANCH  34  35
ENDBRANCH  27  29
ENDBRANCH  26  27
ENDBRANCH  25  26
ENDBRANCH  24  25
ENDBRANCH  23  24
ENDBRANCH  22  23
ENDBRANCH   1  22
TORSDOF 23
