REMARK SMILES O=C(OCCOCCOCCOC(=O)c1ccc(-c2c3nc(c(-c4c(F)cc(S(=O)(=O)[O-])cc4F)c4ccc([nH]4)c(-c4c(F)cc(S(=O)(=O)[O-])cc4F)c4nc(c(-c5c(F)cc(S(=O)(=O)[O-])cc5F)c5ccc2[nH]5)C=C4)C=C3)cc1)C1=Cc2cc(Cl)cc(-c3ccc(Cl)cc3)c2O[C@@H]1C(F)(F)F
REMARK SMILES IDX 8 1 7 2 6 3 5 4 4 5 3 6 2 7 1 8 81 9 82 10 98 11 83 12 97 13
REMARK SMILES IDX 84 14 96 15 85 16 88 17 86 18 87 19 99 20 100 21 101 22
REMARK SMILES IDX 102 23 89 24 90 25 95 26 91 27 94 28 92 29 93 30 9 31 10 32
REMARK SMILES IDX 11 33 12 34 13 35 14 36 15 37 16 38 80 39 17 40 79 41 18 42
REMARK SMILES IDX 19 43 20 44 73 45 21 46 78 47 72 48 74 49 22 50 77 51 71 52
REMARK SMILES IDX 70 53 23 55 57 56 36 57 56 58 37 59 40 60 55 61 75 62 38 63
REMARK SMILES IDX 39 64 54 66 76 67 41 68 24 69 25 70 34 71 26 72 27 73 33 74
REMARK SMILES IDX 35 75 28 76 29 77 30 78 31 79 32 80 58 81 59 82 68 83 60 84
REMARK SMILES IDX 61 85 67 86 69 87 62 88 63 89 64 90 65 91 66 92 42 93 43 94
REMARK SMILES IDX 52 95 44 96 45 97 51 98 53 99 46 100 47 101 48 102 49 103
REMARK SMILES IDX 50 104
REMARK H PARENT 74 54 40 65
REMARK Flexibility Score: inf
ROOT
ATOM      1  C   UNL     1       1.731  -1.841  -2.990  1.00  0.00     0.188 C 
ENDROOT
BRANCH   1   2
ATOM      2  C   UNL     1       2.271  -0.687  -2.127  1.00  0.00     0.188 C 
BRANCH   2   3
ATOM      3  O   UNL     1       3.733  -0.277  -2.103  1.00  0.00    -0.376 OA
BRANCH   3   4
ATOM      4  C   UNL     1       4.605   0.454  -0.740  1.00  0.00     0.202 C 
BRANCH   4   5
ATOM      5  C   UNL     1       4.041   0.061   1.327  1.00  0.00     0.261 C 
BRANCH   5   6
ATOM      6  O   UNL     1       3.099   0.920   2.182  1.00  0.00    -0.460 OA
BRANCH   6   7
ATOM      7  C   UNL     1       3.203   2.230   1.902  1.00  0.00     0.338 C 
ATOM      8  O   UNL     1       2.482   3.128   2.254  1.00  0.00    -0.246 OA
BRANCH   7   9
ATOM      9  C   UNL     1       4.033   2.063   0.725  1.00  0.00     0.087 C 
ATOM     10  C   UNL     1       5.437   1.817   0.969  1.00  0.00     0.027 C 
ATOM     11  C   UNL     1       2.824   0.843  -0.120  1.00  0.00     0.316 C 
ATOM     12  C   UNL     1       6.209   0.218   0.789  1.00  0.00     0.019 A 
ATOM     13  O   UNL     1       3.597  -0.968  -0.166  1.00  0.00    -0.475 OA
ATOM     14  C   UNL     1       7.502   0.109   1.232  1.00  0.00     0.032 A 
ATOM     15  C   UNL     1       5.354  -1.204   0.295  1.00  0.00     0.135 A 
ATOM     16  C   UNL     1       8.043  -1.175   1.184  1.00  0.00     0.042 A 
ATOM     17  C   UNL     1       5.997  -2.430   0.224  1.00  0.00     0.026 A 
ATOM     18  Cl  UNL     1       9.666  -1.381   1.752  1.00  0.00    -0.084 Cl
ATOM     19  C   UNL     1       7.349  -2.344   0.697  1.00  0.00     0.033 A 
BRANCH  11  20
ATOM     20  C   UNL     1       2.478   1.984  -1.363  1.00  0.00     0.430 C 
ATOM     21  F   UNL     1       2.851   1.743  -2.633  1.00  0.00    -0.167 F 
ATOM     22  F   UNL     1       1.151   2.256  -1.371  1.00  0.00    -0.167 F 
ATOM     23  F   UNL     1       3.086   3.183  -1.103  1.00  0.00    -0.167 F 
ENDBRANCH  11  20
BRANCH  17  24
ATOM     24  C   UNL     1       5.601  -3.729  -0.308  1.00  0.00    -0.015 A 
ATOM     25  C   UNL     1       4.948  -4.683   0.481  1.00  0.00     0.010 A 
ATOM     26  C   UNL     1       6.104  -4.147  -1.559  1.00  0.00     0.010 A 
ATOM     27  C   UNL     1       4.716  -5.977  -0.005  1.00  0.00     0.021 A 
ATOM     28  C   UNL     1       5.854  -5.431  -2.058  1.00  0.00     0.021 A 
ATOM     29  C   UNL     1       5.137  -6.334  -1.284  1.00  0.00     0.041 A 
ATOM     30  Cl  UNL     1       4.769  -7.893  -1.912  1.00  0.00    -0.084 Cl
ENDBRANCH  17  24
ENDBRANCH   7   9
ENDBRANCH   6   7
ENDBRANCH   5   6
ENDBRANCH   4   5
ENDBRANCH   3   4
ENDBRANCH   2   3
ENDBRANCH   1   2
BRANCH   1  31
ATOM     31  O   UNL     1       2.402  -3.071  -2.962  1.00  0.00    -0.376 OA
BRANCH  31  32
ATOM     32  C   UNL     1       3.781  -2.978  -3.251  1.00  0.00     0.202 C 
BRANCH  32  33
ATOM     33  C   UNL     1       4.241  -2.418  -4.602  1.00  0.00     0.261 C 
BRANCH  33  34
ATOM     34  O   UNL     1       3.860  -1.056  -4.853  1.00  0.00    -0.460 OA
BRANCH  34  35
ATOM     35  C   UNL     1       2.894  -0.867  -5.786  1.00  0.00     0.338 C 
ATOM     36  O   UNL     1       2.333  -1.717  -6.454  1.00  0.00    -0.246 OA
BRANCH  35  37
ATOM     37  C   UNL     1       2.478   0.547  -5.746  1.00  0.00     0.060 A 
ATOM     38  C   UNL     1       1.218   0.891  -5.231  1.00  0.00     0.016 A 
ATOM     39  C   UNL     1       3.323   1.524  -6.266  1.00  0.00     0.016 A 
ATOM     40  C   UNL     1       0.814   2.224  -5.205  1.00  0.00     0.010 A 
ATOM     41  C   UNL     1       2.897   2.852  -6.285  1.00  0.00     0.010 A 
ATOM     42  C   UNL     1       1.639   3.205  -5.766  1.00  0.00    -0.014 A 
BRANCH  42  43
ATOM     43  C   UNL     1       1.107   4.566  -5.996  1.00  0.00     0.031 A 
ATOM     44  C   UNL     1       0.450   4.848  -7.316  1.00  0.00     0.074 A 
ATOM     45  C   UNL     1       1.223   5.525  -5.061  1.00  0.00     0.049 A 
ATOM     46  N   UNL     1      -0.006   5.977  -7.788  1.00  0.00    -0.248 NA
ATOM     47  C   UNL     1       0.294   3.703  -8.231  1.00  0.00     0.031 C 
ATOM     48  C   UNL     1       1.810   5.343  -3.735  1.00  0.00     0.029 A 
ATOM     49  N   UNL     1       0.867   6.850  -5.092  1.00  0.00    -0.354 N 
ATOM     50  C   UNL     1      -0.489   5.684  -9.057  1.00  0.00     0.074 A 
ATOM     51  C   UNL     1      -0.261   4.276  -9.289  1.00  0.00     0.031 C 
ATOM     52  C   UNL     1       1.792   6.520  -3.085  1.00  0.00     0.029 A 
ATOM     53  C   UNL     1       1.232   7.546  -3.963  1.00  0.00     0.049 A 
ATOM     54  H   UNL     1       0.395   7.263  -5.851  1.00  0.00     0.167 HD
ATOM     55  C   UNL     1      -1.065   6.522  -9.948  1.00  0.00     0.037 A 
ATOM     56  C   UNL     1       1.155   8.866  -3.693  1.00  0.00     0.037 A 
ATOM     57  C   UNL     1      -1.272   7.925  -9.707  1.00  0.00     0.049 A 
ATOM     58  C   UNL     1       0.570   9.789  -4.737  1.00  0.00     0.074 A 
ATOM     59  C   UNL     1      -1.868   8.859 -10.536  1.00  0.00     0.029 A 
ATOM     60  N   UNL     1      -0.875   8.601  -8.562  1.00  0.00    -0.354 N 
ATOM     61  N   UNL     1       0.075   9.495  -5.917  1.00  0.00    -0.248 NA
ATOM     62  C   UNL     1       0.536  11.223  -4.416  1.00  0.00     0.031 C 
ATOM     63  C   UNL     1      -1.766  10.111  -9.924  1.00  0.00     0.029 A 
ATOM     64  C   UNL     1      -1.176   9.947  -8.680  1.00  0.00     0.049 A 
ATOM     65  H   UNL     1      -0.443   8.184  -7.782  1.00  0.00     0.167 HD
ATOM     66  C   UNL     1      -0.347  10.703  -6.466  1.00  0.00     0.074 A 
ATOM     67  C   UNL     1      -0.075  11.726  -5.479  1.00  0.00     0.031 C 
ATOM     68  C   UNL     1      -0.903  10.949  -7.680  1.00  0.00     0.037 A 
BRANCH  55  69
ATOM     69  C   UNL     1      -1.478   5.962 -11.280  1.00  0.00     0.058 A 
ATOM     70  C   UNL     1      -2.574   5.096 -11.415  1.00  0.00     0.135 A 
ATOM     71  C   UNL     1      -0.806   6.357 -12.449  1.00  0.00     0.135 A 
ATOM     72  F   UNL     1      -3.234   4.665 -10.329  1.00  0.00    -0.206 F 
ATOM     73  C   UNL     1      -2.991   4.644 -12.662  1.00  0.00     0.059 A 
ATOM     74  C   UNL     1      -1.225   5.941 -13.709  1.00  0.00     0.059 A 
ATOM     75  F   UNL     1       0.258   7.173 -12.375  1.00  0.00    -0.206 F 
ATOM     76  C   UNL     1      -2.318   5.083 -13.804  1.00  0.00     0.060 A 
BRANCH  76  77
ATOM     77  S   UNL     1      -2.914   4.535 -15.417  1.00  0.00     0.124 S 
ATOM     78  O   UNL     1      -2.582   3.113 -15.385  1.00  0.00    -0.237 OA
ATOM     79  O   UNL     1      -4.336   4.855 -15.346  1.00  0.00    -0.237 OA
ATOM     80  O   UNL     1      -2.139   5.337 -16.359  1.00  0.00    -0.744 OA
ENDBRANCH  76  77
ENDBRANCH  55  69
BRANCH  56  81
ATOM     81  C   UNL     1       1.682   9.412  -2.409  1.00  0.00     0.058 A 
ATOM     82  C   UNL     1       0.839  10.042  -1.480  1.00  0.00     0.135 A 
ATOM     83  C   UNL     1       3.053   9.361  -2.106  1.00  0.00     0.135 A 
ATOM     84  F   UNL     1      -0.477  10.135  -1.725  1.00  0.00    -0.206 F 
ATOM     85  C   UNL     1       1.336  10.628  -0.319  1.00  0.00     0.059 A 
ATOM     86  C   UNL     1       3.568   9.906  -0.934  1.00  0.00     0.059 A 
ATOM     87  F   UNL     1       3.909   8.768  -2.953  1.00  0.00    -0.206 F 
ATOM     88  C   UNL     1       2.704  10.554  -0.054  1.00  0.00     0.060 A 
BRANCH  88  89
ATOM     89  S   UNL     1       3.339  11.305   1.461  1.00  0.00     0.124 S 
ATOM     90  O   UNL     1       3.195  12.726   1.168  1.00  0.00    -0.237 OA
ATOM     91  O   UNL     1       2.435  10.766   2.472  1.00  0.00    -0.237 OA
ATOM     92  O   UNL     1       4.712  10.812   1.531  1.00  0.00    -0.744 OA
ENDBRANCH  88  89
ENDBRANCH  56  81
BRANCH  68  93
ATOM     93  C   UNL     1      -1.285  12.371  -7.998  1.00  0.00     0.058 A 
ATOM     94  C   UNL     1      -0.319  13.363  -8.226  1.00  0.00     0.135 A 
ATOM     95  C   UNL     1      -2.636  12.729  -8.136  1.00  0.00     0.135 A 
ATOM     96  F   UNL     1       0.987  13.078  -8.103  1.00  0.00    -0.206 F 
ATOM     97  C   UNL     1      -0.679  14.667  -8.551  1.00  0.00     0.059 A 
ATOM     98  C   UNL     1      -3.018  14.017  -8.498  1.00  0.00     0.059 A 
ATOM     99  F   UNL     1      -3.603  11.817  -7.944  1.00  0.00    -0.206 F 
ATOM    100  C   UNL     1      -2.032  14.983  -8.691  1.00  0.00     0.060 A 
BRANCH 100 101
ATOM    101  S   UNL     1      -2.481  16.670  -9.149  1.00  0.00     0.124 S 
ATOM    102  O   UNL     1      -2.142  17.406  -7.936  1.00  0.00    -0.237 OA
ATOM    103  O   UNL     1      -1.621  16.917 -10.302  1.00  0.00    -0.237 OA
ATOM    104  O   UNL     1      -3.907  16.575  -9.446  1.00  0.00    -0.744 OA
ENDBRANCH 100 101
ENDBRANCH  68  93
ENDBRANCH  42  43
ENDBRANCH  35  37
ENDBRANCH  34  35
ENDBRANCH  33  34
ENDBRANCH  32  33
ENDBRANCH  31  32
ENDBRANCH   1  31
TORSDOF 22
