REMARK SMILES CC(C)c1cc(C(=O)N[C@@H](Cc2c[nH]c3ccccc23)C(=O)OCCOCCOCCOC(=O)c2ccc(-c3c4nc(c(-c5c(F)cc(S(=O)(=O)[O-])cc5F)c5ccc([nH]5)c(-c5c(F)cc(S(=O)(=O)[O-])cc5F)c5nc(c(-c6c(F)cc(S(=O)(=O)[O-])cc6F)c6ccc3[nH]6)C=C5)C=C4)cc2)n(C)n1
REMARK SMILES IDX 27 1 26 2 25 3 24 4 23 5 21 6 22 7 10 8 9 9 7 10 8 11 6 13
REMARK SMILES IDX 4 14 5 15 103 16 101 17 102 18 2 19 1 20 3 21 11 22 12 23
REMARK SMILES IDX 13 24 20 25 14 26 15 27 19 28 16 30 18 31 17 32 28 33 29 34
REMARK SMILES IDX 30 35 31 36 32 37 33 38 34 39 35 40 36 41 100 42 37 43 99 44
REMARK SMILES IDX 38 45 39 46 40 47 93 48 41 49 98 50 92 51 94 52 42 53 97 54
REMARK SMILES IDX 91 55 90 56 43 58 77 59 56 60 76 61 57 62 60 63 75 64 95 65
REMARK SMILES IDX 58 66 59 67 74 69 96 70 61 71 44 72 45 73 54 74 46 75 47 76
REMARK SMILES IDX 53 77 55 78 48 79 49 80 50 81 51 82 52 83 78 84 79 85 88 86
REMARK SMILES IDX 80 87 81 88 87 89 89 90 82 91 83 92 84 93 85 94 86 95 62 96
REMARK SMILES IDX 63 97 72 98 64 99 65 100 71 101 73 102 66 103 67 104 68 105
REMARK SMILES IDX 69 106 70 107
REMARK H PARENT 9 12 14 29 94 57 60 68
REMARK Flexibility Score: inf
ROOT
ATOM      1  C   UNL     1      -5.916  -0.415   4.469  1.00  0.00     0.188 C 
ENDROOT
BRANCH   1   2
ATOM      2  O   UNL     1      -6.936   0.079   5.323  1.00  0.00    -0.376 OA
BRANCH   2   3
ATOM      3  C   UNL     1      -8.292  -0.018   4.904  1.00  0.00     0.202 C 
BRANCH   3   4
ATOM      4  C   UNL     1      -8.686   0.291   3.448  1.00  0.00     0.261 C 
BRANCH   4   5
ATOM      5  O   UNL     1      -7.915  -0.405   2.446  1.00  0.00    -0.462 OA
BRANCH   5   6
ATOM      6  C   UNL     1      -7.345   0.383   1.504  1.00  0.00     0.329 C 
ATOM      7  O   UNL     1      -7.526   1.597   1.417  1.00  0.00    -0.250 OA
BRANCH   6   8
ATOM      8  C   UNL     1      -6.417  -0.337   0.503  1.00  0.00     0.197 C 
BRANCH   8   9
ATOM      9  N   UNL     1      -5.862  -1.676   0.658  1.00  0.00    -0.337 N 
ATOM     10  C   UNL     1      -4.598  -2.201   0.507  1.00  0.00     0.270 C 
ATOM     11  O   UNL     1      -4.602  -3.439   0.471  1.00  0.00    -0.268 OA
ATOM     12  H   UNL     1      -6.532  -2.346   0.926  1.00  0.00     0.164 HD
BRANCH  10  13
ATOM     13  C   UNL     1      -3.324  -1.478   0.475  1.00  0.00     0.126 A 
ATOM     14  C   UNL     1      -1.070  -1.181   0.552  1.00  0.00     0.066 A 
ATOM     15  C   UNL     1      -2.089  -2.152   0.507  1.00  0.00     0.059 A 
ATOM     16  N   UNL     1      -1.616   0.026   0.636  1.00  0.00    -0.177 NA
ATOM     17  N   UNL     1      -2.924  -0.158   0.396  1.00  0.00    -0.263 N 
ATOM     18  C   UNL     1      -3.589   1.054  -0.013  1.00  0.00     0.174 C 
BRANCH  14  19
ATOM     19  C   UNL     1       0.430  -1.329   0.528  1.00  0.00     0.034 C 
ATOM     20  C   UNL     1       1.088  -0.255  -0.352  1.00  0.00     0.014 C 
ATOM     21  C   UNL     1       1.043  -1.269   1.924  1.00  0.00     0.014 C 
ENDBRANCH  14  19
ENDBRANCH  10  13
ENDBRANCH   8   9
BRANCH   8  22
ATOM     22  C   UNL     1      -7.037  -0.228  -0.900  1.00  0.00     0.074 C 
BRANCH  22  23
ATOM     23  C   UNL     1      -8.409  -0.832  -0.928  1.00  0.00    -0.020 A 
ATOM     24  C   UNL     1      -8.737  -2.172  -0.977  1.00  0.00     0.087 A 
ATOM     25  C   UNL     1      -9.632  -0.107  -0.777  1.00  0.00     0.003 A 
ATOM     26  N   UNL     1     -10.093  -2.284  -0.816  1.00  0.00    -0.361 N 
ATOM     27  C   UNL     1     -10.662  -1.039  -0.678  1.00  0.00     0.046 A 
ATOM     28  C   UNL     1      -9.941   1.263  -0.651  1.00  0.00     0.010 A 
ATOM     29  H   UNL     1     -10.590  -3.134  -0.801  1.00  0.00     0.166 HD
ATOM     30  C   UNL     1     -11.992  -0.666  -0.455  1.00  0.00     0.026 A 
ATOM     31  C   UNL     1     -11.262   1.653  -0.426  1.00  0.00     0.001 A 
ATOM     32  C   UNL     1     -12.271   0.700  -0.329  1.00  0.00     0.002 A 
ENDBRANCH  22  23
ENDBRANCH   8  22
ENDBRANCH   6   8
ENDBRANCH   5   6
ENDBRANCH   4   5
ENDBRANCH   3   4
ENDBRANCH   2   3
ENDBRANCH   1   2
BRANCH   1  33
ATOM     33  C   UNL     1      -6.027  -1.853   3.940  1.00  0.00     0.188 C 
BRANCH  33  34
ATOM     34  O   UNL     1      -7.261  -2.501   4.102  1.00  0.00    -0.376 OA
BRANCH  34  35
ATOM     35  C   UNL     1      -7.441  -3.393   5.186  1.00  0.00     0.202 C 
BRANCH  35  36
ATOM     36  C   UNL     1      -6.519  -3.500   6.421  1.00  0.00     0.261 C 
BRANCH  36  37
ATOM     37  O   UNL     1      -5.277  -2.786   6.424  1.00  0.00    -0.460 OA
BRANCH  37  38
ATOM     38  C   UNL     1      -4.179  -3.479   6.032  1.00  0.00     0.338 C 
ATOM     39  O   UNL     1      -4.140  -4.652   5.681  1.00  0.00    -0.246 OA
BRANCH  38  40
ATOM     40  C   UNL     1      -3.058  -2.529   5.880  1.00  0.00     0.060 A 
ATOM     41  C   UNL     1      -2.628  -2.184   4.593  1.00  0.00     0.016 A 
ATOM     42  C   UNL     1      -2.429  -1.984   7.000  1.00  0.00     0.016 A 
ATOM     43  C   UNL     1      -1.574  -1.288   4.426  1.00  0.00     0.010 A 
ATOM     44  C   UNL     1      -1.331  -1.131   6.825  1.00  0.00     0.010 A 
ATOM     45  C   UNL     1      -0.876  -0.801   5.536  1.00  0.00    -0.014 A 
BRANCH  45  46
ATOM     46  C   UNL     1       0.440  -0.132   5.345  1.00  0.00     0.031 A 
ATOM     47  C   UNL     1       1.693  -0.940   5.575  1.00  0.00     0.074 A 
ATOM     48  C   UNL     1       0.543   1.130   4.889  1.00  0.00     0.049 A 
ATOM     49  N   UNL     1       2.945  -0.563   5.553  1.00  0.00    -0.248 NA
ATOM     50  C   UNL     1       1.502  -2.372   5.854  1.00  0.00     0.031 C 
ATOM     51  C   UNL     1      -0.574   1.978   4.483  1.00  0.00     0.029 A 
ATOM     52  N   UNL     1       1.654   1.910   4.671  1.00  0.00    -0.354 N 
ATOM     53  C   UNL     1       3.689  -1.703   5.842  1.00  0.00     0.074 A 
ATOM     54  C   UNL     1       2.747  -2.781   6.046  1.00  0.00     0.031 C 
ATOM     55  C   UNL     1      -0.093   3.163   4.065  1.00  0.00     0.029 A 
ATOM     56  C   UNL     1       1.361   3.178   4.225  1.00  0.00     0.049 A 
ATOM     57  H   UNL     1       2.574   1.591   4.819  1.00  0.00     0.167 HD
ATOM     58  C   UNL     1       5.034  -1.839   5.929  1.00  0.00     0.037 A 
ATOM     59  C   UNL     1       2.168   4.236   4.003  1.00  0.00     0.037 A 
ATOM     60  C   UNL     1       5.972  -0.767   5.717  1.00  0.00     0.049 A 
ATOM     61  C   UNL     1       3.654   4.098   4.233  1.00  0.00     0.074 A 
ATOM     62  C   UNL     1       7.352  -0.800   5.812  1.00  0.00     0.029 A 
ATOM     63  N   UNL     1       5.628   0.531   5.367  1.00  0.00    -0.354 N 
ATOM     64  N   UNL     1       4.345   3.033   4.565  1.00  0.00    -0.248 NA
ATOM     65  C   UNL     1       4.469   5.311   4.069  1.00  0.00     0.031 C 
ATOM     66  C   UNL     1       7.839   0.491   5.577  1.00  0.00     0.029 A 
ATOM     67  C   UNL     1       6.767   1.314   5.271  1.00  0.00     0.049 A 
ATOM     68  H   UNL     1       4.709   0.848   5.209  1.00  0.00     0.167 HD
ATOM     69  C   UNL     1       5.676   3.440   4.617  1.00  0.00     0.074 A 
ATOM     70  C   UNL     1       5.694   4.846   4.274  1.00  0.00     0.031 C 
ATOM     71  C   UNL     1       6.781   2.713   4.920  1.00  0.00     0.037 A 
BRANCH  58  72
ATOM     72  C   UNL     1       5.569  -3.188   6.332  1.00  0.00     0.058 A 
ATOM     73  C   UNL     1       5.516  -4.300   5.476  1.00  0.00     0.135 A 
ATOM     74  C   UNL     1       6.154  -3.365   7.597  1.00  0.00     0.135 A 
ATOM     75  F   UNL     1       4.951  -4.194   4.263  1.00  0.00    -0.206 F 
ATOM     76  C   UNL     1       5.992  -5.546   5.874  1.00  0.00     0.059 A 
ATOM     77  C   UNL     1       6.664  -4.593   8.003  1.00  0.00     0.059 A 
ATOM     78  F   UNL     1       6.229  -2.337   8.456  1.00  0.00    -0.206 F 
ATOM     79  C   UNL     1       6.562  -5.683   7.141  1.00  0.00     0.060 A 
BRANCH  79  80
ATOM     80  S   UNL     1       7.160  -7.309   7.649  1.00  0.00     0.124 S 
ATOM     81  O   UNL     1       5.907  -8.033   7.844  1.00  0.00    -0.237 OA
ATOM     82  O   UNL     1       7.957  -7.721   6.499  1.00  0.00    -0.237 OA
ATOM     83  O   UNL     1       7.917  -7.030   8.865  1.00  0.00    -0.744 OA
ENDBRANCH  79  80
ENDBRANCH  58  72
BRANCH  59  84
ATOM     84  C   UNL     1       1.591   5.541   3.572  1.00  0.00     0.058 A 
ATOM     85  C   UNL     1       1.881   6.085   2.311  1.00  0.00     0.135 A 
ATOM     86  C   UNL     1       0.754   6.282   4.422  1.00  0.00     0.135 A 
ATOM     87  F   UNL     1       2.695   5.431   1.469  1.00  0.00    -0.206 F 
ATOM     88  C   UNL     1       1.370   7.317   1.913  1.00  0.00     0.059 A 
ATOM     89  C   UNL     1       0.206   7.501   4.035  1.00  0.00     0.059 A 
ATOM     90  F   UNL     1       0.447   5.812   5.642  1.00  0.00    -0.206 F 
ATOM     91  C   UNL     1       0.527   8.015   2.780  1.00  0.00     0.060 A 
BRANCH  91  92
ATOM     92  S   UNL     1      -0.171   9.588   2.233  1.00  0.00     0.124 S 
ATOM     93  O   UNL     1       1.000  10.457   2.259  1.00  0.00    -0.237 OA
ATOM     94  O   UNL     1      -0.687   9.249   0.910  1.00  0.00    -0.237 OA
ATOM     95  O   UNL     1      -1.190   9.872   3.239  1.00  0.00    -0.744 OA
ENDBRANCH  91  92
ENDBRANCH  59  84
BRANCH  71  96
ATOM     96  C   UNL     1       8.117   3.407   4.855  1.00  0.00     0.058 A 
ATOM     97  C   UNL     1       8.504   4.367   5.804  1.00  0.00     0.135 A 
ATOM     98  C   UNL     1       9.049   3.063   3.861  1.00  0.00     0.135 A 
ATOM     99  F   UNL     1       7.654   4.739   6.774  1.00  0.00    -0.206 F 
ATOM    100  C   UNL     1       9.753   4.979   5.755  1.00  0.00     0.059 A 
ATOM    101  C   UNL     1      10.315   3.639   3.811  1.00  0.00     0.059 A 
ATOM    102  F   UNL     1       8.740   2.142   2.934  1.00  0.00    -0.206 F 
ATOM    103  C   UNL     1      10.654   4.606   4.755  1.00  0.00     0.060 A 
BRANCH 103 104
ATOM    104  S   UNL     1      12.284   5.382   4.724  1.00  0.00     0.124 S 
ATOM    105  O   UNL     1      11.960   6.730   4.269  1.00  0.00    -0.237 OA
ATOM    106  O   UNL     1      12.710   5.269   6.116  1.00  0.00    -0.237 OA
ATOM    107  O   UNL     1      13.035   4.564   3.777  1.00  0.00    -0.744 OA
ENDBRANCH 103 104
ENDBRANCH  71  96
ENDBRANCH  45  46
ENDBRANCH  38  40
ENDBRANCH  37  38
ENDBRANCH  36  37
ENDBRANCH  35  36
ENDBRANCH  34  35
ENDBRANCH  33  34
ENDBRANCH   1  33
TORSDOF 25
