REMARK SMILES C[C@@H](C(=O)OCCOCCOCCOC(=O)c1ccc(-c2c3nc(c(-c4c(F)cc(S(=O)(=O)[O-])cc4F)c4ccc([nH]4)c(-c4c(F)cc(S(=O)(=O)[O-])cc4F)c4nc(c(-c5c(F)cc(S(=O)(=O)[O-])cc5F)c5ccc2[nH]5)C=C4)C=C3)cc1)c1ccc(-c2cccc(OC(=O)NC3CC3)c2)c(F)c1
REMARK SMILES IDX 9 1 8 2 7 3 6 4 5 5 3 6 4 7 2 8 1 9 83 10 84 11 102 12 85 13
REMARK SMILES IDX 100 14 86 15 101 16 87 17 88 18 99 19 89 20 91 21 90 22
REMARK SMILES IDX 92 23 93 24 94 25 95 26 96 28 97 29 98 30 10 31 11 32 12 33
REMARK SMILES IDX 13 34 14 35 15 36 16 37 17 38 18 39 82 40 19 41 81 42 20 43
REMARK SMILES IDX 21 44 22 45 75 46 23 47 80 48 74 49 76 50 24 51 79 52 73 53
REMARK SMILES IDX 72 54 25 56 59 57 38 58 58 59 39 60 42 61 57 62 77 63 40 64
REMARK SMILES IDX 41 65 56 67 78 68 43 69 26 70 27 71 36 72 28 73 29 74 35 75
REMARK SMILES IDX 37 76 30 77 31 78 32 79 33 80 34 81 60 82 61 83 70 84 62 85
REMARK SMILES IDX 63 86 69 87 71 88 64 89 65 90 66 91 67 92 68 93 44 94 45 95
REMARK SMILES IDX 54 96 46 97 47 98 53 99 55 100 48 101 49 102 50 103 51 104
REMARK SMILES IDX 52 105
REMARK H PARENT 95 27 76 55 42 66
REMARK Flexibility Score: inf
ROOT
ATOM      1  C   UNL     1       0.323   1.154   3.528  1.00  0.00     0.188 C 
ENDROOT
BRANCH   1   2
ATOM      2  O   UNL     1       0.981   1.056   4.781  1.00  0.00    -0.376 OA
BRANCH   2   3
ATOM      3  C   UNL     1       2.276   0.464   4.824  1.00  0.00     0.202 C 
BRANCH   3   4
ATOM      4  C   UNL     1       2.583  -0.819   4.023  1.00  0.00     0.261 C 
BRANCH   4   5
ATOM      5  O   UNL     1       2.243  -0.785   2.617  1.00  0.00    -0.463 OA
BRANCH   5   6
ATOM      6  C   UNL     1       1.431  -1.780   2.171  1.00  0.00     0.313 C 
ATOM      7  O   UNL     1       1.049  -2.709   2.877  1.00  0.00    -0.252 OA
BRANCH   6   8
ATOM      8  C   UNL     1       1.000  -1.650   0.698  1.00  0.00     0.126 C 
ATOM      9  C   UNL     1       1.794  -0.711  -0.214  1.00  0.00     0.025 C 
BRANCH   8  10
ATOM     10  C   UNL     1      -0.513  -1.510   0.576  1.00  0.00    -0.031 A 
ATOM     11  C   UNL     1      -1.185  -0.296   0.379  1.00  0.00     0.005 A 
ATOM     12  C   UNL     1      -1.288  -2.666   0.724  1.00  0.00     0.044 A 
ATOM     13  C   UNL     1      -2.583  -0.237   0.383  1.00  0.00     0.012 A 
ATOM     14  C   UNL     1      -2.675  -2.603   0.692  1.00  0.00     0.131 A 
ATOM     15  C   UNL     1      -3.360  -1.387   0.560  1.00  0.00     0.018 A 
ATOM     16  F   UNL     1      -3.343  -3.761   0.804  1.00  0.00    -0.206 F 
BRANCH  15  17
ATOM     17  C   UNL     1      -4.822  -1.308   0.688  1.00  0.00    -0.012 A 
ATOM     18  C   UNL     1      -5.608  -0.409  -0.057  1.00  0.00     0.009 A 
ATOM     19  C   UNL     1      -5.465  -2.129   1.624  1.00  0.00     0.056 A 
ATOM     20  C   UNL     1      -6.992  -0.353   0.112  1.00  0.00     0.004 A 
ATOM     21  C   UNL     1      -6.834  -2.062   1.800  1.00  0.00     0.133 A 
ATOM     22  C   UNL     1      -7.607  -1.197   1.028  1.00  0.00     0.047 A 
BRANCH  21  23
ATOM     23  O   UNL     1      -7.486  -2.878   2.730  1.00  0.00    -0.410 OA
BRANCH  23  24
ATOM     24  C   UNL     1      -7.092  -2.745   4.064  1.00  0.00     0.412 C 
ATOM     25  O   UNL     1      -5.911  -2.682   4.422  1.00  0.00    -0.224 OA
ATOM     26  N   UNL     1      -8.076  -2.632   5.153  1.00  0.00    -0.318 N 
ATOM     27  H   UNL     1      -7.543  -2.584   5.979  1.00  0.00     0.167 HD
BRANCH  26  28
ATOM     28  C   UNL     1     -10.039  -2.529   5.765  1.00  0.00     0.085 C 
ATOM     29  C   UNL     1     -11.501  -2.706   5.071  1.00  0.00     0.027 C 
ATOM     30  C   UNL     1     -11.149  -3.679   6.118  1.00  0.00     0.027 C 
ENDBRANCH  26  28
ENDBRANCH  23  24
ENDBRANCH  21  23
ENDBRANCH  15  17
ENDBRANCH   8  10
ENDBRANCH   6   8
ENDBRANCH   5   6
ENDBRANCH   4   5
ENDBRANCH   3   4
ENDBRANCH   2   3
ENDBRANCH   1   2
BRANCH   1  31
ATOM     31  C   UNL     1       1.085   1.791   2.354  1.00  0.00     0.188 C 
BRANCH  31  32
ATOM     32  O   UNL     1       2.466   1.967   2.545  1.00  0.00    -0.376 OA
BRANCH  32  33
ATOM     33  C   UNL     1       2.990   3.260   2.766  1.00  0.00     0.202 C 
BRANCH  33  34
ATOM     34  C   UNL     1       2.210   4.412   3.436  1.00  0.00     0.261 C 
BRANCH  34  35
ATOM     35  O   UNL     1       0.777   4.343   3.481  1.00  0.00    -0.460 OA
BRANCH  35  36
ATOM     36  C   UNL     1       0.108   4.878   2.427  1.00  0.00     0.338 C 
ATOM     37  O   UNL     1       0.606   5.384   1.437  1.00  0.00    -0.246 OA
BRANCH  36  38
ATOM     38  C   UNL     1      -1.331   4.530   2.549  1.00  0.00     0.060 A 
ATOM     39  C   UNL     1      -1.909   3.710   1.571  1.00  0.00     0.016 A 
ATOM     40  C   UNL     1      -2.114   5.019   3.596  1.00  0.00     0.016 A 
ATOM     41  C   UNL     1      -3.267   3.375   1.642  1.00  0.00     0.010 A 
ATOM     42  C   UNL     1      -3.482   4.697   3.651  1.00  0.00     0.010 A 
ATOM     43  C   UNL     1      -4.072   3.875   2.673  1.00  0.00    -0.014 A 
BRANCH  43  44
ATOM     44  C   UNL     1      -5.553   3.698   2.605  1.00  0.00     0.031 A 
ATOM     45  C   UNL     1      -6.356   4.761   1.901  1.00  0.00     0.074 A 
ATOM     46  C   UNL     1      -6.181   2.627   3.136  1.00  0.00     0.049 A 
ATOM     47  N   UNL     1      -7.651   4.862   1.749  1.00  0.00    -0.248 NA
ATOM     48  C   UNL     1      -5.592   5.863   1.291  1.00  0.00     0.031 C 
ATOM     49  C   UNL     1      -5.521   1.511   3.804  1.00  0.00     0.029 A 
ATOM     50  N   UNL     1      -7.520   2.304   3.205  1.00  0.00    -0.354 N 
ATOM     51  C   UNL     1      -7.860   6.050   1.057  1.00  0.00     0.074 A 
ATOM     52  C   UNL     1      -6.559   6.635   0.818  1.00  0.00     0.031 C 
ATOM     53  C   UNL     1      -6.455   0.632   4.218  1.00  0.00     0.029 A 
ATOM     54  C   UNL     1      -7.785   1.103   3.841  1.00  0.00     0.049 A 
ATOM     55  H   UNL     1      -8.228   2.878   2.832  1.00  0.00     0.167 HD
ATOM     56  C   UNL     1      -9.030   6.611   0.669  1.00  0.00     0.037 A 
ATOM     57  C   UNL     1      -8.963   0.477   4.075  1.00  0.00     0.037 A 
ATOM     58  C   UNL     1     -10.325   6.036   0.918  1.00  0.00     0.049 A 
ATOM     59  C   UNL     1     -10.225   1.185   3.671  1.00  0.00     0.074 A 
ATOM     60  C   UNL     1     -11.570   6.540   0.579  1.00  0.00     0.029 A 
ATOM     61  N   UNL     1     -10.547   4.837   1.576  1.00  0.00    -0.354 N 
ATOM     62  N   UNL     1     -10.405   2.268   2.955  1.00  0.00    -0.248 NA
ATOM     63  C   UNL     1     -11.465   0.588   4.158  1.00  0.00     0.031 C 
ATOM     64  C   UNL     1     -12.545   5.678   1.088  1.00  0.00     0.029 A 
ATOM     65  C   UNL     1     -11.908   4.600   1.679  1.00  0.00     0.049 A 
ATOM     66  H   UNL     1      -9.842   4.242   1.920  1.00  0.00     0.167 HD
ATOM     67  C   UNL     1     -11.786   2.441   2.874  1.00  0.00     0.074 A 
ATOM     68  C   UNL     1     -12.390   1.330   3.573  1.00  0.00     0.031 C 
ATOM     69  C   UNL     1     -12.496   3.448   2.310  1.00  0.00     0.037 A 
BRANCH  56  70
ATOM     70  C   UNL     1      -8.968   7.946  -0.018  1.00  0.00     0.058 A 
ATOM     71  C   UNL     1      -8.467   8.091  -1.321  1.00  0.00     0.135 A 
ATOM     72  C   UNL     1      -9.448   9.096   0.632  1.00  0.00     0.135 A 
ATOM     73  F   UNL     1      -7.977   7.028  -1.979  1.00  0.00    -0.206 F 
ATOM     74  C   UNL     1      -8.419   9.332  -1.945  1.00  0.00     0.059 A 
ATOM     75  C   UNL     1      -9.441  10.341   0.014  1.00  0.00     0.059 A 
ATOM     76  F   UNL     1      -9.935   9.014   1.880  1.00  0.00    -0.206 F 
ATOM     77  C   UNL     1      -8.911  10.451  -1.270  1.00  0.00     0.060 A 
BRANCH  77  78
ATOM     78  S   UNL     1      -8.847  12.053  -2.099  1.00  0.00     0.124 S 
ATOM     79  O   UNL     1      -7.411  12.318  -2.107  1.00  0.00    -0.237 OA
ATOM     80  O   UNL     1      -9.444  11.754  -3.396  1.00  0.00    -0.237 OA
ATOM     81  O   UNL     1      -9.638  12.919  -1.230  1.00  0.00    -0.744 OA
ENDBRANCH  77  78
ENDBRANCH  56  70
BRANCH  57  82
ATOM     82  C   UNL     1      -9.051  -0.880   4.721  1.00  0.00     0.058 A 
ATOM     83  C   UNL     1      -9.506  -2.362   3.758  1.00  0.00     0.135 A 
ATOM     84  C   UNL     1      -8.502  -1.089   6.430  1.00  0.00     0.135 A 
ATOM     85  F   UNL     1     -10.018  -2.236   2.525  1.00  0.00    -0.206 F 
ATOM     86  C   UNL     1      -9.292  -4.054   4.466  1.00  0.00     0.059 A 
ATOM     87  C   UNL     1      -8.438  -2.723   7.214  1.00  0.00     0.059 A 
ATOM     88  F   UNL     1      -8.177  -0.010   7.156  1.00  0.00    -0.206 F 
ATOM     89  C   UNL     1      -8.758  -4.200   6.212  1.00  0.00     0.060 A 
BRANCH  89  90
ATOM     90  S   UNL     1      -8.514  -5.793   6.977  1.00  0.00     0.124 S 
ATOM     91  O   UNL     1      -9.833  -6.078   7.533  1.00  0.00    -0.237 OA
ATOM     92  O   UNL     1      -8.103  -6.624   5.853  1.00  0.00    -0.237 OA
ATOM     93  O   UNL     1      -7.474  -5.497   7.958  1.00  0.00    -0.744 OA
ENDBRANCH  89  90
ENDBRANCH  57  82
BRANCH  69  94
ATOM     94  C   UNL     1     -13.999   3.346   2.334  1.00  0.00     0.058 A 
ATOM     95  C   UNL     1     -14.741   3.455   3.522  1.00  0.00     0.135 A 
ATOM     96  C   UNL     1     -14.711   3.172   1.135  1.00  0.00     0.135 A 
ATOM     97  F   UNL     1     -14.114   3.610   4.699  1.00  0.00    -0.206 F 
ATOM     98  C   UNL     1     -16.129   3.362   3.524  1.00  0.00     0.059 A 
ATOM     99  C   UNL     1     -16.101   3.116   1.109  1.00  0.00     0.059 A 
ATOM    100  F   UNL     1     -14.055   3.069  -0.032  1.00  0.00    -0.206 F 
ATOM    101  C   UNL     1     -16.800   3.198   2.312  1.00  0.00     0.060 A 
BRANCH 101 102
ATOM    102  S   UNL     1     -18.603   3.116   2.328  1.00  0.00     0.124 S 
ATOM    103  O   UNL     1     -18.832   1.812   2.941  1.00  0.00    -0.237 OA
ATOM    104  O   UNL     1     -18.957   4.273   3.145  1.00  0.00    -0.237 OA
ATOM    105  O   UNL     1     -18.962   3.219   0.917  1.00  0.00    -0.744 OA
ENDBRANCH 101 102
ENDBRANCH  69  94
ENDBRANCH  43  44
ENDBRANCH  36  38
ENDBRANCH  35  36
ENDBRANCH  34  35
ENDBRANCH  33  34
ENDBRANCH  32  33
ENDBRANCH  31  32
ENDBRANCH   1  31
TORSDOF 25
