REMARK SMILES C[C@H](C(=O)OCCOCCOCCOC(=O)c1ccc(-c2c3nc(c(-c4c(F)cc(S(=O)(=O)[O-])cc4F)c4ccc([nH]4)c(-c4c(F)cc(S(=O)(=O)[O-])cc4F)c4nc(c(-c5c(F)cc(S(=O)(=O)[O-])cc5F)c5ccc2[nH]5)C=C4)C=C3)cc1)[C@@H](C)[N@@H+](C)C[C@H]1C[C@H](O)C1
REMARK SMILES IDX 9 1 8 2 7 3 6 4 5 5 3 6 4 7 2 8 1 9 83 10 84 11 85 12 86 13
REMARK SMILES IDX 87 15 88 16 92 17 89 18 90 19 91 20 10 22 11 23 12 24 13 25
REMARK SMILES IDX 14 26 15 27 16 28 17 29 18 30 82 31 19 32 81 33 20 34 21 35
REMARK SMILES IDX 22 36 75 37 23 38 80 39 74 40 76 41 24 42 79 43 73 44 72 45
REMARK SMILES IDX 25 47 59 48 38 49 58 50 39 51 42 52 57 53 77 54 40 55 41 56
REMARK SMILES IDX 56 58 78 59 43 60 26 61 27 62 36 63 28 64 29 65 35 66 37 67
REMARK SMILES IDX 30 68 31 69 32 70 33 71 34 72 60 73 61 74 70 75 62 76 63 77
REMARK SMILES IDX 69 78 71 79 64 80 65 81 66 82 67 83 68 84 44 85 45 86 54 87
REMARK SMILES IDX 46 88 47 89 53 90 55 91 48 92 49 93 50 94 51 95 52 96
REMARK H PARENT 85 14 91 21 76 46 42 57
REMARK Flexibility Score: inf
ROOT
ATOM      1  C   UNL     1       0.697   1.086  -2.215  1.00  0.00     0.188 C 
ENDROOT
BRANCH   1   2
ATOM      2  O   UNL     1       1.870   0.517  -2.774  1.00  0.00    -0.376 OA
BRANCH   2   3
ATOM      3  C   UNL     1       1.991  -0.897  -2.722  1.00  0.00     0.202 C 
BRANCH   3   4
ATOM      4  C   UNL     1       2.143  -1.562  -1.344  1.00  0.00     0.261 C 
BRANCH   4   5
ATOM      5  O   UNL     1       1.241  -1.108  -0.315  1.00  0.00    -0.463 OA
BRANCH   5   6
ATOM      6  C   UNL     1       1.772  -0.232   0.575  1.00  0.00     0.314 C 
ATOM      7  O   UNL     1       2.939   0.147   0.518  1.00  0.00    -0.252 OA
BRANCH   6   8
ATOM      8  C   UNL     1       0.858   0.130   1.749  1.00  0.00     0.154 C 
ATOM      9  C   UNL     1       1.384   1.484   2.296  1.00  0.00     0.026 C 
BRANCH   8  10
ATOM     10  C   UNL     1      -0.707   0.253   1.666  1.00  0.00     0.194 C 
ATOM     11  C   UNL     1      -1.514  -0.527   0.627  1.00  0.00     0.076 C 
BRANCH  10  12
ATOM     12  N   UNL     1      -1.336   0.174   3.016  1.00  0.00    -0.334 N 
ATOM     13  C   UNL     1      -2.735   0.576   3.090  1.00  0.00     0.332 C 
ATOM     14  H   UNL     1      -0.803   0.932   3.442  1.00  0.00     0.348 HD
BRANCH  12  15
ATOM     15  C   UNL     1      -0.981  -0.924   3.921  1.00  0.00     0.265 C 
BRANCH  15  16
ATOM     16  C   UNL     1      -1.454  -2.339   3.567  1.00  0.00     0.049 C 
ATOM     17  C   UNL     1      -0.540  -3.422   4.220  1.00  0.00     0.041 C 
ATOM     18  C   UNL     1      -1.206  -3.104   2.230  1.00  0.00     0.041 C 
ATOM     19  C   UNL     1      -0.872  -4.362   3.049  1.00  0.00     0.115 C 
BRANCH  19  20
ATOM     20  O   UNL     1      -1.940  -5.307   3.258  1.00  0.00    -0.393 OA
ATOM     21  H   UNL     1      -2.722  -4.842   3.597  1.00  0.00     0.210 HD
ENDBRANCH  19  20
ENDBRANCH  15  16
ENDBRANCH  12  15
ENDBRANCH  10  12
ENDBRANCH   8  10
ENDBRANCH   6   8
ENDBRANCH   5   6
ENDBRANCH   4   5
ENDBRANCH   3   4
ENDBRANCH   2   3
ENDBRANCH   1   2
BRANCH   1  22
ATOM     22  C   UNL     1      -0.652   0.570  -2.716  1.00  0.00     0.188 C 
BRANCH  22  23
ATOM     23  O   UNL     1      -0.823  -0.842  -2.722  1.00  0.00    -0.376 OA
BRANCH  23  24
ATOM     24  C   UNL     1      -2.162  -1.324  -2.886  1.00  0.00     0.202 C 
BRANCH  24  25
ATOM     25  C   UNL     1      -3.053  -0.624  -3.929  1.00  0.00     0.261 C 
BRANCH  25  26
ATOM     26  O   UNL     1      -3.255   0.789  -3.715  1.00  0.00    -0.460 OA
BRANCH  26  27
ATOM     27  C   UNL     1      -3.786   1.182  -2.527  1.00  0.00     0.338 C 
ATOM     28  O   UNL     1      -4.295   0.462  -1.694  1.00  0.00    -0.246 OA
BRANCH  27  29
ATOM     29  C   UNL     1      -3.392   2.604  -2.297  1.00  0.00     0.060 A 
ATOM     30  C   UNL     1      -3.035   2.997  -0.997  1.00  0.00     0.016 A 
ATOM     31  C   UNL     1      -3.283   3.520  -3.348  1.00  0.00     0.016 A 
ATOM     32  C   UNL     1      -2.615   4.307  -0.741  1.00  0.00     0.010 A 
ATOM     33  C   UNL     1      -2.874   4.834  -3.089  1.00  0.00     0.010 A 
ATOM     34  C   UNL     1      -2.574   5.247  -1.779  1.00  0.00    -0.014 A 
BRANCH  34  35
ATOM     35  C   UNL     1      -2.438   6.697  -1.471  1.00  0.00     0.031 A 
ATOM     36  C   UNL     1      -3.692   7.534  -1.450  1.00  0.00     0.074 A 
ATOM     37  C   UNL     1      -1.250   7.270  -1.195  1.00  0.00     0.049 A 
ATOM     38  N   UNL     1      -3.832   8.823  -1.284  1.00  0.00    -0.248 NA
ATOM     39  C   UNL     1      -4.960   6.812  -1.645  1.00  0.00     0.031 C 
ATOM     40  C   UNL     1       0.034   6.575  -1.129  1.00  0.00     0.029 A 
ATOM     41  N   UNL     1      -0.936   8.582  -0.928  1.00  0.00    -0.354 N 
ATOM     42  C   UNL     1      -5.198   9.069  -1.366  1.00  0.00     0.074 A 
ATOM     43  C   UNL     1      -5.841   7.800  -1.627  1.00  0.00     0.031 C 
ATOM     44  C   UNL     1       1.000   7.471  -0.853  1.00  0.00     0.029 A 
ATOM     45  C   UNL     1       0.411   8.807  -0.760  1.00  0.00     0.049 A 
ATOM     46  H   UNL     1      -1.612   9.294  -0.862  1.00  0.00     0.167 HD
ATOM     47  C   UNL     1      -5.861  10.241  -1.226  1.00  0.00     0.037 A 
ATOM     48  C   UNL     1       1.092   9.960  -0.580  1.00  0.00     0.037 A 
ATOM     49  C   UNL     1      -5.225  11.504  -0.963  1.00  0.00     0.049 A 
ATOM     50  C   UNL     1       0.339  11.268  -0.509  1.00  0.00     0.074 A 
ATOM     51  C   UNL     1      -5.816  12.745  -0.798  1.00  0.00     0.029 A 
ATOM     52  N   UNL     1      -3.857  11.693  -0.832  1.00  0.00    -0.354 N 
ATOM     53  N   UNL     1      -0.954  11.485  -0.579  1.00  0.00    -0.248 NA
ATOM     54  C   UNL     1       1.139  12.491  -0.335  1.00  0.00     0.031 C 
ATOM     55  C   UNL     1      -4.803  13.693  -0.624  1.00  0.00     0.029 A 
ATOM     56  C   UNL     1      -3.584  13.034  -0.615  1.00  0.00     0.049 A 
ATOM     57  H   UNL     1      -3.181  10.980  -0.885  1.00  0.00     0.167 HD
ATOM     58  C   UNL     1      -1.121  12.860  -0.424  1.00  0.00     0.074 A 
ATOM     59  C   UNL     1       0.200  13.424  -0.248  1.00  0.00     0.031 C 
ATOM     60  C   UNL     1      -2.266  13.588  -0.425  1.00  0.00     0.037 A 
BRANCH  47  61
ATOM     61  C   UNL     1      -7.356  10.217  -1.388  1.00  0.00     0.058 A 
ATOM     62  C   UNL     1      -8.197   9.628  -0.429  1.00  0.00     0.135 A 
ATOM     63  C   UNL     1      -7.958  10.822  -2.503  1.00  0.00     0.135 A 
ATOM     64  F   UNL     1      -7.673   9.016   0.645  1.00  0.00    -0.206 F 
ATOM     65  C   UNL     1      -9.579   9.618  -0.584  1.00  0.00     0.059 A 
ATOM     66  C   UNL     1      -9.340  10.851  -2.662  1.00  0.00     0.059 A 
ATOM     67  F   UNL     1      -7.201  11.395  -3.452  1.00  0.00    -0.206 F 
ATOM     68  C   UNL     1     -10.141  10.234  -1.703  1.00  0.00     0.060 A 
BRANCH  68  69
ATOM     69  S   UNL     1     -11.937  10.218  -1.884  1.00  0.00     0.124 S 
ATOM     70  O   UNL     1     -12.185   8.814  -2.196  1.00  0.00    -0.237 OA
ATOM     71  O   UNL     1     -12.386  10.663  -0.569  1.00  0.00    -0.237 OA
ATOM     72  O   UNL     1     -12.178  11.155  -2.977  1.00  0.00    -0.744 OA
ENDBRANCH  68  69
ENDBRANCH  47  61
BRANCH  48  73
ATOM     73  C   UNL     1       2.579   9.945  -0.479  1.00  0.00     0.058 A 
ATOM     74  C   UNL     1       3.234  10.293   0.713  1.00  0.00     0.135 A 
ATOM     75  C   UNL     1       3.378   9.612  -1.585  1.00  0.00     0.135 A 
ATOM     76  F   UNL     1       2.518  10.641   1.793  1.00  0.00    -0.206 F 
ATOM     77  C   UNL     1       4.623  10.329   0.801  1.00  0.00     0.059 A 
ATOM     78  C   UNL     1       4.768   9.610  -1.513  1.00  0.00     0.059 A 
ATOM     79  F   UNL     1       2.805   9.271  -2.750  1.00  0.00    -0.206 F 
ATOM     80  C   UNL     1       5.382   9.982  -0.318  1.00  0.00     0.060 A 
BRANCH  80  81
ATOM     81  S   UNL     1       7.183   9.993  -0.182  1.00  0.00     0.124 S 
ATOM     82  O   UNL     1       7.465  11.423  -0.124  1.00  0.00    -0.237 OA
ATOM     83  O   UNL     1       7.400   9.249   1.055  1.00  0.00    -0.237 OA
ATOM     84  O   UNL     1       7.616   9.314  -1.399  1.00  0.00    -0.744 OA
ENDBRANCH  80  81
ENDBRANCH  48  73
BRANCH  60  85
ATOM     85  C   UNL     1      -2.161  15.071  -0.182  1.00  0.00     0.058 A 
ATOM     86  C   UNL     1      -1.630  15.947  -1.142  1.00  0.00     0.135 A 
ATOM     87  C   UNL     1      -2.661  15.632   1.006  1.00  0.00     0.135 A 
ATOM     88  F   UNL     1      -1.135  15.468  -2.294  1.00  0.00    -0.206 F 
ATOM     89  C   UNL     1      -1.576  17.322  -0.923  1.00  0.00     0.059 A 
ATOM     90  C   UNL     1      -2.645  17.005   1.233  1.00  0.00     0.059 A 
ATOM     91  F   UNL     1      -3.193  14.844   1.954  1.00  0.00    -0.206 F 
ATOM     92  C   UNL     1      -2.090  17.842   0.267  1.00  0.00     0.060 A 
BRANCH  92  93
ATOM     93  S   UNL     1      -2.046  19.629   0.522  1.00  0.00     0.124 S 
ATOM     94  O   UNL     1      -0.625  19.859   0.756  1.00  0.00    -0.237 OA
ATOM     95  O   UNL     1      -2.571  20.137  -0.742  1.00  0.00    -0.237 OA
ATOM     96  O   UNL     1      -2.914  19.830   1.679  1.00  0.00    -0.744 OA
ENDBRANCH  92  93
ENDBRANCH  60  85
ENDBRANCH  34  35
ENDBRANCH  27  29
ENDBRANCH  26  27
ENDBRANCH  25  26
ENDBRANCH  24  25
ENDBRANCH  23  24
ENDBRANCH  22  23
ENDBRANCH   1  22
TORSDOF 25
