REMARK SMILES CC(C)[C@H](NC(=O)[C@H](Cc1ccccc1)n1c(=O)[nH]c2ccccc2c1=O)C(=O)OCCOCCOCCOC(=O)c1ccc(-c2c3nc(c(-c4c(F)cc(S(=O)(=O)[O-])cc4F)c4ccc([nH]4)c(-c4c(F)cc(S(=O)(=O)[O-])cc4F)c4nc(c(-c5c(F)cc(S(=O)(=O)[O-])cc5F)c5ccc2[nH]5)C=C4)C=C3)cc1
REMARK SMILES IDX 34 1 33 2 32 3 31 4 30 5 28 6 29 7 4 8 2 9 1 10 3 11 5 12
REMARK SMILES IDX 6 13 7 15 8 16 16 17 17 18 26 19 18 20 19 21 25 22 27 23
REMARK SMILES IDX 20 24 24 26 21 27 23 28 22 29 9 30 10 31 11 32 15 33 12 34
REMARK SMILES IDX 14 35 13 36 35 37 36 38 37 39 38 40 39 41 40 42 41 43 42 44
REMARK SMILES IDX 43 45 107 46 44 47 106 48 45 49 46 50 47 51 100 52 48 53
REMARK SMILES IDX 105 54 99 55 101 56 49 57 104 58 98 59 97 60 50 62 84 63
REMARK SMILES IDX 63 64 83 65 64 66 67 67 82 68 102 69 65 70 66 71 81 73
REMARK SMILES IDX 103 74 68 75 51 76 52 77 61 78 53 79 54 80 60 81 62 82 55 83
REMARK SMILES IDX 56 84 57 85 58 86 59 87 85 88 86 89 95 90 87 91 88 92 94 93
REMARK SMILES IDX 96 94 89 95 90 96 91 97 92 98 93 99 69 100 70 101 79 102
REMARK SMILES IDX 71 103 72 104 78 105 80 106 73 107 74 108 75 109 76 110
REMARK SMILES IDX 77 111
REMARK H PARENT 5 14 19 25 101 61 67 72
REMARK Flexibility Score: inf
ROOT
ATOM      1  C   UNL     1      -6.268   2.324  -2.874  1.00  0.00     0.188 C 
ENDROOT
BRANCH   1   2
ATOM      2  O   UNL     1      -5.194   2.555  -1.991  1.00  0.00    -0.376 OA
BRANCH   2   3
ATOM      3  C   UNL     1      -5.051   3.924  -1.746  1.00  0.00     0.202 C 
BRANCH   3   4
ATOM      4  C   UNL     1      -3.610   4.295  -2.079  1.00  0.00     0.261 C 
BRANCH   4   5
ATOM      5  O   UNL     1      -3.162   3.829  -3.400  1.00  0.00    -0.462 OA
BRANCH   5   6
ATOM      6  C   UNL     1      -2.140   2.918  -3.386  1.00  0.00     0.328 C 
ATOM      7  O   UNL     1      -1.520   2.656  -2.350  1.00  0.00    -0.250 OA
BRANCH   6   8
ATOM      8  C   UNL     1      -1.720   2.195  -4.758  1.00  0.00     0.194 C 
BRANCH   8   9
ATOM      9  C   UNL     1      -0.182   2.514  -4.905  1.00  0.00     0.017 C 
ATOM     10  C   UNL     1       0.640   1.227  -4.752  1.00  0.00     0.010 C 
ATOM     11  C   UNL     1       0.238   3.275  -6.160  1.00  0.00     0.010 C 
ENDBRANCH   8   9
BRANCH   8  12
ATOM     12  N   UNL     1      -2.447   2.225  -6.081  1.00  0.00    -0.341 N 
ATOM     13  C   UNL     1      -3.369   1.462  -6.768  1.00  0.00     0.244 C 
ATOM     14  H   UNL     1      -2.190   3.018  -6.604  1.00  0.00     0.164 HD
ATOM     15  O   UNL     1      -3.557   1.876  -7.929  1.00  0.00    -0.273 OA
BRANCH  13  16
ATOM     16  C   UNL     1      -4.262   0.184  -6.295  1.00  0.00     0.189 C 
BRANCH  16  17
ATOM     17  N   UNL     1      -3.967  -0.387  -4.942  1.00  0.00    -0.247 N 
ATOM     18  C   UNL     1      -4.097   0.534  -3.988  1.00  0.00     0.329 A 
ATOM     19  C   UNL     1      -3.267  -1.565  -4.617  1.00  0.00     0.264 A 
ATOM     20  O   UNL     1      -4.241   1.703  -4.298  1.00  0.00    -0.248 OA
ATOM     21  N   UNL     1      -3.975   0.241  -2.699  1.00  0.00    -0.307 N 
ATOM     22  C   UNL     1      -3.230  -1.951  -3.137  1.00  0.00     0.064 A 
ATOM     23  O   UNL     1      -2.680  -2.256  -5.442  1.00  0.00    -0.268 OA
ATOM     24  C   UNL     1      -3.706  -1.011  -2.235  1.00  0.00     0.055 A 
ATOM     25  H   UNL     1      -4.085   0.968  -2.044  1.00  0.00     0.171 HD
ATOM     26  C   UNL     1      -2.736  -3.135  -2.585  1.00  0.00     0.016 A 
ATOM     27  C   UNL     1      -3.859  -1.232  -0.868  1.00  0.00     0.027 A 
ATOM     28  C   UNL     1      -2.849  -3.372  -1.192  1.00  0.00     0.001 A 
ATOM     29  C   UNL     1      -3.453  -2.441  -0.343  1.00  0.00     0.002 A 
ENDBRANCH  16  17
BRANCH  16  30
ATOM     30  C   UNL     1      -5.907   0.457  -6.830  1.00  0.00     0.071 C 
BRANCH  30  31
ATOM     31  C   UNL     1      -7.368   0.507  -6.173  1.00  0.00    -0.045 A 
ATOM     32  C   UNL     1      -7.621   0.268  -4.394  1.00  0.00     0.004 A 
ATOM     33  C   UNL     1      -8.829   0.282  -7.247  1.00  0.00     0.004 A 
ATOM     34  C   UNL     1      -9.195  -0.262  -3.692  1.00  0.00     0.000 A 
ATOM     35  C   UNL     1     -10.431  -0.273  -6.535  1.00  0.00     0.000 A 
ATOM     36  C   UNL     1     -10.592  -0.529  -4.765  1.00  0.00     0.000 A 
ENDBRANCH  30  31
ENDBRANCH  16  30
ENDBRANCH  13  16
ENDBRANCH   8  12
ENDBRANCH   6   8
ENDBRANCH   5   6
ENDBRANCH   4   5
ENDBRANCH   3   4
ENDBRANCH   2   3
ENDBRANCH   1   2
BRANCH   1  37
ATOM     37  C   UNL     1      -6.322   3.001  -4.314  1.00  0.00     0.188 C 
BRANCH  37  38
ATOM     38  O   UNL     1      -7.661   3.431  -4.531  1.00  0.00    -0.376 OA
BRANCH  38  39
ATOM     39  C   UNL     1      -8.551   2.781  -5.452  1.00  0.00     0.202 C 
BRANCH  39  40
ATOM     40  C   UNL     1      -9.363   1.293  -5.372  1.00  0.00     0.261 C 
BRANCH  40  41
ATOM     41  O   UNL     1      -8.794  -0.620  -5.547  1.00  0.00    -0.460 OA
BRANCH  41  42
ATOM     42  C   UNL     1      -8.583  -1.913  -6.109  1.00  0.00     0.338 C 
ATOM     43  O   UNL     1      -8.958  -2.294  -7.219  1.00  0.00    -0.246 OA
BRANCH  42  44
ATOM     44  C   UNL     1      -7.671  -2.862  -5.422  1.00  0.00     0.060 A 
ATOM     45  C   UNL     1      -6.317  -2.670  -5.698  1.00  0.00     0.016 A 
ATOM     46  C   UNL     1      -8.161  -4.168  -5.397  1.00  0.00     0.016 A 
ATOM     47  C   UNL     1      -5.532  -3.694  -6.223  1.00  0.00     0.010 A 
ATOM     48  C   UNL     1      -7.367  -5.213  -5.878  1.00  0.00     0.010 A 
ATOM     49  C   UNL     1      -6.068  -4.972  -6.353  1.00  0.00    -0.014 A 
BRANCH  49  50
ATOM     50  C   UNL     1      -5.290  -6.082  -6.950  1.00  0.00     0.031 A 
ATOM     51  C   UNL     1      -5.712  -6.697  -8.254  1.00  0.00     0.074 A 
ATOM     52  C   UNL     1      -4.264  -6.591  -6.248  1.00  0.00     0.049 A 
ATOM     53  N   UNL     1      -5.407  -7.868  -8.749  1.00  0.00    -0.248 NA
ATOM     54  C   UNL     1      -6.591  -5.888  -9.114  1.00  0.00     0.031 C 
ATOM     55  C   UNL     1      -3.702  -5.999  -5.034  1.00  0.00     0.029 A 
ATOM     56  N   UNL     1      -3.546  -7.746  -6.421  1.00  0.00    -0.354 N 
ATOM     57  C   UNL     1      -6.090  -7.962  -9.959  1.00  0.00     0.074 A 
ATOM     58  C   UNL     1      -6.815  -6.719 -10.126  1.00  0.00     0.031 C 
ATOM     59  C   UNL     1      -2.764  -6.818  -4.539  1.00  0.00     0.029 A 
ATOM     60  C   UNL     1      -2.721  -8.023  -5.356  1.00  0.00     0.049 A 
ATOM     61  H   UNL     1      -3.614  -8.316  -7.221  1.00  0.00     0.167 HD
ATOM     62  C   UNL     1      -6.114  -9.007 -10.825  1.00  0.00     0.037 A 
ATOM     63  C   UNL     1      -2.065  -9.151  -5.031  1.00  0.00     0.037 A 
ATOM     64  C   UNL     1      -5.375 -10.232 -10.608  1.00  0.00     0.049 A 
ATOM     65  C   UNL     1      -2.186 -10.334  -5.949  1.00  0.00     0.074 A 
ATOM     66  C   UNL     1      -5.332 -11.368 -11.397  1.00  0.00     0.029 A 
ATOM     67  N   UNL     1      -4.549 -10.477  -9.516  1.00  0.00    -0.354 N 
ATOM     68  N   UNL     1      -2.882 -10.450  -7.056  1.00  0.00    -0.248 NA
ATOM     69  C   UNL     1      -1.436 -11.537  -5.576  1.00  0.00     0.031 C 
ATOM     70  C   UNL     1      -4.535 -12.321 -10.751  1.00  0.00     0.029 A 
ATOM     71  C   UNL     1      -4.014 -11.753  -9.598  1.00  0.00     0.049 A 
ATOM     72  H   UNL     1      -4.371  -9.837  -8.790  1.00  0.00     0.167 HD
ATOM     73  C   UNL     1      -2.618 -11.726  -7.537  1.00  0.00     0.074 A 
ATOM     74  C   UNL     1      -1.693 -12.336  -6.601  1.00  0.00     0.031 C 
ATOM     75  C   UNL     1      -3.091 -12.337  -8.653  1.00  0.00     0.037 A 
BRANCH  62  76
ATOM     76  C   UNL     1      -7.005  -8.909 -12.040  1.00  0.00     0.058 A 
ATOM     77  C   UNL     1      -6.739  -8.027 -13.100  1.00  0.00     0.135 A 
ATOM     78  C   UNL     1      -8.129  -9.745 -12.164  1.00  0.00     0.135 A 
ATOM     79  F   UNL     1      -5.685  -7.198 -13.043  1.00  0.00    -0.206 F 
ATOM     80  C   UNL     1      -7.569  -7.956 -14.219  1.00  0.00     0.059 A 
ATOM     81  C   UNL     1      -8.955  -9.713 -13.287  1.00  0.00     0.059 A 
ATOM     82  F   UNL     1      -8.436 -10.614 -11.188  1.00  0.00    -0.206 F 
ATOM     83  C   UNL     1      -8.675  -8.803 -14.303  1.00  0.00     0.060 A 
BRANCH  83  84
ATOM     84  S   UNL     1      -9.740  -8.697 -15.759  1.00  0.00     0.124 S 
ATOM     85  O   UNL     1     -10.370  -7.394 -15.571  1.00  0.00    -0.237 OA
ATOM     86  O   UNL     1      -8.780  -8.784 -16.855  1.00  0.00    -0.237 OA
ATOM     87  O   UNL     1     -10.629  -9.847 -15.618  1.00  0.00    -0.744 OA
ENDBRANCH  83  84
ENDBRANCH  62  76
BRANCH  63  88
ATOM     88  C   UNL     1      -1.272  -9.214  -3.774  1.00  0.00     0.058 A 
ATOM     89  C   UNL     1       0.125  -9.325  -3.810  1.00  0.00     0.135 A 
ATOM     90  C   UNL     1      -1.886  -9.139  -2.512  1.00  0.00     0.135 A 
ATOM     91  F   UNL     1       0.760  -9.404  -4.989  1.00  0.00    -0.206 F 
ATOM     92  C   UNL     1       0.884  -9.379  -2.646  1.00  0.00     0.059 A 
ATOM     93  C   UNL     1      -1.147  -9.156  -1.334  1.00  0.00     0.059 A 
ATOM     94  F   UNL     1      -3.219  -9.012  -2.416  1.00  0.00    -0.206 F 
ATOM     95  C   UNL     1       0.238  -9.288  -1.411  1.00  0.00     0.060 A 
BRANCH  95  96
ATOM     96  S   UNL     1       1.240  -9.314   0.091  1.00  0.00     0.124 S 
ATOM     97  O   UNL     1       1.708 -10.694   0.110  1.00  0.00    -0.237 OA
ATOM     98  O   UNL     1       2.248  -8.299  -0.199  1.00  0.00    -0.237 OA
ATOM     99  O   UNL     1       0.285  -8.956   1.137  1.00  0.00    -0.744 OA
ENDBRANCH  95  96
ENDBRANCH  63  88
BRANCH  75 100
ATOM    100  C   UNL     1      -2.558 -13.714  -8.950  1.00  0.00     0.058 A 
ATOM    101  C   UNL     1      -2.880 -14.828  -8.158  1.00  0.00     0.135 A 
ATOM    102  C   UNL     1      -1.715 -13.919 -10.055  1.00  0.00     0.135 A 
ATOM    103  F   UNL     1      -3.674 -14.688  -7.083  1.00  0.00    -0.206 F 
ATOM    104  C   UNL     1      -2.350 -16.086  -8.425  1.00  0.00     0.059 A 
ATOM    105  C   UNL     1      -1.207 -15.175 -10.364  1.00  0.00     0.059 A 
ATOM    106  F   UNL     1      -1.382 -12.891 -10.852  1.00  0.00    -0.206 F 
ATOM    107  C   UNL     1      -1.514 -16.249  -9.531  1.00  0.00     0.060 A 
BRANCH 107 108
ATOM    108  S   UNL     1      -0.841 -17.888  -9.871  1.00  0.00     0.124 S 
ATOM    109  O   UNL     1       0.129 -18.037  -8.791  1.00  0.00    -0.237 OA
ATOM    110  O   UNL     1      -2.026 -18.735  -9.780  1.00  0.00    -0.237 OA
ATOM    111  O   UNL     1      -0.274 -17.753 -11.209  1.00  0.00    -0.744 OA
ENDBRANCH 107 108
ENDBRANCH  75 100
ENDBRANCH  49  50
ENDBRANCH  42  44
ENDBRANCH  41  42
ENDBRANCH  40  41
ENDBRANCH  39  40
ENDBRANCH  38  39
ENDBRANCH  37  38
ENDBRANCH   1  37
TORSDOF 26
