REMARK SMILES O=C(C[NH+]1CC(c2nc(-c3cccs3)no2)C1)OCCOCCOCCOC(=O)c1ccc(-c2c3nc(c(-c4c(F)cc(S(=O)(=O)[O-])cc4F)c4ccc([nH]4)c(-c4c(F)cc(S(=O)(=O)[O-])cc4F)c4nc(c(-c5c(F)cc(S(=O)(=O)[O-])cc5F)c5ccc2[nH]5)C=C4)C=C3)cc1
REMARK SMILES IDX 22 1 21 2 20 3 19 4 18 5 2 6 1 7 3 8 4 9 5 10 17 11 6 13
REMARK SMILES IDX 7 14 8 15 16 16 9 17 15 18 10 19 11 20 14 21 12 22 13 23
REMARK SMILES IDX 23 24 24 25 25 26 26 27 27 28 28 29 29 30 30 31 31 32 95 33
REMARK SMILES IDX 32 34 94 35 33 36 34 37 35 38 88 39 36 40 93 41 87 42 89 43
REMARK SMILES IDX 37 44 92 45 86 46 85 47 38 49 72 50 51 51 71 52 52 53 55 54
REMARK SMILES IDX 70 55 90 56 53 57 54 58 69 60 91 61 56 62 39 63 40 64 49 65
REMARK SMILES IDX 41 66 42 67 48 68 50 69 43 70 44 71 45 72 46 73 47 74 73 75
REMARK SMILES IDX 74 76 83 77 75 78 76 79 82 80 84 81 77 82 78 83 79 84 80 85
REMARK SMILES IDX 81 86 57 87 58 88 67 89 59 90 60 91 66 92 68 93 61 94 62 95
REMARK SMILES IDX 63 96 64 97 65 98
REMARK H PARENT 4 12 89 48 55 59
REMARK Flexibility Score: inf
ROOT
ATOM      1  C   UNL     1       2.719   1.544   1.003  1.00  0.00     0.188 C 
ENDROOT
BRANCH   1   2
ATOM      2  O   UNL     1       4.051   1.050   0.916  1.00  0.00    -0.376 OA
BRANCH   2   3
ATOM      3  C   UNL     1       4.657   1.028  -0.369  1.00  0.00     0.202 C 
BRANCH   3   4
ATOM      4  C   UNL     1       4.247  -0.071  -1.344  1.00  0.00     0.261 C 
BRANCH   4   5
ATOM      5  O   UNL     1       2.837  -0.292  -1.450  1.00  0.00    -0.459 OA
BRANCH   5   6
ATOM      6  C   UNL     1       2.187  -1.319  -0.842  1.00  0.00     0.361 C 
ATOM      7  O   UNL     1       1.067  -1.638  -1.241  1.00  0.00    -0.245 OA
BRANCH   6   8
ATOM      8  C   UNL     1       2.792  -1.956   0.408  1.00  0.00     0.386 C 
BRANCH   8   9
ATOM      9  N   UNL     1       3.983  -2.749   0.075  1.00  0.00    -0.324 N 
ATOM     10  C   UNL     1       5.085  -2.515   1.067  1.00  0.00     0.282 C 
ATOM     11  C   UNL     1       3.882  -4.121   0.649  1.00  0.00     0.282 C 
ATOM     12  H   UNL     1       4.096  -2.572  -0.923  1.00  0.00     0.348 HD
ATOM     13  C   UNL     1       5.407  -4.017   0.931  1.00  0.00     0.188 C 
BRANCH  13  14
ATOM     14  C   UNL     1       5.783  -4.766   2.177  1.00  0.00     0.241 A 
ATOM     15  N   UNL     1       6.245  -5.993   2.131  1.00  0.00    -0.190 NA
ATOM     16  O   UNL     1       5.551  -4.328   3.448  1.00  0.00    -0.338 OA
ATOM     17  C   UNL     1       6.147  -6.389   3.444  1.00  0.00     0.212 A 
ATOM     18  N   UNL     1       5.827  -5.401   4.292  1.00  0.00    -0.056 NA
BRANCH  17  19
ATOM     19  C   UNL     1       6.247  -7.828   3.820  1.00  0.00     0.075 A 
ATOM     20  C   UNL     1       6.487  -8.828   2.899  1.00  0.00     0.024 A 
ATOM     21  S   UNL     1       5.978  -8.447   5.384  1.00  0.00    -0.140 S 
ATOM     22  C   UNL     1       6.366 -10.124   3.476  1.00  0.00     0.012 A 
ATOM     23  C   UNL     1       6.064 -10.061   4.819  1.00  0.00     0.065 A 
ENDBRANCH  17  19
ENDBRANCH  13  14
ENDBRANCH   8   9
ENDBRANCH   6   8
ENDBRANCH   5   6
ENDBRANCH   4   5
ENDBRANCH   3   4
ENDBRANCH   2   3
ENDBRANCH   1   2
BRANCH   1  24
ATOM     24  C   UNL     1       2.391   3.000   0.626  1.00  0.00     0.188 C 
BRANCH  24  25
ATOM     25  O   UNL     1       3.378   3.809   0.012  1.00  0.00    -0.376 OA
BRANCH  25  26
ATOM     26  C   UNL     1       4.541   4.152   0.764  1.00  0.00     0.202 C 
BRANCH  26  27
ATOM     27  C   UNL     1       4.333   4.724   2.164  1.00  0.00     0.261 C 
BRANCH  27  28
ATOM     28  O   UNL     1       3.963   3.692   3.099  1.00  0.00    -0.460 OA
BRANCH  28  29
ATOM     29  C   UNL     1       2.887   3.991   3.864  1.00  0.00     0.338 C 
ATOM     30  O   UNL     1       2.229   5.018   3.833  1.00  0.00    -0.246 OA
BRANCH  29  31
ATOM     31  C   UNL     1       2.494   2.842   4.696  1.00  0.00     0.060 A 
ATOM     32  C   UNL     1       1.186   2.364   4.560  1.00  0.00     0.016 A 
ATOM     33  C   UNL     1       3.323   2.376   5.718  1.00  0.00     0.016 A 
ATOM     34  C   UNL     1       0.671   1.476   5.501  1.00  0.00     0.010 A 
ATOM     35  C   UNL     1       2.800   1.493   6.670  1.00  0.00     0.010 A 
ATOM     36  C   UNL     1       1.454   1.089   6.597  1.00  0.00    -0.014 A 
BRANCH  36  37
ATOM     37  C   UNL     1       0.789   0.459   7.765  1.00  0.00     0.031 A 
ATOM     38  C   UNL     1       0.344   1.343   8.903  1.00  0.00     0.074 A 
ATOM     39  C   UNL     1       0.532  -0.860   7.795  1.00  0.00     0.049 A 
ATOM     40  N   UNL     1      -0.288   1.026  10.002  1.00  0.00    -0.248 NA
ATOM     41  C   UNL     1       0.655   2.777   8.781  1.00  0.00     0.031 C 
ATOM     42  C   UNL     1       0.880  -1.814   6.745  1.00  0.00     0.029 A 
ATOM     43  N   UNL     1      -0.089  -1.622   8.752  1.00  0.00    -0.354 N 
ATOM     44  C   UNL     1      -0.448   2.215  10.705  1.00  0.00     0.074 A 
ATOM     45  C   UNL     1       0.178   3.257   9.920  1.00  0.00     0.031 C 
ATOM     46  C   UNL     1       0.469  -3.039   7.117  1.00  0.00     0.029 A 
ATOM     47  C   UNL     1      -0.156  -2.957   8.437  1.00  0.00     0.049 A 
ATOM     48  H   UNL     1      -0.453  -1.247   9.587  1.00  0.00     0.167 HD
ATOM     49  C   UNL     1      -1.068   2.425  11.890  1.00  0.00     0.037 A 
ATOM     50  C   UNL     1      -0.660  -3.993   9.136  1.00  0.00     0.037 A 
ATOM     51  C   UNL     1      -1.696   1.392  12.670  1.00  0.00     0.049 A 
ATOM     52  C   UNL     1      -1.304  -3.741  10.476  1.00  0.00     0.074 A 
ATOM     53  C   UNL     1      -2.373   1.510  13.872  1.00  0.00     0.029 A 
ATOM     54  N   UNL     1      -1.718   0.048  12.329  1.00  0.00    -0.354 N 
ATOM     55  N   UNL     1      -1.481  -2.606  11.109  1.00  0.00    -0.248 NA
ATOM     56  C   UNL     1      -1.826  -4.915  11.192  1.00  0.00     0.031 C 
ATOM     57  C   UNL     1      -2.769   0.231  14.278  1.00  0.00     0.029 A 
ATOM     58  C   UNL     1      -2.378  -0.678  13.307  1.00  0.00     0.049 A 
ATOM     59  H   UNL     1      -1.323  -0.334  11.512  1.00  0.00     0.167 HD
ATOM     60  C   UNL     1      -2.164  -2.924  12.280  1.00  0.00     0.074 A 
ATOM     61  C   UNL     1      -2.370  -4.357  12.266  1.00  0.00     0.031 C 
ATOM     62  C   UNL     1      -2.587  -2.103  13.274  1.00  0.00     0.037 A 
BRANCH  49  63
ATOM     63  C   UNL     1      -1.072   3.829  12.428  1.00  0.00     0.058 A 
ATOM     64  C   UNL     1      -1.878   4.833  11.868  1.00  0.00     0.135 A 
ATOM     65  C   UNL     1      -0.266   4.171  13.525  1.00  0.00     0.135 A 
ATOM     66  F   UNL     1      -2.653   4.563  10.805  1.00  0.00    -0.206 F 
ATOM     67  C   UNL     1      -1.863   6.135  12.359  1.00  0.00     0.059 A 
ATOM     68  C   UNL     1      -0.253   5.460  14.048  1.00  0.00     0.059 A 
ATOM     69  F   UNL     1       0.525   3.249  14.096  1.00  0.00    -0.206 F 
ATOM     70  C   UNL     1      -1.043   6.440  13.447  1.00  0.00     0.060 A 
BRANCH  70  71
ATOM     71  S   UNL     1      -1.023   8.134  14.069  1.00  0.00     0.124 S 
ATOM     72  O   UNL     1      -0.219   8.807  13.053  1.00  0.00    -0.237 OA
ATOM     73  O   UNL     1      -2.440   8.480  14.086  1.00  0.00    -0.237 OA
ATOM     74  O   UNL     1      -0.396   8.006  15.381  1.00  0.00    -0.744 OA
ENDBRANCH  70  71
ENDBRANCH  49  63
BRANCH  50  75
ATOM     75  C   UNL     1      -0.592  -5.369   8.579  1.00  0.00     0.058 A 
ATOM     76  C   UNL     1      -1.747  -6.026   8.133  1.00  0.00     0.135 A 
ATOM     77  C   UNL     1       0.628  -6.057   8.490  1.00  0.00     0.135 A 
ATOM     78  F   UNL     1      -2.938  -5.413   8.208  1.00  0.00    -0.206 F 
ATOM     79  C   UNL     1      -1.700  -7.323   7.632  1.00  0.00     0.059 A 
ATOM     80  C   UNL     1       0.705  -7.346   7.972  1.00  0.00     0.059 A 
ATOM     81  F   UNL     1       1.763  -5.467   8.898  1.00  0.00    -0.206 F 
ATOM     82  C   UNL     1      -0.467  -7.975   7.555  1.00  0.00     0.060 A 
BRANCH  82  83
ATOM     83  S   UNL     1      -0.412  -9.643   6.864  1.00  0.00     0.124 S 
ATOM     84  O   UNL     1      -0.977 -10.431   7.954  1.00  0.00    -0.237 OA
ATOM     85  O   UNL     1      -1.245  -9.511   5.673  1.00  0.00    -0.237 OA
ATOM     86  O   UNL     1       1.009  -9.853   6.604  1.00  0.00    -0.744 OA
ENDBRANCH  82  83
ENDBRANCH  50  75
BRANCH  62  87
ATOM     87  C   UNL     1      -3.357  -2.725  14.407  1.00  0.00     0.058 A 
ATOM     88  C   UNL     1      -2.728  -3.507  15.388  1.00  0.00     0.135 A 
ATOM     89  C   UNL     1      -4.738  -2.501  14.533  1.00  0.00     0.135 A 
ATOM     90  F   UNL     1      -1.411  -3.755  15.313  1.00  0.00    -0.206 F 
ATOM     91  C   UNL     1      -3.446  -4.070  16.439  1.00  0.00     0.059 A 
ATOM     92  C   UNL     1      -5.471  -3.034  15.588  1.00  0.00     0.059 A 
ATOM     93  F   UNL     1      -5.386  -1.749  13.629  1.00  0.00    -0.206 F 
ATOM     94  C   UNL     1      -4.819  -3.830  16.528  1.00  0.00     0.060 A 
BRANCH  94  95
ATOM     95  S   UNL     1      -5.741  -4.549  17.905  1.00  0.00     0.124 S 
ATOM     96  O   UNL     1      -5.882  -5.935  17.471  1.00  0.00    -0.237 OA
ATOM     97  O   UNL     1      -4.845  -4.327  19.036  1.00  0.00    -0.237 OA
ATOM     98  O   UNL     1      -6.975  -3.770  17.930  1.00  0.00    -0.744 OA
ENDBRANCH  94  95
ENDBRANCH  62  87
ENDBRANCH  36  37
ENDBRANCH  29  31
ENDBRANCH  28  29
ENDBRANCH  27  28
ENDBRANCH  26  27
ENDBRANCH  25  26
ENDBRANCH  24  25
ENDBRANCH   1  24
TORSDOF 23
