REMARK SMILES CCCC[C@H]([NH3+])C(=O)Nc1snc(C)c1C(=O)OCCOCCOCCOC(=O)c1ccc(-c2c3nc(c(-c4c(F)cc(S(=O)(=O)[O-])cc4F)c4ccc([nH]4)c(-c4c(F)cc(S(=O)(=O)[O-])cc4F)c4nc(c(-c5c(F)cc(S(=O)(=O)[O-])cc5F)c5ccc2[nH]5)C=C4)C=C3)cc1
REMARK SMILES IDX 22 1 21 2 20 3 19 4 18 5 16 6 17 7 15 8 10 9 11 10 12 11
REMARK SMILES IDX 13 12 14 13 9 14 7 15 8 16 5 18 4 19 3 20 2 21 1 22 6 23
REMARK SMILES IDX 23 27 24 28 25 29 26 30 27 31 28 32 29 33 30 34 31 35 95 36
REMARK SMILES IDX 32 37 94 38 33 39 34 40 35 41 88 42 36 43 93 44 87 45 89 46
REMARK SMILES IDX 37 47 92 48 86 49 85 50 38 52 72 53 51 54 71 55 52 56 55 57
REMARK SMILES IDX 70 58 90 59 53 60 54 61 69 63 91 64 56 65 39 66 40 67 49 68
REMARK SMILES IDX 41 69 42 70 48 71 50 72 43 73 44 74 45 75 46 76 47 77 73 78
REMARK SMILES IDX 74 79 83 80 75 81 76 82 82 83 84 84 77 85 78 86 79 87 80 88
REMARK SMILES IDX 81 89 57 90 58 91 67 92 59 93 60 94 66 95 68 96 61 97 62 98
REMARK SMILES IDX 63 99 64 100 65 101
REMARK H PARENT 9 17 6 24 6 25 6 26 89 51 55 62
REMARK Flexibility Score: inf
ROOT
ATOM      1  C   UNL     1       3.879   2.675  -3.218  1.00  0.00     0.188 C 
ENDROOT
BRANCH   1   2
ATOM      2  O   UNL     1       3.961   1.292  -2.927  1.00  0.00    -0.376 OA
BRANCH   2   3
ATOM      3  C   UNL     1       3.428   0.915  -1.666  1.00  0.00     0.202 C 
BRANCH   3   4
ATOM      4  C   UNL     1       1.900   0.983  -1.522  1.00  0.00     0.261 C 
BRANCH   4   5
ATOM      5  O   UNL     1       1.228   2.125  -2.087  1.00  0.00    -0.460 OA
BRANCH   5   6
ATOM      6  C   UNL     1       1.356   3.329  -1.470  1.00  0.00     0.343 C 
ATOM      7  O   UNL     1       2.018   3.491  -0.452  1.00  0.00    -0.246 OA
BRANCH   6   8
ATOM      8  C   UNL     1       0.719   4.410  -2.205  1.00  0.00     0.117 A 
ATOM      9  C   UNL     1      -0.436   4.322  -2.962  1.00  0.00     0.131 A 
ATOM     10  S   UNL     1      -0.587   5.722  -3.929  1.00  0.00    -0.017 S 
ATOM     11  N   UNL     1       0.673   6.537  -3.254  1.00  0.00    -0.195 NA
ATOM     12  C   UNL     1       1.316   5.725  -2.412  1.00  0.00     0.068 A 
ATOM     13  C   UNL     1       2.612   6.236  -1.872  1.00  0.00     0.069 C 
BRANCH   9  14
ATOM     14  N   UNL     1      -1.432   3.410  -3.195  1.00  0.00    -0.310 N 
ATOM     15  C   UNL     1      -2.016   2.478  -2.398  1.00  0.00     0.283 C 
ATOM     16  O   UNL     1      -2.614   1.556  -2.972  1.00  0.00    -0.268 OA
ATOM     17  H   UNL     1      -1.791   3.434  -4.111  1.00  0.00     0.171 HD
BRANCH  15  18
ATOM     18  C   UNL     1      -2.057   2.537  -0.844  1.00  0.00     0.271 C 
BRANCH  18  19
ATOM     19  C   UNL     1      -2.218   3.939  -0.224  1.00  0.00     0.075 C 
BRANCH  19  20
ATOM     20  C   UNL     1      -1.816   4.107   1.253  1.00  0.00     0.006 C 
BRANCH  20  21
ATOM     21  C   UNL     1      -0.366   4.532   1.504  1.00  0.00    -0.003 C 
ATOM     22  C   UNL     1      -0.000   5.902   0.947  1.00  0.00     0.004 C 
ENDBRANCH  20  21
ENDBRANCH  19  20
ENDBRANCH  18  19
BRANCH  18  23
ATOM     23  N   UNL     1      -1.052   1.651  -0.250  1.00  0.00    -0.347 N 
ATOM     24  H   UNL     1      -0.119   1.985  -0.492  1.00  0.00     0.345 HD
ATOM     25  H   UNL     1      -1.179   0.705  -0.609  1.00  0.00     0.345 HD
ATOM     26  H   UNL     1      -1.159   1.647   0.764  1.00  0.00     0.345 HD
ENDBRANCH  18  23
ENDBRANCH  15  18
ENDBRANCH   9  14
ENDBRANCH   6   8
ENDBRANCH   5   6
ENDBRANCH   4   5
ENDBRANCH   3   4
ENDBRANCH   2   3
ENDBRANCH   1   2
BRANCH   1  27
ATOM     27  C   UNL     1       2.964   3.023  -4.410  1.00  0.00     0.188 C 
BRANCH  27  28
ATOM     28  O   UNL     1       2.070   2.069  -4.973  1.00  0.00    -0.376 OA
BRANCH  28  29
ATOM     29  C   UNL     1       2.478   0.727  -5.226  1.00  0.00     0.202 C 
BRANCH  29  30
ATOM     30  C   UNL     1       3.668   0.446  -6.143  1.00  0.00     0.261 C 
BRANCH  30  31
ATOM     31  O   UNL     1       4.832   1.144  -5.741  1.00  0.00    -0.460 OA
BRANCH  31  32
ATOM     32  C   UNL     1       5.037   2.295  -6.412  1.00  0.00     0.338 C 
ATOM     33  O   UNL     1       4.373   2.744  -7.331  1.00  0.00    -0.246 OA
BRANCH  32  34
ATOM     34  C   UNL     1       6.178   2.995  -5.807  1.00  0.00     0.060 A 
ATOM     35  C   UNL     1       6.484   4.248  -6.337  1.00  0.00     0.016 A 
ATOM     36  C   UNL     1       7.021   2.339  -4.894  1.00  0.00     0.016 A 
ATOM     37  C   UNL     1       7.780   4.680  -6.231  1.00  0.00     0.010 A 
ATOM     38  C   UNL     1       8.313   2.778  -4.772  1.00  0.00     0.010 A 
ATOM     39  C   UNL     1       8.691   3.843  -5.581  1.00  0.00    -0.014 A 
BRANCH  39  40
ATOM     40  C   UNL     1      10.062   3.948  -6.019  1.00  0.00     0.031 A 
ATOM     41  C   UNL     1      10.832   5.026  -5.394  1.00  0.00     0.074 A 
ATOM     42  C   UNL     1      10.540   3.083  -6.935  1.00  0.00     0.049 A 
ATOM     43  N   UNL     1      11.278   6.106  -5.939  1.00  0.00    -0.248 NA
ATOM     44  C   UNL     1      11.000   4.954  -3.937  1.00  0.00     0.031 C 
ATOM     45  C   UNL     1       9.934   1.822  -7.389  1.00  0.00     0.029 A 
ATOM     46  N   UNL     1      11.733   3.098  -7.579  1.00  0.00    -0.354 N 
ATOM     47  C   UNL     1      11.992   6.743  -4.934  1.00  0.00     0.074 A 
ATOM     48  C   UNL     1      11.627   6.104  -3.695  1.00  0.00     0.031 C 
ATOM     49  C   UNL     1      10.865   1.097  -8.046  1.00  0.00     0.029 A 
ATOM     50  C   UNL     1      12.075   1.891  -8.167  1.00  0.00     0.049 A 
ATOM     51  H   UNL     1      12.306   3.897  -7.625  1.00  0.00     0.167 HD
ATOM     52  C   UNL     1      13.038   7.561  -5.219  1.00  0.00     0.037 A 
ATOM     53  C   UNL     1      13.305   1.544  -8.617  1.00  0.00     0.037 A 
ATOM     54  C   UNL     1      13.016   8.019  -6.582  1.00  0.00     0.049 A 
ATOM     55  C   UNL     1      14.076   2.800  -8.816  1.00  0.00     0.074 A 
ATOM     56  C   UNL     1      12.110   8.733  -7.344  1.00  0.00     0.029 A 
ATOM     57  N   UNL     1      13.884   7.438  -7.476  1.00  0.00    -0.354 N 
ATOM     58  N   UNL     1      13.805   3.695  -9.728  1.00  0.00    -0.248 NA
ATOM     59  C   UNL     1      14.897   3.277  -7.711  1.00  0.00     0.031 C 
ATOM     60  C   UNL     1      12.211   8.193  -8.658  1.00  0.00     0.029 A 
ATOM     61  C   UNL     1      13.189   7.197  -8.636  1.00  0.00     0.049 A 
ATOM     62  H   UNL     1      14.832   7.231  -7.313  1.00  0.00     0.167 HD
ATOM     63  C   UNL     1      14.070   4.919  -9.127  1.00  0.00     0.074 A 
ATOM     64  C   UNL     1      14.838   4.593  -7.930  1.00  0.00     0.031 C 
ATOM     65  C   UNL     1      13.409   6.055  -9.502  1.00  0.00     0.037 A 
BRANCH  52  66
ATOM     66  C   UNL     1      14.255   7.635  -4.340  1.00  0.00     0.058 A 
ATOM     67  C   UNL     1      15.159   8.701  -4.484  1.00  0.00     0.135 A 
ATOM     68  C   UNL     1      14.691   6.558  -3.533  1.00  0.00     0.135 A 
ATOM     69  F   UNL     1      14.852   9.754  -5.258  1.00  0.00    -0.206 F 
ATOM     70  C   UNL     1      16.424   8.679  -3.898  1.00  0.00     0.059 A 
ATOM     71  C   UNL     1      15.917   6.545  -2.888  1.00  0.00     0.059 A 
ATOM     72  F   UNL     1      13.989   5.422  -3.417  1.00  0.00    -0.206 F 
ATOM     73  C   UNL     1      16.796   7.590  -3.113  1.00  0.00     0.060 A 
BRANCH  73  74
ATOM     74  S   UNL     1      18.467   7.495  -2.452  1.00  0.00     0.124 S 
ATOM     75  O   UNL     1      19.229   7.164  -3.650  1.00  0.00    -0.237 OA
ATOM     76  O   UNL     1      18.662   8.838  -1.917  1.00  0.00    -0.237 OA
ATOM     77  O   UNL     1      18.370   6.437  -1.450  1.00  0.00    -0.744 OA
ENDBRANCH  73  74
ENDBRANCH  52  66
BRANCH  53  78
ATOM     78  C   UNL     1      13.932   0.201  -8.519  1.00  0.00     0.058 A 
ATOM     79  C   UNL     1      15.067  -0.133  -9.273  1.00  0.00     0.135 A 
ATOM     80  C   UNL     1      13.573  -0.708  -7.499  1.00  0.00     0.135 A 
ATOM     81  F   UNL     1      15.502   0.693 -10.237  1.00  0.00    -0.206 F 
ATOM     82  C   UNL     1      15.815  -1.289  -9.020  1.00  0.00     0.059 A 
ATOM     83  C   UNL     1      14.290  -1.872  -7.240  1.00  0.00     0.059 A 
ATOM     84  F   UNL     1      12.559  -0.447  -6.660  1.00  0.00    -0.206 F 
ATOM     85  C   UNL     1      15.423  -2.148  -7.992  1.00  0.00     0.060 A 
BRANCH  85  86
ATOM     86  S   UNL     1      16.459  -3.567  -7.571  1.00  0.00     0.124 S 
ATOM     87  O   UNL     1      16.300  -4.416  -8.747  1.00  0.00    -0.237 OA
ATOM     88  O   UNL     1      17.770  -2.950  -7.401  1.00  0.00    -0.237 OA
ATOM     89  O   UNL     1      15.852  -4.080  -6.346  1.00  0.00    -0.744 OA
ENDBRANCH  85  86
ENDBRANCH  53  78
BRANCH  65  90
ATOM     90  C   UNL     1      12.629   6.029 -10.791  1.00  0.00     0.058 A 
ATOM     91  C   UNL     1      11.482   5.242 -10.998  1.00  0.00     0.135 A 
ATOM     92  C   UNL     1      12.953   6.961 -11.790  1.00  0.00     0.135 A 
ATOM     93  F   UNL     1      11.045   4.403 -10.048  1.00  0.00    -0.206 F 
ATOM     94  C   UNL     1      10.713   5.352 -12.158  1.00  0.00     0.059 A 
ATOM     95  C   UNL     1      12.184   7.109 -12.942  1.00  0.00     0.059 A 
ATOM     96  F   UNL     1      13.999   7.788 -11.623  1.00  0.00    -0.206 F 
ATOM     97  C   UNL     1      11.069   6.293 -13.124  1.00  0.00     0.060 A 
BRANCH  97  98
ATOM     98  S   UNL     1      10.010   6.510 -14.573  1.00  0.00     0.124 S 
ATOM     99  O   UNL     1      10.326   5.326 -15.364  1.00  0.00    -0.237 OA
ATOM    100  O   UNL     1       8.672   6.544 -13.988  1.00  0.00    -0.237 OA
ATOM    101  O   UNL     1      10.463   7.779 -15.139  1.00  0.00    -0.744 OA
ENDBRANCH  97  98
ENDBRANCH  65  90
ENDBRANCH  39  40
ENDBRANCH  32  34
ENDBRANCH  31  32
ENDBRANCH  30  31
ENDBRANCH  29  30
ENDBRANCH  28  29
ENDBRANCH  27  28
ENDBRANCH   1  27
TORSDOF 26
