REMARK SMILES CCC[NH2+][C@@H]1COC[C@@H]1C(=O)N[C@@](C)(CC)C(=O)OCCOCCOCCOC(=O)c1ccc(-c2c3nc(c(-c4c(F)cc(S(=O)(=O)[O-])cc4F)c4ccc([nH]4)c(-c4c(F)cc(S(=O)(=O)[O-])cc4F)c4nc(c(-c5c(F)cc(S(=O)(=O)[O-])cc5F)c5ccc2[nH]5)C=C4)C=C3)cc1
REMARK SMILES IDX 23 1 22 2 21 3 20 4 19 5 17 6 18 7 13 8 14 9 12 10 10 11
REMARK SMILES IDX 11 12 9 14 5 15 6 16 7 17 8 18 4 19 3 22 2 23 1 24 15 25
REMARK SMILES IDX 16 26 24 27 25 28 26 29 27 30 28 31 29 32 30 33 31 34 32 35
REMARK SMILES IDX 96 36 33 37 95 38 34 39 35 40 36 41 89 42 37 43 94 44 88 45
REMARK SMILES IDX 90 46 38 47 93 48 87 49 86 50 39 52 73 53 52 54 72 55 53 56
REMARK SMILES IDX 56 57 71 58 91 59 54 60 55 61 70 63 92 64 57 65 40 66 41 67
REMARK SMILES IDX 50 68 42 69 43 70 49 71 51 72 44 73 45 74 46 75 47 76 48 77
REMARK SMILES IDX 74 78 75 79 84 80 76 81 77 82 83 83 85 84 78 85 79 86 80 87
REMARK SMILES IDX 81 88 82 89 58 90 59 91 68 92 60 93 61 94 67 95 69 96 62 97
REMARK SMILES IDX 63 98 64 99 65 100 66 101
REMARK H PARENT 12 13 4 20 4 21 90 51 56 62
REMARK Flexibility Score: inf
ROOT
ATOM      1  C   UNL     1       0.178   3.490   4.094  1.00  0.00     0.188 C 
ENDROOT
BRANCH   1   2
ATOM      2  O   UNL     1       2.149   3.970   4.373  1.00  0.00    -0.376 OA
BRANCH   2   3
ATOM      3  C   UNL     1       2.660   4.906   5.842  1.00  0.00     0.202 C 
BRANCH   3   4
ATOM      4  C   UNL     1       1.516   6.166   6.454  1.00  0.00     0.261 C 
BRANCH   4   5
ATOM      5  O   UNL     1      -0.007   6.129   6.085  1.00  0.00    -0.462 OA
BRANCH   5   6
ATOM      6  C   UNL     1      -0.597   7.087   5.265  1.00  0.00     0.331 C 
ATOM      7  O   UNL     1      -0.183   8.246   5.272  1.00  0.00    -0.249 OA
BRANCH   6   8
ATOM      8  C   UNL     1      -1.610   6.461   3.962  1.00  0.00     0.135 C 
ATOM      9  C   UNL     1      -1.964   7.835   3.265  1.00  0.00     0.047 C 
BRANCH   8  10
ATOM     10  N   UNL     1      -1.132   5.656   2.539  1.00  0.00    -0.340 N 
ATOM     11  C   UNL     1      -0.129   4.859   1.916  1.00  0.00     0.232 C 
ATOM     12  O   UNL     1      -0.414   4.476   0.775  1.00  0.00    -0.274 OA
ATOM     13  H   UNL     1      -1.842   5.800   1.873  1.00  0.00     0.164 HD
BRANCH  11  14
ATOM     14  C   UNL     1       1.333   4.415   2.550  1.00  0.00     0.164 C 
ATOM     15  C   UNL     1       1.911   2.605   3.061  1.00  0.00     0.223 C 
ATOM     16  C   UNL     1       1.640   2.391   5.014  1.00  0.00     0.225 C 
ATOM     17  O   UNL     1       0.919   4.113   5.581  1.00  0.00    -0.374 OA
ATOM     18  C   UNL     1       1.174   5.385   4.078  1.00  0.00     0.180 C 
BRANCH  15  19
ATOM     19  N   UNL     1       1.506   1.454   2.222  1.00  0.00    -0.341 N 
ATOM     20  H   UNL     1       0.509   1.286   2.350  1.00  0.00     0.346 HD
ATOM     21  H   UNL     1       1.715   1.679   1.249  1.00  0.00     0.346 HD
BRANCH  19  22
ATOM     22  C   UNL     1       2.248   0.235   2.584  1.00  0.00     0.260 C 
BRANCH  22  23
ATOM     23  C   UNL     1       2.223  -0.910   1.554  1.00  0.00     0.058 C 
ATOM     24  C   UNL     1       2.770  -0.592   0.177  1.00  0.00     0.010 C 
ENDBRANCH  22  23
ENDBRANCH  19  22
ENDBRANCH  15  19
ENDBRANCH  11  14
ENDBRANCH   8  10
BRANCH   8  25
ATOM     25  C   UNL     1      -3.035   6.041   4.515  1.00  0.00     0.037 C 
ATOM     26  C   UNL     1      -3.616   4.647   4.369  1.00  0.00     0.007 C 
ENDBRANCH   8  25
ENDBRANCH   6   8
ENDBRANCH   5   6
ENDBRANCH   4   5
ENDBRANCH   3   4
ENDBRANCH   2   3
ENDBRANCH   1   2
BRANCH   1  27
ATOM     27  C   UNL     1      -0.902   2.833   5.103  1.00  0.00     0.188 C 
BRANCH  27  28
ATOM     28  O   UNL     1      -1.267   3.247   6.404  1.00  0.00    -0.376 OA
BRANCH  28  29
ATOM     29  C   UNL     1      -0.734   2.446   7.448  1.00  0.00     0.202 C 
BRANCH  29  30
ATOM     30  C   UNL     1      -0.995   0.904   7.447  1.00  0.00     0.261 C 
BRANCH  30  31
ATOM     31  O   UNL     1      -1.115   0.185   6.182  1.00  0.00    -0.460 OA
BRANCH  31  32
ATOM     32  C   UNL     1      -2.303   0.272   5.492  1.00  0.00     0.338 C 
ATOM     33  O   UNL     1      -3.342   0.721   5.946  1.00  0.00    -0.246 OA
BRANCH  32  34
ATOM     34  C   UNL     1      -2.065   0.042   4.007  1.00  0.00     0.060 A 
ATOM     35  C   UNL     1      -2.486   1.001   3.055  1.00  0.00     0.016 A 
ATOM     36  C   UNL     1      -1.351  -1.046   3.540  1.00  0.00     0.016 A 
ATOM     37  C   UNL     1      -2.128   0.934   1.682  1.00  0.00     0.010 A 
ATOM     38  C   UNL     1      -1.086  -1.158   2.157  1.00  0.00     0.010 A 
ATOM     39  C   UNL     1      -1.428  -0.165   1.192  1.00  0.00    -0.014 A 
BRANCH  39  40
ATOM     40  C   UNL     1      -1.184  -0.441  -0.289  1.00  0.00     0.031 A 
ATOM     41  C   UNL     1      -1.749  -1.736  -0.834  1.00  0.00     0.074 A 
ATOM     42  C   UNL     1      -0.447   0.302  -1.157  1.00  0.00     0.049 A 
ATOM     43  N   UNL     1      -1.472  -2.385  -1.936  1.00  0.00    -0.248 NA
ATOM     44  C   UNL     1      -2.744  -2.403   0.021  1.00  0.00     0.031 C 
ATOM     45  C   UNL     1       0.126   1.620  -0.907  1.00  0.00     0.029 A 
ATOM     46  N   UNL     1       0.027  -0.003  -2.430  1.00  0.00    -0.354 N 
ATOM     47  C   UNL     1      -2.247  -3.538  -1.890  1.00  0.00     0.074 A 
ATOM     48  C   UNL     1      -2.884  -3.564  -0.592  1.00  0.00     0.031 C 
ATOM     49  C   UNL     1       0.970   1.948  -1.908  1.00  0.00     0.029 A 
ATOM     50  C   UNL     1       0.998   0.870  -2.896  1.00  0.00     0.049 A 
ATOM     51  H   UNL     1      -0.298  -0.771  -2.953  1.00  0.00     0.167 HD
ATOM     52  C   UNL     1      -2.485  -4.459  -2.854  1.00  0.00     0.037 A 
ATOM     53  C   UNL     1       1.837   0.805  -3.961  1.00  0.00     0.037 A 
ATOM     54  C   UNL     1      -1.909  -4.432  -4.169  1.00  0.00     0.049 A 
ATOM     55  C   UNL     1       1.688  -0.308  -4.979  1.00  0.00     0.074 A 
ATOM     56  C   UNL     1      -2.172  -5.273  -5.236  1.00  0.00     0.029 A 
ATOM     57  N   UNL     1      -0.951  -3.529  -4.597  1.00  0.00    -0.354 N 
ATOM     58  N   UNL     1       0.879  -1.340  -4.958  1.00  0.00    -0.248 NA
ATOM     59  C   UNL     1       2.522  -0.238  -6.193  1.00  0.00     0.031 C 
ATOM     60  C   UNL     1      -1.319  -4.925  -6.287  1.00  0.00     0.029 A 
ATOM     61  C   UNL     1      -0.580  -3.819  -5.900  1.00  0.00     0.049 A 
ATOM     62  H   UNL     1      -0.588  -2.791  -4.056  1.00  0.00     0.167 HD
ATOM     63  C   UNL     1       1.054  -1.991  -6.179  1.00  0.00     0.074 A 
ATOM     64  C   UNL     1       2.062  -1.257  -6.908  1.00  0.00     0.031 C 
ATOM     65  C   UNL     1       0.407  -3.085  -6.653  1.00  0.00     0.037 A 
BRANCH  52  66
ATOM     66  C   UNL     1      -3.452  -5.561  -2.514  1.00  0.00     0.058 A 
ATOM     67  C   UNL     1      -4.808  -5.294  -2.251  1.00  0.00     0.135 A 
ATOM     68  C   UNL     1      -3.021  -6.894  -2.439  1.00  0.00     0.135 A 
ATOM     69  F   UNL     1      -5.273  -4.035  -2.298  1.00  0.00    -0.206 F 
ATOM     70  C   UNL     1      -5.683  -6.297  -1.859  1.00  0.00     0.059 A 
ATOM     71  C   UNL     1      -3.893  -7.922  -2.096  1.00  0.00     0.059 A 
ATOM     72  F   UNL     1      -1.740  -7.208  -2.689  1.00  0.00    -0.206 F 
ATOM     73  C   UNL     1      -5.215  -7.609  -1.783  1.00  0.00     0.060 A 
BRANCH  73  74
ATOM     74  S   UNL     1      -6.366  -8.895  -1.260  1.00  0.00     0.124 S 
ATOM     75  O   UNL     1      -6.547  -8.567   0.151  1.00  0.00    -0.237 OA
ATOM     76  O   UNL     1      -7.518  -8.646  -2.121  1.00  0.00    -0.237 OA
ATOM     77  O   UNL     1      -5.640 -10.132  -1.529  1.00  0.00    -0.744 OA
ENDBRANCH  73  74
ENDBRANCH  52  66
BRANCH  53  78
ATOM     78  C   UNL     1       2.916   1.828  -4.161  1.00  0.00     0.058 A 
ATOM     79  C   UNL     1       2.835   2.793  -5.178  1.00  0.00     0.135 A 
ATOM     80  C   UNL     1       4.088   1.815  -3.385  1.00  0.00     0.135 A 
ATOM     81  F   UNL     1       1.765   2.822  -5.986  1.00  0.00    -0.206 F 
ATOM     82  C   UNL     1       3.865   3.704  -5.418  1.00  0.00     0.059 A 
ATOM     83  C   UNL     1       5.125   2.730  -3.592  1.00  0.00     0.059 A 
ATOM     84  F   UNL     1       4.242   0.900  -2.415  1.00  0.00    -0.206 F 
ATOM     85  C   UNL     1       5.003   3.674  -4.611  1.00  0.00     0.060 A 
BRANCH  85  86
ATOM     86  S   UNL     1       6.293   4.913  -4.888  1.00  0.00     0.124 S 
ATOM     87  O   UNL     1       6.795   4.538  -6.204  1.00  0.00    -0.237 OA
ATOM     88  O   UNL     1       5.532   6.158  -4.827  1.00  0.00    -0.237 OA
ATOM     89  O   UNL     1       7.215   4.697  -3.777  1.00  0.00    -0.744 OA
ENDBRANCH  85  86
ENDBRANCH  53  78
BRANCH  65  90
ATOM     90  C   UNL     1       0.692  -3.547  -8.060  1.00  0.00     0.058 A 
ATOM     91  C   UNL     1       1.900  -4.165  -8.416  1.00  0.00     0.135 A 
ATOM     92  C   UNL     1      -0.312  -3.469  -9.043  1.00  0.00     0.135 A 
ATOM     93  F   UNL     1       2.898  -4.262  -7.523  1.00  0.00    -0.206 F 
ATOM     94  C   UNL     1       2.103  -4.687  -9.691  1.00  0.00     0.059 A 
ATOM     95  C   UNL     1      -0.144  -4.013 -10.313  1.00  0.00     0.059 A 
ATOM     96  F   UNL     1      -1.493  -2.895  -8.759  1.00  0.00    -0.206 F 
ATOM     97  C   UNL     1       1.070  -4.619 -10.629  1.00  0.00     0.060 A 
BRANCH  97  98
ATOM     98  S   UNL     1       1.322  -5.371 -12.252  1.00  0.00     0.124 S 
ATOM     99  O   UNL     1       2.318  -4.482 -12.840  1.00  0.00    -0.237 OA
ATOM    100  O   UNL     1       1.792  -6.708 -11.903  1.00  0.00    -0.237 OA
ATOM    101  O   UNL     1      -0.003  -5.318 -12.864  1.00  0.00    -0.744 OA
ENDBRANCH  97  98
ENDBRANCH  65  90
ENDBRANCH  39  40
ENDBRANCH  32  34
ENDBRANCH  31  32
ENDBRANCH  30  31
ENDBRANCH  29  30
ENDBRANCH  28  29
ENDBRANCH  27  28
ENDBRANCH   1  27
TORSDOF 26
