REMARK SMILES C[C@H](Nc1ccc(F)cc1Br)[C@@H](C)C(=O)OCCOCCOCCOC(=O)c1ccc(-c2c3nc(c(-c4c(F)cc(S(=O)(=O)[O-])cc4F)c4ccc([nH]4)c(-c4c(F)cc(S(=O)(=O)[O-])cc4F)c4nc(c(-c5c(F)cc(S(=O)(=O)[O-])cc5F)c5ccc2[nH]5)C=C4)C=C3)cc1
REMARK SMILES IDX 20 1 19 2 18 3 17 4 16 5 14 6 15 7 12 8 13 9 2 10 1 11 3 12
REMARK SMILES IDX 4 14 5 15 10 16 6 17 9 18 11 19 7 20 8 21 21 22 22 23 23 24
REMARK SMILES IDX 24 25 25 26 26 27 27 28 28 29 29 30 93 31 30 32 92 33 31 34
REMARK SMILES IDX 32 35 33 36 86 37 34 38 91 39 85 40 87 41 35 42 90 43 84 44
REMARK SMILES IDX 83 45 36 47 70 48 49 49 69 50 50 51 53 52 68 53 88 54 51 55
REMARK SMILES IDX 52 56 67 58 89 59 54 60 37 61 38 62 47 63 39 64 40 65 46 66
REMARK SMILES IDX 48 67 41 68 42 69 43 70 44 71 45 72 71 73 72 74 81 75 73 76
REMARK SMILES IDX 74 77 80 78 82 79 75 80 76 81 77 82 78 83 79 84 55 85 56 86
REMARK SMILES IDX 65 87 57 88 58 89 64 90 66 91 59 92 60 93 61 94 62 95 63 96
REMARK H PARENT 3 13 87 46 53 57
REMARK Flexibility Score: inf
ROOT
ATOM      1  C   UNL     1      -1.704   1.436  -4.340  1.00  0.00     0.188 C 
ENDROOT
BRANCH   1   2
ATOM      2  O   UNL     1      -2.656   2.470  -4.524  1.00  0.00    -0.376 OA
BRANCH   2   3
ATOM      3  C   UNL     1      -2.278   3.748  -4.030  1.00  0.00     0.202 C 
BRANCH   3   4
ATOM      4  C   UNL     1      -2.128   3.908  -2.505  1.00  0.00     0.261 C 
BRANCH   4   5
ATOM      5  O   UNL     1      -1.308   2.934  -1.808  1.00  0.00    -0.463 OA
BRANCH   5   6
ATOM      6  C   UNL     1      -2.004   1.998  -1.104  1.00  0.00     0.310 C 
ATOM      7  O   UNL     1      -3.231   1.923  -1.107  1.00  0.00    -0.252 OA
BRANCH   6   8
ATOM      8  C   UNL     1      -1.170   1.065  -0.225  1.00  0.00     0.118 C 
ATOM      9  C   UNL     1      -1.436   1.514   1.217  1.00  0.00     0.022 C 
BRANCH   8  10
ATOM     10  C   UNL     1       0.340   0.904  -0.555  1.00  0.00     0.090 C 
ATOM     11  C   UNL     1       0.545  -0.075  -1.723  1.00  0.00     0.031 C 
BRANCH  10  12
ATOM     12  N   UNL     1       1.050   0.318   0.603  1.00  0.00    -0.381 N 
ATOM     13  H   UNL     1       0.538   0.062   1.404  1.00  0.00     0.160 HD
BRANCH  12  14
ATOM     14  C   UNL     1       2.434   0.119   0.583  1.00  0.00     0.049 A 
ATOM     15  C   UNL     1       3.313   1.173   0.306  1.00  0.00     0.030 A 
ATOM     16  C   UNL     1       2.985  -1.168   0.782  1.00  0.00     0.044 A 
ATOM     17  C   UNL     1       4.694   0.956   0.249  1.00  0.00     0.041 A 
ATOM     18  C   UNL     1       4.360  -1.393   0.702  1.00  0.00     0.057 A 
ATOM     19  Br  UNL     1       1.866  -2.666   1.139  1.00  0.00    -0.048 Br
ATOM     20  C   UNL     1       5.201  -0.323   0.441  1.00  0.00     0.124 A 
ATOM     21  F   UNL     1       6.524  -0.524   0.378  1.00  0.00    -0.207 F 
ENDBRANCH  12  14
ENDBRANCH  10  12
ENDBRANCH   8  10
ENDBRANCH   6   8
ENDBRANCH   5   6
ENDBRANCH   4   5
ENDBRANCH   3   4
ENDBRANCH   2   3
ENDBRANCH   1   2
BRANCH   1  22
ATOM     22  C   UNL     1      -0.322   1.693  -4.930  1.00  0.00     0.188 C 
BRANCH  22  23
ATOM     23  O   UNL     1       0.376   2.831  -4.459  1.00  0.00    -0.376 OA
BRANCH  23  24
ATOM     24  C   UNL     1       1.532   3.238  -5.196  1.00  0.00     0.202 C 
BRANCH  24  25
ATOM     25  C   UNL     1       1.979   2.603  -6.544  1.00  0.00     0.261 C 
BRANCH  25  26
ATOM     26  O   UNL     1       1.566   1.258  -6.851  1.00  0.00    -0.460 OA
BRANCH  26  27
ATOM     27  C   UNL     1       2.103   0.257  -6.116  1.00  0.00     0.338 C 
ATOM     28  O   UNL     1       3.003   0.381  -5.300  1.00  0.00    -0.246 OA
BRANCH  27  29
ATOM     29  C   UNL     1       1.240  -0.960  -6.247  1.00  0.00     0.060 A 
ATOM     30  C   UNL     1       0.978  -1.704  -5.085  1.00  0.00     0.016 A 
ATOM     31  C   UNL     1       0.641  -1.346  -7.450  1.00  0.00     0.016 A 
ATOM     32  C   UNL     1       0.167  -2.844  -5.125  1.00  0.00     0.010 A 
ATOM     33  C   UNL     1      -0.146  -2.511  -7.498  1.00  0.00     0.010 A 
ATOM     34  C   UNL     1      -0.360  -3.289  -6.343  1.00  0.00    -0.014 A 
BRANCH  34  35
ATOM     35  C   UNL     1      -0.910  -4.672  -6.453  1.00  0.00     0.031 A 
ATOM     36  C   UNL     1       0.004  -5.754  -6.975  1.00  0.00     0.074 A 
ATOM     37  C   UNL     1      -2.160  -4.997  -6.071  1.00  0.00     0.049 A 
ATOM     38  N   UNL     1      -0.254  -7.005  -7.256  1.00  0.00    -0.248 NA
ATOM     39  C   UNL     1       1.405  -5.364  -7.209  1.00  0.00     0.031 C 
ATOM     40  C   UNL     1      -3.131  -4.086  -5.470  1.00  0.00     0.029 A 
ATOM     41  N   UNL     1      -2.831  -6.199  -6.143  1.00  0.00    -0.354 N 
ATOM     42  C   UNL     1       0.942  -7.545  -7.716  1.00  0.00     0.074 A 
ATOM     43  C   UNL     1       1.922  -6.481  -7.695  1.00  0.00     0.031 C 
ATOM     44  C   UNL     1      -4.278  -4.755  -5.247  1.00  0.00     0.029 A 
ATOM     45  C   UNL     1      -4.141  -6.131  -5.727  1.00  0.00     0.049 A 
ATOM     46  H   UNL     1      -2.411  -7.030  -6.463  1.00  0.00     0.167 HD
ATOM     47  C   UNL     1       1.206  -8.812  -8.118  1.00  0.00     0.037 A 
ATOM     48  C   UNL     1      -5.124  -7.058  -5.759  1.00  0.00     0.037 A 
ATOM     49  C   UNL     1       0.237  -9.876  -8.136  1.00  0.00     0.049 A 
ATOM     50  C   UNL     1      -4.835  -8.439  -6.302  1.00  0.00     0.074 A 
ATOM     51  C   UNL     1       0.413 -11.190  -8.534  1.00  0.00     0.029 A 
ATOM     52  N   UNL     1      -1.088  -9.752  -7.746  1.00  0.00    -0.354 N 
ATOM     53  N   UNL     1      -3.705  -8.932  -6.751  1.00  0.00    -0.248 NA
ATOM     54  C   UNL     1      -5.957  -9.391  -6.345  1.00  0.00     0.031 C 
ATOM     55  C   UNL     1      -0.818 -11.846  -8.438  1.00  0.00     0.029 A 
ATOM     56  C   UNL     1      -1.746 -10.959  -7.915  1.00  0.00     0.049 A 
ATOM     57  H   UNL     1      -1.500  -8.928  -7.399  1.00  0.00     0.167 HD
ATOM     58  C   UNL     1      -3.972 -10.258  -7.091  1.00  0.00     0.074 A 
ATOM     59  C   UNL     1      -5.368 -10.492  -6.794  1.00  0.00     0.031 C 
ATOM     60  C   UNL     1      -3.132 -11.195  -7.597  1.00  0.00     0.037 A 
BRANCH  47  61
ATOM     61  C   UNL     1       2.595  -9.108  -8.615  1.00  0.00     0.058 A 
ATOM     62  C   UNL     1       3.700  -9.160  -7.751  1.00  0.00     0.135 A 
ATOM     63  C   UNL     1       2.816  -9.375  -9.976  1.00  0.00     0.135 A 
ATOM     64  F   UNL     1       3.550  -8.893  -6.444  1.00  0.00    -0.206 F 
ATOM     65  C   UNL     1       4.979  -9.437  -8.223  1.00  0.00     0.059 A 
ATOM     66  C   UNL     1       4.081  -9.685 -10.465  1.00  0.00     0.059 A 
ATOM     67  F   UNL     1       1.796  -9.337 -10.847  1.00  0.00    -0.206 F 
ATOM     68  C   UNL     1       5.159  -9.698  -9.583  1.00  0.00     0.060 A 
BRANCH  68  69
ATOM     69  S   UNL     1       6.825 -10.056 -10.179  1.00  0.00     0.124 S 
ATOM     70  O   UNL     1       7.459  -8.745 -10.074  1.00  0.00    -0.237 OA
ATOM     71  O   UNL     1       7.287 -11.061  -9.228  1.00  0.00    -0.237 OA
ATOM     72  O   UNL     1       6.604 -10.537 -11.539  1.00  0.00    -0.744 OA
ENDBRANCH  68  69
ENDBRANCH  47  61
BRANCH  48  73
ATOM     73  C   UNL     1      -6.499  -6.712  -5.295  1.00  0.00     0.058 A 
ATOM     74  C   UNL     1      -7.060  -7.315  -4.158  1.00  0.00     0.135 A 
ATOM     75  C   UNL     1      -7.295  -5.795  -6.000  1.00  0.00     0.135 A 
ATOM     76  F   UNL     1      -6.353  -8.218  -3.461  1.00  0.00    -0.206 F 
ATOM     77  C   UNL     1      -8.360  -7.034  -3.746  1.00  0.00     0.059 A 
ATOM     78  C   UNL     1      -8.586  -5.474  -5.591  1.00  0.00     0.059 A 
ATOM     79  F   UNL     1      -6.812  -5.190  -7.097  1.00  0.00    -0.206 F 
ATOM     80  C   UNL     1      -9.114  -6.107  -4.467  1.00  0.00     0.060 A 
BRANCH  80  81
ATOM     81  S   UNL     1     -10.784  -5.715  -3.898  1.00  0.00     0.124 S 
ATOM     82  O   UNL     1     -11.504  -6.939  -4.231  1.00  0.00    -0.237 OA
ATOM     83  O   UNL     1     -10.570  -5.466  -2.476  1.00  0.00    -0.237 OA
ATOM     84  O   UNL     1     -11.140  -4.539  -4.686  1.00  0.00    -0.744 OA
ENDBRANCH  80  81
ENDBRANCH  48  73
BRANCH  60  85
ATOM     85  C   UNL     1      -3.667 -12.588  -7.810  1.00  0.00     0.058 A 
ATOM     86  C   UNL     1      -4.568 -12.894  -8.842  1.00  0.00     0.135 A 
ATOM     87  C   UNL     1      -3.208 -13.650  -7.011  1.00  0.00     0.135 A 
ATOM     88  F   UNL     1      -5.043 -11.920  -9.635  1.00  0.00    -0.206 F 
ATOM     89  C   UNL     1      -5.008 -14.197  -9.063  1.00  0.00     0.059 A 
ATOM     90  C   UNL     1      -3.611 -14.964  -7.233  1.00  0.00     0.059 A 
ATOM     91  F   UNL     1      -2.336 -13.420  -6.017  1.00  0.00    -0.206 F 
ATOM     92  C   UNL     1      -4.520 -15.227  -8.256  1.00  0.00     0.060 A 
BRANCH  92  93
ATOM     93  S   UNL     1      -5.063 -16.918  -8.583  1.00  0.00     0.124 S 
ATOM     94  O   UNL     1      -6.444 -16.880  -8.113  1.00  0.00    -0.237 OA
ATOM     95  O   UNL     1      -4.889 -17.028 -10.028  1.00  0.00    -0.237 OA
ATOM     96  O   UNL     1      -4.151 -17.730  -7.784  1.00  0.00    -0.744 OA
ENDBRANCH  92  93
ENDBRANCH  60  85
ENDBRANCH  34  35
ENDBRANCH  27  29
ENDBRANCH  26  27
ENDBRANCH  25  26
ENDBRANCH  24  25
ENDBRANCH  23  24
ENDBRANCH  22  23
ENDBRANCH   1  22
TORSDOF 23
