REMARK SMILES COCC[NH2+]CC(=O)N1C[C@H](OC)C[C@@H]1C(=O)OCCOCCOCCOC(=O)c1ccc(-c2c3nc(c(-c4c(F)cc(S(=O)(=O)[O-])cc4F)c4ccc([nH]4)c(-c4c(F)cc(S(=O)(=O)[O-])cc4F)c4nc(c(-c5c(F)cc(S(=O)(=O)[O-])cc5F)c5ccc2[nH]5)C=C4)C=C3)cc1
REMARK SMILES IDX 21 1 20 2 19 3 18 4 16 5 17 6 15 7 9 8 10 9 11 10 14 11 7 12
REMARK SMILES IDX 8 13 6 14 5 15 4 18 3 19 2 20 1 21 12 22 13 23 22 24 23 25
REMARK SMILES IDX 24 26 25 27 26 28 27 29 28 30 29 31 30 32 31 33 95 34 32 35
REMARK SMILES IDX 94 36 33 37 34 38 35 39 88 40 36 41 93 42 87 43 89 44 37 45
REMARK SMILES IDX 92 46 86 47 85 48 38 50 72 51 51 52 71 53 52 54 55 55 70 56
REMARK SMILES IDX 90 57 53 58 54 59 69 61 91 62 56 63 39 64 40 65 49 66 41 67
REMARK SMILES IDX 42 68 48 69 50 70 43 71 44 72 45 73 46 74 47 75 73 76 74 77
REMARK SMILES IDX 83 78 75 79 76 80 82 81 84 82 77 83 78 84 79 85 80 86 81 87
REMARK SMILES IDX 57 88 58 89 67 90 59 91 60 92 66 93 68 94 61 95 62 96 63 97
REMARK SMILES IDX 64 98 65 99
REMARK H PARENT 5 16 5 17 89 49 55 60
REMARK Flexibility Score: inf
ROOT
ATOM      1  O   UNL     1      -3.891  -8.801  -1.697  1.00  0.00    -0.376 OA
ENDROOT
BRANCH   1   2
ATOM      2  C   UNL     1      -2.484  -8.945  -1.509  1.00  0.00     0.202 C 
BRANCH   2   3
ATOM      3  C   UNL     1      -1.583  -7.703  -1.617  1.00  0.00     0.261 C 
BRANCH   3   4
ATOM      4  O   UNL     1      -1.874  -6.681  -0.639  1.00  0.00    -0.462 OA
BRANCH   4   5
ATOM      5  C   UNL     1      -1.947  -5.416  -1.111  1.00  0.00     0.329 C 
ATOM      6  O   UNL     1      -1.662  -5.104  -2.264  1.00  0.00    -0.250 OA
BRANCH   5   7
ATOM      7  C   UNL     1      -2.420  -4.369  -0.086  1.00  0.00     0.198 C 
ATOM      8  N   UNL     1      -1.444  -3.303   0.105  1.00  0.00    -0.321 N 
ATOM      9  C   UNL     1      -1.742  -2.670   1.381  1.00  0.00     0.152 C 
ATOM     10  C   UNL     1      -1.980  -3.866   2.283  1.00  0.00     0.140 C 
ATOM     11  C   UNL     1      -2.782  -4.779   1.366  1.00  0.00     0.071 C 
BRANCH   8  12
ATOM     12  C   UNL     1      -0.942  -2.598  -0.981  1.00  0.00     0.278 C 
ATOM     13  O   UNL     1      -1.454  -1.573  -1.417  1.00  0.00    -0.268 OA
BRANCH  12  14
ATOM     14  C   UNL     1       0.475  -3.095  -1.394  1.00  0.00     0.362 C 
BRANCH  14  15
ATOM     15  N   UNL     1       1.560  -2.204  -0.872  1.00  0.00    -0.337 N 
ATOM     16  H   UNL     1       2.464  -2.655  -1.008  1.00  0.00     0.346 HD
ATOM     17  H   UNL     1       1.539  -1.317  -1.375  1.00  0.00     0.346 HD
BRANCH  15  18
ATOM     18  C   UNL     1       1.351  -1.953   0.564  1.00  0.00     0.289 C 
BRANCH  18  19
ATOM     19  C   UNL     1       2.200  -0.898   1.278  1.00  0.00     0.221 C 
BRANCH  19  20
ATOM     20  O   UNL     1       1.586   0.399   1.296  1.00  0.00    -0.379 OA
ATOM     21  C   UNL     1       1.322   0.940   0.009  1.00  0.00     0.195 C 
ENDBRANCH  19  20
ENDBRANCH  18  19
ENDBRANCH  15  18
ENDBRANCH  14  15
ENDBRANCH  12  14
ENDBRANCH   8  12
BRANCH  10  22
ATOM     22  O   UNL     1      -0.760  -4.413   2.808  1.00  0.00    -0.380 OA
ATOM     23  C   UNL     1      -0.094  -5.429   2.069  1.00  0.00     0.195 C 
ENDBRANCH  10  22
ENDBRANCH   5   7
ENDBRANCH   4   5
ENDBRANCH   3   4
ENDBRANCH   2   3
ENDBRANCH   1   2
BRANCH   1  24
ATOM     24  C   UNL     1      -4.570  -7.749  -1.032  1.00  0.00     0.188 C 
BRANCH  24  25
ATOM     25  C   UNL     1      -4.311  -7.551   0.460  1.00  0.00     0.188 C 
BRANCH  25  26
ATOM     26  O   UNL     1      -3.285  -8.337   1.017  1.00  0.00    -0.376 OA
BRANCH  26  27
ATOM     27  C   UNL     1      -3.627  -9.281   2.021  1.00  0.00     0.202 C 
BRANCH  27  28
ATOM     28  C   UNL     1      -4.859 -10.193   1.839  1.00  0.00     0.261 C 
BRANCH  28  29
ATOM     29  O   UNL     1      -6.070  -9.578   1.363  1.00  0.00    -0.460 OA
BRANCH  29  30
ATOM     30  C   UNL     1      -6.731  -8.750   2.216  1.00  0.00     0.338 C 
ATOM     31  O   UNL     1      -6.439  -8.522   3.370  1.00  0.00    -0.246 OA
BRANCH  30  32
ATOM     32  C   UNL     1      -7.679  -7.940   1.397  1.00  0.00     0.060 A 
ATOM     33  C   UNL     1      -7.554  -6.540   1.402  1.00  0.00     0.016 A 
ATOM     34  C   UNL     1      -8.630  -8.550   0.578  1.00  0.00     0.016 A 
ATOM     35  C   UNL     1      -8.387  -5.750   0.604  1.00  0.00     0.010 A 
ATOM     36  C   UNL     1      -9.485  -7.756  -0.195  1.00  0.00     0.010 A 
ATOM     37  C   UNL     1      -9.387  -6.352  -0.169  1.00  0.00    -0.014 A 
BRANCH  37  38
ATOM     38  C   UNL     1     -10.456  -5.530  -0.794  1.00  0.00     0.031 A 
ATOM     39  C   UNL     1     -11.771  -5.411  -0.071  1.00  0.00     0.074 A 
ATOM     40  C   UNL     1     -10.284  -4.915  -1.979  1.00  0.00     0.049 A 
ATOM     41  N   UNL     1     -12.889  -4.855  -0.459  1.00  0.00    -0.248 NA
ATOM     42  C   UNL     1     -11.830  -6.009   1.273  1.00  0.00     0.031 C 
ATOM     43  C   UNL     1      -9.050  -4.907  -2.760  1.00  0.00     0.029 A 
ATOM     44  N   UNL     1     -11.169  -4.191  -2.742  1.00  0.00    -0.354 N 
ATOM     45  C   UNL     1     -13.789  -5.051   0.583  1.00  0.00     0.074 A 
ATOM     46  C   UNL     1     -13.093  -5.798   1.608  1.00  0.00     0.031 C 
ATOM     47  C   UNL     1      -9.262  -4.232  -3.904  1.00  0.00     0.029 A 
ATOM     48  C   UNL     1     -10.658  -3.796  -3.956  1.00  0.00     0.049 A 
ATOM     49  H   UNL     1     -12.084  -3.975  -2.447  1.00  0.00     0.167 HD
ATOM     50  C   UNL     1     -15.077  -4.645   0.677  1.00  0.00     0.037 A 
ATOM     51  C   UNL     1     -11.255  -3.186  -5.002  1.00  0.00     0.037 A 
ATOM     52  C   UNL     1     -15.767  -3.907  -0.348  1.00  0.00     0.049 A 
ATOM     53  C   UNL     1     -12.715  -2.813  -4.910  1.00  0.00     0.074 A 
ATOM     54  C   UNL     1     -17.067  -3.432  -0.337  1.00  0.00     0.029 A 
ATOM     55  N   UNL     1     -15.222  -3.550  -1.573  1.00  0.00    -0.354 N 
ATOM     56  N   UNL     1     -13.552  -2.986  -3.913  1.00  0.00    -0.248 NA
ATOM     57  C   UNL     1     -13.314  -2.165  -6.087  1.00  0.00     0.031 C 
ATOM     58  C   UNL     1     -17.327  -2.843  -1.579  1.00  0.00     0.029 A 
ATOM     59  C   UNL     1     -16.169  -2.890  -2.339  1.00  0.00     0.049 A 
ATOM     60  H   UNL     1     -14.298  -3.737  -1.856  1.00  0.00     0.167 HD
ATOM     61  C   UNL     1     -14.764  -2.443  -4.332  1.00  0.00     0.074 A 
ATOM     62  C   UNL     1     -14.550  -1.926  -5.667  1.00  0.00     0.031 C 
ATOM     63  C   UNL     1     -15.946  -2.375  -3.668  1.00  0.00     0.037 A 
BRANCH  50  64
ATOM     64  C   UNL     1     -15.836  -5.026   1.919  1.00  0.00     0.058 A 
ATOM     65  C   UNL     1     -15.546  -4.461   3.172  1.00  0.00     0.135 A 
ATOM     66  C   UNL     1     -16.886  -5.957   1.850  1.00  0.00     0.135 A 
ATOM     67  F   UNL     1     -14.540  -3.582   3.301  1.00  0.00    -0.206 F 
ATOM     68  C   UNL     1     -16.248  -4.829   4.315  1.00  0.00     0.059 A 
ATOM     69  C   UNL     1     -17.623  -6.315   2.975  1.00  0.00     0.059 A 
ATOM     70  F   UNL     1     -17.204  -6.531   0.679  1.00  0.00    -0.206 F 
ATOM     71  C   UNL     1     -17.285  -5.757   4.206  1.00  0.00     0.060 A 
BRANCH  71  72
ATOM     72  S   UNL     1     -18.183  -6.225   5.701  1.00  0.00     0.124 S 
ATOM     73  O   UNL     1     -17.179  -7.017   6.406  1.00  0.00    -0.237 OA
ATOM     74  O   UNL     1     -18.498  -4.929   6.293  1.00  0.00    -0.237 OA
ATOM     75  O   UNL     1     -19.327  -6.974   5.191  1.00  0.00    -0.744 OA
ENDBRANCH  71  72
ENDBRANCH  50  64
BRANCH  51  76
ATOM     76  C   UNL     1     -10.480  -2.907  -6.243  1.00  0.00     0.058 A 
ATOM     77  C   UNL     1     -10.175  -1.593  -6.630  1.00  0.00     0.135 A 
ATOM     78  C   UNL     1     -10.030  -3.949  -7.070  1.00  0.00     0.135 A 
ATOM     79  F   UNL     1     -10.600  -0.560  -5.886  1.00  0.00    -0.206 F 
ATOM     80  C   UNL     1      -9.458  -1.321  -7.791  1.00  0.00     0.059 A 
ATOM     81  C   UNL     1      -9.287  -3.704  -8.221  1.00  0.00     0.059 A 
ATOM     82  F   UNL     1     -10.293  -5.225  -6.747  1.00  0.00    -0.206 F 
ATOM     83  C   UNL     1      -9.012  -2.385  -8.577  1.00  0.00     0.060 A 
BRANCH  83  84
ATOM     84  S   UNL     1      -8.030  -2.021 -10.050  1.00  0.00     0.124 S 
ATOM     85  O   UNL     1      -9.033  -1.442 -10.936  1.00  0.00    -0.237 OA
ATOM     86  O   UNL     1      -7.029  -1.097  -9.527  1.00  0.00    -0.237 OA
ATOM     87  O   UNL     1      -7.519  -3.331 -10.444  1.00  0.00    -0.744 OA
ENDBRANCH  83  84
ENDBRANCH  51  76
BRANCH  63  88
ATOM     88  C   UNL     1     -17.100  -1.690  -4.354  1.00  0.00     0.058 A 
ATOM     89  C   UNL     1     -17.765  -2.268  -5.447  1.00  0.00     0.135 A 
ATOM     90  C   UNL     1     -17.590  -0.466  -3.867  1.00  0.00     0.135 A 
ATOM     91  F   UNL     1     -17.338  -3.434  -5.957  1.00  0.00    -0.206 F 
ATOM     92  C   UNL     1     -18.858  -1.647  -6.045  1.00  0.00     0.059 A 
ATOM     93  C   UNL     1     -18.701   0.157  -4.429  1.00  0.00     0.059 A 
ATOM     94  F   UNL     1     -17.001   0.128  -2.816  1.00  0.00    -0.206 F 
ATOM     95  C   UNL     1     -19.322  -0.437  -5.526  1.00  0.00     0.060 A 
BRANCH  95  96
ATOM     96  S   UNL     1     -20.766   0.335  -6.288  1.00  0.00     0.124 S 
ATOM     97  O   UNL     1     -20.217   0.799  -7.557  1.00  0.00    -0.237 OA
ATOM     98  O   UNL     1     -21.706  -0.778  -6.372  1.00  0.00    -0.237 OA
ATOM     99  O   UNL     1     -21.130   1.385  -5.341  1.00  0.00    -0.744 OA
ENDBRANCH  95  96
ENDBRANCH  63  88
ENDBRANCH  37  38
ENDBRANCH  30  32
ENDBRANCH  29  30
ENDBRANCH  28  29
ENDBRANCH  27  28
ENDBRANCH  26  27
ENDBRANCH  25  26
ENDBRANCH  24  25
ENDBRANCH   1  24
TORSDOF 27
