REMARK SMILES COC(=O)c1cc(F)cc(-c2ccccc2C(=O)OCCOCCOCCOC(=O)c2ccc(-c3c4nc(c(-c5c(F)cc(S(=O)(=O)[O-])cc5F)c5ccc([nH]5)c(-c5c(F)cc(S(=O)(=O)[O-])cc5F)c5nc(c(-c6c(F)cc(S(=O)(=O)[O-])cc6F)c6ccc3[nH]6)C=C5)C=C4)cc2)c1
REMARK SMILES IDX 23 1 22 2 21 3 20 4 19 5 17 6 18 7 16 8 11 9 12 10 13 11
REMARK SMILES IDX 15 12 14 13 10 14 5 15 6 16 97 17 7 18 8 19 9 20 3 21 4 22
REMARK SMILES IDX 2 23 1 24 24 25 25 26 26 27 27 28 28 29 29 30 30 31 31 32
REMARK SMILES IDX 32 33 96 34 33 35 95 36 34 37 35 38 36 39 89 40 37 41 94 42
REMARK SMILES IDX 88 43 90 44 38 45 93 46 87 47 86 48 39 50 73 51 52 52 72 53
REMARK SMILES IDX 53 54 56 55 71 56 91 57 54 58 55 59 70 61 92 62 57 63 40 64
REMARK SMILES IDX 41 65 50 66 42 67 43 68 49 69 51 70 44 71 45 72 46 73 47 74
REMARK SMILES IDX 48 75 74 76 75 77 84 78 76 79 77 80 83 81 85 82 78 83 79 84
REMARK SMILES IDX 80 85 81 86 82 87 58 88 59 89 68 90 60 91 61 92 67 93 69 94
REMARK SMILES IDX 62 95 63 96 64 97 65 98 66 99
REMARK H PARENT 90 49 56 60
REMARK Flexibility Score: inf
ROOT
ATOM      1  C   UNL     1       3.489   6.849   1.834  1.00  0.00     0.188 C 
ENDROOT
BRANCH   1   2
ATOM      2  O   UNL     1       3.866   6.212   0.614  1.00  0.00    -0.376 OA
BRANCH   2   3
ATOM      3  C   UNL     1       3.496   4.848   0.413  1.00  0.00     0.202 C 
BRANCH   3   4
ATOM      4  C   UNL     1       3.804   3.855   1.538  1.00  0.00     0.261 C 
BRANCH   4   5
ATOM      5  O   UNL     1       3.121   4.204   2.752  1.00  0.00    -0.460 OA
BRANCH   5   6
ATOM      6  C   UNL     1       3.810   3.999   3.898  1.00  0.00     0.338 C 
ATOM      7  O   UNL     1       4.897   3.455   3.997  1.00  0.00    -0.246 OA
BRANCH   6   8
ATOM      8  C   UNL     1       3.139   4.662   5.049  1.00  0.00     0.067 A 
ATOM      9  C   UNL     1       1.766   4.535   5.379  1.00  0.00    -0.004 A 
ATOM     10  C   UNL     1       1.324   5.212   6.539  1.00  0.00     0.009 A 
ATOM     11  C   UNL     1       2.175   6.026   7.294  1.00  0.00     0.001 A 
ATOM     12  C   UNL     1       3.987   5.488   5.814  1.00  0.00     0.016 A 
ATOM     13  C   UNL     1       3.502   6.181   6.919  1.00  0.00     0.001 A 
BRANCH   9  14
ATOM     14  C   UNL     1       0.768   3.827   4.541  1.00  0.00    -0.014 A 
ATOM     15  C   UNL     1       0.170   2.047   2.978  1.00  0.00     0.063 A 
ATOM     16  C   UNL     1      -1.027   2.691   2.663  1.00  0.00     0.055 A 
ATOM     17  C   UNL     1       1.026   2.576   3.957  1.00  0.00     0.024 A 
ATOM     18  C   UNL     1      -1.334   3.878   3.304  1.00  0.00     0.124 A 
ATOM     19  F   UNL     1      -2.480   4.508   3.011  1.00  0.00    -0.207 F 
ATOM     20  C   UNL     1      -0.451   4.453   4.214  1.00  0.00     0.048 A 
BRANCH  15  21
ATOM     21  C   UNL     1       0.628   0.854   2.231  1.00  0.00     0.337 C 
ATOM     22  O   UNL     1       1.403   0.023   2.678  1.00  0.00    -0.246 OA
BRANCH  21  23
ATOM     23  O   UNL     1       0.154   0.911   0.961  1.00  0.00    -0.465 OA
ATOM     24  C   UNL     1       0.728  -0.059   0.086  1.00  0.00     0.282 C 
ENDBRANCH  21  23
ENDBRANCH  15  21
ENDBRANCH   9  14
ENDBRANCH   6   8
ENDBRANCH   5   6
ENDBRANCH   4   5
ENDBRANCH   3   4
ENDBRANCH   2   3
ENDBRANCH   1   2
BRANCH   1  25
ATOM     25  C   UNL     1       1.995   6.856   2.225  1.00  0.00     0.188 C 
BRANCH  25  26
ATOM     26  O   UNL     1       1.164   6.132   1.348  1.00  0.00    -0.376 OA
BRANCH  26  27
ATOM     27  C   UNL     1       0.440   6.811   0.338  1.00  0.00     0.202 C 
BRANCH  27  28
ATOM     28  C   UNL     1       0.911   8.097  -0.371  1.00  0.00     0.261 C 
BRANCH  28  29
ATOM     29  O   UNL     1       1.924   8.887   0.254  1.00  0.00    -0.460 OA
BRANCH  29  30
ATOM     30  C   UNL     1       1.500   9.861   1.092  1.00  0.00     0.338 C 
ATOM     31  O   UNL     1       0.352  10.099   1.419  1.00  0.00    -0.246 OA
BRANCH  30  32
ATOM     32  C   UNL     1       2.692  10.482   1.707  1.00  0.00     0.060 A 
ATOM     33  C   UNL     1       2.827  10.441   3.100  1.00  0.00     0.016 A 
ATOM     34  C   UNL     1       3.660  11.108   0.917  1.00  0.00     0.016 A 
ATOM     35  C   UNL     1       3.913  11.066   3.712  1.00  0.00     0.010 A 
ATOM     36  C   UNL     1       4.737  11.751   1.532  1.00  0.00     0.010 A 
ATOM     37  C   UNL     1       4.847  11.764   2.934  1.00  0.00    -0.014 A 
BRANCH  37  38
ATOM     38  C   UNL     1       5.808  12.684   3.590  1.00  0.00     0.031 A 
ATOM     39  C   UNL     1       5.425  14.134   3.717  1.00  0.00     0.074 A 
ATOM     40  C   UNL     1       6.978  12.245   4.085  1.00  0.00     0.049 A 
ATOM     41  N   UNL     1       6.108  15.133   4.210  1.00  0.00    -0.248 NA
ATOM     42  C   UNL     1       4.088  14.505   3.222  1.00  0.00     0.031 C 
ATOM     43  C   UNL     1       7.438  10.857   4.067  1.00  0.00     0.029 A 
ATOM     44  N   UNL     1       7.996  12.930   4.701  1.00  0.00    -0.354 N 
ATOM     45  C   UNL     1       5.286  16.246   4.088  1.00  0.00     0.074 A 
ATOM     46  C   UNL     1       4.066  15.809   3.447  1.00  0.00     0.031 C 
ATOM     47  C   UNL     1       8.652  10.794   4.643  1.00  0.00     0.029 A 
ATOM     48  C   UNL     1       9.067  12.139   5.043  1.00  0.00     0.049 A 
ATOM     49  H   UNL     1       7.962  13.897   4.881  1.00  0.00     0.167 HD
ATOM     50  C   UNL     1       5.522  17.518   4.486  1.00  0.00     0.037 A 
ATOM     51  C   UNL     1      10.250  12.469   5.601  1.00  0.00     0.037 A 
ATOM     52  C   UNL     1       6.740  17.953   5.113  1.00  0.00     0.049 A 
ATOM     53  C   UNL     1      10.524  13.907   5.963  1.00  0.00     0.074 A 
ATOM     54  C   UNL     1       7.084  19.226   5.533  1.00  0.00     0.029 A 
ATOM     55  N   UNL     1       7.815  17.129   5.409  1.00  0.00    -0.354 N 
ATOM     56  N   UNL     1       9.742  14.953   5.834  1.00  0.00    -0.248 NA
ATOM     57  C   UNL     1      11.839  14.210   6.547  1.00  0.00     0.031 C 
ATOM     58  C   UNL     1       8.382  19.178   6.051  1.00  0.00     0.029 A 
ATOM     59  C   UNL     1       8.827  17.867   5.998  1.00  0.00     0.049 A 
ATOM     60  H   UNL     1       7.853  16.162   5.228  1.00  0.00     0.167 HD
ATOM     61  C   UNL     1      10.457  16.030   6.351  1.00  0.00     0.074 A 
ATOM     62  C   UNL     1      11.733  15.509   6.795  1.00  0.00     0.031 C 
ATOM     63  C   UNL     1      10.086  17.330   6.453  1.00  0.00     0.037 A 
BRANCH  50  64
ATOM     64  C   UNL     1       4.444  18.534   4.241  1.00  0.00     0.058 A 
ATOM     65  C   UNL     1       4.606  19.525   3.260  1.00  0.00     0.135 A 
ATOM     66  C   UNL     1       3.265  18.551   5.004  1.00  0.00     0.135 A 
ATOM     67  F   UNL     1       5.707  19.545   2.494  1.00  0.00    -0.206 F 
ATOM     68  C   UNL     1       3.644  20.509   3.056  1.00  0.00     0.059 A 
ATOM     69  C   UNL     1       2.279  19.512   4.801  1.00  0.00     0.059 A 
ATOM     70  F   UNL     1       3.049  17.607   5.934  1.00  0.00    -0.206 F 
ATOM     71  C   UNL     1       2.485  20.495   3.834  1.00  0.00     0.060 A 
BRANCH  71  72
ATOM     72  S   UNL     1       1.231  21.759   3.533  1.00  0.00     0.124 S 
ATOM     73  O   UNL     1       1.878  22.954   4.062  1.00  0.00    -0.237 OA
ATOM     74  O   UNL     1       1.083  21.704   2.081  1.00  0.00    -0.237 OA
ATOM     75  O   UNL     1       0.079  21.278   4.289  1.00  0.00    -0.744 OA
ENDBRANCH  71  72
ENDBRANCH  50  64
BRANCH  51  76
ATOM     76  C   UNL     1      11.265  11.414   5.862  1.00  0.00     0.058 A 
ATOM     77  C   UNL     1      11.946  10.781   4.811  1.00  0.00     0.135 A 
ATOM     78  C   UNL     1      11.567  11.010   7.172  1.00  0.00     0.135 A 
ATOM     79  F   UNL     1      11.694  11.129   3.539  1.00  0.00    -0.206 F 
ATOM     80  C   UNL     1      12.870   9.769   5.046  1.00  0.00     0.059 A 
ATOM     81  C   UNL     1      12.505  10.017   7.434  1.00  0.00     0.059 A 
ATOM     82  F   UNL     1      10.955  11.599   8.211  1.00  0.00    -0.206 F 
ATOM     83  C   UNL     1      13.140   9.390   6.362  1.00  0.00     0.060 A 
BRANCH  83  84
ATOM     84  S   UNL     1      14.336   8.068   6.647  1.00  0.00     0.124 S 
ATOM     85  O   UNL     1      13.606   6.905   6.153  1.00  0.00    -0.237 OA
ATOM     86  O   UNL     1      15.469   8.499   5.834  1.00  0.00    -0.237 OA
ATOM     87  O   UNL     1      14.550   8.110   8.089  1.00  0.00    -0.744 OA
ENDBRANCH  83  84
ENDBRANCH  51  76
BRANCH  63  88
ATOM     88  C   UNL     1      11.042  18.288   7.109  1.00  0.00     0.058 A 
ATOM     89  C   UNL     1      10.749  18.820   8.376  1.00  0.00     0.135 A 
ATOM     90  C   UNL     1      12.193  18.750   6.454  1.00  0.00     0.135 A 
ATOM     91  F   UNL     1       9.657  18.416   9.043  1.00  0.00    -0.206 F 
ATOM     92  C   UNL     1      11.553  19.791   8.961  1.00  0.00     0.059 A 
ATOM     93  C   UNL     1      13.026  19.705   7.031  1.00  0.00     0.059 A 
ATOM     94  F   UNL     1      12.521  18.267   5.245  1.00  0.00    -0.206 F 
ATOM     95  C   UNL     1      12.687  20.232   8.278  1.00  0.00     0.060 A 
BRANCH  95  96
ATOM     96  S   UNL     1      13.723  21.491   9.053  1.00  0.00     0.124 S 
ATOM     97  O   UNL     1      12.892  22.683   8.925  1.00  0.00    -0.237 OA
ATOM     98  O   UNL     1      13.881  20.971  10.408  1.00  0.00    -0.237 OA
ATOM     99  O   UNL     1      14.936  21.480   8.241  1.00  0.00    -0.744 OA
ENDBRANCH  95  96
ENDBRANCH  63  88
ENDBRANCH  37  38
ENDBRANCH  30  32
ENDBRANCH  29  30
ENDBRANCH  28  29
ENDBRANCH  27  28
ENDBRANCH  26  27
ENDBRANCH  25  26
ENDBRANCH   1  25
TORSDOF 23
