REMARK SMILES CC(C)[C@H](NC(=O)[C@H](C)NC(=O)C[NH3+])C(=O)OCCOCCOCCOC(=O)c1ccc(-c2c3nc(c(-c4c(F)cc(S(=O)(=O)[O-])cc4F)c4ccc([nH]4)c(-c4c(F)cc(S(=O)(=O)[O-])cc4F)c4nc(c(-c5c(F)cc(S(=O)(=O)[O-])cc5F)c5ccc2[nH]5)C=C4)C=C3)cc1
REMARK SMILES IDX 21 1 20 2 19 3 18 4 17 5 15 6 16 7 4 8 2 9 1 10 3 11 5 12
REMARK SMILES IDX 6 13 7 15 8 16 9 17 10 18 11 19 12 21 13 22 14 23 22 27
REMARK SMILES IDX 23 28 24 29 25 30 26 31 27 32 28 33 29 34 30 35 94 36 31 37
REMARK SMILES IDX 93 38 32 39 33 40 34 41 87 42 35 43 92 44 86 45 88 46 36 47
REMARK SMILES IDX 91 48 85 49 84 50 37 52 71 53 50 54 70 55 51 56 54 57 69 58
REMARK SMILES IDX 89 59 52 60 53 61 68 63 90 64 55 65 38 66 39 67 48 68 40 69
REMARK SMILES IDX 41 70 47 71 49 72 42 73 43 74 44 75 45 76 46 77 72 78 73 79
REMARK SMILES IDX 82 80 74 81 75 82 81 83 83 84 76 85 77 86 78 87 79 88 80 89
REMARK SMILES IDX 56 90 57 91 66 92 58 93 59 94 65 95 67 96 60 97 61 98 62 99
REMARK SMILES IDX 63 100 64 101
REMARK H PARENT 5 14 10 20 14 24 14 25 14 26 88 51 54 62
REMARK Flexibility Score: inf
ROOT
ATOM      1  C   UNL     1      -6.145   4.896  -1.305  1.00  0.00     0.188 C 
ENDROOT
BRANCH   1   2
ATOM      2  O   UNL     1      -6.829   3.937  -0.526  1.00  0.00    -0.376 OA
BRANCH   2   3
ATOM      3  C   UNL     1      -6.385   3.624   0.782  1.00  0.00     0.202 C 
BRANCH   3   4
ATOM      4  C   UNL     1      -4.895   3.537   1.175  1.00  0.00     0.261 C 
BRANCH   4   5
ATOM      5  O   UNL     1      -4.003   4.555   0.670  1.00  0.00    -0.462 OA
BRANCH   5   6
ATOM      6  C   UNL     1      -3.086   4.117  -0.237  1.00  0.00     0.328 C 
ATOM      7  O   UNL     1      -3.011   2.940  -0.573  1.00  0.00    -0.250 OA
BRANCH   6   8
ATOM      8  C   UNL     1      -2.274   5.251  -0.942  1.00  0.00     0.194 C 
BRANCH   8   9
ATOM      9  C   UNL     1      -0.829   4.864  -1.326  1.00  0.00     0.017 C 
ATOM     10  C   UNL     1      -0.635   3.463  -1.910  1.00  0.00     0.010 C 
ATOM     11  C   UNL     1      -0.204   5.886  -2.283  1.00  0.00     0.010 C 
ENDBRANCH   8   9
BRANCH   8  12
ATOM     12  N   UNL     1      -2.391   6.655  -0.456  1.00  0.00    -0.341 N 
ATOM     13  C   UNL     1      -1.893   7.474   0.500  1.00  0.00     0.243 C 
ATOM     14  H   UNL     1      -3.040   7.147  -1.009  1.00  0.00     0.164 HD
ATOM     15  O   UNL     1      -2.346   8.627   0.465  1.00  0.00    -0.273 OA
BRANCH  13  16
ATOM     16  C   UNL     1      -0.929   7.056   1.629  1.00  0.00     0.168 C 
ATOM     17  C   UNL     1      -0.549   8.287   2.467  1.00  0.00     0.041 C 
BRANCH  16  18
ATOM     18  N   UNL     1       0.323   6.477   1.155  1.00  0.00    -0.340 N 
ATOM     19  C   UNL     1       0.893   5.295   1.535  1.00  0.00     0.275 C 
ATOM     20  H   UNL     1       0.815   7.000   0.481  1.00  0.00     0.164 HD
ATOM     21  O   UNL     1       2.059   5.056   1.219  1.00  0.00    -0.268 OA
BRANCH  19  22
ATOM     22  C   UNL     1       0.038   4.271   2.284  1.00  0.00     0.360 C 
BRANCH  22  23
ATOM     23  N   UNL     1       0.057   4.552   3.722  1.00  0.00    -0.350 N 
ATOM     24  H   UNL     1       1.015   4.497   4.067  1.00  0.00     0.344 HD
ATOM     25  H   UNL     1      -0.520   3.867   4.210  1.00  0.00     0.344 HD
ATOM     26  H   UNL     1      -0.311   5.489   3.890  1.00  0.00     0.344 HD
ENDBRANCH  22  23
ENDBRANCH  19  22
ENDBRANCH  16  18
ENDBRANCH  13  16
ENDBRANCH   8  12
ENDBRANCH   6   8
ENDBRANCH   5   6
ENDBRANCH   4   5
ENDBRANCH   3   4
ENDBRANCH   2   3
ENDBRANCH   1   2
BRANCH   1  27
ATOM     27  C   UNL     1      -5.820   6.269  -0.700  1.00  0.00     0.188 C 
BRANCH  27  28
ATOM     28  O   UNL     1      -6.131   6.483   0.651  1.00  0.00    -0.376 OA
BRANCH  28  29
ATOM     29  C   UNL     1      -7.422   6.920   1.029  1.00  0.00     0.202 C 
BRANCH  29  30
ATOM     30  C   UNL     1      -8.605   7.191   0.077  1.00  0.00     0.261 C 
BRANCH  30  31
ATOM     31  O   UNL     1      -8.453   6.900  -1.312  1.00  0.00    -0.460 OA
BRANCH  31  32
ATOM     32  C   UNL     1      -8.117   7.951  -2.107  1.00  0.00     0.338 C 
ATOM     33  O   UNL     1      -7.888   9.092  -1.760  1.00  0.00    -0.246 OA
BRANCH  32  34
ATOM     34  C   UNL     1      -7.859   7.420  -3.462  1.00  0.00     0.060 A 
ATOM     35  C   UNL     1      -6.560   7.474  -3.993  1.00  0.00     0.016 A 
ATOM     36  C   UNL     1      -8.905   6.867  -4.197  1.00  0.00     0.016 A 
ATOM     37  C   UNL     1      -6.306   6.984  -5.276  1.00  0.00     0.010 A 
ATOM     38  C   UNL     1      -8.656   6.408  -5.490  1.00  0.00     0.010 A 
ATOM     39  C   UNL     1      -7.365   6.488  -6.045  1.00  0.00    -0.014 A 
BRANCH  39  40
ATOM     40  C   UNL     1      -7.218   6.264  -7.503  1.00  0.00     0.031 A 
ATOM     41  C   UNL     1      -7.691   7.357  -8.420  1.00  0.00     0.074 A 
ATOM     42  C   UNL     1      -6.765   5.101  -8.002  1.00  0.00     0.049 A 
ATOM     43  N   UNL     1      -7.915   7.324  -9.706  1.00  0.00    -0.248 NA
ATOM     44  C   UNL     1      -7.967   8.659  -7.790  1.00  0.00     0.031 C 
ATOM     45  C   UNL     1      -6.222   3.994  -7.219  1.00  0.00     0.029 A 
ATOM     46  N   UNL     1      -6.729   4.648  -9.299  1.00  0.00    -0.354 N 
ATOM     47  C   UNL     1      -8.390   8.588 -10.034  1.00  0.00     0.074 A 
ATOM     48  C   UNL     1      -8.432   9.360  -8.812  1.00  0.00     0.031 C 
ATOM     49  C   UNL     1      -5.942   2.972  -8.049  1.00  0.00     0.029 A 
ATOM     50  C   UNL     1      -6.338   3.334  -9.410  1.00  0.00     0.049 A 
ATOM     51  H   UNL     1      -6.962   5.210 -10.074  1.00  0.00     0.167 HD
ATOM     52  C   UNL     1      -8.764   9.057 -11.247  1.00  0.00     0.037 A 
ATOM     53  C   UNL     1      -6.349   2.509 -10.477  1.00  0.00     0.037 A 
ATOM     54  C   UNL     1      -8.720   8.276 -12.453  1.00  0.00     0.049 A 
ATOM     55  C   UNL     1      -6.847   3.025 -11.807  1.00  0.00     0.074 A 
ATOM     56  C   UNL     1      -9.066   8.658 -13.736  1.00  0.00     0.029 A 
ATOM     57  N   UNL     1      -8.311   6.952 -12.524  1.00  0.00    -0.354 N 
ATOM     58  N   UNL     1      -7.297   4.220 -12.112  1.00  0.00    -0.248 NA
ATOM     59  C   UNL     1      -6.847   2.082 -12.936  1.00  0.00     0.031 C 
ATOM     60  C   UNL     1      -8.922   7.549 -14.573  1.00  0.00     0.029 A 
ATOM     61  C   UNL     1      -8.417   6.496 -13.825  1.00  0.00     0.049 A 
ATOM     62  H   UNL     1      -7.993   6.417 -11.761  1.00  0.00     0.167 HD
ATOM     63  C   UNL     1      -7.588   4.184 -13.474  1.00  0.00     0.074 A 
ATOM     64  C   UNL     1      -7.273   2.848 -13.932  1.00  0.00     0.031 C 
ATOM     65  C   UNL     1      -8.063   5.171 -14.273  1.00  0.00     0.037 A 
BRANCH  52  66
ATOM     66  C   UNL     1      -9.290  10.463 -11.320  1.00  0.00     0.058 A 
ATOM     67  C   UNL     1      -8.457  11.578 -11.134  1.00  0.00     0.135 A 
ATOM     68  C   UNL     1     -10.643  10.699 -11.613  1.00  0.00     0.135 A 
ATOM     69  F   UNL     1      -7.160  11.411 -10.830  1.00  0.00    -0.206 F 
ATOM     70  C   UNL     1      -8.952  12.875 -11.211  1.00  0.00     0.059 A 
ATOM     71  C   UNL     1     -11.153  11.988 -11.727  1.00  0.00     0.059 A 
ATOM     72  F   UNL     1     -11.485   9.669 -11.794  1.00  0.00    -0.206 F 
ATOM     73  C   UNL     1     -10.302  13.070 -11.510  1.00  0.00     0.060 A 
BRANCH  73  74
ATOM     74  S   UNL     1     -10.925  14.760 -11.615  1.00  0.00     0.124 S 
ATOM     75  O   UNL     1     -10.897  15.168 -10.214  1.00  0.00    -0.237 OA
ATOM     76  O   UNL     1      -9.941  15.400 -12.482  1.00  0.00    -0.237 OA
ATOM     77  O   UNL     1     -12.255  14.598 -12.194  1.00  0.00    -0.744 OA
ENDBRANCH  73  74
ENDBRANCH  52  66
BRANCH  53  78
ATOM     78  C   UNL     1      -5.901   1.096 -10.335  1.00  0.00     0.058 A 
ATOM     79  C   UNL     1      -4.730   0.644 -10.961  1.00  0.00     0.135 A 
ATOM     80  C   UNL     1      -6.634   0.166  -9.579  1.00  0.00     0.135 A 
ATOM     81  F   UNL     1      -4.001   1.488 -11.707  1.00  0.00    -0.206 F 
ATOM     82  C   UNL     1      -4.308  -0.678 -10.856  1.00  0.00     0.059 A 
ATOM     83  C   UNL     1      -6.218  -1.154  -9.435  1.00  0.00     0.059 A 
ATOM     84  F   UNL     1      -7.760   0.546  -8.954  1.00  0.00    -0.206 F 
ATOM     85  C   UNL     1      -5.057  -1.569 -10.086  1.00  0.00     0.060 A 
BRANCH  85  86
ATOM     86  S   UNL     1      -4.473  -3.270  -9.919  1.00  0.00     0.124 S 
ATOM     87  O   UNL     1      -4.721  -3.799 -11.255  1.00  0.00    -0.237 OA
ATOM     88  O   UNL     1      -3.071  -3.076  -9.560  1.00  0.00    -0.237 OA
ATOM     89  O   UNL     1      -5.315  -3.813  -8.858  1.00  0.00    -0.744 OA
ENDBRANCH  85  86
ENDBRANCH  53  78
BRANCH  65  90
ATOM     90  C   UNL     1      -8.208   4.893 -15.745  1.00  0.00     0.058 A 
ATOM     91  C   UNL     1      -9.249   4.106 -16.257  1.00  0.00     0.135 A 
ATOM     92  C   UNL     1      -7.359   5.537 -16.662  1.00  0.00     0.135 A 
ATOM     93  F   UNL     1     -10.084   3.464 -15.425  1.00  0.00    -0.206 F 
ATOM     94  C   UNL     1      -9.449   3.972 -17.628  1.00  0.00     0.059 A 
ATOM     95  C   UNL     1      -7.556   5.439 -18.035  1.00  0.00     0.059 A 
ATOM     96  F   UNL     1      -6.351   6.308 -16.224  1.00  0.00    -0.206 F 
ATOM     97  C   UNL     1      -8.606   4.654 -18.509  1.00  0.00     0.060 A 
BRANCH  97  98
ATOM     98  S   UNL     1      -8.935   4.546 -20.282  1.00  0.00     0.124 S 
ATOM     99  O   UNL     1      -8.541   3.172 -20.572  1.00  0.00    -0.237 OA
ATOM    100  O   UNL     1     -10.366   4.824 -20.349  1.00  0.00    -0.237 OA
ATOM    101  O   UNL     1      -8.075   5.579 -20.852  1.00  0.00    -0.744 OA
ENDBRANCH  97  98
ENDBRANCH  65  90
ENDBRANCH  39  40
ENDBRANCH  32  34
ENDBRANCH  31  32
ENDBRANCH  30  31
ENDBRANCH  29  30
ENDBRANCH  28  29
ENDBRANCH  27  28
ENDBRANCH   1  27
TORSDOF 26
