REMARK SMILES COc1cc(/C=N/NC(=O)c2cccnc2)ccc1OCC(=O)OCCOCCOCCOC(=O)c1ccc(-c2c3nc(c(-c4c(F)cc(S(=O)(=O)[O-])cc4F)c4ccc([nH]4)c(-c4c(F)cc(S(=O)(=O)[O-])cc4F)c4nc(c(-c5c(F)cc(S(=O)(=O)[O-])cc5F)c5ccc2[nH]5)C=C4)C=C3)cc1
REMARK SMILES IDX 28 1 27 2 26 3 25 4 24 5 22 6 23 7 21 8 20 9 19 10 3 11 4 12
REMARK SMILES IDX 5 13 18 14 17 15 2 16 1 17 6 18 7 19 8 20 9 21 10 23 11 24
REMARK SMILES IDX 12 25 16 26 13 27 15 28 14 29 29 30 30 31 31 32 32 33 33 34
REMARK SMILES IDX 34 35 35 36 36 37 37 38 101 39 38 40 100 41 39 42 40 43
REMARK SMILES IDX 41 44 94 45 42 46 99 47 93 48 95 49 43 50 98 51 92 52 91 53
REMARK SMILES IDX 44 55 78 56 57 57 77 58 58 59 61 60 76 61 96 62 59 63 60 64
REMARK SMILES IDX 75 66 97 67 62 68 45 69 46 70 55 71 47 72 48 73 54 74 56 75
REMARK SMILES IDX 49 76 50 77 51 78 52 79 53 80 79 81 80 82 89 83 81 84 82 85
REMARK SMILES IDX 88 86 90 87 83 88 84 89 85 90 86 91 87 92 63 93 64 94 73 95
REMARK SMILES IDX 65 96 66 97 72 98 74 99 67 100 68 101 69 102 70 103 71 104
REMARK H PARENT 8 22 95 54 61 65
REMARK Flexibility Score: inf
ROOT
ATOM      1  C   UNL     1      -0.219   1.710  -0.866  1.00  0.00     0.188 C 
ENDROOT
BRANCH   1   2
ATOM      2  O   UNL     1      -0.412   2.836  -0.018  1.00  0.00    -0.376 OA
BRANCH   2   3
ATOM      3  C   UNL     1       0.687   3.726   0.132  1.00  0.00     0.202 C 
BRANCH   3   4
ATOM      4  C   UNL     1       1.867   3.148   0.910  1.00  0.00     0.261 C 
BRANCH   4   5
ATOM      5  O   UNL     1       2.658   2.237   0.114  1.00  0.00    -0.461 OA
BRANCH   5   6
ATOM      6  C   UNL     1       2.900   1.008   0.655  1.00  0.00     0.344 C 
ATOM      7  O   UNL     1       2.406   0.601   1.700  1.00  0.00    -0.248 OA
BRANCH   6   8
ATOM      8  C   UNL     1       3.971   0.234  -0.119  1.00  0.00     0.352 C 
BRANCH   8   9
ATOM      9  O   UNL     1       4.043   0.340  -1.527  1.00  0.00    -0.478 OA
BRANCH   9  10
ATOM     10  C   UNL     1       3.173  -0.330  -2.341  1.00  0.00     0.162 A 
ATOM     11  C   UNL     1       2.332  -1.412  -2.044  1.00  0.00     0.161 A 
ATOM     12  C   UNL     1       1.449  -1.907  -3.024  1.00  0.00     0.060 A 
ATOM     13  C   UNL     1       1.360  -1.273  -4.269  1.00  0.00    -0.002 A 
ATOM     14  C   UNL     1       3.155   0.203  -3.637  1.00  0.00     0.051 A 
ATOM     15  C   UNL     1       2.245  -0.246  -4.591  1.00  0.00     0.014 A 
BRANCH  11  16
ATOM     16  O   UNL     1       2.445  -2.035  -0.833  1.00  0.00    -0.493 OA
ATOM     17  C   UNL     1       1.227  -2.147  -0.099  1.00  0.00     0.278 C 
ENDBRANCH  11  16
BRANCH  13  18
ATOM     18  C   UNL     1       0.272  -1.530  -5.236  1.00  0.00     0.141 C 
ATOM     19  N   UNL     1      -0.532  -2.544  -5.174  1.00  0.00    -0.180 NA
BRANCH  19  20
ATOM     20  N   UNL     1      -1.533  -2.592  -6.117  1.00  0.00    -0.243 N 
ATOM     21  C   UNL     1      -1.510  -2.327  -7.475  1.00  0.00     0.272 C 
ATOM     22  H   UNL     1      -2.413  -2.860  -5.767  1.00  0.00     0.194 HD
ATOM     23  O   UNL     1      -2.555  -2.239  -8.115  1.00  0.00    -0.267 OA
BRANCH  21  24
ATOM     24  C   UNL     1      -0.233  -2.134  -8.177  1.00  0.00     0.059 A 
ATOM     25  C   UNL     1       0.895  -2.915  -7.930  1.00  0.00     0.017 A 
ATOM     26  C   UNL     1      -0.134  -1.093  -9.091  1.00  0.00     0.124 A 
ATOM     27  C   UNL     1       2.095  -2.582  -8.552  1.00  0.00     0.021 A 
ATOM     28  N   UNL     1       1.025  -0.741  -9.701  1.00  0.00    -0.264 NA
ATOM     29  C   UNL     1       2.110  -1.495  -9.414  1.00  0.00     0.111 A 
ENDBRANCH  21  24
ENDBRANCH  19  20
ENDBRANCH  13  18
ENDBRANCH   9  10
ENDBRANCH   8   9
ENDBRANCH   6   8
ENDBRANCH   5   6
ENDBRANCH   4   5
ENDBRANCH   3   4
ENDBRANCH   2   3
ENDBRANCH   1   2
BRANCH   1  30
ATOM     30  C   UNL     1       0.425   1.978  -2.234  1.00  0.00     0.188 C 
BRANCH  30  31
ATOM     31  O   UNL     1       0.074   3.189  -2.898  1.00  0.00    -0.376 OA
BRANCH  31  32
ATOM     32  C   UNL     1      -1.319   3.461  -3.029  1.00  0.00     0.202 C 
BRANCH  32  33
ATOM     33  C   UNL     1      -2.048   2.472  -3.931  1.00  0.00     0.261 C 
BRANCH  33  34
ATOM     34  O   UNL     1      -2.244   1.221  -3.247  1.00  0.00    -0.460 OA
BRANCH  34  35
ATOM     35  C   UNL     1      -2.843   0.286  -4.022  1.00  0.00     0.338 C 
ATOM     36  O   UNL     1      -3.206   0.445  -5.175  1.00  0.00    -0.246 OA
BRANCH  35  37
ATOM     37  C   UNL     1      -3.016  -0.990  -3.290  1.00  0.00     0.060 A 
ATOM     38  C   UNL     1      -2.012  -1.516  -2.474  1.00  0.00     0.016 A 
ATOM     39  C   UNL     1      -4.151  -1.752  -3.566  1.00  0.00     0.016 A 
ATOM     40  C   UNL     1      -2.091  -2.846  -2.037  1.00  0.00     0.010 A 
ATOM     41  C   UNL     1      -4.256  -3.055  -3.071  1.00  0.00     0.010 A 
ATOM     42  C   UNL     1      -3.203  -3.641  -2.349  1.00  0.00    -0.014 A 
BRANCH  42  43
ATOM     43  C   UNL     1      -3.252  -5.103  -2.046  1.00  0.00     0.031 A 
ATOM     44  C   UNL     1      -3.438  -6.083  -3.179  1.00  0.00     0.074 A 
ATOM     45  C   UNL     1      -3.154  -5.586  -0.793  1.00  0.00     0.049 A 
ATOM     46  N   UNL     1      -3.882  -7.312  -3.166  1.00  0.00    -0.248 NA
ATOM     47  C   UNL     1      -3.086  -5.593  -4.518  1.00  0.00     0.031 C 
ATOM     48  C   UNL     1      -2.869  -4.804   0.408  1.00  0.00     0.029 A 
ATOM     49  N   UNL     1      -3.310  -6.870  -0.327  1.00  0.00    -0.354 N 
ATOM     50  C   UNL     1      -3.948  -7.705  -4.501  1.00  0.00     0.074 A 
ATOM     51  C   UNL     1      -3.482  -6.589  -5.295  1.00  0.00     0.031 C 
ATOM     52  C   UNL     1      -2.869  -5.623   1.474  1.00  0.00     0.029 A 
ATOM     53  C   UNL     1      -3.251  -6.966   1.043  1.00  0.00     0.049 A 
ATOM     54  H   UNL     1      -3.450  -7.646  -0.917  1.00  0.00     0.167 HD
ATOM     55  C   UNL     1      -4.361  -8.888  -5.016  1.00  0.00     0.037 A 
ATOM     56  C   UNL     1      -3.541  -7.994   1.865  1.00  0.00     0.037 A 
ATOM     57  C   UNL     1      -4.725 -10.027  -4.215  1.00  0.00     0.049 A 
ATOM     58  C   UNL     1      -4.039  -9.293   1.286  1.00  0.00     0.074 A 
ATOM     59  C   UNL     1      -5.161 -11.273  -4.633  1.00  0.00     0.029 A 
ATOM     60  N   UNL     1      -4.659 -10.070  -2.832  1.00  0.00    -0.354 N 
ATOM     61  N   UNL     1      -4.230  -9.619   0.030  1.00  0.00    -0.248 NA
ATOM     62  C   UNL     1      -4.390 -10.354   2.242  1.00  0.00     0.031 C 
ATOM     63  C   UNL     1      -5.379 -12.063  -3.498  1.00  0.00     0.029 A 
ATOM     64  C   UNL     1      -5.045 -11.319  -2.378  1.00  0.00     0.049 A 
ATOM     65  H   UNL     1      -4.379  -9.322  -2.256  1.00  0.00     0.167 HD
ATOM     66  C   UNL     1      -4.710 -10.925   0.046  1.00  0.00     0.074 A 
ATOM     67  C   UNL     1      -4.766 -11.335   1.433  1.00  0.00     0.031 C 
ATOM     68  C   UNL     1      -5.079 -11.714  -0.994  1.00  0.00     0.037 A 
BRANCH  55  69
ATOM     69  C   UNL     1      -4.480  -9.006  -6.510  1.00  0.00     0.058 A 
ATOM     70  C   UNL     1      -3.361  -9.143  -7.344  1.00  0.00     0.135 A 
ATOM     71  C   UNL     1      -5.751  -9.037  -7.109  1.00  0.00     0.135 A 
ATOM     72  F   UNL     1      -2.123  -9.100  -6.827  1.00  0.00    -0.206 F 
ATOM     73  C   UNL     1      -3.497  -9.295  -8.721  1.00  0.00     0.059 A 
ATOM     74  C   UNL     1      -5.911  -9.210  -8.480  1.00  0.00     0.059 A 
ATOM     75  F   UNL     1      -6.855  -8.908  -6.356  1.00  0.00    -0.206 F 
ATOM     76  C   UNL     1      -4.776  -9.329  -9.280  1.00  0.00     0.060 A 
BRANCH  76  77
ATOM     77  S   UNL     1      -4.940  -9.563 -11.063  1.00  0.00     0.124 S 
ATOM     78  O   UNL     1      -4.565  -8.245 -11.566  1.00  0.00    -0.237 OA
ATOM     79  O   UNL     1      -3.987 -10.636 -11.328  1.00  0.00    -0.237 OA
ATOM     80  O   UNL     1      -6.345  -9.922 -11.231  1.00  0.00    -0.744 OA
ENDBRANCH  76  77
ENDBRANCH  55  69
BRANCH  56  81
ATOM     81  C   UNL     1      -3.439  -7.816   3.338  1.00  0.00     0.058 A 
ATOM     82  C   UNL     1      -2.452  -8.479   4.080  1.00  0.00     0.135 A 
ATOM     83  C   UNL     1      -4.327  -6.978   4.031  1.00  0.00     0.135 A 
ATOM     84  F   UNL     1      -1.591  -9.303   3.463  1.00  0.00    -0.206 F 
ATOM     85  C   UNL     1      -2.352  -8.326   5.458  1.00  0.00     0.059 A 
ATOM     86  C   UNL     1      -4.230  -6.786   5.404  1.00  0.00     0.059 A 
ATOM     87  F   UNL     1      -5.285  -6.314   3.365  1.00  0.00    -0.206 F 
ATOM     88  C   UNL     1      -3.245  -7.474   6.111  1.00  0.00     0.060 A 
BRANCH  88  89
ATOM     89  S   UNL     1      -3.076  -7.231   7.893  1.00  0.00     0.124 S 
ATOM     90  O   UNL     1      -3.694  -8.444   8.413  1.00  0.00    -0.237 OA
ATOM     91  O   UNL     1      -1.629  -7.130   8.056  1.00  0.00    -0.237 OA
ATOM     92  O   UNL     1      -3.812  -5.992   8.130  1.00  0.00    -0.744 OA
ENDBRANCH  88  89
ENDBRANCH  56  81
BRANCH  68  93
ATOM     93  C   UNL     1      -5.535 -13.109  -0.678  1.00  0.00     0.058 A 
ATOM     94  C   UNL     1      -6.809 -13.364  -0.148  1.00  0.00     0.135 A 
ATOM     95  C   UNL     1      -4.705 -14.207  -0.952  1.00  0.00     0.135 A 
ATOM     96  F   UNL     1      -7.638 -12.347   0.136  1.00  0.00    -0.206 F 
ATOM     97  C   UNL     1      -7.237 -14.661   0.118  1.00  0.00     0.059 A 
ATOM     98  C   UNL     1      -5.120 -15.513  -0.713  1.00  0.00     0.059 A 
ATOM     99  F   UNL     1      -3.480 -14.016  -1.469  1.00  0.00    -0.206 F 
ATOM    100  C   UNL     1      -6.384 -15.729  -0.166  1.00  0.00     0.060 A 
BRANCH 100 101
ATOM    101  S   UNL     1      -6.958 -17.410   0.160  1.00  0.00     0.124 S 
ATOM    102  O   UNL     1      -6.812 -17.494   1.609  1.00  0.00    -0.237 OA
ATOM    103  O   UNL     1      -8.330 -17.377  -0.338  1.00  0.00    -0.237 OA
ATOM    104  O   UNL     1      -6.038 -18.238  -0.614  1.00  0.00    -0.744 OA
ENDBRANCH 100 101
ENDBRANCH  68  93
ENDBRANCH  42  43
ENDBRANCH  35  37
ENDBRANCH  34  35
ENDBRANCH  33  34
ENDBRANCH  32  33
ENDBRANCH  31  32
ENDBRANCH  30  31
ENDBRANCH   1  30
TORSDOF 26
