REMARK SMILES Cn1cnnc1CCNC(=O)NCc1ccc(C(=O)OCCOCCOCCOC(=O)c2ccc(-c3c4nc(c(-c5c(F)cc(S(=O)(=O)[O-])cc5F)c5ccc([nH]5)c(-c5c(F)cc(S(=O)(=O)[O-])cc5F)c5nc(c(-c6c(F)cc(S(=O)(=O)[O-])cc6F)c6ccc3[nH]6)C=C5)C=C4)cc2)o1
REMARK SMILES IDX 24 1 23 2 22 3 21 4 20 5 18 6 19 7 17 8 14 9 15 10 98 11
REMARK SMILES IDX 16 12 13 13 12 14 9 15 10 16 11 18 8 20 7 21 6 22 1 23 2 24
REMARK SMILES IDX 3 25 4 26 5 27 25 28 26 29 27 30 28 31 29 32 30 33 31 34
REMARK SMILES IDX 32 35 33 36 97 37 34 38 96 39 35 40 36 41 37 42 90 43 38 44
REMARK SMILES IDX 95 45 89 46 91 47 39 48 94 49 88 50 87 51 40 53 74 54 53 55
REMARK SMILES IDX 73 56 54 57 57 58 72 59 92 60 55 61 56 62 71 64 93 65 58 66
REMARK SMILES IDX 41 67 42 68 51 69 43 70 44 71 50 72 52 73 45 74 46 75 47 76
REMARK SMILES IDX 48 77 49 78 75 79 76 80 85 81 77 82 78 83 84 84 86 85 79 86
REMARK SMILES IDX 80 87 81 88 82 89 83 90 59 91 60 92 69 93 61 94 62 95 68 96
REMARK SMILES IDX 70 97 63 98 64 99 65 100 66 101 67 102
REMARK H PARENT 9 17 12 19 91 52 57 63
REMARK Flexibility Score: inf
ROOT
ATOM      1  C   UNL     1      -0.769 -10.623   4.590  1.00  0.00     0.188 C 
ENDROOT
BRANCH   1   2
ATOM      2  O   UNL     1      -0.211 -11.867   5.002  1.00  0.00    -0.376 OA
BRANCH   2   3
ATOM      3  C   UNL     1       0.923 -11.879   5.860  1.00  0.00     0.202 C 
BRANCH   3   4
ATOM      4  C   UNL     1       2.217 -11.286   5.299  1.00  0.00     0.261 C 
BRANCH   4   5
ATOM      5  O   UNL     1       2.094  -9.879   5.034  1.00  0.00    -0.457 OA
BRANCH   5   6
ATOM      6  C   UNL     1       2.424  -9.493   3.759  1.00  0.00     0.374 C 
ATOM      7  O   UNL     1       2.979 -10.193   2.944  1.00  0.00    -0.242 OA
BRANCH   6   8
ATOM      8  C   UNL     1       1.897  -8.164   3.520  1.00  0.00     0.211 A 
ATOM      9  C   UNL     1       0.830  -6.668   2.292  1.00  0.00     0.124 A 
ATOM     10  C   UNL     1       1.005  -6.100   3.538  1.00  0.00     0.048 A 
ATOM     11  O   UNL     1       1.411  -7.901   2.268  1.00  0.00    -0.452 OA
ATOM     12  C   UNL     1       1.685  -7.061   4.327  1.00  0.00     0.058 A 
BRANCH   9  13
ATOM     13  C   UNL     1       0.130  -6.254   1.046  1.00  0.00     0.193 C 
BRANCH  13  14
ATOM     14  N   UNL     1      -1.223  -5.872   1.376  1.00  0.00    -0.331 N 
ATOM     15  N   UNL     1      -1.290  -3.513   1.467  1.00  0.00    -0.338 N 
ATOM     16  C   UNL     1      -1.872  -4.715   1.515  1.00  0.00     0.315 C 
ATOM     17  H   UNL     1      -1.944  -2.777   1.485  1.00  0.00     0.165 HD
ATOM     18  O   UNL     1      -3.087  -4.769   1.715  1.00  0.00    -0.249 OA
ATOM     19  H   UNL     1      -1.804  -6.650   1.535  1.00  0.00     0.165 HD
BRANCH  15  20
ATOM     20  C   UNL     1       0.078  -3.037   1.394  1.00  0.00     0.126 C 
BRANCH  20  21
ATOM     21  C   UNL     1       0.420  -2.446   0.024  1.00  0.00     0.099 C 
BRANCH  21  22
ATOM     22  C   UNL     1      -0.001  -1.016  -0.058  1.00  0.00     0.134 A 
ATOM     23  C   UNL     1       2.261   0.149  -0.021  1.00  0.00     0.152 C 
ATOM     24  N   UNL     1       0.826   0.079  -0.070  1.00  0.00    -0.321 N 
ATOM     25  C   UNL     1       0.010   1.170  -0.108  1.00  0.00     0.225 A 
ATOM     26  N   UNL     1      -1.241   0.783  -0.110  1.00  0.00    -0.139 NA
ATOM     27  N   UNL     1      -1.249  -0.589  -0.080  1.00  0.00    -0.136 NA
ENDBRANCH  21  22
ENDBRANCH  20  21
ENDBRANCH  15  20
ENDBRANCH  13  14
ENDBRANCH   9  13
ENDBRANCH   6   8
ENDBRANCH   5   6
ENDBRANCH   4   5
ENDBRANCH   3   4
ENDBRANCH   2   3
ENDBRANCH   1   2
BRANCH   1  28
ATOM     28  C   UNL     1      -0.944  -9.496   5.625  1.00  0.00     0.188 C 
BRANCH  28  29
ATOM     29  O   UNL     1      -0.917  -9.933   6.978  1.00  0.00    -0.376 OA
BRANCH  29  30
ATOM     30  C   UNL     1      -2.132  -9.779   7.698  1.00  0.00     0.202 C 
BRANCH  30  31
ATOM     31  C   UNL     1      -3.149 -10.882   7.393  1.00  0.00     0.261 C 
BRANCH  31  32
ATOM     32  O   UNL     1      -3.619 -10.899   6.036  1.00  0.00    -0.460 OA
BRANCH  32  33
ATOM     33  C   UNL     1      -4.333  -9.825   5.628  1.00  0.00     0.338 C 
ATOM     34  O   UNL     1      -4.618  -8.842   6.286  1.00  0.00    -0.246 OA
BRANCH  33  35
ATOM     35  C   UNL     1      -4.586  -9.975   4.181  1.00  0.00     0.060 A 
ATOM     36  C   UNL     1      -4.223  -8.937   3.315  1.00  0.00     0.016 A 
ATOM     37  C   UNL     1      -5.185 -11.138   3.688  1.00  0.00     0.016 A 
ATOM     38  C   UNL     1      -4.480  -9.056   1.947  1.00  0.00     0.010 A 
ATOM     39  C   UNL     1      -5.453 -11.248   2.323  1.00  0.00     0.010 A 
ATOM     40  C   UNL     1      -5.122 -10.200   1.449  1.00  0.00    -0.014 A 
BRANCH  40  41
ATOM     41  C   UNL     1      -5.593 -10.244   0.044  1.00  0.00     0.031 A 
ATOM     42  C   UNL     1      -6.998  -9.802  -0.258  1.00  0.00     0.074 A 
ATOM     43  C   UNL     1      -4.795 -10.687  -0.944  1.00  0.00     0.049 A 
ATOM     44  N   UNL     1      -7.641  -9.801  -1.396  1.00  0.00    -0.248 NA
ATOM     45  C   UNL     1      -7.785  -9.301   0.881  1.00  0.00     0.031 C 
ATOM     46  C   UNL     1      -3.412 -11.130  -0.783  1.00  0.00     0.029 A 
ATOM     47  N   UNL     1      -5.047 -10.848  -2.284  1.00  0.00    -0.354 N 
ATOM     48  C   UNL     1      -8.903  -9.293  -1.115  1.00  0.00     0.074 A 
ATOM     49  C   UNL     1      -8.947  -9.027   0.307  1.00  0.00     0.031 C 
ATOM     50  C   UNL     1      -2.938 -11.523  -1.979  1.00  0.00     0.029 A 
ATOM     51  C   UNL     1      -3.991 -11.382  -2.984  1.00  0.00     0.049 A 
ATOM     52  H   UNL     1      -5.903 -10.603  -2.705  1.00  0.00     0.167 HD
ATOM     53  C   UNL     1      -9.932  -9.060  -1.965  1.00  0.00     0.037 A 
ATOM     54  C   UNL     1      -3.895 -11.730  -4.283  1.00  0.00     0.037 A 
ATOM     55  C   UNL     1      -9.895  -9.335  -3.376  1.00  0.00     0.049 A 
ATOM     56  C   UNL     1      -5.073 -11.519  -5.200  1.00  0.00     0.074 A 
ATOM     57  C   UNL     1     -10.883  -9.125  -4.321  1.00  0.00     0.029 A 
ATOM     58  N   UNL     1      -8.813  -9.889  -4.044  1.00  0.00    -0.354 N 
ATOM     59  N   UNL     1      -6.252 -11.011  -4.926  1.00  0.00    -0.248 NA
ATOM     60  C   UNL     1      -4.908 -11.929  -6.603  1.00  0.00     0.031 C 
ATOM     61  C   UNL     1     -10.412  -9.585  -5.556  1.00  0.00     0.029 A 
ATOM     62  C   UNL     1      -9.117 -10.047  -5.386  1.00  0.00     0.049 A 
ATOM     63  H   UNL     1      -7.956 -10.134  -3.627  1.00  0.00     0.167 HD
ATOM     64  C   UNL     1      -6.957 -11.017  -6.126  1.00  0.00     0.074 A 
ATOM     65  C   UNL     1      -6.073 -11.574  -7.128  1.00  0.00     0.031 C 
ATOM     66  C   UNL     1      -8.223 -10.596  -6.375  1.00  0.00     0.037 A 
BRANCH  53  67
ATOM     67  C   UNL     1     -11.192  -8.495  -1.376  1.00  0.00     0.058 A 
ATOM     68  C   UNL     1     -11.276  -7.154  -0.973  1.00  0.00     0.135 A 
ATOM     69  C   UNL     1     -12.330  -9.302  -1.219  1.00  0.00     0.135 A 
ATOM     70  F   UNL     1     -10.209  -6.346  -1.085  1.00  0.00    -0.206 F 
ATOM     71  C   UNL     1     -12.437  -6.636  -0.408  1.00  0.00     0.059 A 
ATOM     72  C   UNL     1     -13.509  -8.800  -0.676  1.00  0.00     0.059 A 
ATOM     73  F   UNL     1     -12.300 -10.593  -1.585  1.00  0.00    -0.206 F 
ATOM     74  C   UNL     1     -13.547  -7.470  -0.258  1.00  0.00     0.060 A 
BRANCH  74  75
ATOM     75  S   UNL     1     -15.046  -6.793   0.486  1.00  0.00     0.124 S 
ATOM     76  O   UNL     1     -14.682  -6.763   1.899  1.00  0.00    -0.237 OA
ATOM     77  O   UNL     1     -15.162  -5.492  -0.165  1.00  0.00    -0.237 OA
ATOM     78  O   UNL     1     -16.073  -7.764   0.123  1.00  0.00    -0.744 OA
ENDBRANCH  74  75
ENDBRANCH  53  67
BRANCH  54  79
ATOM     79  C   UNL     1      -2.633 -12.320  -4.803  1.00  0.00     0.058 A 
ATOM     80  C   UNL     1      -1.791 -11.590  -5.654  1.00  0.00     0.135 A 
ATOM     81  C   UNL     1      -2.249 -13.627  -4.465  1.00  0.00     0.135 A 
ATOM     82  F   UNL     1      -2.123 -10.342  -6.016  1.00  0.00    -0.206 F 
ATOM     83  C   UNL     1      -0.617 -12.137  -6.162  1.00  0.00     0.059 A 
ATOM     84  C   UNL     1      -1.069 -14.189  -4.943  1.00  0.00     0.059 A 
ATOM     85  F   UNL     1      -3.019 -14.364  -3.649  1.00  0.00    -0.206 F 
ATOM     86  C   UNL     1      -0.263 -13.438  -5.799  1.00  0.00     0.060 A 
BRANCH  86  87
ATOM     87  S   UNL     1       1.288 -14.123  -6.423  1.00  0.00     0.124 S 
ATOM     88  O   UNL     1       0.935 -14.443  -7.801  1.00  0.00    -0.237 OA
ATOM     89  O   UNL     1       2.212 -13.008  -6.243  1.00  0.00    -0.237 OA
ATOM     90  O   UNL     1       1.523 -15.268  -5.548  1.00  0.00    -0.744 OA
ENDBRANCH  86  87
ENDBRANCH  54  79
BRANCH  66  91
ATOM     91  C   UNL     1      -8.721 -10.690  -7.789  1.00  0.00     0.058 A 
ATOM     92  C   UNL     1      -9.109 -11.915  -8.353  1.00  0.00     0.135 A 
ATOM     93  C   UNL     1      -8.871  -9.531  -8.569  1.00  0.00     0.135 A 
ATOM     94  F   UNL     1      -8.981 -13.052  -7.652  1.00  0.00    -0.206 F 
ATOM     95  C   UNL     1      -9.613 -11.991  -9.648  1.00  0.00     0.059 A 
ATOM     96  C   UNL     1      -9.393  -9.581  -9.858  1.00  0.00     0.059 A 
ATOM     97  F   UNL     1      -8.524  -8.333  -8.072  1.00  0.00    -0.206 F 
ATOM     98  C   UNL     1      -9.752 -10.818 -10.393  1.00  0.00     0.060 A 
BRANCH  98  99
ATOM     99  S   UNL     1     -10.444 -10.920 -12.058  1.00  0.00     0.124 S 
ATOM    100  O   UNL     1      -9.305 -11.422 -12.819  1.00  0.00    -0.237 OA
ATOM    101  O   UNL     1     -11.551 -11.856 -11.883  1.00  0.00    -0.237 OA
ATOM    102  O   UNL     1     -10.837  -9.544 -12.348  1.00  0.00    -0.744 OA
ENDBRANCH  98  99
ENDBRANCH  66  91
ENDBRANCH  40  41
ENDBRANCH  33  35
ENDBRANCH  32  33
ENDBRANCH  31  32
ENDBRANCH  30  31
ENDBRANCH  29  30
ENDBRANCH  28  29
ENDBRANCH   1  28
TORSDOF 25
