REMARK SMILES CCCOC(=O)c1c(NC(=O)[C@@H]2CC=CC[C@H]2C(=O)OCCOCCOCCOC(=O)c2ccc(-c3c4nc(c(-c5c(F)cc(S(=O)(=O)[O-])cc5F)c5ccc([nH]5)c(-c5c(F)cc(S(=O)(=O)[O-])cc5F)c5nc(c(-c6c(F)cc(S(=O)(=O)[O-])cc6F)c6ccc3[nH]6)C=C5)C=C4)cc2)sc2c1CCCC2
REMARK SMILES IDX 23 1 22 2 21 3 20 4 18 5 19 6 17 7 12 8 13 9 14 10 16 11
REMARK SMILES IDX 15 12 10 13 9 14 11 16 8 17 7 18 100 19 98 20 99 21 101 22
REMARK SMILES IDX 104 23 102 24 103 25 5 26 6 27 4 28 3 29 2 30 1 31 24 32
REMARK SMILES IDX 25 33 26 34 27 35 28 36 29 37 30 38 31 39 32 40 33 41 97 42
REMARK SMILES IDX 34 43 96 44 35 45 36 46 37 47 90 48 38 49 95 50 89 51 91 52
REMARK SMILES IDX 39 53 94 54 88 55 87 56 40 58 74 59 53 60 73 61 54 62 57 63
REMARK SMILES IDX 72 64 92 65 55 66 56 67 71 69 93 70 58 71 41 72 42 73 51 74
REMARK SMILES IDX 43 75 44 76 50 77 52 78 45 79 46 80 47 81 48 82 49 83 75 84
REMARK SMILES IDX 76 85 85 86 77 87 78 88 84 89 86 90 79 91 80 92 81 93 82 94
REMARK SMILES IDX 83 95 59 96 60 97 69 98 61 99 62 100 68 101 70 102 63 103
REMARK SMILES IDX 64 104 65 105 66 106 67 107
REMARK H PARENT 9 15 91 57 57 68
REMARK Flexibility Score: inf
ROOT
ATOM      1  O   UNL     1       2.925   4.200  -0.167  1.00  0.00    -0.376 OA
ENDROOT
BRANCH   1   2
ATOM      2  C   UNL     1       1.545   4.240   0.166  1.00  0.00     0.202 C 
BRANCH   2   3
ATOM      3  C   UNL     1       0.656   3.040  -0.228  1.00  0.00     0.261 C 
BRANCH   3   4
ATOM      4  O   UNL     1       0.723   1.763   0.527  1.00  0.00    -0.463 OA
BRANCH   4   5
ATOM      5  C   UNL     1       0.917   0.584  -0.145  1.00  0.00     0.310 C 
ATOM      6  O   UNL     1       1.447   0.603  -1.256  1.00  0.00    -0.252 OA
BRANCH   5   7
ATOM      7  C   UNL     1       0.447  -0.820   0.502  1.00  0.00     0.116 C 
ATOM      8  C   UNL     1       0.733  -1.230   1.945  1.00  0.00     0.097 C 
ATOM      9  C   UNL     1       0.905  -2.768   2.036  1.00  0.00     0.041 C 
ATOM     10  C   UNL     1      -0.305  -3.476   1.516  1.00  0.00    -0.030 C 
ATOM     11  C   UNL     1      -0.991  -1.405   0.312  1.00  0.00     0.043 C 
ATOM     12  C   UNL     1      -1.188  -2.837   0.743  1.00  0.00    -0.030 C 
BRANCH   8  13
ATOM     13  C   UNL     1       1.917  -0.616   2.544  1.00  0.00     0.229 C 
ATOM     14  N   UNL     1       1.748   0.427   3.368  1.00  0.00    -0.317 N 
ATOM     15  H   UNL     1       2.582   0.690   3.820  1.00  0.00     0.170 HD
ATOM     16  O   UNL     1       3.038  -1.091   2.380  1.00  0.00    -0.274 OA
BRANCH  14  17
ATOM     17  C   UNL     1       0.683   1.217   3.729  1.00  0.00     0.110 A 
ATOM     18  C   UNL     1      -0.642   1.583   3.431  1.00  0.00     0.098 A 
ATOM     19  C   UNL     1      -1.065   2.532   4.486  1.00  0.00    -0.017 A 
ATOM     20  S   UNL     1       1.322   1.980   5.136  1.00  0.00    -0.122 S 
ATOM     21  C   UNL     1      -0.076   2.838   5.400  1.00  0.00     0.011 A 
ATOM     22  C   UNL     1      -2.429   3.135   4.642  1.00  0.00     0.038 C 
ATOM     23  C   UNL     1      -0.147   3.817   6.524  1.00  0.00     0.047 C 
ATOM     24  C   UNL     1      -2.402   4.382   5.545  1.00  0.00     0.005 C 
ATOM     25  C   UNL     1      -1.603   4.149   6.836  1.00  0.00     0.006 C 
BRANCH  18  26
ATOM     26  C   UNL     1      -1.662   1.145   2.390  1.00  0.00     0.341 C 
ATOM     27  O   UNL     1      -2.717   0.622   2.739  1.00  0.00    -0.246 OA
BRANCH  26  28
ATOM     28  O   UNL     1      -1.452   1.490   1.061  1.00  0.00    -0.462 OA
BRANCH  28  29
ATOM     29  C   UNL     1      -2.447   1.295  -0.026  1.00  0.00     0.233 C 
BRANCH  29  30
ATOM     30  C   UNL     1      -1.952   1.357  -1.537  1.00  0.00     0.038 C 
ATOM     31  C   UNL     1      -1.361   0.197  -2.370  1.00  0.00     0.007 C 
ENDBRANCH  29  30
ENDBRANCH  28  29
ENDBRANCH  26  28
ENDBRANCH  18  26
ENDBRANCH  14  17
ENDBRANCH   8  13
ENDBRANCH   5   7
ENDBRANCH   4   5
ENDBRANCH   3   4
ENDBRANCH   2   3
ENDBRANCH   1   2
BRANCH   1  32
ATOM     32  C   UNL     1       3.590   2.976   0.070  1.00  0.00     0.188 C 
BRANCH  32  33
ATOM     33  C   UNL     1       3.301   2.310   1.406  1.00  0.00     0.188 C 
BRANCH  33  34
ATOM     34  O   UNL     1       2.811   3.059   2.494  1.00  0.00    -0.376 OA
BRANCH  34  35
ATOM     35  C   UNL     1       3.638   4.097   2.985  1.00  0.00     0.202 C 
BRANCH  35  36
ATOM     36  C   UNL     1       5.060   3.724   3.443  1.00  0.00     0.261 C 
BRANCH  36  37
ATOM     37  O   UNL     1       5.851   3.002   2.473  1.00  0.00    -0.460 OA
BRANCH  37  38
ATOM     38  C   UNL     1       6.064   1.679   2.738  1.00  0.00     0.338 C 
ATOM     39  O   UNL     1       5.712   1.080   3.750  1.00  0.00    -0.246 OA
BRANCH  38  40
ATOM     40  C   UNL     1       6.511   0.995   1.496  1.00  0.00     0.060 A 
ATOM     41  C   UNL     1       5.691   0.017   0.904  1.00  0.00     0.016 A 
ATOM     42  C   UNL     1       7.719   1.324   0.897  1.00  0.00     0.016 A 
ATOM     43  C   UNL     1       6.052  -0.628  -0.274  1.00  0.00     0.010 A 
ATOM     44  C   UNL     1       8.107   0.649  -0.266  1.00  0.00     0.010 A 
ATOM     45  C   UNL     1       7.284  -0.336  -0.849  1.00  0.00    -0.014 A 
BRANCH  45  46
ATOM     46  C   UNL     1       7.803  -1.152  -1.968  1.00  0.00     0.031 A 
ATOM     47  C   UNL     1       8.879  -2.154  -1.672  1.00  0.00     0.074 A 
ATOM     48  C   UNL     1       7.350  -0.986  -3.223  1.00  0.00     0.049 A 
ATOM     49  N   UNL     1       9.660  -2.803  -2.492  1.00  0.00    -0.248 NA
ATOM     50  C   UNL     1       9.111  -2.452  -0.249  1.00  0.00     0.031 C 
ATOM     51  C   UNL     1       6.236  -0.125  -3.616  1.00  0.00     0.029 A 
ATOM     52  N   UNL     1       7.798  -1.519  -4.405  1.00  0.00    -0.354 N 
ATOM     53  C   UNL     1      10.504  -3.557  -1.687  1.00  0.00     0.074 A 
ATOM     54  C   UNL     1      10.148  -3.272  -0.313  1.00  0.00     0.031 C 
ATOM     55  C   UNL     1       6.108  -0.164  -4.954  1.00  0.00     0.029 A 
ATOM     56  C   UNL     1       7.168  -1.001  -5.511  1.00  0.00     0.049 A 
ATOM     57  H   UNL     1       8.503  -2.205  -4.455  1.00  0.00     0.167 HD
ATOM     58  C   UNL     1      11.488  -4.406  -2.066  1.00  0.00     0.037 A 
ATOM     59  C   UNL     1       7.451  -1.147  -6.820  1.00  0.00     0.037 A 
ATOM     60  C   UNL     1      11.822  -4.672  -3.441  1.00  0.00     0.049 A 
ATOM     61  C   UNL     1       8.626  -2.002  -7.222  1.00  0.00     0.074 A 
ATOM     62  C   UNL     1      12.800  -5.511  -3.943  1.00  0.00     0.029 A 
ATOM     63  N   UNL     1      11.190  -4.096  -4.535  1.00  0.00    -0.354 N 
ATOM     64  N   UNL     1       9.444  -2.692  -6.462  1.00  0.00    -0.248 NA
ATOM     65  C   UNL     1       8.926  -2.086  -8.658  1.00  0.00     0.031 C 
ATOM     66  C   UNL     1      12.799  -5.395  -5.338  1.00  0.00     0.029 A 
ATOM     67  C   UNL     1      11.778  -4.533  -5.710  1.00  0.00     0.049 A 
ATOM     68  H   UNL     1      10.433  -3.468  -4.483  1.00  0.00     0.167 HD
ATOM     69  C   UNL     1      10.338  -3.314  -7.328  1.00  0.00     0.074 A 
ATOM     70  C   UNL     1       9.955  -2.924  -8.670  1.00  0.00     0.031 C 
ATOM     71  C   UNL     1      11.380  -4.135  -7.039  1.00  0.00     0.037 A 
BRANCH  58  72
ATOM     72  C   UNL     1      12.301  -5.053  -0.977  1.00  0.00     0.058 A 
ATOM     73  C   UNL     1      11.756  -6.010  -0.106  1.00  0.00     0.135 A 
ATOM     74  C   UNL     1      13.648  -4.698  -0.794  1.00  0.00     0.135 A 
ATOM     75  F   UNL     1      10.469  -6.376  -0.222  1.00  0.00    -0.206 F 
ATOM     76  C   UNL     1      12.502  -6.558   0.933  1.00  0.00     0.059 A 
ATOM     77  C   UNL     1      14.423  -5.258   0.217  1.00  0.00     0.059 A 
ATOM     78  F   UNL     1      14.223  -3.787  -1.595  1.00  0.00    -0.206 F 
ATOM     79  C   UNL     1      13.834  -6.171   1.090  1.00  0.00     0.060 A 
BRANCH  79  80
ATOM     80  S   UNL     1      14.780  -6.869   2.459  1.00  0.00     0.124 S 
ATOM     81  O   UNL     1      14.175  -6.197   3.604  1.00  0.00    -0.237 OA
ATOM     82  O   UNL     1      14.496  -8.296   2.339  1.00  0.00    -0.237 OA
ATOM     83  O   UNL     1      16.154  -6.479   2.159  1.00  0.00    -0.744 OA
ENDBRANCH  79  80
ENDBRANCH  58  72
BRANCH  59  84
ATOM     84  C   UNL     1       6.622  -0.451  -7.840  1.00  0.00     0.058 A 
ATOM     85  C   UNL     1       5.785  -1.176  -8.700  1.00  0.00     0.135 A 
ATOM     86  C   UNL     1       6.624   0.949  -7.961  1.00  0.00     0.135 A 
ATOM     87  F   UNL     1       5.761  -2.516  -8.639  1.00  0.00    -0.206 F 
ATOM     88  C   UNL     1       4.979  -0.543  -9.640  1.00  0.00     0.059 A 
ATOM     89  C   UNL     1       5.806   1.607  -8.874  1.00  0.00     0.059 A 
ATOM     90  F   UNL     1       7.406   1.692  -7.161  1.00  0.00    -0.206 F 
ATOM     91  C   UNL     1       4.988   0.852  -9.712  1.00  0.00     0.060 A 
BRANCH  91  92
ATOM     92  S   UNL     1       3.880   1.662 -10.886  1.00  0.00     0.124 S 
ATOM     93  O   UNL     1       4.491   1.307 -12.162  1.00  0.00    -0.237 OA
ATOM     94  O   UNL     1       2.602   1.021 -10.591  1.00  0.00    -0.237 OA
ATOM     95  O   UNL     1       3.967   3.071 -10.515  1.00  0.00    -0.744 OA
ENDBRANCH  91  92
ENDBRANCH  59  84
BRANCH  71  96
ATOM     96  C   UNL     1      12.166  -4.696  -8.194  1.00  0.00     0.058 A 
ATOM     97  C   UNL     1      13.040  -3.899  -8.949  1.00  0.00     0.135 A 
ATOM     98  C   UNL     1      12.100  -6.065  -8.500  1.00  0.00     0.135 A 
ATOM     99  F   UNL     1      13.136  -2.582  -8.707  1.00  0.00    -0.206 F 
ATOM    100  C   UNL     1      13.812  -4.438  -9.974  1.00  0.00     0.059 A 
ATOM    101  C   UNL     1      12.885  -6.631  -9.500  1.00  0.00     0.059 A 
ATOM    102  F   UNL     1      11.286  -6.875  -7.804  1.00  0.00    -0.206 F 
ATOM    103  C   UNL     1      13.734  -5.807 -10.236  1.00  0.00     0.060 A 
BRANCH 103 104
ATOM    104  S   UNL     1      14.785  -6.500 -11.530  1.00  0.00     0.124 S 
ATOM    105  O   UNL     1      14.162  -5.966 -12.736  1.00  0.00    -0.237 OA
ATOM    106  O   UNL     1      16.095  -5.948 -11.195  1.00  0.00    -0.237 OA
ATOM    107  O   UNL     1      14.653  -7.942 -11.342  1.00  0.00    -0.744 OA
ENDBRANCH 103 104
ENDBRANCH  71  96
ENDBRANCH  45  46
ENDBRANCH  38  40
ENDBRANCH  37  38
ENDBRANCH  36  37
ENDBRANCH  35  36
ENDBRANCH  34  35
ENDBRANCH  33  34
ENDBRANCH  32  33
ENDBRANCH   1  32
TORSDOF 26
