REMARK SMILES O=C(CCC(=O)N1CCC(c2nnc3ccccn23)CC1)OCCOCCOCCOC(=O)c1ccc(-c2c3nc(c(-c4c(F)cc(S(=O)(=O)[O-])cc4F)c4ccc([nH]4)c(-c4c(F)cc(S(=O)(=O)[O-])cc4F)c4nc(c(-c5c(F)cc(S(=O)(=O)[O-])cc5F)c5ccc2[nH]5)C=C4)C=C3)cc1
REMARK SMILES IDX 26 1 25 2 24 3 23 4 22 5 2 6 1 7 3 8 4 9 5 10 6 11 7 12 8 13
REMARK SMILES IDX 21 14 9 15 20 16 10 17 11 18 12 19 19 20 13 21 14 22 18 23
REMARK SMILES IDX 15 24 17 25 16 26 27 27 28 28 29 29 30 30 31 31 32 32 33 33
REMARK SMILES IDX 34 34 35 35 99 36 36 37 98 38 37 39 38 40 39 41 92 42 40 43
REMARK SMILES IDX 97 44 91 45 93 46 41 47 96 48 90 49 89 50 42 52 76 53 55 54
REMARK SMILES IDX 75 55 56 56 59 57 74 58 94 59 57 60 58 61 73 63 95 64 60 65
REMARK SMILES IDX 43 66 44 67 53 68 45 69 46 70 52 71 54 72 47 73 48 74 49 75
REMARK SMILES IDX 50 76 51 77 77 78 78 79 87 80 79 81 80 82 86 83 88 84 81 85
REMARK SMILES IDX 82 86 83 87 84 88 85 89 61 90 62 91 71 92 63 93 64 94 70 95
REMARK SMILES IDX 72 96 65 97 66 98 67 99 68 100 69 101
REMARK H PARENT 93 51 59 62
REMARK Flexibility Score: inf
ROOT
ATOM      1  C   UNL     1       3.317   0.060   2.567  1.00  0.00     0.188 C 
ENDROOT
BRANCH   1   2
ATOM      2  O   UNL     1       4.726  -0.146   2.613  1.00  0.00    -0.376 OA
BRANCH   2   3
ATOM      3  C   UNL     1       5.532   0.384   1.571  1.00  0.00     0.202 C 
BRANCH   3   4
ATOM      4  C   UNL     1       5.174  -0.025   0.145  1.00  0.00     0.261 C 
BRANCH   4   5
ATOM      5  O   UNL     1       3.788   0.221  -0.164  1.00  0.00    -0.463 OA
BRANCH   5   6
ATOM      6  C   UNL     1       2.849  -0.711  -0.427  1.00  0.00     0.306 C 
ATOM      7  O   UNL     1       1.655  -0.413  -0.422  1.00  0.00    -0.252 OA
BRANCH   6   8
ATOM      8  C   UNL     1       3.290  -2.068  -0.855  1.00  0.00     0.132 C 
BRANCH   8   9
ATOM      9  C   UNL     1       3.464  -2.066  -2.361  1.00  0.00     0.112 C 
BRANCH   9  10
ATOM     10  C   UNL     1       4.635  -1.218  -2.816  1.00  0.00     0.223 C 
ATOM     11  O   UNL     1       5.772  -1.694  -2.732  1.00  0.00    -0.275 OA
ATOM     12  N   UNL     1       4.419   0.060  -3.314  1.00  0.00    -0.343 N 
ATOM     13  C   UNL     1       5.516   0.710  -4.016  1.00  0.00     0.120 C 
ATOM     14  C   UNL     1       3.191   0.867  -3.229  1.00  0.00     0.120 C 
ATOM     15  C   UNL     1       5.855   2.050  -3.391  1.00  0.00     0.033 C 
ATOM     16  C   UNL     1       3.465   2.254  -2.615  1.00  0.00     0.033 C 
ATOM     17  C   UNL     1       4.618   2.961  -3.341  1.00  0.00     0.062 C 
BRANCH  17  18
ATOM     18  C   UNL     1       5.009   4.272  -2.725  1.00  0.00     0.140 A 
ATOM     19  N   UNL     1       4.907   4.634  -1.460  1.00  0.00    -0.134 NA
ATOM     20  N   UNL     1       5.690   5.255  -3.417  1.00  0.00    -0.286 N 
ATOM     21  N   UNL     1       5.551   5.843  -1.297  1.00  0.00    -0.130 NA
ATOM     22  C   UNL     1       6.039   6.198  -2.463  1.00  0.00     0.160 A 
ATOM     23  C   UNL     1       6.049   5.357  -4.761  1.00  0.00     0.095 A 
ATOM     24  C   UNL     1       6.829   7.302  -2.890  1.00  0.00     0.050 A 
ATOM     25  C   UNL     1       6.785   6.405  -5.166  1.00  0.00     0.019 A 
ATOM     26  C   UNL     1       7.191   7.401  -4.186  1.00  0.00     0.005 A 
ENDBRANCH  17  18
ENDBRANCH   9  10
ENDBRANCH   8   9
ENDBRANCH   6   8
ENDBRANCH   5   6
ENDBRANCH   4   5
ENDBRANCH   3   4
ENDBRANCH   2   3
ENDBRANCH   1   2
BRANCH   1  27
ATOM     27  C   UNL     1       2.718   1.450   2.240  1.00  0.00     0.188 C 
BRANCH  27  28
ATOM     28  O   UNL     1       3.660   2.455   1.894  1.00  0.00    -0.376 OA
BRANCH  28  29
ATOM     29  C   UNL     1       3.783   3.518   2.837  1.00  0.00     0.202 C 
BRANCH  29  30
ATOM     30  C   UNL     1       4.633   3.159   4.064  1.00  0.00     0.261 C 
BRANCH  30  31
ATOM     31  O   UNL     1       4.160   2.023   4.809  1.00  0.00    -0.460 OA
BRANCH  31  32
ATOM     32  C   UNL     1       2.959   2.145   5.417  1.00  0.00     0.338 C 
ATOM     33  O   UNL     1       2.277   3.153   5.482  1.00  0.00    -0.246 OA
BRANCH  32  34
ATOM     34  C   UNL     1       2.491   0.788   5.791  1.00  0.00     0.060 A 
ATOM     35  C   UNL     1       1.165   0.439   5.494  1.00  0.00     0.016 A 
ATOM     36  C   UNL     1       3.360  -0.164   6.340  1.00  0.00     0.016 A 
ATOM     37  C   UNL     1       0.692  -0.839   5.800  1.00  0.00     0.010 A 
ATOM     38  C   UNL     1       2.880  -1.438   6.665  1.00  0.00     0.010 A 
ATOM     39  C   UNL     1       1.529  -1.760   6.447  1.00  0.00    -0.014 A 
BRANCH  39  40
ATOM     40  C   UNL     1       0.899  -2.865   7.214  1.00  0.00     0.031 A 
ATOM     41  C   UNL     1       0.488  -2.546   8.631  1.00  0.00     0.074 A 
ATOM     42  C   UNL     1       0.649  -4.080   6.694  1.00  0.00     0.049 A 
ATOM     43  N   UNL     1      -0.146  -3.282   9.504  1.00  0.00    -0.248 NA
ATOM     44  C   UNL     1       0.843  -1.202   9.125  1.00  0.00     0.031 C 
ATOM     45  C   UNL     1       0.979  -4.515   5.339  1.00  0.00     0.029 A 
ATOM     46  N   UNL     1       0.047  -5.178   7.262  1.00  0.00    -0.354 N 
ATOM     47  C   UNL     1      -0.273  -2.489  10.639  1.00  0.00     0.074 A 
ATOM     48  C   UNL     1       0.385  -1.234  10.364  1.00  0.00     0.031 C 
ATOM     49  C   UNL     1       0.572  -5.790   5.179  1.00  0.00     0.029 A 
ATOM     50  C   UNL     1      -0.038  -6.263   6.422  1.00  0.00     0.049 A 
ATOM     51  H   UNL     1      -0.293  -5.185   8.185  1.00  0.00     0.167 HD
ATOM     52  C   UNL     1      -0.895  -2.769  11.806  1.00  0.00     0.037 A 
ATOM     53  C   UNL     1      -0.555  -7.491   6.638  1.00  0.00     0.037 A 
ATOM     54  C   UNL     1      -1.534  -4.021  12.094  1.00  0.00     0.049 A 
ATOM     55  C   UNL     1      -1.200  -7.802   7.969  1.00  0.00     0.074 A 
ATOM     56  C   UNL     1      -2.196  -4.405  13.245  1.00  0.00     0.029 A 
ATOM     57  N   UNL     1      -1.579  -5.099  11.223  1.00  0.00    -0.354 N 
ATOM     58  N   UNL     1      -1.358  -7.026   9.016  1.00  0.00    -0.248 NA
ATOM     59  C   UNL     1      -1.752  -9.155   8.142  1.00  0.00     0.031 C 
ATOM     60  C   UNL     1      -2.605  -5.734  13.087  1.00  0.00     0.029 A 
ATOM     61  C   UNL     1      -2.244  -6.157  11.818  1.00  0.00     0.049 A 
ATOM     62  H   UNL     1      -1.195  -5.110  10.317  1.00  0.00     0.167 HD
ATOM     63  C   UNL     1      -2.067  -7.779   9.950  1.00  0.00     0.074 A 
ATOM     64  C   UNL     1      -2.304  -9.073   9.345  1.00  0.00     0.031 C 
ATOM     65  C   UNL     1      -2.491  -7.430  11.191  1.00  0.00     0.037 A 
BRANCH  52  66
ATOM     66  C   UNL     1      -0.877  -1.701  12.861  1.00  0.00     0.058 A 
ATOM     67  C   UNL     1      -1.635  -0.525  12.733  1.00  0.00     0.135 A 
ATOM     68  C   UNL     1      -0.079  -1.847  14.006  1.00  0.00     0.135 A 
ATOM     69  F   UNL     1      -2.391  -0.322  11.642  1.00  0.00    -0.206 F 
ATOM     70  C   UNL     1      -1.579   0.482  13.691  1.00  0.00     0.059 A 
ATOM     71  C   UNL     1      -0.029  -0.865  14.989  1.00  0.00     0.059 A 
ATOM     72  F   UNL     1       0.673  -2.946  14.169  1.00  0.00    -0.206 F 
ATOM     73  C   UNL     1      -0.770   0.303  14.814  1.00  0.00     0.060 A 
BRANCH  73  74
ATOM     74  S   UNL     1      -0.704   1.618  16.049  1.00  0.00     0.124 S 
ATOM     75  O   UNL     1       0.115   2.616  15.367  1.00  0.00    -0.237 OA
ATOM     76  O   UNL     1      -2.112   1.962  16.216  1.00  0.00    -0.237 OA
ATOM     77  O   UNL     1      -0.079   0.972  17.199  1.00  0.00    -0.744 OA
ENDBRANCH  73  74
ENDBRANCH  52  66
BRANCH  53  78
ATOM     78  C   UNL     1      -0.516  -8.527   5.566  1.00  0.00     0.058 A 
ATOM     79  C   UNL     1      -1.690  -8.956   4.928  1.00  0.00     0.135 A 
ATOM     80  C   UNL     1       0.690  -9.133   5.184  1.00  0.00     0.135 A 
ATOM     81  F   UNL     1      -2.873  -8.422   5.269  1.00  0.00    -0.206 F 
ATOM     82  C   UNL     1      -1.673  -9.961   3.963  1.00  0.00     0.059 A 
ATOM     83  C   UNL     1       0.736 -10.122   4.205  1.00  0.00     0.059 A 
ATOM     84  F   UNL     1       1.843  -8.758   5.760  1.00  0.00    -0.206 F 
ATOM     85  C   UNL     1      -0.453 -10.537   3.608  1.00  0.00     0.060 A 
BRANCH  85  86
ATOM     86  S   UNL     1      -0.436 -11.810   2.325  1.00  0.00     0.124 S 
ATOM     87  O   UNL     1      -1.010 -12.950   3.032  1.00  0.00    -0.237 OA
ATOM     88  O   UNL     1      -1.274 -11.214   1.289  1.00  0.00    -0.237 OA
ATOM     89  O   UNL     1       0.979 -11.925   1.986  1.00  0.00    -0.744 OA
ENDBRANCH  85  86
ENDBRANCH  53  78
BRANCH  65  90
ATOM     90  C   UNL     1      -3.314  -8.430  11.957  1.00  0.00     0.058 A 
ATOM     91  C   UNL     1      -2.752  -9.588  12.515  1.00  0.00     0.135 A 
ATOM     92  C   UNL     1      -4.681  -8.192  12.180  1.00  0.00     0.135 A 
ATOM     93  F   UNL     1      -1.451  -9.862  12.335  1.00  0.00    -0.206 F 
ATOM     94  C   UNL     1      -3.524 -10.493  13.239  1.00  0.00     0.059 A 
ATOM     95  C   UNL     1      -5.465  -9.068  12.924  1.00  0.00     0.059 A 
ATOM     96  F   UNL     1      -5.266  -7.090  11.684  1.00  0.00    -0.206 F 
ATOM     97  C   UNL     1      -4.880 -10.225  13.435  1.00  0.00     0.060 A 
BRANCH  97  98
ATOM     98  S   UNL     1      -5.870 -11.398  14.386  1.00  0.00     0.124 S 
ATOM     99  O   UNL     1      -6.056 -12.476  13.420  1.00  0.00    -0.237 OA
ATOM    100  O   UNL     1      -4.998 -11.703  15.516  1.00  0.00    -0.237 OA
ATOM    101  O   UNL     1      -7.071 -10.638  14.719  1.00  0.00    -0.744 OA
ENDBRANCH  97  98
ENDBRANCH  65  90
ENDBRANCH  39  40
ENDBRANCH  32  34
ENDBRANCH  31  32
ENDBRANCH  30  31
ENDBRANCH  29  30
ENDBRANCH  28  29
ENDBRANCH  27  28
ENDBRANCH   1  27
TORSDOF 23
