REMARK SMILES C[C@@H]1CC[C@H](C)[N@H+]1Cc1cc2c(cc1Cl)C=C(C(=O)OCCOCCOCCOC(=O)c1ccc(-c3c4nc(c(-c5c(F)cc(S(=O)(=O)[O-])cc5F)c5ccc([nH]5)c(-c5c(F)cc(S(=O)(=O)[O-])cc5F)c5nc(c(-c6c(F)cc(S(=O)(=O)[O-])cc6F)c6ccc3[nH]6)C=C5)C=C4)cc1)[C@@H](C(F)(F)F)O2
REMARK SMILES IDX 25 1 24 2 23 3 22 4 21 5 20 6 18 7 19 8 17 9 9 10 10 11
REMARK SMILES IDX 14 12 11 13 13 14 15 15 12 16 103 17 16 18 98 19 8 20 7 21
REMARK SMILES IDX 6 22 5 23 4 24 3 25 2 26 1 28 99 29 100 30 101 31 102 32
REMARK SMILES IDX 26 33 27 34 28 35 29 36 30 37 31 38 32 39 33 40 97 41 34 42
REMARK SMILES IDX 96 43 35 44 36 45 37 46 90 47 38 48 95 49 89 50 91 51 39 52
REMARK SMILES IDX 94 53 88 54 87 55 40 57 74 58 53 59 73 60 54 61 57 62 72 63
REMARK SMILES IDX 92 64 55 65 56 66 71 68 93 69 58 70 41 71 42 72 51 73 43 74
REMARK SMILES IDX 44 75 50 76 52 77 45 78 46 79 47 80 48 81 49 82 75 83 76 84
REMARK SMILES IDX 85 85 77 86 78 87 84 88 86 89 79 90 80 91 81 92 82 93 83 94
REMARK SMILES IDX 59 95 60 96 69 97 61 98 62 99 68 100 70 101 63 102 64 103
REMARK SMILES IDX 65 104 66 105 67 106
REMARK H PARENT 7 27 91 56 57 67
REMARK Flexibility Score: inf
ROOT
ATOM      1  C   UNL     1      -6.128   1.996  -5.147  1.00  0.00     0.188 C 
ENDROOT
BRANCH   1   2
ATOM      2  C   UNL     1      -6.838   3.323  -5.491  1.00  0.00     0.188 C 
BRANCH   2   3
ATOM      3  O   UNL     1      -7.750   3.199  -6.568  1.00  0.00    -0.376 OA
BRANCH   3   4
ATOM      4  C   UNL     1      -7.420   3.865  -7.775  1.00  0.00     0.202 C 
BRANCH   4   5
ATOM      5  C   UNL     1      -6.144   3.430  -8.518  1.00  0.00     0.261 C 
BRANCH   5   6
ATOM      6  O   UNL     1      -5.009   3.134  -7.687  1.00  0.00    -0.460 OA
BRANCH   6   7
ATOM      7  C   UNL     1      -4.200   4.169  -7.378  1.00  0.00     0.338 C 
ATOM      8  O   UNL     1      -4.328   5.321  -7.759  1.00  0.00    -0.246 OA
BRANCH   7   9
ATOM      9  C   UNL     1      -3.194   3.726  -6.388  1.00  0.00     0.087 C 
ATOM     10  C   UNL     1       0.218   3.558  -2.673  1.00  0.00     0.029 A 
ATOM     11  C   UNL     1      -0.276   2.614  -3.606  1.00  0.00     0.058 A 
ATOM     12  C   UNL     1      -0.358   4.840  -2.690  1.00  0.00     0.050 A 
ATOM     13  C   UNL     1      -1.301   2.941  -4.505  1.00  0.00     0.128 A 
ATOM     14  C   UNL     1      -1.454   5.127  -3.510  1.00  0.00     0.033 A 
ATOM     15  Cl  UNL     1       0.312   6.197  -1.855  1.00  0.00    -0.084 Cl
ATOM     16  C   UNL     1      -1.914   4.189  -4.431  1.00  0.00     0.019 A 
ATOM     17  O   UNL     1      -1.650   1.997  -5.434  1.00  0.00    -0.475 OA
ATOM     18  C   UNL     1      -2.971   4.550  -5.358  1.00  0.00     0.027 C 
ATOM     19  C   UNL     1      -2.466   2.419  -6.572  1.00  0.00     0.316 C 
BRANCH  10  20
ATOM     20  C   UNL     1       1.383   3.171  -1.771  1.00  0.00     0.301 C 
BRANCH  20  21
ATOM     21  N   UNL     1       1.092   2.681  -0.415  1.00  0.00    -0.327 N 
ATOM     22  C   UNL     1       1.136   0.203  -0.262  1.00  0.00     0.075 C 
ATOM     23  C   UNL     1       0.274   1.465  -0.310  1.00  0.00     0.181 C 
ATOM     24  C   UNL     1      -0.543   1.651   0.970  1.00  0.00     0.071 C 
ATOM     25  C   UNL     1      -0.720   3.152   1.043  1.00  0.00     0.071 C 
ATOM     26  C   UNL     1       0.620   3.679   0.551  1.00  0.00     0.181 C 
ATOM     27  H   UNL     1       2.042   2.421  -0.148  1.00  0.00     0.348 HD
ATOM     28  C   UNL     1       1.642   3.819   1.680  1.00  0.00     0.075 C 
ENDBRANCH  20  21
ENDBRANCH  10  20
BRANCH  19  29
ATOM     29  C   UNL     1      -1.620   2.428  -7.854  1.00  0.00     0.430 C 
ATOM     30  F   UNL     1      -0.951   1.261  -8.016  1.00  0.00    -0.167 F 
ATOM     31  F   UNL     1      -2.395   2.583  -8.955  1.00  0.00    -0.167 F 
ATOM     32  F   UNL     1      -0.706   3.423  -7.861  1.00  0.00    -0.167 F 
ENDBRANCH  19  29
ENDBRANCH   7   9
ENDBRANCH   6   7
ENDBRANCH   5   6
ENDBRANCH   4   5
ENDBRANCH   3   4
ENDBRANCH   2   3
ENDBRANCH   1   2
BRANCH   1  33
ATOM     33  O   UNL     1      -6.455   0.808  -5.860  1.00  0.00    -0.376 OA
BRANCH  33  34
ATOM     34  C   UNL     1      -7.826   0.486  -6.074  1.00  0.00     0.202 C 
BRANCH  34  35
ATOM     35  C   UNL     1      -8.777   0.388  -4.871  1.00  0.00     0.261 C 
BRANCH  35  36
ATOM     36  O   UNL     1      -8.754   1.513  -3.979  1.00  0.00    -0.460 OA
BRANCH  36  37
ATOM     37  C   UNL     1      -8.207   1.278  -2.758  1.00  0.00     0.338 C 
ATOM     38  O   UNL     1      -7.761   0.221  -2.344  1.00  0.00    -0.246 OA
BRANCH  37  39
ATOM     39  C   UNL     1      -8.033   2.560  -2.043  1.00  0.00     0.060 A 
ATOM     40  C   UNL     1      -9.110   3.417  -1.819  1.00  0.00     0.016 A 
ATOM     41  C   UNL     1      -6.754   2.888  -1.569  1.00  0.00     0.016 A 
ATOM     42  C   UNL     1      -8.910   4.589  -1.083  1.00  0.00     0.010 A 
ATOM     43  C   UNL     1      -6.553   4.066  -0.850  1.00  0.00     0.010 A 
ATOM     44  C   UNL     1      -7.636   4.910  -0.576  1.00  0.00    -0.014 A 
BRANCH  44  45
ATOM     45  C   UNL     1      -7.487   6.021   0.395  1.00  0.00     0.031 A 
ATOM     46  C   UNL     1      -6.961   7.364  -0.002  1.00  0.00     0.074 A 
ATOM     47  C   UNL     1      -7.843   5.786   1.672  1.00  0.00     0.049 A 
ATOM     48  N   UNL     1      -6.900   8.461   0.708  1.00  0.00    -0.248 NA
ATOM     49  C   UNL     1      -6.429   7.492  -1.364  1.00  0.00     0.031 C 
ATOM     50  C   UNL     1      -8.333   4.503   2.179  1.00  0.00     0.029 A 
ATOM     51  N   UNL     1      -7.870   6.612   2.765  1.00  0.00    -0.354 N 
ATOM     52  C   UNL     1      -6.361   9.428  -0.130  1.00  0.00     0.074 A 
ATOM     53  C   UNL     1      -6.051   8.765  -1.382  1.00  0.00     0.031 C 
ATOM     54  C   UNL     1      -8.657   4.639   3.472  1.00  0.00     0.029 A 
ATOM     55  C   UNL     1      -8.380   6.011   3.890  1.00  0.00     0.049 A 
ATOM     56  H   UNL     1      -7.554   7.544   2.747  1.00  0.00     0.167 HD
ATOM     57  C   UNL     1      -6.169  10.747   0.118  1.00  0.00     0.037 A 
ATOM     58  C   UNL     1      -8.624   6.512   5.116  1.00  0.00     0.037 A 
ATOM     59  C   UNL     1      -6.439  11.384   1.385  1.00  0.00     0.049 A 
ATOM     60  C   UNL     1      -8.343   7.960   5.388  1.00  0.00     0.074 A 
ATOM     61  C   UNL     1      -6.293  12.717   1.729  1.00  0.00     0.029 A 
ATOM     62  N   UNL     1      -6.891  10.730   2.524  1.00  0.00    -0.354 N 
ATOM     63  N   UNL     1      -7.902   8.881   4.565  1.00  0.00    -0.248 NA
ATOM     64  C   UNL     1      -8.596   8.439   6.753  1.00  0.00     0.031 C 
ATOM     65  C   UNL     1      -6.609  12.860   3.085  1.00  0.00     0.029 A 
ATOM     66  C   UNL     1      -7.000  11.626   3.578  1.00  0.00     0.049 A 
ATOM     67  H   UNL     1      -7.104   9.771   2.576  1.00  0.00     0.167 HD
ATOM     68  C   UNL     1      -7.838  10.054   5.308  1.00  0.00     0.074 A 
ATOM     69  C   UNL     1      -8.297   9.728   6.643  1.00  0.00     0.031 C 
ATOM     70  C   UNL     1      -7.437  11.289   4.913  1.00  0.00     0.037 A 
BRANCH  57  71
ATOM     71  C   UNL     1      -5.644  11.590  -1.013  1.00  0.00     0.058 A 
ATOM     72  C   UNL     1      -6.437  11.874  -2.137  1.00  0.00     0.135 A 
ATOM     73  C   UNL     1      -4.351  12.136  -0.973  1.00  0.00     0.135 A 
ATOM     74  F   UNL     1      -7.680  11.374  -2.231  1.00  0.00    -0.206 F 
ATOM     75  C   UNL     1      -5.953  12.629  -3.200  1.00  0.00     0.059 A 
ATOM     76  C   UNL     1      -3.854  12.918  -2.013  1.00  0.00     0.059 A 
ATOM     77  F   UNL     1      -3.552  11.906   0.081  1.00  0.00    -0.206 F 
ATOM     78  C   UNL     1      -4.656  13.140  -3.132  1.00  0.00     0.060 A 
BRANCH  78  79
ATOM     79  S   UNL     1      -4.030  14.081  -4.540  1.00  0.00     0.124 S 
ATOM     80  O   UNL     1      -3.845  13.027  -5.533  1.00  0.00    -0.237 OA
ATOM     81  O   UNL     1      -5.122  15.013  -4.803  1.00  0.00    -0.237 OA
ATOM     82  O   UNL     1      -2.803  14.684  -4.029  1.00  0.00    -0.744 OA
ENDBRANCH  78  79
ENDBRANCH  57  71
BRANCH  58  83
ATOM     83  C   UNL     1      -9.238   5.632   6.141  1.00  0.00     0.058 A 
ATOM     84  C   UNL     1     -10.592   5.769   6.477  1.00  0.00     0.135 A 
ATOM     85  C   UNL     1      -8.517   4.580   6.728  1.00  0.00     0.135 A 
ATOM     86  F   UNL     1     -11.318   6.763   5.943  1.00  0.00    -0.206 F 
ATOM     87  C   UNL     1     -11.217   4.884   7.347  1.00  0.00     0.059 A 
ATOM     88  C   UNL     1      -9.126   3.669   7.585  1.00  0.00     0.059 A 
ATOM     89  F   UNL     1      -7.223   4.399   6.421  1.00  0.00    -0.206 F 
ATOM     90  C   UNL     1     -10.479   3.827   7.884  1.00  0.00     0.060 A 
BRANCH  90  91
ATOM     91  S   UNL     1     -11.333   2.624   8.925  1.00  0.00     0.124 S 
ATOM     92  O   UNL     1     -11.617   3.415  10.117  1.00  0.00    -0.237 OA
ATOM     93  O   UNL     1     -12.485   2.275   8.100  1.00  0.00    -0.237 OA
ATOM     94  O   UNL     1     -10.345   1.562   9.092  1.00  0.00    -0.744 OA
ENDBRANCH  90  91
ENDBRANCH  58  83
BRANCH  70  95
ATOM     95  C   UNL     1      -7.466  12.387   5.942  1.00  0.00     0.058 A 
ATOM     96  C   UNL     1      -6.520  12.445   6.978  1.00  0.00     0.135 A 
ATOM     97  C   UNL     1      -8.409  13.423   5.859  1.00  0.00     0.135 A 
ATOM     98  F   UNL     1      -5.603  11.474   7.111  1.00  0.00    -0.206 F 
ATOM     99  C   UNL     1      -6.516  13.486   7.902  1.00  0.00     0.059 A 
ATOM    100  C   UNL     1      -8.409  14.487   6.757  1.00  0.00     0.059 A 
ATOM    101  F   UNL     1      -9.334  13.419   4.885  1.00  0.00    -0.206 F 
ATOM    102  C   UNL     1      -7.461  14.506   7.779  1.00  0.00     0.060 A 
BRANCH 102 103
ATOM    103  S   UNL     1      -7.411  15.874   8.957  1.00  0.00     0.124 S 
ATOM    104  O   UNL     1      -7.880  15.229  10.179  1.00  0.00    -0.237 OA
ATOM    105  O   UNL     1      -6.000  16.247   8.940  1.00  0.00    -0.237 OA
ATOM    106  O   UNL     1      -8.320  16.857   8.377  1.00  0.00    -0.744 OA
ENDBRANCH 102 103
ENDBRANCH  70  95
ENDBRANCH  44  45
ENDBRANCH  37  39
ENDBRANCH  36  37
ENDBRANCH  35  36
ENDBRANCH  34  35
ENDBRANCH  33  34
ENDBRANCH   1  33
TORSDOF 23
