REMARK SMILES C=Cc1cncc(-c2ccc([C@@H](C)C(=O)OCCOCCOCCOC(=O)c3ccc(-c4c5nc(c(-c6c(F)cc(S(=O)(=O)[O-])cc6F)c6ccc([nH]6)c(-c6c(F)cc(S(=O)(=O)[O-])cc6F)c6nc(c(-c7c(F)cc(S(=O)(=O)[O-])cc7F)c7ccc4[nH]7)C=C6)C=C5)cc3)cc2)c1
REMARK SMILES IDX 20 1 19 2 18 3 17 4 16 5 14 6 15 7 12 8 13 9 11 10 8 11 9 12
REMARK SMILES IDX 95 13 10 14 94 15 7 16 3 17 4 18 96 19 5 20 6 21 2 22 1 23
REMARK SMILES IDX 21 24 22 25 23 26 24 27 25 28 26 29 27 30 28 31 29 32 93 33
REMARK SMILES IDX 30 34 92 35 31 36 32 37 33 38 86 39 34 40 91 41 85 42 87 43
REMARK SMILES IDX 35 44 90 45 84 46 83 47 36 49 70 50 49 51 69 52 50 53 53 54
REMARK SMILES IDX 68 55 88 56 51 57 52 58 67 60 89 61 54 62 37 63 38 64 47 65
REMARK SMILES IDX 39 66 40 67 46 68 48 69 41 70 42 71 43 72 44 73 45 74 71 75
REMARK SMILES IDX 72 76 81 77 73 78 74 79 80 80 82 81 75 82 76 83 77 84 78 85
REMARK SMILES IDX 79 86 55 87 56 88 65 89 57 90 58 91 64 92 66 93 59 94 60 95
REMARK SMILES IDX 61 96 62 97 63 98
REMARK H PARENT 87 48 53 59
REMARK Flexibility Score: inf
ROOT
ATOM      1  C   UNL     1      -4.345  -0.485   6.981  1.00  0.00     0.188 C 
ENDROOT
BRANCH   1   2
ATOM      2  O   UNL     1      -4.799  -1.584   7.764  1.00  0.00    -0.376 OA
BRANCH   2   3
ATOM      3  C   UNL     1      -5.687  -2.530   7.184  1.00  0.00     0.202 C 
BRANCH   3   4
ATOM      4  C   UNL     1      -7.001  -2.021   6.569  1.00  0.00     0.261 C 
BRANCH   4   5
ATOM      5  O   UNL     1      -6.864  -1.001   5.552  1.00  0.00    -0.463 OA
BRANCH   5   6
ATOM      6  C   UNL     1      -7.501   0.175   5.785  1.00  0.00     0.313 C 
ATOM      7  O   UNL     1      -8.224   0.360   6.763  1.00  0.00    -0.252 OA
BRANCH   6   8
ATOM      8  C   UNL     1      -7.268   1.296   4.766  1.00  0.00     0.126 C 
ATOM      9  C   UNL     1      -8.626   1.744   4.227  1.00  0.00     0.025 C 
BRANCH   8  10
ATOM     10  C   UNL     1      -6.273   1.141   3.614  1.00  0.00    -0.034 A 
ATOM     11  C   UNL     1      -4.370   0.965   1.477  1.00  0.00    -0.017 A 
ATOM     12  C   UNL     1      -5.361  -0.016   1.669  1.00  0.00     0.009 A 
ATOM     13  C   UNL     1      -4.346   2.038   2.375  1.00  0.00     0.009 A 
ATOM     14  C   UNL     1      -6.303   0.073   2.711  1.00  0.00     0.005 A 
ATOM     15  C   UNL     1      -5.285   2.130   3.417  1.00  0.00     0.005 A 
BRANCH  11  16
ATOM     16  C   UNL     1      -3.446   0.897   0.329  1.00  0.00     0.001 A 
ATOM     17  C   UNL     1      -1.223   0.814  -0.677  1.00  0.00    -0.007 A 
ATOM     18  C   UNL     1      -1.852   0.797  -1.921  1.00  0.00     0.119 A 
ATOM     19  C   UNL     1      -2.046   0.876   0.460  1.00  0.00     0.020 A 
ATOM     20  N   UNL     1      -3.191   0.814  -2.103  1.00  0.00    -0.263 NA
ATOM     21  C   UNL     1      -3.943   0.867  -0.978  1.00  0.00     0.119 A 
BRANCH  17  22
ATOM     22  C   UNL     1       0.243   0.818  -0.627  1.00  0.00     0.002 C 
ATOM     23  C   UNL     1       0.971   0.095   0.233  1.00  0.00     0.009 C 
ENDBRANCH  17  22
ENDBRANCH  11  16
ENDBRANCH   8  10
ENDBRANCH   6   8
ENDBRANCH   5   6
ENDBRANCH   4   5
ENDBRANCH   3   4
ENDBRANCH   2   3
ENDBRANCH   1   2
BRANCH   1  24
ATOM     24  C   UNL     1      -4.046  -0.700   5.490  1.00  0.00     0.188 C 
BRANCH  24  25
ATOM     25  O   UNL     1      -4.051  -2.050   5.075  1.00  0.00    -0.376 OA
BRANCH  25  26
ATOM     26  C   UNL     1      -2.877  -2.521   4.445  1.00  0.00     0.202 C 
BRANCH  26  27
ATOM     27  C   UNL     1      -1.649  -2.613   5.362  1.00  0.00     0.261 C 
BRANCH  27  28
ATOM     28  O   UNL     1      -1.322  -1.416   6.093  1.00  0.00    -0.460 OA
BRANCH  28  29
ATOM     29  C   UNL     1      -0.843  -0.376   5.376  1.00  0.00     0.338 C 
ATOM     30  O   UNL     1      -0.628  -0.361   4.169  1.00  0.00    -0.246 OA
BRANCH  29  31
ATOM     31  C   UNL     1      -0.831   0.826   6.241  1.00  0.00     0.060 A 
ATOM     32  C   UNL     1      -1.524   1.971   5.822  1.00  0.00     0.016 A 
ATOM     33  C   UNL     1      -0.120   0.836   7.444  1.00  0.00     0.016 A 
ATOM     34  C   UNL     1      -1.449   3.150   6.567  1.00  0.00     0.010 A 
ATOM     35  C   UNL     1      -0.031   2.023   8.180  1.00  0.00     0.010 A 
ATOM     36  C   UNL     1      -0.648   3.200   7.716  1.00  0.00    -0.014 A 
BRANCH  36  37
ATOM     37  C   UNL     1      -0.239   4.521   8.263  1.00  0.00     0.031 A 
ATOM     38  C   UNL     1       1.109   5.063   7.855  1.00  0.00     0.074 A 
ATOM     39  C   UNL     1      -1.041   5.247   9.063  1.00  0.00     0.049 A 
ATOM     40  N   UNL     1       1.708   6.168   8.216  1.00  0.00    -0.248 NA
ATOM     41  C   UNL     1       1.886   4.240   6.912  1.00  0.00     0.031 C 
ATOM     42  C   UNL     1      -2.381   4.861   9.498  1.00  0.00     0.029 A 
ATOM     43  N   UNL     1      -0.833   6.468   9.658  1.00  0.00    -0.354 N 
ATOM     44  C   UNL     1       2.932   6.167   7.555  1.00  0.00     0.074 A 
ATOM     45  C   UNL     1       3.006   4.935   6.801  1.00  0.00     0.031 C 
ATOM     46  C   UNL     1      -2.873   5.823  10.300  1.00  0.00     0.029 A 
ATOM     47  C   UNL     1      -1.872   6.879  10.460  1.00  0.00     0.049 A 
ATOM     48  H   UNL     1      -0.016   7.000   9.523  1.00  0.00     0.167 HD
ATOM     49  C   UNL     1       3.904   7.110   7.562  1.00  0.00     0.037 A 
ATOM     50  C   UNL     1      -1.992   7.971  11.244  1.00  0.00     0.037 A 
ATOM     51  C   UNL     1       3.828   8.337   8.310  1.00  0.00     0.049 A 
ATOM     52  C   UNL     1      -0.870   8.981  11.286  1.00  0.00     0.074 A 
ATOM     53  C   UNL     1       4.756   9.361   8.377  1.00  0.00     0.029 A 
ATOM     54  N   UNL     1       2.768   8.705   9.124  1.00  0.00    -0.354 N 
ATOM     55  N   UNL     1       0.275   8.975  10.645  1.00  0.00    -0.248 NA
ATOM     56  C   UNL     1      -1.062  10.154  12.152  1.00  0.00     0.031 C 
ATOM     57  C   UNL     1       4.281  10.323   9.273  1.00  0.00     0.029 A 
ATOM     58  C   UNL     1       3.026   9.932   9.712  1.00  0.00     0.049 A 
ATOM     59  H   UNL     1       1.951   8.172   9.264  1.00  0.00     0.167 HD
ATOM     60  C   UNL     1       0.918  10.159  10.996  1.00  0.00     0.074 A 
ATOM     61  C   UNL     1       0.033  10.859  11.903  1.00  0.00     0.031 C 
ATOM     62  C   UNL     1       2.128  10.629  10.599  1.00  0.00     0.037 A 
BRANCH  49  63
ATOM     63  C   UNL     1       5.145   6.837   6.756  1.00  0.00     0.058 A 
ATOM     64  C   UNL     1       5.134   6.835   5.352  1.00  0.00     0.135 A 
ATOM     65  C   UNL     1       6.370   6.596   7.400  1.00  0.00     0.135 A 
ATOM     66  F   UNL     1       3.986   7.037   4.684  1.00  0.00    -0.206 F 
ATOM     67  C   UNL     1       6.285   6.577   4.615  1.00  0.00     0.059 A 
ATOM     68  C   UNL     1       7.540   6.367   6.683  1.00  0.00     0.059 A 
ATOM     69  F   UNL     1       6.438   6.581   8.741  1.00  0.00    -0.206 F 
ATOM     70  C   UNL     1       7.485   6.345   5.291  1.00  0.00     0.060 A 
BRANCH  70  71
ATOM     71  S   UNL     1       8.970   6.017   4.320  1.00  0.00     0.124 S 
ATOM     72  O   UNL     1       8.693   4.679   3.806  1.00  0.00    -0.237 OA
ATOM     73  O   UNL     1       8.941   7.093   3.334  1.00  0.00    -0.237 OA
ATOM     74  O   UNL     1      10.046   6.100   5.303  1.00  0.00    -0.744 OA
ENDBRANCH  70  71
ENDBRANCH  49  63
BRANCH  50  75
ATOM     75  C   UNL     1      -3.220   8.174  12.062  1.00  0.00     0.058 A 
ATOM     76  C   UNL     1      -4.114   9.220  11.787  1.00  0.00     0.135 A 
ATOM     77  C   UNL     1      -3.514   7.337  13.150  1.00  0.00     0.135 A 
ATOM     78  F   UNL     1      -3.872  10.059  10.768  1.00  0.00    -0.206 F 
ATOM     79  C   UNL     1      -5.243   9.442  12.570  1.00  0.00     0.059 A 
ATOM     80  C   UNL     1      -4.653   7.520  13.930  1.00  0.00     0.059 A 
ATOM     81  F   UNL     1      -2.696   6.317  13.455  1.00  0.00    -0.206 F 
ATOM     82  C   UNL     1      -5.506   8.583  13.639  1.00  0.00     0.060 A 
BRANCH  82  83
ATOM     83  S   UNL     1      -6.997   8.854  14.621  1.00  0.00     0.124 S 
ATOM     84  O   UNL     1      -6.652  10.068  15.352  1.00  0.00    -0.237 OA
ATOM     85  O   UNL     1      -8.020   8.998  13.590  1.00  0.00    -0.237 OA
ATOM     86  O   UNL     1      -7.095   7.640  15.426  1.00  0.00    -0.744 OA
ENDBRANCH  82  83
ENDBRANCH  50  75
BRANCH  62  87
ATOM     87  C   UNL     1       2.545  11.994  11.082  1.00  0.00     0.058 A 
ATOM     88  C   UNL     1       2.897  12.241  12.418  1.00  0.00     0.135 A 
ATOM     89  C   UNL     1       2.639  13.063  10.175  1.00  0.00     0.135 A 
ATOM     90  F   UNL     1       2.826  11.257  13.329  1.00  0.00    -0.206 F 
ATOM     91  C   UNL     1       3.293  13.506  12.845  1.00  0.00     0.059 A 
ATOM     92  C   UNL     1       3.064  14.327  10.572  1.00  0.00     0.059 A 
ATOM     93  F   UNL     1       2.330  12.882   8.881  1.00  0.00    -0.206 F 
ATOM     94  C   UNL     1       3.373  14.543  11.913  1.00  0.00     0.060 A 
BRANCH  94  95
ATOM     95  S   UNL     1       3.903  16.175  12.475  1.00  0.00     0.124 S 
ATOM     96  O   UNL     1       2.730  16.626  13.217  1.00  0.00    -0.237 OA
ATOM     97  O   UNL     1       5.080  15.861  13.279  1.00  0.00    -0.237 OA
ATOM     98  O   UNL     1       4.173  16.892  11.233  1.00  0.00    -0.744 OA
ENDBRANCH  94  95
ENDBRANCH  62  87
ENDBRANCH  36  37
ENDBRANCH  29  31
ENDBRANCH  28  29
ENDBRANCH  27  28
ENDBRANCH  26  27
ENDBRANCH  25  26
ENDBRANCH  24  25
ENDBRANCH   1  24
TORSDOF 23
