REMARK SMILES Cc1ccc(-c2c(C)sc(NC(=O)[C@H]3CC=CC[C@H]3C(=O)OCCOCCOCCOC(=O)c3ccc(-c4c5nc(c(-c6c(F)cc(S(=O)(=O)[O-])cc6F)c6ccc([nH]6)c(-c6c(F)cc(S(=O)(=O)[O-])cc6F)c6nc(c(-c7c(F)cc(S(=O)(=O)[O-])cc7F)c7ccc4[nH]7)C=C6)C=C5)cc3)c2C(N)=O)cc1
REMARK SMILES IDX 26 1 25 2 24 3 23 4 22 5 20 6 21 7 19 8 14 9 15 10 16 11
REMARK SMILES IDX 18 12 17 13 12 14 11 15 13 17 10 18 6 19 7 20 100 21 8 22
REMARK SMILES IDX 9 23 5 24 1 25 2 26 3 27 105 28 4 29 104 30 101 31 102 32
REMARK SMILES IDX 103 33 27 36 28 37 29 38 30 39 31 40 32 41 33 42 34 43 35 44
REMARK SMILES IDX 99 45 36 46 98 47 37 48 38 49 39 50 92 51 40 52 97 53 91 54
REMARK SMILES IDX 93 55 41 56 96 57 90 58 89 59 42 61 76 62 55 63 75 64 56 65
REMARK SMILES IDX 59 66 74 67 94 68 57 69 58 70 73 72 95 73 60 74 43 75 44 76
REMARK SMILES IDX 53 77 45 78 46 79 52 80 54 81 47 82 48 83 49 84 50 85 51 86
REMARK SMILES IDX 77 87 78 88 87 89 79 90 80 91 86 92 88 93 81 94 82 95 83 96
REMARK SMILES IDX 84 97 85 98 61 99 62 100 71 101 63 102 64 103 70 104 72 105
REMARK SMILES IDX 65 106 66 107 67 108 68 109 69 110
REMARK H PARENT 11 16 102 34 102 35 93 60 59 71
REMARK Flexibility Score: inf
ROOT
ATOM      1  C   UNL     1     -13.926  -2.664  -0.899  1.00  0.00     0.188 C 
ENDROOT
BRANCH   1   2
ATOM      2  O   UNL     1     -13.720  -4.030  -0.597  1.00  0.00    -0.376 OA
BRANCH   2   3
ATOM      3  C   UNL     1     -12.343  -4.370  -0.582  1.00  0.00     0.202 C 
BRANCH   3   4
ATOM      4  C   UNL     1     -11.283  -3.244  -0.379  1.00  0.00     0.261 C 
BRANCH   4   5
ATOM      5  O   UNL     1     -10.713  -2.123  -1.511  1.00  0.00    -0.463 OA
BRANCH   5   6
ATOM      6  C   UNL     1      -9.477  -1.705  -2.137  1.00  0.00     0.310 C 
ATOM      7  O   UNL     1      -9.284  -2.191  -3.256  1.00  0.00    -0.252 OA
BRANCH   6   8
ATOM      8  C   UNL     1      -8.303  -0.603  -1.762  1.00  0.00     0.116 C 
ATOM      9  C   UNL     1      -8.050   0.644  -0.789  1.00  0.00     0.097 C 
ATOM     10  C   UNL     1      -7.453   1.801  -1.624  1.00  0.00     0.041 C 
ATOM     11  C   UNL     1      -6.402   1.365  -2.609  1.00  0.00    -0.030 C 
ATOM     12  C   UNL     1      -6.899  -1.072  -2.259  1.00  0.00     0.043 C 
ATOM     13  C   UNL     1      -6.114   0.077  -2.852  1.00  0.00    -0.030 C 
BRANCH   9  14
ATOM     14  C   UNL     1      -7.415   0.581   0.685  1.00  0.00     0.229 C 
ATOM     15  N   UNL     1      -6.252   0.020   1.145  1.00  0.00    -0.317 N 
ATOM     16  H   UNL     1      -6.366  -0.705   1.802  1.00  0.00     0.170 HD
ATOM     17  O   UNL     1      -8.080   1.080   1.616  1.00  0.00    -0.274 OA
BRANCH  15  18
ATOM     18  C   UNL     1      -4.935   0.324   0.819  1.00  0.00     0.109 A 
ATOM     19  C   UNL     1      -2.672   0.369   0.303  1.00  0.00     0.010 A 
ATOM     20  C   UNL     1      -3.241   1.173  -0.671  1.00  0.00     0.012 A 
ATOM     21  C   UNL     1      -3.669  -0.046   1.306  1.00  0.00     0.082 A 
ATOM     22  C   UNL     1      -2.749   1.673  -1.982  1.00  0.00     0.057 C 
ATOM     23  S   UNL     1      -4.697   1.767  -0.053  1.00  0.00    -0.122 S 
BRANCH  19  24
ATOM     24  C   UNL     1      -1.230   0.153   0.272  1.00  0.00    -0.016 A 
ATOM     25  C   UNL     1       3.042  -0.253  -0.081  1.00  0.00     0.044 C 
ATOM     26  C   UNL     1       1.555  -0.111   0.037  1.00  0.00    -0.051 A 
ATOM     27  C   UNL     1       0.724  -1.240  -0.011  1.00  0.00     0.004 A 
ATOM     28  C   UNL     1       0.985   1.150   0.223  1.00  0.00     0.004 A 
ATOM     29  C   UNL     1      -0.666  -1.111   0.098  1.00  0.00     0.009 A 
ATOM     30  C   UNL     1      -0.394   1.276   0.355  1.00  0.00     0.009 A 
ENDBRANCH  19  24
BRANCH  21  31
ATOM     31  C   UNL     1      -3.267  -0.715   2.557  1.00  0.00     0.252 C 
ATOM     32  N   UNL     1      -4.231  -1.174   3.417  1.00  0.00    -0.365 N 
ATOM     33  O   UNL     1      -2.115  -0.823   2.926  1.00  0.00    -0.269 OA
ATOM     34  H   UNL     1      -5.181  -1.112   3.169  1.00  0.00     0.159 HD
ATOM     35  H   UNL     1      -3.972  -1.567   4.282  1.00  0.00     0.159 HD
ENDBRANCH  21  31
ENDBRANCH  15  18
ENDBRANCH   9  14
ENDBRANCH   6   8
ENDBRANCH   5   6
ENDBRANCH   4   5
ENDBRANCH   3   4
ENDBRANCH   2   3
ENDBRANCH   1   2
BRANCH   1  36
ATOM     36  C   UNL     1     -14.072  -1.796   0.355  1.00  0.00     0.188 C 
BRANCH  36  37
ATOM     37  O   UNL     1     -13.042  -1.952   1.319  1.00  0.00    -0.376 OA
BRANCH  37  38
ATOM     38  C   UNL     1     -13.289  -2.684   2.504  1.00  0.00     0.202 C 
BRANCH  38  39
ATOM     39  C   UNL     1     -13.742  -1.678   3.557  1.00  0.00     0.261 C 
BRANCH  39  40
ATOM     40  O   UNL     1     -12.630  -0.943   4.136  1.00  0.00    -0.460 OA
BRANCH  40  41
ATOM     41  C   UNL     1     -12.048  -0.007   3.341  1.00  0.00     0.338 C 
ATOM     42  O   UNL     1     -12.493   1.111   3.139  1.00  0.00    -0.246 OA
BRANCH  41  43
ATOM     43  C   UNL     1     -10.845  -0.592   2.691  1.00  0.00     0.060 A 
ATOM     44  C   UNL     1     -10.656  -0.242   1.394  1.00  0.00     0.016 A 
ATOM     45  C   UNL     1     -10.091  -1.667   3.182  1.00  0.00     0.016 A 
ATOM     46  C   UNL     1      -9.825  -1.059   0.607  1.00  0.00     0.010 A 
ATOM     47  C   UNL     1      -9.280  -2.489   2.326  1.00  0.00     0.010 A 
ATOM     48  C   UNL     1      -9.116  -2.246   0.951  1.00  0.00    -0.014 A 
BRANCH  48  49
ATOM     49  C   UNL     1      -8.388  -3.406  -0.004  1.00  0.00     0.031 A 
ATOM     50  C   UNL     1      -6.947  -3.616   0.318  1.00  0.00     0.074 A 
ATOM     51  C   UNL     1      -8.796  -4.300  -1.046  1.00  0.00     0.049 A 
ATOM     52  N   UNL     1      -6.073  -4.080  -0.517  1.00  0.00    -0.248 NA
ATOM     53  C   UNL     1      -6.360  -3.231   1.596  1.00  0.00     0.031 C 
ATOM     54  C   UNL     1      -8.292  -5.668  -1.296  1.00  0.00     0.029 A 
ATOM     55  N   UNL     1      -9.849  -4.334  -2.009  1.00  0.00    -0.354 N 
ATOM     56  C   UNL     1      -4.961  -4.387   0.224  1.00  0.00     0.074 A 
ATOM     57  C   UNL     1      -5.117  -3.686   1.468  1.00  0.00     0.031 C 
ATOM     58  C   UNL     1      -8.888  -6.229  -2.378  1.00  0.00     0.029 A 
ATOM     59  C   UNL     1      -9.754  -5.257  -3.020  1.00  0.00     0.049 A 
ATOM     60  H   UNL     1     -10.615  -3.719  -1.950  1.00  0.00     0.167 HD
ATOM     61  C   UNL     1      -4.137  -5.413  -0.118  1.00  0.00     0.037 A 
ATOM     62  C   UNL     1     -10.035  -5.009  -4.348  1.00  0.00     0.037 A 
ATOM     63  C   UNL     1      -4.662  -6.165  -1.251  1.00  0.00     0.049 A 
ATOM     64  C   UNL     1      -8.780  -5.356  -5.092  1.00  0.00     0.074 A 
ATOM     65  C   UNL     1      -5.375  -7.352  -1.310  1.00  0.00     0.029 A 
ATOM     66  N   UNL     1      -4.775  -5.585  -2.511  1.00  0.00    -0.354 N 
ATOM     67  N   UNL     1      -7.626  -5.389  -4.489  1.00  0.00    -0.248 NA
ATOM     68  C   UNL     1      -8.692  -5.740  -6.492  1.00  0.00     0.031 C 
ATOM     69  C   UNL     1      -5.836  -7.534  -2.633  1.00  0.00     0.029 A 
ATOM     70  C   UNL     1      -5.417  -6.448  -3.382  1.00  0.00     0.049 A 
ATOM     71  H   UNL     1      -4.446  -4.688  -2.750  1.00  0.00     0.167 HD
ATOM     72  C   UNL     1      -6.691  -5.923  -5.315  1.00  0.00     0.074 A 
ATOM     73  C   UNL     1      -7.391  -6.082  -6.578  1.00  0.00     0.031 C 
ATOM     74  C   UNL     1      -5.452  -6.214  -4.824  1.00  0.00     0.037 A 
BRANCH  61  75
ATOM     75  C   UNL     1      -3.130  -5.933   0.886  1.00  0.00     0.058 A 
ATOM     76  C   UNL     1      -2.939  -7.309   1.106  1.00  0.00     0.135 A 
ATOM     77  C   UNL     1      -2.373  -5.084   1.723  1.00  0.00     0.135 A 
ATOM     78  F   UNL     1      -3.510  -8.236   0.328  1.00  0.00    -0.206 F 
ATOM     79  C   UNL     1      -2.166  -7.804   2.154  1.00  0.00     0.059 A 
ATOM     80  C   UNL     1      -1.637  -5.551   2.816  1.00  0.00     0.059 A 
ATOM     81  F   UNL     1      -2.357  -3.758   1.511  1.00  0.00    -0.206 F 
ATOM     82  C   UNL     1      -1.544  -6.920   3.025  1.00  0.00     0.060 A 
BRANCH  82  83
ATOM     83  S   UNL     1      -0.623  -7.598   4.417  1.00  0.00     0.124 S 
ATOM     84  O   UNL     1      -1.568  -8.561   4.977  1.00  0.00    -0.237 OA
ATOM     85  O   UNL     1       0.543  -8.169   3.751  1.00  0.00    -0.237 OA
ATOM     86  O   UNL     1      -0.365  -6.431   5.255  1.00  0.00    -0.744 OA
ENDBRANCH  82  83
ENDBRANCH  61  75
BRANCH  62  87
ATOM     87  C   UNL     1     -11.011  -3.914  -4.783  1.00  0.00     0.058 A 
ATOM     88  C   UNL     1     -12.353  -3.967  -4.362  1.00  0.00     0.135 A 
ATOM     89  C   UNL     1     -10.617  -2.681  -5.338  1.00  0.00     0.135 A 
ATOM     90  F   UNL     1     -12.891  -5.144  -4.004  1.00  0.00    -0.206 F 
ATOM     91  C   UNL     1     -13.152  -2.820  -4.219  1.00  0.00     0.059 A 
ATOM     92  C   UNL     1     -11.359  -1.500  -5.114  1.00  0.00     0.059 A 
ATOM     93  F   UNL     1      -9.416  -2.553  -5.921  1.00  0.00    -0.206 F 
ATOM     94  C   UNL     1     -12.586  -1.573  -4.458  1.00  0.00     0.060 A 
BRANCH  94  95
ATOM     95  S   UNL     1     -13.264  -0.072  -3.664  1.00  0.00     0.124 S 
ATOM     96  O   UNL     1     -13.637   0.755  -4.804  1.00  0.00    -0.237 OA
ATOM     97  O   UNL     1     -14.387  -0.572  -2.874  1.00  0.00    -0.237 OA
ATOM     98  O   UNL     1     -12.129   0.399  -2.872  1.00  0.00    -0.744 OA
ENDBRANCH  94  95
ENDBRANCH  62  87
BRANCH  74  99
ATOM     99  C   UNL     1      -4.194  -6.490  -5.603  1.00  0.00     0.058 A 
ATOM    100  C   UNL     1      -4.052  -6.296  -6.982  1.00  0.00     0.135 A 
ATOM    101  C   UNL     1      -3.001  -6.851  -4.918  1.00  0.00     0.135 A 
ATOM    102  F   UNL     1      -5.051  -5.845  -7.747  1.00  0.00    -0.206 F 
ATOM    103  C   UNL     1      -2.845  -6.507  -7.641  1.00  0.00     0.059 A 
ATOM    104  C   UNL     1      -1.775  -6.999  -5.544  1.00  0.00     0.059 A 
ATOM    105  F   UNL     1      -2.956  -7.053  -3.595  1.00  0.00    -0.206 F 
ATOM    106  C   UNL     1      -1.712  -6.850  -6.914  1.00  0.00     0.060 A 
BRANCH 106 107
ATOM    107  S   UNL     1      -0.152  -7.052  -7.770  1.00  0.00     0.124 S 
ATOM    108  O   UNL     1      -0.360  -8.328  -8.448  1.00  0.00    -0.237 OA
ATOM    109  O   UNL     1      -0.119  -5.873  -8.630  1.00  0.00    -0.237 OA
ATOM    110  O   UNL     1       0.832  -7.063  -6.692  1.00  0.00    -0.744 OA
ENDBRANCH 106 107
ENDBRANCH  74  99
ENDBRANCH  48  49
ENDBRANCH  41  43
ENDBRANCH  40  41
ENDBRANCH  39  40
ENDBRANCH  38  39
ENDBRANCH  37  38
ENDBRANCH  36  37
ENDBRANCH   1  36
TORSDOF 24
