REMARK SMILES C[C@@H](C(=O)OCCOCCOCCOC(=O)c1ccc(-c2c3nc(c(-c4c(F)cc(S(=O)(=O)[O-])cc4F)c4ccc([nH]4)c(-c4c(F)cc(S(=O)(=O)[O-])cc4F)c4nc(c(-c5c(F)cc(S(=O)(=O)[O-])cc5F)c5ccc2[nH]5)C=C4)C=C3)cc1)c1ccc(C[C@H]2CCC[C@H]2O)cc1
REMARK SMILES IDX 9 1 8 2 7 3 6 4 5 5 3 6 4 7 2 8 1 9 83 10 84 11 95 12 85 13
REMARK SMILES IDX 94 14 86 15 87 16 88 17 89 18 92 19 90 20 91 21 93 22 10 24
REMARK SMILES IDX 11 25 12 26 13 27 14 28 15 29 16 30 17 31 18 32 82 33 19 34
REMARK SMILES IDX 81 35 20 36 21 37 22 38 75 39 23 40 80 41 74 42 76 43 24 44
REMARK SMILES IDX 79 45 73 46 72 47 25 49 59 50 38 51 58 52 39 53 42 54 57 55
REMARK SMILES IDX 77 56 40 57 41 58 56 60 78 61 43 62 26 63 27 64 36 65 28 66
REMARK SMILES IDX 29 67 35 68 37 69 30 70 31 71 32 72 33 73 34 74 60 75 61 76
REMARK SMILES IDX 70 77 62 78 63 79 69 80 71 81 64 82 65 83 66 84 67 85 68 86
REMARK SMILES IDX 44 87 45 88 54 89 46 90 47 91 53 92 55 93 48 94 49 95 50 96
REMARK SMILES IDX 51 97 52 98
REMARK H PARENT 93 23 76 48 42 59
REMARK Flexibility Score: inf
ROOT
ATOM      1  C   UNL     1       0.453   3.655  -1.419  1.00  0.00     0.188 C 
ENDROOT
BRANCH   1   2
ATOM      2  O   UNL     1       1.313   4.777  -1.422  1.00  0.00    -0.376 OA
BRANCH   2   3
ATOM      3  C   UNL     1       2.453   4.754  -0.568  1.00  0.00     0.202 C 
BRANCH   3   4
ATOM      4  C   UNL     1       2.424   4.056   0.808  1.00  0.00     0.261 C 
BRANCH   4   5
ATOM      5  O   UNL     1       1.982   2.683   0.787  1.00  0.00    -0.463 OA
BRANCH   5   6
ATOM      6  C   UNL     1       1.248   2.269   1.859  1.00  0.00     0.313 C 
ATOM      7  O   UNL     1       1.049   2.967   2.849  1.00  0.00    -0.252 OA
BRANCH   6   8
ATOM      8  C   UNL     1       0.614   0.874   1.696  1.00  0.00     0.126 C 
ATOM      9  C   UNL     1       1.404  -0.111   0.822  1.00  0.00     0.025 C 
BRANCH   8  10
ATOM     10  C   UNL     1      -0.883   0.883   1.372  1.00  0.00    -0.034 A 
ATOM     11  C   UNL     1      -1.579   2.062   1.090  1.00  0.00     0.005 A 
ATOM     12  C   UNL     1      -1.633  -0.304   1.417  1.00  0.00     0.005 A 
ATOM     13  C   UNL     1      -2.955   2.066   0.873  1.00  0.00     0.004 A 
ATOM     14  C   UNL     1      -3.032  -0.281   1.310  1.00  0.00     0.004 A 
ATOM     15  C   UNL     1      -3.711   0.925   1.110  1.00  0.00    -0.048 A 
BRANCH  15  16
ATOM     16  C   UNL     1      -5.212   1.034   1.260  1.00  0.00     0.041 C 
BRANCH  16  17
ATOM     17  C   UNL     1      -5.741   1.619   2.594  1.00  0.00     0.022 C 
ATOM     18  C   UNL     1      -5.226   0.912   3.862  1.00  0.00     0.007 C 
ATOM     19  C   UNL     1      -5.600   3.126   2.901  1.00  0.00     0.117 C 
ATOM     20  C   UNL     1      -5.139   1.981   4.953  1.00  0.00     0.003 C 
ATOM     21  C   UNL     1      -5.863   3.203   4.400  1.00  0.00     0.032 C 
BRANCH  19  22
ATOM     22  O   UNL     1      -4.321   3.683   2.651  1.00  0.00    -0.393 OA
ATOM     23  H   UNL     1      -3.659   3.228   3.195  1.00  0.00     0.210 HD
ENDBRANCH  19  22
ENDBRANCH  16  17
ENDBRANCH  15  16
ENDBRANCH   8  10
ENDBRANCH   6   8
ENDBRANCH   5   6
ENDBRANCH   4   5
ENDBRANCH   3   4
ENDBRANCH   2   3
ENDBRANCH   1   2
BRANCH   1  24
ATOM     24  C   UNL     1       1.026   2.290  -1.815  1.00  0.00     0.188 C 
BRANCH  24  25
ATOM     25  O   UNL     1       2.396   2.188  -2.114  1.00  0.00    -0.376 OA
BRANCH  25  26
ATOM     26  C   UNL     1       2.896   2.701  -3.336  1.00  0.00     0.202 C 
BRANCH  26  27
ATOM     27  C   UNL     1       2.049   3.158  -4.542  1.00  0.00     0.261 C 
BRANCH  27  28
ATOM     28  O   UNL     1       0.626   3.200  -4.416  1.00  0.00    -0.460 OA
BRANCH  28  29
ATOM     29  C   UNL     1      -0.040   2.093  -4.826  1.00  0.00     0.338 C 
ATOM     30  O   UNL     1       0.449   1.064  -5.268  1.00  0.00    -0.246 OA
BRANCH  29  31
ATOM     31  C   UNL     1      -1.462   2.248  -4.455  1.00  0.00     0.060 A 
ATOM     32  C   UNL     1      -2.019   1.381  -3.503  1.00  0.00     0.016 A 
ATOM     33  C   UNL     1      -2.241   3.241  -5.048  1.00  0.00     0.016 A 
ATOM     34  C   UNL     1      -3.367   1.493  -3.158  1.00  0.00     0.010 A 
ATOM     35  C   UNL     1      -3.598   3.332  -4.724  1.00  0.00     0.010 A 
ATOM     36  C   UNL     1      -4.173   2.440  -3.801  1.00  0.00    -0.014 A 
BRANCH  36  37
ATOM     37  C   UNL     1      -5.648   2.390  -3.643  1.00  0.00     0.031 A 
ATOM     38  C   UNL     1      -6.457   1.683  -4.693  1.00  0.00     0.074 A 
ATOM     39  C   UNL     1      -6.259   2.976  -2.599  1.00  0.00     0.049 A 
ATOM     40  N   UNL     1      -7.755   1.573  -4.804  1.00  0.00    -0.248 NA
ATOM     41  C   UNL     1      -5.700   1.036  -5.777  1.00  0.00     0.031 C 
ATOM     42  C   UNL     1      -5.580   3.701  -1.530  1.00  0.00     0.029 A 
ATOM     43  N   UNL     1      -7.590   3.058  -2.270  1.00  0.00    -0.354 N 
ATOM     44  C   UNL     1      -7.973   0.879  -5.988  1.00  0.00     0.074 A 
ATOM     45  C   UNL     1      -6.675   0.599  -6.562  1.00  0.00     0.031 C 
ATOM     46  C   UNL     1      -6.497   4.138  -0.650  1.00  0.00     0.029 A 
ATOM     47  C   UNL     1      -7.831   3.752  -1.107  1.00  0.00     0.049 A 
ATOM     48  H   UNL     1      -8.305   2.657  -2.816  1.00  0.00     0.167 HD
ATOM     49  C   UNL     1      -9.151   0.520  -6.551  1.00  0.00     0.037 A 
ATOM     50  C   UNL     1      -8.996   4.050  -0.495  1.00  0.00     0.037 A 
ATOM     51  C   UNL     1     -10.440   0.802  -5.974  1.00  0.00     0.049 A 
ATOM     52  C   UNL     1     -10.296   3.637  -1.145  1.00  0.00     0.074 A 
ATOM     53  C   UNL     1     -11.690   0.460  -6.459  1.00  0.00     0.029 A 
ATOM     54  N   UNL     1     -10.647   1.499  -4.793  1.00  0.00    -0.354 N 
ATOM     55  N   UNL     1     -10.490   2.958  -2.251  1.00  0.00    -0.248 NA
ATOM     56  C   UNL     1     -11.537   4.054  -0.475  1.00  0.00     0.031 C 
ATOM     57  C   UNL     1     -12.654   1.001  -5.602  1.00  0.00     0.029 A 
ATOM     58  C   UNL     1     -12.005   1.620  -4.546  1.00  0.00     0.049 A 
ATOM     59  H   UNL     1      -9.934   1.856  -4.215  1.00  0.00     0.167 HD
ATOM     60  C   UNL     1     -11.871   2.855  -2.400  1.00  0.00     0.074 A 
ATOM     61  C   UNL     1     -12.463   3.517  -1.257  1.00  0.00     0.031 C 
ATOM     62  C   UNL     1     -12.584   2.274  -3.398  1.00  0.00     0.037 A 
BRANCH  49  63
ATOM     63  C   UNL     1      -9.103  -0.179  -7.881  1.00  0.00     0.058 A 
ATOM     64  C   UNL     1      -8.633  -1.496  -8.014  1.00  0.00     0.135 A 
ATOM     65  C   UNL     1      -9.566   0.471  -9.038  1.00  0.00     0.135 A 
ATOM     66  F   UNL     1      -8.159  -2.156  -6.946  1.00  0.00    -0.206 F 
ATOM     67  C   UNL     1      -8.603  -2.134  -9.250  1.00  0.00     0.059 A 
ATOM     68  C   UNL     1      -9.574  -0.160 -10.278  1.00  0.00     0.059 A 
ATOM     69  F   UNL     1     -10.020   1.732  -8.968  1.00  0.00    -0.206 F 
ATOM     70  C   UNL     1      -9.078  -1.458 -10.376  1.00  0.00     0.060 A 
BRANCH  70  71
ATOM     71  S   UNL     1      -9.045  -2.308 -11.968  1.00  0.00     0.124 S 
ATOM     72  O   UNL     1      -7.614  -2.335 -12.254  1.00  0.00    -0.237 OA
ATOM     73  O   UNL     1      -9.652  -3.595 -11.645  1.00  0.00    -0.237 OA
ATOM     74  O   UNL     1      -9.840  -1.442 -12.833  1.00  0.00    -0.744 OA
ENDBRANCH  70  71
ENDBRANCH  49  63
BRANCH  50  75
ATOM     75  C   UNL     1      -9.003   4.781   0.804  1.00  0.00     0.058 A 
ATOM     76  C   UNL     1      -9.474   4.162   1.974  1.00  0.00     0.135 A 
ATOM     77  C   UNL     1      -8.561   6.109   0.906  1.00  0.00     0.135 A 
ATOM     78  F   UNL     1      -9.915   2.895   1.932  1.00  0.00    -0.206 F 
ATOM     79  C   UNL     1      -9.526   4.837   3.189  1.00  0.00     0.059 A 
ATOM     80  C   UNL     1      -8.568   6.793   2.119  1.00  0.00     0.059 A 
ATOM     81  F   UNL     1      -8.098   6.749  -0.178  1.00  0.00    -0.206 F 
ATOM     82  C   UNL     1      -9.066   6.153   3.252  1.00  0.00     0.060 A 
BRANCH  82  83
ATOM     83  S   UNL     1      -9.100   7.003   4.844  1.00  0.00     0.124 S 
ATOM     84  O   UNL     1     -10.528   7.241   5.019  1.00  0.00    -0.237 OA
ATOM     85  O   UNL     1      -8.505   6.009   5.732  1.00  0.00    -0.237 OA
ATOM     86  O   UNL     1      -8.286   8.192   4.609  1.00  0.00    -0.744 OA
ENDBRANCH  82  83
ENDBRANCH  50  75
BRANCH  62  87
ATOM     87  C   UNL     1     -14.087   2.290  -3.289  1.00  0.00     0.058 A 
ATOM     88  C   UNL     1     -14.832   3.469  -3.457  1.00  0.00     0.135 A 
ATOM     89  C   UNL     1     -14.796   1.096  -3.076  1.00  0.00     0.135 A 
ATOM     90  F   UNL     1     -14.208   4.640  -3.659  1.00  0.00    -0.206 F 
ATOM     91  C   UNL     1     -16.223   3.466  -3.393  1.00  0.00     0.059 A 
ATOM     92  C   UNL     1     -16.186   1.065  -3.040  1.00  0.00     0.059 A 
ATOM     93  F   UNL     1     -14.136  -0.063  -2.921  1.00  0.00    -0.206 F 
ATOM     94  C   UNL     1     -16.891   2.258  -3.188  1.00  0.00     0.060 A 
BRANCH  94  95
ATOM     95  S   UNL     1     -18.696   2.264  -3.141  1.00  0.00     0.124 S 
ATOM     96  O   UNL     1     -18.956   2.909  -1.859  1.00  0.00    -0.237 OA
ATOM     97  O   UNL     1     -19.036   3.046  -4.325  1.00  0.00    -0.237 OA
ATOM     98  O   UNL     1     -19.044   0.848  -3.212  1.00  0.00    -0.744 OA
ENDBRANCH  94  95
ENDBRANCH  62  87
ENDBRANCH  36  37
ENDBRANCH  29  31
ENDBRANCH  28  29
ENDBRANCH  27  28
ENDBRANCH  26  27
ENDBRANCH  25  26
ENDBRANCH  24  25
ENDBRANCH   1  24
TORSDOF 24
