REMARK SMILES CC1(C)O[C@@H]2C[C@@H]3[C@H]4CCC5=CC(=O)C=C[C@@]5(C)[C@]4(F)[C@H](O)C[C@]3(C)[C@]2(C(=O)OCCOCCOCCOC(=O)c2ccc(-c3c4nc(c(-c5c(F)cc(S(=O)(=O)[O-])cc5F)c5ccc([nH]5)c(-c5c(F)cc(S(=O)(=O)[O-])cc5F)c5nc(c(-c6c(F)cc(S(=O)(=O)[O-])cc6F)c6ccc3[nH]6)C=C5)C=C4)cc2)O1
REMARK SMILES IDX 34 1 33 2 32 3 31 4 30 5 29 6 27 7 28 8 26 9 1 10 2 11 4 12
REMARK SMILES IDX 107 13 3 14 5 15 6 16 24 17 7 18 23 19 25 20 8 21 21 22 9 23
REMARK SMILES IDX 19 24 10 25 17 26 20 27 11 28 16 29 18 30 12 31 15 32 13 33
REMARK SMILES IDX 14 34 22 35 35 37 36 38 37 39 38 40 39 41 40 42 41 43 42 44
REMARK SMILES IDX 106 45 43 46 105 47 44 48 45 49 46 50 99 51 47 52 104 53
REMARK SMILES IDX 98 54 100 55 48 56 103 57 97 58 96 59 49 61 83 62 62 63
REMARK SMILES IDX 82 64 63 65 66 66 81 67 101 68 64 69 65 70 80 72 102 73
REMARK SMILES IDX 67 74 50 75 51 76 60 77 52 78 53 79 59 80 61 81 54 82 55 83
REMARK SMILES IDX 56 84 57 85 58 86 84 87 85 88 94 89 86 90 87 91 93 92 95 93
REMARK SMILES IDX 88 94 89 95 90 96 91 97 92 98 68 99 69 100 78 101 70 102
REMARK SMILES IDX 71 103 77 104 79 105 72 106 73 107 74 108 75 109 76 110
REMARK H PARENT 22 36 100 60 66 71
REMARK Flexibility Score: inf
ROOT
ATOM      1  C   UNL     1       3.073   1.909   1.604  1.00  0.00     0.188 C 
ENDROOT
BRANCH   1   2
ATOM      2  C   UNL     1       4.151   2.946   1.323  1.00  0.00     0.188 C 
BRANCH   2   3
ATOM      3  O   UNL     1       4.410   3.703   2.497  1.00  0.00    -0.376 OA
BRANCH   3   4
ATOM      4  C   UNL     1       3.628   4.885   2.651  1.00  0.00     0.202 C 
BRANCH   4   5
ATOM      5  C   UNL     1       2.075   4.861   2.601  1.00  0.00     0.261 C 
BRANCH   5   6
ATOM      6  O   UNL     1       1.414   4.193   1.498  1.00  0.00    -0.461 OA
BRANCH   6   7
ATOM      7  C   UNL     1       1.413   4.813   0.294  1.00  0.00     0.341 C 
ATOM      8  O   UNL     1       1.920   5.918   0.143  1.00  0.00    -0.249 OA
BRANCH   7   9
ATOM      9  C   UNL     1       0.807   3.940  -0.858  1.00  0.00     0.200 C 
ATOM     10  C   UNL     1       0.092   0.875   0.720  1.00  0.00     0.075 C 
ATOM     11  C   UNL     1      -0.043   1.726  -0.543  1.00  0.00     0.165 C 
ATOM     12  O   UNL     1      -1.153   2.614  -0.413  1.00  0.00    -0.344 OA
ATOM     13  O   UNL     1       1.158   2.518  -0.763  1.00  0.00    -0.329 OA
ATOM     14  C   UNL     1      -0.315   0.685  -1.666  1.00  0.00     0.075 C 
ATOM     15  C   UNL     1      -0.747   3.866  -0.990  1.00  0.00     0.166 C 
ATOM     16  C   UNL     1      -1.071   3.843  -2.557  1.00  0.00     0.040 C 
ATOM     17  C   UNL     1       1.205   4.585  -2.288  1.00  0.00     0.016 C 
ATOM     18  C   UNL     1       0.338   3.654  -3.159  1.00  0.00     0.008 C 
ATOM     19  C   UNL     1       2.681   4.668  -2.725  1.00  0.00     0.046 C 
ATOM     20  C   UNL     1       0.687   6.069  -2.356  1.00  0.00     0.015 C 
ATOM     21  C   UNL     1       0.917   2.760  -4.279  1.00  0.00     0.035 C 
ATOM     22  C   UNL     1       3.235   3.503  -3.528  1.00  0.00     0.154 C 
ATOM     23  C   UNL     1      -0.032   2.387  -5.407  1.00  0.00     0.012 C 
ATOM     24  C   UNL     1       2.329   3.130  -4.750  1.00  0.00     0.152 C 
ATOM     25  C   UNL     1       0.499   1.113  -6.072  1.00  0.00     0.032 C 
ATOM     26  C   UNL     1       2.925   1.965  -5.657  1.00  0.00     0.044 C 
ATOM     27  F   UNL     1       2.187   4.258  -5.520  1.00  0.00    -0.239 F 
ATOM     28  C   UNL     1       1.908   1.266  -6.565  1.00  0.00    -0.053 C 
ATOM     29  C   UNL     1       4.054   2.476  -6.531  1.00  0.00    -0.009 C 
ATOM     30  C   UNL     1       3.553   0.832  -4.783  1.00  0.00     0.024 C 
ATOM     31  C   UNL     1       2.305   0.674  -7.710  1.00  0.00     0.052 C 
ATOM     32  C   UNL     1       4.610   1.679  -7.455  1.00  0.00     0.048 C 
ATOM     33  C   UNL     1       3.739   0.676  -8.108  1.00  0.00     0.178 C 
ATOM     34  O   UNL     1       4.144  -0.061  -8.995  1.00  0.00    -0.290 OA
BRANCH  22  35
ATOM     35  O   UNL     1       3.426   2.447  -2.587  1.00  0.00    -0.390 OA
ATOM     36  H   UNL     1       2.580   2.233  -2.165  1.00  0.00     0.211 HD
ENDBRANCH  22  35
ENDBRANCH   7   9
ENDBRANCH   6   7
ENDBRANCH   5   6
ENDBRANCH   4   5
ENDBRANCH   3   4
ENDBRANCH   2   3
ENDBRANCH   1   2
BRANCH   1  37
ATOM     37  O   UNL     1       2.584   1.974   2.930  1.00  0.00    -0.376 OA
BRANCH  37  38
ATOM     38  C   UNL     1       3.051   1.004   3.843  1.00  0.00     0.202 C 
BRANCH  38  39
ATOM     39  C   UNL     1       4.535   0.595   3.876  1.00  0.00     0.261 C 
BRANCH  39  40
ATOM     40  O   UNL     1       5.225   0.412   2.626  1.00  0.00    -0.460 OA
BRANCH  40  41
ATOM     41  C   UNL     1       4.922  -0.665   1.873  1.00  0.00     0.338 C 
ATOM     42  O   UNL     1       4.089  -1.530   2.141  1.00  0.00    -0.246 OA
BRANCH  41  43
ATOM     43  C   UNL     1       5.592  -0.512   0.558  1.00  0.00     0.060 A 
ATOM     44  C   UNL     1       4.819  -0.510  -0.609  1.00  0.00     0.016 A 
ATOM     45  C   UNL     1       6.980  -0.358   0.469  1.00  0.00     0.016 A 
ATOM     46  C   UNL     1       5.434  -0.385  -1.859  1.00  0.00     0.010 A 
ATOM     47  C   UNL     1       7.593  -0.242  -0.789  1.00  0.00     0.010 A 
ATOM     48  C   UNL     1       6.827  -0.270  -1.967  1.00  0.00    -0.014 A 
BRANCH  48  49
ATOM     49  C   UNL     1       7.486  -0.380  -3.299  1.00  0.00     0.031 A 
ATOM     50  C   UNL     1       7.895  -1.749  -3.779  1.00  0.00     0.074 A 
ATOM     51  C   UNL     1       7.705   0.687  -4.092  1.00  0.00     0.049 A 
ATOM     52  N   UNL     1       8.553  -2.091  -4.856  1.00  0.00    -0.248 NA
ATOM     53  C   UNL     1       7.503  -2.881  -2.925  1.00  0.00     0.031 C 
ATOM     54  C   UNL     1       7.301   2.060  -3.798  1.00  0.00     0.029 A 
ATOM     55  N   UNL     1       8.328   0.779  -5.317  1.00  0.00    -0.354 N 
ATOM     56  C   UNL     1       8.657  -3.477  -4.810  1.00  0.00     0.074 A 
ATOM     57  C   UNL     1       8.010  -3.908  -3.589  1.00  0.00     0.031 C 
ATOM     58  C   UNL     1       7.691   2.858  -4.810  1.00  0.00     0.029 A 
ATOM     59  C   UNL     1       8.419   2.064  -5.802  1.00  0.00     0.049 A 
ATOM     60  H   UNL     1       8.677  -0.003  -5.801  1.00  0.00     0.167 HD
ATOM     61  C   UNL     1       9.241  -4.317  -5.697  1.00  0.00     0.037 A 
ATOM     62  C   UNL     1       9.044   2.549  -6.898  1.00  0.00     0.037 A 
ATOM     63  C   UNL     1       9.909  -3.896  -6.901  1.00  0.00     0.049 A 
ATOM     64  C   UNL     1       9.791   1.604  -7.814  1.00  0.00     0.074 A 
ATOM     65  C   UNL     1      10.558  -4.677  -7.841  1.00  0.00     0.029 A 
ATOM     66  N   UNL     1      10.024  -2.582  -7.328  1.00  0.00    -0.354 N 
ATOM     67  N   UNL     1       9.902   0.299  -7.746  1.00  0.00    -0.248 NA
ATOM     68  C   UNL     1      10.510   2.203  -8.952  1.00  0.00     0.031 C 
ATOM     69  C   UNL     1      11.117  -3.832  -8.804  1.00  0.00     0.029 A 
ATOM     70  C   UNL     1      10.758  -2.528  -8.502  1.00  0.00     0.049 A 
ATOM     71  H   UNL     1       9.640  -1.802  -6.866  1.00  0.00     0.167 HD
ATOM     72  C   UNL     1      10.666  -0.080  -8.849  1.00  0.00     0.074 A 
ATOM     73  C   UNL     1      10.988   1.131  -9.570  1.00  0.00     0.031 C 
ATOM     74  C   UNL     1      11.063  -1.321  -9.229  1.00  0.00     0.037 A 
BRANCH  61  75
ATOM     75  C   UNL     1       9.230  -5.784  -5.367  1.00  0.00     0.058 A 
ATOM     76  C   UNL     1       8.055  -6.550  -5.427  1.00  0.00     0.135 A 
ATOM     77  C   UNL     1      10.420  -6.436  -5.003  1.00  0.00     0.135 A 
ATOM     78  F   UNL     1       6.886  -5.971  -5.745  1.00  0.00    -0.206 F 
ATOM     79  C   UNL     1       8.055  -7.904  -5.111  1.00  0.00     0.059 A 
ATOM     80  C   UNL     1      10.448  -7.796  -4.713  1.00  0.00     0.059 A 
ATOM     81  F   UNL     1      11.571  -5.750  -4.925  1.00  0.00    -0.206 F 
ATOM     82  C   UNL     1       9.257  -8.518  -4.754  1.00  0.00     0.060 A 
BRANCH  82  83
ATOM     83  S   UNL     1       9.238 -10.274  -4.339  1.00  0.00     0.124 S 
ATOM     84  O   UNL     1       8.545 -10.262  -3.055  1.00  0.00    -0.237 OA
ATOM     85  O   UNL     1       8.495 -10.850  -5.455  1.00  0.00    -0.237 OA
ATOM     86  O   UNL     1      10.653 -10.627  -4.284  1.00  0.00    -0.744 OA
ENDBRANCH  82  83
ENDBRANCH  61  75
BRANCH  62  87
ATOM     87  C   UNL     1       9.039   4.012  -7.189  1.00  0.00     0.058 A 
ATOM     88  C   UNL     1       8.409   4.526  -8.334  1.00  0.00     0.135 A 
ATOM     89  C   UNL     1       9.709   4.923  -6.356  1.00  0.00     0.135 A 
ATOM     90  F   UNL     1       7.769   3.697  -9.174  1.00  0.00    -0.206 F 
ATOM     91  C   UNL     1       8.461   5.880  -8.654  1.00  0.00     0.059 A 
ATOM     92  C   UNL     1       9.748   6.285  -6.636  1.00  0.00     0.059 A 
ATOM     93  F   UNL     1      10.328   4.489  -5.247  1.00  0.00    -0.206 F 
ATOM     94  C   UNL     1       9.132   6.753  -7.796  1.00  0.00     0.060 A 
BRANCH  94  95
ATOM     95  S   UNL     1       9.161   8.514  -8.197  1.00  0.00     0.124 S 
ATOM     96  O   UNL     1      10.070   8.543  -9.336  1.00  0.00    -0.237 OA
ATOM     97  O   UNL     1       7.757   8.783  -8.491  1.00  0.00    -0.237 OA
ATOM     98  O   UNL     1       9.665   9.128  -6.972  1.00  0.00    -0.744 OA
ENDBRANCH  94  95
ENDBRANCH  62  87
BRANCH  74  99
ATOM     99  C   UNL     1      11.849  -1.457 -10.510  1.00  0.00     0.058 A 
ATOM    100  C   UNL     1      13.180  -1.024 -10.620  1.00  0.00     0.135 A 
ATOM    101  C   UNL     1      11.281  -2.100 -11.624  1.00  0.00     0.135 A 
ATOM    102  F   UNL     1      13.775  -0.401  -9.591  1.00  0.00    -0.206 F 
ATOM    103  C   UNL     1      13.912  -1.207 -11.791  1.00  0.00     0.059 A 
ATOM    104  C   UNL     1      12.003  -2.320 -12.794  1.00  0.00     0.059 A 
ATOM    105  F   UNL     1      10.016  -2.547 -11.574  1.00  0.00    -0.206 F 
ATOM    106  C   UNL     1      13.317  -1.861 -12.872  1.00  0.00     0.060 A 
BRANCH 106 107
ATOM    107  S   UNL     1      14.294  -2.131 -14.367  1.00  0.00     0.124 S 
ATOM    108  O   UNL     1      14.382  -0.781 -14.912  1.00  0.00    -0.237 OA
ATOM    109  O   UNL     1      15.536  -2.681 -13.832  1.00  0.00    -0.237 OA
ATOM    110  O   UNL     1      13.483  -3.068 -15.141  1.00  0.00    -0.744 OA
ENDBRANCH 106 107
ENDBRANCH  74  99
ENDBRANCH  48  49
ENDBRANCH  41  43
ENDBRANCH  40  41
ENDBRANCH  39  40
ENDBRANCH  38  39
ENDBRANCH  37  38
ENDBRANCH   1  37
TORSDOF 21
