REMARK SMILES O=C(CCc1cccnc1)Nc1cccc(F)c1C(=O)OCCOCCOCCOC(=O)c1ccc(-c2c3nc(c(-c4c(F)cc(S(=O)(=O)[O-])cc4F)c4ccc([nH]4)c(-c4c(F)cc(S(=O)(=O)[O-])cc4F)c4nc(c(-c5c(F)cc(S(=O)(=O)[O-])cc5F)c5ccc2[nH]5)C=C4)C=C3)cc1
REMARK SMILES IDX 25 1 24 2 23 3 22 4 21 5 19 6 20 7 18 8 12 9 13 10 14 11
REMARK SMILES IDX 16 12 15 13 17 14 11 15 1 16 2 17 3 19 4 20 5 21 6 22 10 23
REMARK SMILES IDX 7 24 9 25 8 26 26 27 27 28 28 29 29 30 30 31 31 32 32 33
REMARK SMILES IDX 33 34 34 35 98 36 35 37 97 38 36 39 37 40 38 41 91 42 39 43
REMARK SMILES IDX 96 44 90 45 92 46 40 47 95 48 89 49 88 50 41 52 75 53 54 54
REMARK SMILES IDX 74 55 55 56 58 57 73 58 93 59 56 60 57 61 72 63 94 64 59 65
REMARK SMILES IDX 42 66 43 67 52 68 44 69 45 70 51 71 53 72 46 73 47 74 48 75
REMARK SMILES IDX 49 76 50 77 76 78 77 79 86 80 78 81 79 82 85 83 87 84 80 85
REMARK SMILES IDX 81 86 82 87 83 88 84 89 60 90 61 91 70 92 62 93 63 94 69 95
REMARK SMILES IDX 71 96 64 97 65 98 66 99 67 100 68 101
REMARK H PARENT 11 18 92 51 58 62
REMARK Flexibility Score: inf
ROOT
ATOM      1  C   UNL     1       4.898   1.205  -4.323  1.00  0.00     0.188 C 
ENDROOT
BRANCH   1   2
ATOM      2  O   UNL     1       5.987   0.311  -4.488  1.00  0.00    -0.376 OA
BRANCH   2   3
ATOM      3  C   UNL     1       5.673  -1.086  -4.423  1.00  0.00     0.202 C 
BRANCH   3   4
ATOM      4  C   UNL     1       4.559  -1.602  -5.359  1.00  0.00     0.261 C 
BRANCH   4   5
ATOM      5  O   UNL     1       3.271  -0.982  -5.164  1.00  0.00    -0.460 OA
BRANCH   5   6
ATOM      6  C   UNL     1       2.709  -1.061  -3.938  1.00  0.00     0.343 C 
ATOM      7  O   UNL     1       3.031  -1.864  -3.075  1.00  0.00    -0.246 OA
BRANCH   6   8
ATOM      8  C   UNL     1       1.838   0.129  -3.675  1.00  0.00     0.119 A 
ATOM      9  C   UNL     1       1.613   0.554  -2.344  1.00  0.00     0.058 A 
ATOM     10  C   UNL     1       0.907   1.748  -2.119  1.00  0.00     0.027 A 
ATOM     11  C   UNL     1       0.430   2.518  -3.181  1.00  0.00     0.005 A 
ATOM     12  C   UNL     1       1.331   0.907  -4.726  1.00  0.00     0.139 A 
ATOM     13  C   UNL     1       0.642   2.095  -4.486  1.00  0.00     0.040 A 
ATOM     14  F   UNL     1       1.519   0.561  -6.008  1.00  0.00    -0.206 F 
BRANCH   9  15
ATOM     15  N   UNL     1       2.169  -0.183  -1.268  1.00  0.00    -0.325 N 
ATOM     16  O   UNL     1       0.891   0.561   0.498  1.00  0.00    -0.275 OA
ATOM     17  C   UNL     1       1.840  -0.090   0.063  1.00  0.00     0.224 C 
ATOM     18  H   UNL     1       2.869  -0.835  -1.501  1.00  0.00     0.169 HD
BRANCH  17  19
ATOM     19  C   UNL     1       2.766  -0.802   1.038  1.00  0.00     0.105 C 
BRANCH  19  20
ATOM     20  C   UNL     1       3.696  -1.901   0.522  1.00  0.00     0.047 C 
BRANCH  20  21
ATOM     21  C   UNL     1       4.986  -1.505  -0.161  1.00  0.00    -0.029 A 
ATOM     22  C   UNL     1       5.407  -0.194  -0.375  1.00  0.00     0.007 A 
ATOM     23  C   UNL     1       5.854  -2.512  -0.590  1.00  0.00     0.114 A 
ATOM     24  C   UNL     1       6.658   0.050  -0.936  1.00  0.00     0.020 A 
ATOM     25  N   UNL     1       7.063  -2.304  -1.167  1.00  0.00    -0.264 NA
ATOM     26  C   UNL     1       7.447  -1.021  -1.306  1.00  0.00     0.111 A 
ENDBRANCH  20  21
ENDBRANCH  19  20
ENDBRANCH  17  19
ENDBRANCH   9  15
ENDBRANCH   6   8
ENDBRANCH   5   6
ENDBRANCH   4   5
ENDBRANCH   3   4
ENDBRANCH   2   3
ENDBRANCH   1   2
BRANCH   1  27
ATOM     27  C   UNL     1       5.210   2.680  -4.553  1.00  0.00     0.188 C 
BRANCH  27  28
ATOM     28  O   UNL     1       5.948   3.003  -5.725  1.00  0.00    -0.376 OA
BRANCH  28  29
ATOM     29  C   UNL     1       7.233   2.404  -5.853  1.00  0.00     0.202 C 
BRANCH  29  30
ATOM     30  C   UNL     1       8.316   2.788  -4.828  1.00  0.00     0.261 C 
BRANCH  30  31
ATOM     31  O   UNL     1       7.946   2.730  -3.436  1.00  0.00    -0.460 OA
BRANCH  31  32
ATOM     32  C   UNL     1       7.731   3.939  -2.846  1.00  0.00     0.338 C 
ATOM     33  O   UNL     1       7.760   5.033  -3.374  1.00  0.00    -0.246 OA
BRANCH  32  34
ATOM     34  C   UNL     1       7.349   3.748  -1.430  1.00  0.00     0.060 A 
ATOM     35  C   UNL     1       6.019   3.940  -1.028  1.00  0.00     0.016 A 
ATOM     36  C   UNL     1       8.334   3.464  -0.482  1.00  0.00     0.016 A 
ATOM     37  C   UNL     1       5.677   3.865   0.327  1.00  0.00     0.010 A 
ATOM     38  C   UNL     1       7.989   3.393   0.873  1.00  0.00     0.010 A 
ATOM     39  C   UNL     1       6.666   3.626   1.292  1.00  0.00    -0.014 A 
BRANCH  39  40
ATOM     40  C   UNL     1       6.361   3.802   2.740  1.00  0.00     0.031 A 
ATOM     41  C   UNL     1       6.758   5.088   3.407  1.00  0.00     0.074 A 
ATOM     42  C   UNL     1       5.737   2.850   3.458  1.00  0.00     0.049 A 
ATOM     43  N   UNL     1       6.632   5.439   4.659  1.00  0.00    -0.248 NA
ATOM     44  C   UNL     1       7.400   6.101   2.555  1.00  0.00     0.031 C 
ATOM     45  C   UNL     1       5.316   1.560   2.933  1.00  0.00     0.029 A 
ATOM     46  N   UNL     1       5.350   2.811   4.777  1.00  0.00    -0.354 N 
ATOM     47  C   UNL     1       7.189   6.707   4.751  1.00  0.00     0.074 A 
ATOM     48  C   UNL     1       7.685   7.050   3.435  1.00  0.00     0.031 C 
ATOM     49  C   UNL     1       4.700   0.864   3.901  1.00  0.00     0.029 A 
ATOM     50  C   UNL     1       4.723   1.639   5.137  1.00  0.00     0.049 A 
ATOM     51  H   UNL     1       5.507   3.552   5.405  1.00  0.00     0.167 HD
ATOM     52  C   UNL     1       7.271   7.516   5.832  1.00  0.00     0.037 A 
ATOM     53  C   UNL     1       4.240   1.223   6.327  1.00  0.00     0.037 A 
ATOM     54  C   UNL     1       6.778   7.171   7.140  1.00  0.00     0.049 A 
ATOM     55  C   UNL     1       4.378   2.125   7.524  1.00  0.00     0.074 A 
ATOM     56  C   UNL     1       6.809   7.933   8.295  1.00  0.00     0.029 A 
ATOM     57  N   UNL     1       6.169   5.969   7.471  1.00  0.00    -0.354 N 
ATOM     58  N   UNL     1       4.898   3.328   7.590  1.00  0.00    -0.248 NA
ATOM     59  C   UNL     1       3.881   1.614   8.809  1.00  0.00     0.031 C 
ATOM     60  C   UNL     1       6.268   7.172   9.335  1.00  0.00     0.029 A 
ATOM     61  C   UNL     1       5.841   5.960   8.817  1.00  0.00     0.049 A 
ATOM     62  H   UNL     1       5.997   5.231   6.843  1.00  0.00     0.167 HD
ATOM     63  C   UNL     1       4.776   3.723   8.918  1.00  0.00     0.074 A 
ATOM     64  C   UNL     1       4.115   2.640   9.617  1.00  0.00     0.031 C 
ATOM     65  C   UNL     1       5.182   4.876   9.505  1.00  0.00     0.037 A 
BRANCH  52  66
ATOM     66  C   UNL     1       7.933   8.852   5.650  1.00  0.00     0.058 A 
ATOM     67  C   UNL     1       9.173   9.120   6.252  1.00  0.00     0.135 A 
ATOM     68  C   UNL     1       7.321   9.884   4.920  1.00  0.00     0.135 A 
ATOM     69  F   UNL     1       9.807   8.165   6.949  1.00  0.00    -0.206 F 
ATOM     70  C   UNL     1       9.773  10.370   6.153  1.00  0.00     0.059 A 
ATOM     71  C   UNL     1       7.918  11.133   4.784  1.00  0.00     0.059 A 
ATOM     72  F   UNL     1       6.149   9.670   4.301  1.00  0.00    -0.206 F 
ATOM     73  C   UNL     1       9.137  11.371   5.418  1.00  0.00     0.060 A 
BRANCH  73  74
ATOM     74  S   UNL     1       9.942  12.980   5.282  1.00  0.00     0.124 S 
ATOM     75  O   UNL     1       9.839  13.483   6.647  1.00  0.00    -0.237 OA
ATOM     76  O   UNL     1      11.283  12.613   4.837  1.00  0.00    -0.237 OA
ATOM     77  O   UNL     1       9.132  13.681   4.290  1.00  0.00    -0.744 OA
ENDBRANCH  73  74
ENDBRANCH  52  66
BRANCH  53  78
ATOM     78  C   UNL     1       3.582  -0.110   6.446  1.00  0.00     0.058 A 
ATOM     79  C   UNL     1       4.306  -1.302   6.279  1.00  0.00     0.135 A 
ATOM     80  C   UNL     1       2.208  -0.219   6.712  1.00  0.00     0.135 A 
ATOM     81  F   UNL     1       5.622  -1.260   6.020  1.00  0.00    -0.206 F 
ATOM     82  C   UNL     1       3.687  -2.546   6.334  1.00  0.00     0.059 A 
ATOM     83  C   UNL     1       1.571  -1.455   6.803  1.00  0.00     0.059 A 
ATOM     84  F   UNL     1       1.474   0.888   6.904  1.00  0.00    -0.206 F 
ATOM     85  C   UNL     1       2.318  -2.613   6.591  1.00  0.00     0.060 A 
BRANCH  85  86
ATOM     86  S   UNL     1       1.534  -4.239   6.630  1.00  0.00     0.124 S 
ATOM     87  O   UNL     1       1.637  -4.642   5.230  1.00  0.00    -0.237 OA
ATOM     88  O   UNL     1       2.387  -4.967   7.564  1.00  0.00    -0.237 OA
ATOM     89  O   UNL     1       0.184  -3.955   7.104  1.00  0.00    -0.744 OA
ENDBRANCH  85  86
ENDBRANCH  53  78
BRANCH  65  90
ATOM     90  C   UNL     1       4.906   5.049  10.974  1.00  0.00     0.058 A 
ATOM     91  C   UNL     1       3.974   6.003  11.414  1.00  0.00     0.135 A 
ATOM     92  C   UNL     1       5.612   4.326  11.948  1.00  0.00     0.135 A 
ATOM     93  F   UNL     1       3.276   6.728  10.525  1.00  0.00    -0.206 F 
ATOM     94  C   UNL     1       3.763   6.245  12.767  1.00  0.00     0.059 A 
ATOM     95  C   UNL     1       5.394   4.530  13.309  1.00  0.00     0.059 A 
ATOM     96  F   UNL     1       6.507   3.395  11.582  1.00  0.00    -0.206 F 
ATOM     97  C   UNL     1       4.478   5.503  13.707  1.00  0.00     0.060 A 
BRANCH  97  98
ATOM     98  S   UNL     1       4.172   5.815  15.459  1.00  0.00     0.124 S 
ATOM     99  O   UNL     1       4.760   7.139  15.634  1.00  0.00    -0.237 OA
ATOM    100  O   UNL     1       2.716   5.752  15.533  1.00  0.00    -0.237 OA
ATOM    101  O   UNL     1       4.874   4.723  16.126  1.00  0.00    -0.744 OA
ENDBRANCH  97  98
ENDBRANCH  65  90
ENDBRANCH  39  40
ENDBRANCH  32  34
ENDBRANCH  31  32
ENDBRANCH  30  31
ENDBRANCH  29  30
ENDBRANCH  28  29
ENDBRANCH  27  28
ENDBRANCH   1  27
TORSDOF 24
