REMARK SMILES O=C(CN(c1ccccc1)[C@@H]1CCO[C@]2(CCSC2)C1)OCCOCCOCCOC(=O)c1ccc(-c2c3nc(c(-c4c(F)cc(S(=O)(=O)[O-])cc4F)c4ccc([nH]4)c(-c4c(F)cc(S(=O)(=O)[O-])cc4F)c4nc(c(-c5c(F)cc(S(=O)(=O)[O-])cc5F)c5ccc2[nH]5)C=C4)C=C3)cc1
REMARK SMILES IDX 26 1 25 2 24 3 23 4 22 5 21 6 2 7 1 8 3 9 4 10 5 11 6 12
REMARK SMILES IDX 10 13 7 14 9 15 8 16 11 17 12 18 20 19 13 20 15 21 14 22
REMARK SMILES IDX 16 23 19 24 17 25 18 26 27 27 28 28 29 29 30 30 31 31 32 32
REMARK SMILES IDX 33 33 34 34 98 35 35 36 97 37 36 38 37 39 38 40 91 41 39 42
REMARK SMILES IDX 96 43 90 44 92 45 40 46 95 47 89 48 88 49 41 51 75 52 54 53
REMARK SMILES IDX 74 54 55 55 58 56 73 57 93 58 56 59 57 60 72 62 94 63 59 64
REMARK SMILES IDX 42 65 43 66 52 67 44 68 45 69 51 70 53 71 46 72 47 73 48 74
REMARK SMILES IDX 49 75 50 76 76 77 77 78 86 79 78 80 79 81 85 82 87 83 80 84
REMARK SMILES IDX 81 85 82 86 83 87 84 88 60 89 61 90 70 91 62 92 63 93 69 94
REMARK SMILES IDX 71 95 64 96 65 97 66 98 67 99 68 100
REMARK H PARENT 92 50 58 61
REMARK Flexibility Score: inf
ROOT
ATOM      1  C   UNL     1       2.186  -1.937  -3.050  1.00  0.00     0.188 C 
ENDROOT
BRANCH   1   2
ATOM      2  C   UNL     1       2.528  -0.911  -1.970  1.00  0.00     0.188 C 
BRANCH   2   3
ATOM      3  O   UNL     1       3.883  -0.571  -1.755  1.00  0.00    -0.376 OA
BRANCH   3   4
ATOM      4  C   UNL     1       4.627  -1.250  -0.752  1.00  0.00     0.202 C 
BRANCH   4   5
ATOM      5  C   UNL     1       4.051  -1.505   0.646  1.00  0.00     0.261 C 
BRANCH   5   6
ATOM      6  O   UNL     1       2.763  -0.997   1.016  1.00  0.00    -0.462 OA
BRANCH   6   7
ATOM      7  C   UNL     1       2.349   0.280   1.117  1.00  0.00     0.325 C 
ATOM      8  O   UNL     1       1.234   0.493   1.595  1.00  0.00    -0.250 OA
BRANCH   7   9
ATOM      9  C   UNL     1       3.224   1.421   0.617  1.00  0.00     0.239 C 
BRANCH   9  10
ATOM     10  N   UNL     1       4.264   1.861   1.576  1.00  0.00    -0.357 N 
BRANCH  10  11
ATOM     11  C   UNL     1       5.563   1.652   1.140  1.00  0.00     0.037 A 
ATOM     12  C   UNL     1       6.480   0.850   1.827  1.00  0.00     0.026 A 
ATOM     13  C   UNL     1       5.995   2.234  -0.067  1.00  0.00     0.026 A 
ATOM     14  C   UNL     1       7.783   0.661   1.347  1.00  0.00     0.002 A 
ATOM     15  C   UNL     1       7.293   2.056  -0.549  1.00  0.00     0.002 A 
ATOM     16  C   UNL     1       8.191   1.271   0.164  1.00  0.00     0.000 A 
ENDBRANCH  10  11
BRANCH  10  17
ATOM     17  C   UNL     1       3.846   2.171   2.968  1.00  0.00     0.088 C 
ATOM     18  C   UNL     1       2.615   3.100   3.003  1.00  0.00     0.053 C 
ATOM     19  C   UNL     1       4.919   2.794   3.882  1.00  0.00     0.061 C 
ATOM     20  C   UNL     1       3.007   4.528   2.674  1.00  0.00     0.163 C 
ATOM     21  C   UNL     1       5.156   4.315   3.719  1.00  0.00     0.080 C 
ATOM     22  O   UNL     1       3.903   5.006   3.668  1.00  0.00    -0.374 OA
ATOM     23  C   UNL     1       6.047   4.747   2.546  1.00  0.00     0.047 C 
ATOM     24  C   UNL     1       5.918   4.863   4.944  1.00  0.00     0.105 C 
ATOM     25  C   UNL     1       7.481   4.343   2.844  1.00  0.00     0.072 C 
ATOM     26  S   UNL     1       7.684   4.553   4.633  1.00  0.00    -0.159 SA
ENDBRANCH  10  17
ENDBRANCH   9  10
ENDBRANCH   7   9
ENDBRANCH   6   7
ENDBRANCH   5   6
ENDBRANCH   4   5
ENDBRANCH   3   4
ENDBRANCH   2   3
ENDBRANCH   1   2
BRANCH   1  27
ATOM     27  O   UNL     1       3.125  -2.958  -3.323  1.00  0.00    -0.376 OA
BRANCH  27  28
ATOM     28  C   UNL     1       4.357  -2.582  -3.936  1.00  0.00     0.202 C 
BRANCH  28  29
ATOM     29  C   UNL     1       4.349  -1.641  -5.147  1.00  0.00     0.261 C 
BRANCH  29  30
ATOM     30  O   UNL     1       3.969  -0.285  -4.830  1.00  0.00    -0.460 OA
BRANCH  30  31
ATOM     31  C   UNL     1       2.931   0.205  -5.534  1.00  0.00     0.338 C 
ATOM     32  O   UNL     1       2.245  -0.412  -6.363  1.00  0.00    -0.246 OA
BRANCH  31  33
ATOM     33  C   UNL     1       2.609   1.584  -5.154  1.00  0.00     0.060 A 
ATOM     34  C   UNL     1       1.369   1.847  -4.557  1.00  0.00     0.016 A 
ATOM     35  C   UNL     1       3.432   2.634  -5.566  1.00  0.00     0.016 A 
ATOM     36  C   UNL     1       0.931   3.165  -4.408  1.00  0.00     0.010 A 
ATOM     37  C   UNL     1       2.985   3.953  -5.427  1.00  0.00     0.010 A 
ATOM     38  C   UNL     1       1.715   4.225  -4.884  1.00  0.00    -0.014 A 
BRANCH  38  39
ATOM     39  C   UNL     1       1.148   5.596  -4.965  1.00  0.00     0.031 A 
ATOM     40  C   UNL     1       0.570   6.075  -6.272  1.00  0.00     0.074 A 
ATOM     41  C   UNL     1       1.141   6.410  -3.893  1.00  0.00     0.049 A 
ATOM     42  N   UNL     1       0.086   7.250  -6.585  1.00  0.00    -0.248 NA
ATOM     43  C   UNL     1       0.533   5.098  -7.372  1.00  0.00     0.031 C 
ATOM     44  C   UNL     1       1.633   6.059  -2.562  1.00  0.00     0.029 A 
ATOM     45  N   UNL     1       0.713   7.708  -3.763  1.00  0.00    -0.354 N 
ATOM     46  C   UNL     1      -0.306   7.158  -7.915  1.00  0.00     0.074 A 
ATOM     47  C   UNL     1       0.014   5.818  -8.358  1.00  0.00     0.031 C 
ATOM     48  C   UNL     1       1.498   7.126  -1.754  1.00  0.00     0.029 A 
ATOM     49  C   UNL     1       0.940   8.242  -2.517  1.00  0.00     0.049 A 
ATOM     50  H   UNL     1       0.285   8.210  -4.494  1.00  0.00     0.167 HD
ATOM     51  C   UNL     1      -0.886   8.101  -8.697  1.00  0.00     0.037 A 
ATOM     52  C   UNL     1       0.744   9.493  -2.053  1.00  0.00     0.037 A 
ATOM     53  C   UNL     1      -1.209   9.434  -8.260  1.00  0.00     0.049 A 
ATOM     54  C   UNL     1       0.161  10.546  -2.962  1.00  0.00     0.074 A 
ATOM     55  C   UNL     1      -1.818  10.450  -8.977  1.00  0.00     0.029 A 
ATOM     56  N   UNL     1      -0.945   9.942  -6.997  1.00  0.00    -0.354 N 
ATOM     57  N   UNL     1      -0.228  10.436  -4.210  1.00  0.00    -0.248 NA
ATOM     58  C   UNL     1      -0.010  11.894  -2.399  1.00  0.00     0.031 C 
ATOM     59  C   UNL     1      -1.882  11.585  -8.163  1.00  0.00     0.029 A 
ATOM     60  C   UNL     1      -1.356  11.263  -6.923  1.00  0.00     0.049 A 
ATOM     61  H   UNL     1      -0.527   9.438  -6.262  1.00  0.00     0.167 HD
ATOM     62  C   UNL     1      -0.715  11.690  -4.570  1.00  0.00     0.074 A 
ATOM     63  C   UNL     1      -0.580  12.541  -3.407  1.00  0.00     0.031 C 
ATOM     64  C   UNL     1      -1.229  12.099  -5.756  1.00  0.00     0.037 A 
BRANCH  51  65
ATOM     65  C   UNL     1      -1.195   7.735 -10.121  1.00  0.00     0.058 A 
ATOM     66  C   UNL     1      -2.267   6.891 -10.449  1.00  0.00     0.135 A 
ATOM     67  C   UNL     1      -0.446   8.284 -11.174  1.00  0.00     0.135 A 
ATOM     68  F   UNL     1      -3.005   6.327  -9.479  1.00  0.00    -0.206 F 
ATOM     69  C   UNL     1      -2.577   6.591 -11.771  1.00  0.00     0.059 A 
ATOM     70  C   UNL     1      -0.752   8.016 -12.505  1.00  0.00     0.059 A 
ATOM     71  F   UNL     1       0.592   9.095 -10.914  1.00  0.00    -0.206 F 
ATOM     72  C   UNL     1      -1.814   7.160 -12.793  1.00  0.00     0.060 A 
BRANCH  72  73
ATOM     73  S   UNL     1      -2.241   6.779 -14.505  1.00  0.00     0.124 S 
ATOM     74  O   UNL     1      -1.770   5.403 -14.623  1.00  0.00    -0.237 OA
ATOM     75  O   UNL     1      -3.690   6.956 -14.513  1.00  0.00    -0.237 OA
ATOM     76  O   UNL     1      -1.489   7.767 -15.272  1.00  0.00    -0.744 OA
ENDBRANCH  72  73
ENDBRANCH  51  65
BRANCH  52  77
ATOM     77  C   UNL     1       1.128   9.839  -0.658  1.00  0.00     0.058 A 
ATOM     78  C   UNL     1       0.156  10.137   0.309  1.00  0.00     0.135 A 
ATOM     79  C   UNL     1       2.476   9.910  -0.274  1.00  0.00     0.135 A 
ATOM     80  F   UNL     1      -1.145  10.095  -0.014  1.00  0.00    -0.206 F 
ATOM     81  C   UNL     1       0.507  10.518   1.600  1.00  0.00     0.059 A 
ATOM     82  C   UNL     1       2.851  10.263   1.018  1.00  0.00     0.059 A 
ATOM     83  F   UNL     1       3.444   9.625  -1.160  1.00  0.00    -0.206 F 
ATOM     84  C   UNL     1       1.858  10.581   1.944  1.00  0.00     0.060 A 
BRANCH  84  85
ATOM     85  S   UNL     1       2.304  11.061   3.627  1.00  0.00     0.124 S 
ATOM     86  O   UNL     1       2.050  12.497   3.597  1.00  0.00    -0.237 OA
ATOM     87  O   UNL     1       1.378  10.266   4.428  1.00  0.00    -0.237 OA
ATOM     88  O   UNL     1       3.706  10.669   3.726  1.00  0.00    -0.744 OA
ENDBRANCH  84  85
ENDBRANCH  52  77
BRANCH  64  89
ATOM     89  C   UNL     1      -1.724  13.517  -5.854  1.00  0.00     0.058 A 
ATOM     90  C   UNL     1      -0.840  14.605  -5.923  1.00  0.00     0.135 A 
ATOM     91  C   UNL     1      -3.100  13.786  -5.936  1.00  0.00     0.135 A 
ATOM     92  F   UNL     1       0.485  14.405  -5.845  1.00  0.00    -0.206 F 
ATOM     93  C   UNL     1      -1.303  15.912  -6.050  1.00  0.00     0.059 A 
ATOM     94  C   UNL     1      -3.585  15.082  -6.088  1.00  0.00     0.059 A 
ATOM     95  F   UNL     1      -3.989  12.782  -5.886  1.00  0.00    -0.206 F 
ATOM     96  C   UNL     1      -2.678  16.140  -6.132  1.00  0.00     0.060 A 
BRANCH  96  97
ATOM     97  S   UNL     1      -3.266  17.836  -6.332  1.00  0.00     0.124 S 
ATOM     98  O   UNL     1      -3.086  18.370  -4.986  1.00  0.00    -0.237 OA
ATOM     99  O   UNL     1      -2.363  18.365  -7.350  1.00  0.00    -0.237 OA
ATOM    100  O   UNL     1      -4.652  17.667  -6.760  1.00  0.00    -0.744 OA
ENDBRANCH  96  97
ENDBRANCH  64  89
ENDBRANCH  38  39
ENDBRANCH  31  33
ENDBRANCH  30  31
ENDBRANCH  29  30
ENDBRANCH  28  29
ENDBRANCH  27  28
ENDBRANCH   1  27
TORSDOF 23
