REMARK SMILES Cc1cccc(NC(=O)COc2ccc(N3C[C@@H](C(=O)OCCOCCOCCOC(=O)c4ccc(-c5c6nc(c(-c7c(F)cc(S(=O)(=O)[O-])cc7F)c7ccc([nH]7)c(-c7c(F)cc(S(=O)(=O)[O-])cc7F)c7nc(c(-c8c(F)cc(S(=O)(=O)[O-])cc8F)c8ccc5[nH]8)C=C7)C=C6)cc4)CC3=O)cc2)c1
REMARK SMILES IDX 25 1 24 2 23 3 22 4 21 5 19 6 20 7 18 8 16 9 17 10 100 11
REMARK SMILES IDX 99 12 101 13 15 14 12 15 13 16 103 17 14 18 102 19 11 20
REMARK SMILES IDX 10 21 8 22 7 23 9 25 6 26 1 27 2 28 3 29 104 30 4 31 5 32
REMARK SMILES IDX 26 33 27 34 28 35 29 36 30 37 31 38 32 39 33 40 34 41 98 42
REMARK SMILES IDX 35 43 97 44 36 45 37 46 38 47 91 48 39 49 96 50 90 51 92 52
REMARK SMILES IDX 40 53 95 54 89 55 88 56 41 58 75 59 54 60 74 61 55 62 58 63
REMARK SMILES IDX 73 64 93 65 56 66 57 67 72 69 94 70 59 71 42 72 43 73 52 74
REMARK SMILES IDX 44 75 45 76 51 77 53 78 46 79 47 80 48 81 49 82 50 83 76 84
REMARK SMILES IDX 77 85 86 86 78 87 79 88 85 89 87 90 80 91 81 92 82 93 83 94
REMARK SMILES IDX 84 95 60 96 61 97 70 98 62 99 63 100 69 101 71 102 64 103
REMARK SMILES IDX 65 104 66 105 67 106 68 107
REMARK H PARENT 7 24 92 57 58 68
REMARK Flexibility Score: inf
ROOT
ATOM      1  C   UNL     1      -6.980   4.155 -13.989  1.00  0.00     0.188 C 
ENDROOT
BRANCH   1   2
ATOM      2  O   UNL     1      -8.023   4.958 -13.461  1.00  0.00    -0.376 OA
BRANCH   2   3
ATOM      3  C   UNL     1      -8.360   4.481 -12.160  1.00  0.00     0.202 C 
BRANCH   3   4
ATOM      4  C   UNL     1      -7.207   4.534 -11.134  1.00  0.00     0.261 C 
BRANCH   4   5
ATOM      5  O   UNL     1      -6.117   3.558 -10.908  1.00  0.00    -0.463 OA
BRANCH   5   6
ATOM      6  C   UNL     1      -6.370   2.401 -10.257  1.00  0.00     0.311 C 
ATOM      7  O   UNL     1      -7.501   1.929 -10.250  1.00  0.00    -0.252 OA
BRANCH   6   8
ATOM      8  C   UNL     1      -5.335   1.637  -9.449  1.00  0.00     0.128 C 
ATOM      9  N   UNL     1      -4.673   1.713  -7.126  1.00  0.00    -0.312 N 
ATOM     10  C   UNL     1      -5.787   1.350  -7.987  1.00  0.00     0.141 C 
ATOM     11  C   UNL     1      -3.614   2.247  -7.865  1.00  0.00     0.227 C 
ATOM     12  C   UNL     1      -3.931   2.168  -9.343  1.00  0.00     0.117 C 
ATOM     13  O   UNL     1      -2.547   2.671  -7.440  1.00  0.00    -0.274 OA
BRANCH   9  14
ATOM     14  C   UNL     1      -4.649   1.535  -5.701  1.00  0.00     0.044 A 
ATOM     15  C   UNL     1      -4.329   1.066  -2.896  1.00  0.00     0.120 A 
ATOM     16  C   UNL     1      -5.050   0.180  -3.701  1.00  0.00     0.048 A 
ATOM     17  C   UNL     1      -3.800   2.209  -3.478  1.00  0.00     0.048 A 
ATOM     18  C   UNL     1      -5.245   0.431  -5.080  1.00  0.00     0.030 A 
ATOM     19  C   UNL     1      -3.944   2.424  -4.867  1.00  0.00     0.030 A 
BRANCH  15  20
ATOM     20  O   UNL     1      -4.067   0.664  -1.614  1.00  0.00    -0.484 OA
BRANCH  20  21
ATOM     21  C   UNL     1      -4.272   1.613  -0.579  1.00  0.00     0.329 C 
BRANCH  21  22
ATOM     22  C   UNL     1      -3.154   2.584  -0.186  1.00  0.00     0.262 C 
ATOM     23  N   UNL     1      -1.859   2.225   0.028  1.00  0.00    -0.323 N 
ATOM     24  H   UNL     1      -1.278   3.001   0.202  1.00  0.00     0.170 HD
ATOM     25  O   UNL     1      -3.412   3.787  -0.030  1.00  0.00    -0.271 OA
BRANCH  23  26
ATOM     26  C   UNL     1      -1.156   1.012   0.060  1.00  0.00     0.041 A 
ATOM     27  C   UNL     1       2.559   0.093  -0.049  1.00  0.00     0.044 C 
ATOM     28  C   UNL     1       1.066  -0.028   0.032  1.00  0.00    -0.049 A 
ATOM     29  C   UNL     1       0.465  -1.287   0.074  1.00  0.00     0.003 A 
ATOM     30  C   UNL     1       0.247   1.111   0.037  1.00  0.00     0.029 A 
ATOM     31  C   UNL     1      -0.923  -1.396   0.137  1.00  0.00     0.002 A 
ATOM     32  C   UNL     1      -1.730  -0.252   0.136  1.00  0.00     0.026 A 
ENDBRANCH  23  26
ENDBRANCH  21  22
ENDBRANCH  20  21
ENDBRANCH  15  20
ENDBRANCH   9  14
ENDBRANCH   6   8
ENDBRANCH   5   6
ENDBRANCH   4   5
ENDBRANCH   3   4
ENDBRANCH   2   3
ENDBRANCH   1   2
BRANCH   1  33
ATOM     33  C   UNL     1      -5.628   4.861 -13.961  1.00  0.00     0.188 C 
BRANCH  33  34
ATOM     34  O   UNL     1      -5.438   5.808 -12.912  1.00  0.00    -0.376 OA
BRANCH  34  35
ATOM     35  C   UNL     1      -6.005   7.100 -13.128  1.00  0.00     0.202 C 
BRANCH  35  36
ATOM     36  C   UNL     1      -4.920   8.110 -12.743  1.00  0.00     0.261 C 
BRANCH  36  37
ATOM     37  O   UNL     1      -4.896   8.272 -11.309  1.00  0.00    -0.460 OA
BRANCH  37  38
ATOM     38  C   UNL     1      -4.233   7.317 -10.600  1.00  0.00     0.338 C 
ATOM     39  O   UNL     1      -3.152   6.834 -10.889  1.00  0.00    -0.246 OA
BRANCH  38  40
ATOM     40  C   UNL     1      -5.135   6.835  -9.504  1.00  0.00     0.060 A 
ATOM     41  C   UNL     1      -4.826   5.650  -8.835  1.00  0.00     0.016 A 
ATOM     42  C   UNL     1      -6.400   7.407  -9.308  1.00  0.00     0.016 A 
ATOM     43  C   UNL     1      -5.841   4.949  -8.163  1.00  0.00     0.010 A 
ATOM     44  C   UNL     1      -7.414   6.677  -8.679  1.00  0.00     0.010 A 
ATOM     45  C   UNL     1      -7.173   5.377  -8.216  1.00  0.00    -0.014 A 
BRANCH  45  46
ATOM     46  C   UNL     1      -8.331   4.556  -7.756  1.00  0.00     0.031 A 
ATOM     47  C   UNL     1      -8.403   4.372  -6.290  1.00  0.00     0.074 A 
ATOM     48  C   UNL     1      -9.352   3.997  -8.494  1.00  0.00     0.049 A 
ATOM     49  N   UNL     1      -9.125   3.481  -5.691  1.00  0.00    -0.248 NA
ATOM     50  C   UNL     1      -7.534   5.117  -5.361  1.00  0.00     0.031 C 
ATOM     51  C   UNL     1     -10.752   3.945  -8.093  1.00  0.00     0.029 A 
ATOM     52  N   UNL     1      -9.402   3.293  -9.712  1.00  0.00    -0.354 N 
ATOM     53  C   UNL     1      -9.230   3.977  -4.414  1.00  0.00     0.074 A 
ATOM     54  C   UNL     1      -7.990   4.658  -4.194  1.00  0.00     0.031 C 
ATOM     55  C   UNL     1     -11.453   3.154  -8.929  1.00  0.00     0.029 A 
ATOM     56  C   UNL     1     -10.539   2.497  -9.858  1.00  0.00     0.049 A 
ATOM     57  H   UNL     1      -8.699   3.357 -10.399  1.00  0.00     0.167 HD
ATOM     58  C   UNL     1     -10.486   4.174  -3.917  1.00  0.00     0.037 A 
ATOM     59  C   UNL     1     -10.620   1.209 -10.353  1.00  0.00     0.037 A 
ATOM     60  C   UNL     1     -11.488   3.362  -4.630  1.00  0.00     0.049 A 
ATOM     61  C   UNL     1     -11.267   0.336  -9.311  1.00  0.00     0.074 A 
ATOM     62  C   UNL     1     -12.673   3.653  -5.286  1.00  0.00     0.029 A 
ATOM     63  N   UNL     1     -11.221   2.019  -4.910  1.00  0.00    -0.354 N 
ATOM     64  N   UNL     1     -11.360   0.725  -8.076  1.00  0.00    -0.248 NA
ATOM     65  C   UNL     1     -11.790  -1.012  -9.505  1.00  0.00     0.031 C 
ATOM     66  C   UNL     1     -13.116   2.481  -5.954  1.00  0.00     0.029 A 
ATOM     67  C   UNL     1     -12.215   1.465  -5.687  1.00  0.00     0.049 A 
ATOM     68  H   UNL     1     -10.425   1.532  -4.595  1.00  0.00     0.167 HD
ATOM     69  C   UNL     1     -11.976  -0.224  -7.327  1.00  0.00     0.074 A 
ATOM     70  C   UNL     1     -12.195  -1.317  -8.256  1.00  0.00     0.031 C 
ATOM     71  C   UNL     1     -12.218   0.040  -6.013  1.00  0.00     0.037 A 
BRANCH  58  72
ATOM     72  C   UNL     1     -10.853   5.333  -2.979  1.00  0.00     0.058 A 
ATOM     73  C   UNL     1     -12.173   5.450  -2.491  1.00  0.00     0.135 A 
ATOM     74  C   UNL     1     -10.014   6.415  -2.604  1.00  0.00     0.135 A 
ATOM     75  F   UNL     1     -13.097   4.515  -2.751  1.00  0.00    -0.206 F 
ATOM     76  C   UNL     1     -12.619   6.535  -1.725  1.00  0.00     0.059 A 
ATOM     77  C   UNL     1     -10.420   7.473  -1.792  1.00  0.00     0.059 A 
ATOM     78  F   UNL     1      -8.758   6.562  -3.033  1.00  0.00    -0.206 F 
ATOM     79  C   UNL     1     -11.730   7.538  -1.367  1.00  0.00     0.060 A 
BRANCH  79  80
ATOM     80  S   UNL     1     -12.277   8.903  -0.333  1.00  0.00     0.124 S 
ATOM     81  O   UNL     1     -13.138   9.646  -1.248  1.00  0.00    -0.237 OA
ATOM     82  O   UNL     1     -12.951   8.212   0.760  1.00  0.00    -0.237 OA
ATOM     83  O   UNL     1     -11.032   9.574   0.033  1.00  0.00    -0.744 OA
ENDBRANCH  79  80
ENDBRANCH  58  72
BRANCH  59  84
ATOM     84  C   UNL     1      -9.685   0.622 -11.386  1.00  0.00     0.058 A 
ATOM     85  C   UNL     1      -9.652   1.146 -12.692  1.00  0.00     0.135 A 
ATOM     86  C   UNL     1      -8.674  -0.312 -11.083  1.00  0.00     0.135 A 
ATOM     87  F   UNL     1     -10.648   1.941 -13.116  1.00  0.00    -0.206 F 
ATOM     88  C   UNL     1      -8.557   0.966 -13.552  1.00  0.00     0.059 A 
ATOM     89  C   UNL     1      -7.556  -0.494 -11.916  1.00  0.00     0.059 A 
ATOM     90  F   UNL     1      -8.660  -0.936  -9.896  1.00  0.00    -0.206 F 
ATOM     91  C   UNL     1      -7.462   0.235 -13.102  1.00  0.00     0.060 A 
BRANCH  91  92
ATOM     92  S   UNL     1      -5.812   0.483 -13.837  1.00  0.00     0.124 S 
ATOM     93  O   UNL     1      -5.445  -0.861 -14.262  1.00  0.00    -0.237 OA
ATOM     94  O   UNL     1      -6.051   1.437 -14.917  1.00  0.00    -0.237 OA
ATOM     95  O   UNL     1      -5.066   1.019 -12.700  1.00  0.00    -0.744 OA
ENDBRANCH  91  92
ENDBRANCH  59  84
BRANCH  71  96
ATOM     96  C   UNL     1     -12.598  -0.942  -4.939  1.00  0.00     0.058 A 
ATOM     97  C   UNL     1     -12.448  -2.333  -5.034  1.00  0.00     0.135 A 
ATOM     98  C   UNL     1     -13.023  -0.462  -3.672  1.00  0.00     0.135 A 
ATOM     99  F   UNL     1     -11.941  -2.917  -6.127  1.00  0.00    -0.206 F 
ATOM    100  C   UNL     1     -12.769  -3.189  -3.979  1.00  0.00     0.059 A 
ATOM    101  C   UNL     1     -13.290  -1.290  -2.594  1.00  0.00     0.059 A 
ATOM    102  F   UNL     1     -13.176   0.845  -3.417  1.00  0.00    -0.206 F 
ATOM    103  C   UNL     1     -13.191  -2.657  -2.765  1.00  0.00     0.060 A 
BRANCH 103 104
ATOM    104  S   UNL     1     -13.566  -3.753  -1.393  1.00  0.00     0.124 S 
ATOM    105  O   UNL     1     -14.926  -4.169  -1.722  1.00  0.00    -0.237 OA
ATOM    106  O   UNL     1     -12.539  -4.782  -1.522  1.00  0.00    -0.237 OA
ATOM    107  O   UNL     1     -13.434  -2.889  -0.224  1.00  0.00    -0.744 OA
ENDBRANCH 103 104
ENDBRANCH  71  96
ENDBRANCH  45  46
ENDBRANCH  38  40
ENDBRANCH  37  38
ENDBRANCH  36  37
ENDBRANCH  35  36
ENDBRANCH  34  35
ENDBRANCH  33  34
ENDBRANCH   1  33
TORSDOF 25
