REMARK SMILES C[C@@H]([NH+]1CCC(n2cccc2C(=O)OCCOCCOCCOC(=O)c2ccc(-c3c4nc(c(-c5c(F)cc(S(=O)(=O)[O-])cc5F)c5ccc([nH]5)c(-c5c(F)cc(S(=O)(=O)[O-])cc5F)c5nc(c(-c6c(F)cc(S(=O)(=O)[O-])cc6F)c6ccc3[nH]6)C=C5)C=C4)cc2)CC1)C1(C)CC1
REMARK SMILES IDX 18 1 17 2 16 3 15 4 14 5 12 6 13 7 11 8 7 9 8 10 9 11 10 12
REMARK SMILES IDX 6 13 3 14 4 15 93 16 5 18 92 19 2 20 1 21 94 22 95 23 96 24
REMARK SMILES IDX 97 25 19 26 20 27 21 28 22 29 23 30 24 31 25 32 26 33 27 34
REMARK SMILES IDX 91 35 28 36 90 37 29 38 30 39 31 40 84 41 32 42 89 43 83 44
REMARK SMILES IDX 85 45 33 46 88 47 82 48 81 49 34 51 68 52 47 53 67 54 48 55
REMARK SMILES IDX 51 56 66 57 86 58 49 59 50 60 65 62 87 63 52 64 35 65 36 66
REMARK SMILES IDX 45 67 37 68 38 69 44 70 46 71 39 72 40 73 41 74 42 75 43 76
REMARK SMILES IDX 69 77 70 78 79 79 71 80 72 81 78 82 80 83 73 84 74 85 75 86
REMARK SMILES IDX 76 87 77 88 53 89 54 90 63 91 55 92 56 93 62 94 64 95 57 96
REMARK SMILES IDX 58 97 59 98 60 99 61 100
REMARK H PARENT 3 17 85 50 51 61
REMARK Flexibility Score: inf
ROOT
ATOM      1  C   UNL     1       4.279  -4.591   4.378  1.00  0.00     0.188 C 
ENDROOT
BRANCH   1   2
ATOM      2  O   UNL     1       5.200  -3.518   4.574  1.00  0.00    -0.376 OA
BRANCH   2   3
ATOM      3  C   UNL     1       5.523  -2.667   3.476  1.00  0.00     0.202 C 
BRANCH   3   4
ATOM      4  C   UNL     1       5.885  -3.306   2.124  1.00  0.00     0.261 C 
BRANCH   4   5
ATOM      5  O   UNL     1       4.896  -4.247   1.693  1.00  0.00    -0.459 OA
BRANCH   5   6
ATOM      6  C   UNL     1       5.283  -5.377   1.064  1.00  0.00     0.355 C 
ATOM      7  O   UNL     1       6.436  -5.641   0.748  1.00  0.00    -0.244 OA
BRANCH   6   8
ATOM      8  C   UNL     1       4.160  -6.293   0.981  1.00  0.00     0.127 A 
ATOM      9  N   UNL     1       2.910  -6.147   0.375  1.00  0.00    -0.339 N 
ATOM     10  C   UNL     1       2.216  -7.338   0.549  1.00  0.00     0.086 A 
ATOM     11  C   UNL     1       2.943  -8.184   1.346  1.00  0.00     0.020 A 
ATOM     12  C   UNL     1       4.165  -7.542   1.599  1.00  0.00     0.035 A 
BRANCH   9  13
ATOM     13  C   UNL     1       2.357  -5.045  -0.449  1.00  0.00     0.098 C 
ATOM     14  N   UNL     1       0.995  -2.408  -0.571  1.00  0.00    -0.332 N 
ATOM     15  C   UNL     1       0.271  -3.625  -0.950  1.00  0.00     0.264 C 
ATOM     16  C   UNL     1       2.383  -2.545  -1.035  1.00  0.00     0.264 C 
ATOM     17  H   UNL     1       0.950  -2.333   0.446  1.00  0.00     0.348 HD
ATOM     18  C   UNL     1       0.843  -4.838  -0.209  1.00  0.00     0.087 C 
ATOM     19  C   UNL     1       3.061  -3.696  -0.311  1.00  0.00     0.087 C 
BRANCH  14  20
ATOM     20  C   UNL     1       0.387  -1.139  -1.026  1.00  0.00     0.186 C 
ATOM     21  C   UNL     1       1.049   0.066  -0.321  1.00  0.00     0.076 C 
BRANCH  20  22
ATOM     22  C   UNL     1      -1.129  -1.060  -0.785  1.00  0.00     0.019 C 
ATOM     23  C   UNL     1      -1.593  -1.212   0.649  1.00  0.00     0.018 C 
ATOM     24  C   UNL     1      -1.910  -0.069  -1.635  1.00  0.00     0.013 C 
ATOM     25  C   UNL     1      -2.055  -1.536  -1.894  1.00  0.00     0.013 C 
ENDBRANCH  20  22
ENDBRANCH  14  20
ENDBRANCH   9  13
ENDBRANCH   6   8
ENDBRANCH   5   6
ENDBRANCH   4   5
ENDBRANCH   3   4
ENDBRANCH   2   3
ENDBRANCH   1   2
BRANCH   1  26
ATOM     26  C   UNL     1       2.909  -4.310   3.718  1.00  0.00     0.188 C 
BRANCH  26  27
ATOM     27  O   UNL     1       2.841  -3.070   3.042  1.00  0.00    -0.376 OA
BRANCH  27  28
ATOM     28  C   UNL     1       2.085  -1.988   3.558  1.00  0.00     0.202 C 
BRANCH  28  29
ATOM     29  C   UNL     1       2.271  -1.521   5.004  1.00  0.00     0.261 C 
BRANCH  29  30
ATOM     30  O   UNL     1       2.582  -2.534   5.940  1.00  0.00    -0.460 OA
BRANCH  30  31
ATOM     31  C   UNL     1       1.522  -3.309   6.227  1.00  0.00     0.338 C 
ATOM     32  O   UNL     1       0.453  -3.359   5.641  1.00  0.00    -0.246 OA
BRANCH  31  33
ATOM     33  C   UNL     1       1.806  -4.070   7.431  1.00  0.00     0.060 A 
ATOM     34  C   UNL     1       1.125  -5.281   7.563  1.00  0.00     0.016 A 
ATOM     35  C   UNL     1       2.307  -3.338   8.513  1.00  0.00     0.016 A 
ATOM     36  C   UNL     1       0.726  -5.646   8.822  1.00  0.00     0.010 A 
ATOM     37  C   UNL     1       1.860  -3.674   9.764  1.00  0.00     0.010 A 
ATOM     38  C   UNL     1       1.028  -4.792   9.891  1.00  0.00    -0.014 A 
BRANCH  38  39
ATOM     39  C   UNL     1       0.570  -5.198  11.213  1.00  0.00     0.031 A 
ATOM     40  C   UNL     1       1.611  -6.146  11.831  1.00  0.00     0.074 A 
ATOM     41  C   UNL     1      -0.662  -4.715  11.572  1.00  0.00     0.049 A 
ATOM     42  N   UNL     1       1.458  -7.081  12.710  1.00  0.00    -0.248 NA
ATOM     43  C   UNL     1       3.023  -6.124  11.331  1.00  0.00     0.031 C 
ATOM     44  C   UNL     1      -1.489  -3.775  10.767  1.00  0.00     0.029 A 
ATOM     45  N   UNL     1      -1.482  -4.907  12.662  1.00  0.00    -0.354 N 
ATOM     46  C   UNL     1       2.747  -7.542  13.058  1.00  0.00     0.074 A 
ATOM     47  C   UNL     1       3.647  -7.037  12.075  1.00  0.00     0.031 C 
ATOM     48  C   UNL     1      -2.696  -3.566  11.344  1.00  0.00     0.029 A 
ATOM     49  C   UNL     1      -2.771  -4.302  12.590  1.00  0.00     0.049 A 
ATOM     50  H   UNL     1      -1.194  -5.430  13.444  1.00  0.00     0.167 HD
ATOM     51  C   UNL     1       3.006  -8.173  14.238  1.00  0.00     0.037 A 
ATOM     52  C   UNL     1      -3.821  -4.426  13.466  1.00  0.00     0.037 A 
ATOM     53  C   UNL     1       1.795  -8.307  14.976  1.00  0.00     0.049 A 
ATOM     54  C   UNL     1      -3.241  -5.129  14.617  1.00  0.00     0.074 A 
ATOM     55  C   UNL     1       0.694  -9.095  14.762  1.00  0.00     0.029 A 
ATOM     56  N   UNL     1       1.461  -7.263  15.810  1.00  0.00    -0.354 N 
ATOM     57  N   UNL     1      -2.402  -4.601  15.457  1.00  0.00    -0.248 NA
ATOM     58  C   UNL     1      -3.527  -6.559  14.787  1.00  0.00     0.031 C 
ATOM     59  C   UNL     1      -0.374  -8.232  15.069  1.00  0.00     0.029 A 
ATOM     60  C   UNL     1       0.105  -7.078  15.704  1.00  0.00     0.049 A 
ATOM     61  H   UNL     1       2.080  -6.747  16.375  1.00  0.00     0.167 HD
ATOM     62  C   UNL     1      -1.809  -5.707  16.010  1.00  0.00     0.074 A 
ATOM     63  C   UNL     1      -2.737  -6.805  15.828  1.00  0.00     0.031 C 
ATOM     64  C   UNL     1      -0.453  -5.788  16.049  1.00  0.00     0.037 A 
BRANCH  51  65
ATOM     65  C   UNL     1       4.283  -8.484  14.958  1.00  0.00     0.058 A 
ATOM     66  C   UNL     1       4.227  -9.467  15.975  1.00  0.00     0.135 A 
ATOM     67  C   UNL     1       5.407  -7.646  14.959  1.00  0.00     0.135 A 
ATOM     68  F   UNL     1       3.227 -10.364  16.010  1.00  0.00    -0.206 F 
ATOM     69  C   UNL     1       5.132  -9.502  17.026  1.00  0.00     0.059 A 
ATOM     70  C   UNL     1       6.358  -7.697  15.982  1.00  0.00     0.059 A 
ATOM     71  F   UNL     1       5.569  -6.701  14.024  1.00  0.00    -0.206 F 
ATOM     72  C   UNL     1       6.173  -8.583  17.043  1.00  0.00     0.060 A 
BRANCH  72  73
ATOM     73  S   UNL     1       7.239  -8.537  18.496  1.00  0.00     0.124 S 
ATOM     74  O   UNL     1       6.360  -7.926  19.487  1.00  0.00    -0.237 OA
ATOM     75  O   UNL     1       7.539  -9.951  18.704  1.00  0.00    -0.237 OA
ATOM     76  O   UNL     1       8.367  -7.722  18.059  1.00  0.00    -0.744 OA
ENDBRANCH  72  73
ENDBRANCH  51  65
BRANCH  52  77
ATOM     77  C   UNL     1      -5.315  -4.154  13.549  1.00  0.00     0.058 A 
ATOM     78  C   UNL     1      -6.110  -3.522  12.586  1.00  0.00     0.135 A 
ATOM     79  C   UNL     1      -6.064  -4.720  14.628  1.00  0.00     0.135 A 
ATOM     80  F   UNL     1      -5.555  -2.820  11.589  1.00  0.00    -0.206 F 
ATOM     81  C   UNL     1      -7.521  -3.601  12.600  1.00  0.00     0.059 A 
ATOM     82  C   UNL     1      -7.447  -4.866  14.634  1.00  0.00     0.059 A 
ATOM     83  F   UNL     1      -5.468  -5.205  15.726  1.00  0.00    -0.206 F 
ATOM     84  C   UNL     1      -8.175  -4.334  13.592  1.00  0.00     0.060 A 
BRANCH  84  85
ATOM     85  S   UNL     1      -9.935  -4.728  13.469  1.00  0.00     0.124 S 
ATOM     86  O   UNL     1     -10.556  -3.547  14.057  1.00  0.00    -0.237 OA
ATOM     87  O   UNL     1     -10.121  -4.897  12.031  1.00  0.00    -0.237 OA
ATOM     88  O   UNL     1     -10.057  -5.958  14.248  1.00  0.00    -0.744 OA
ENDBRANCH  84  85
ENDBRANCH  52  77
BRANCH  64  89
ATOM     89  C   UNL     1       0.273  -4.446  16.062  1.00  0.00     0.058 A 
ATOM     90  C   UNL     1       0.009  -3.510  17.078  1.00  0.00     0.135 A 
ATOM     91  C   UNL     1       1.155  -4.006  15.059  1.00  0.00     0.135 A 
ATOM     92  F   UNL     1      -0.803  -3.842  18.095  1.00  0.00    -0.206 F 
ATOM     93  C   UNL     1       0.567  -2.226  17.086  1.00  0.00     0.059 A 
ATOM     94  C   UNL     1       1.729  -2.730  15.038  1.00  0.00     0.059 A 
ATOM     95  F   UNL     1       1.497  -4.816  14.059  1.00  0.00    -0.206 F 
ATOM     96  C   UNL     1       1.428  -1.841  16.060  1.00  0.00     0.060 A 
BRANCH  96  97
ATOM     97  S   UNL     1       2.166  -0.190  16.100  1.00  0.00     0.124 S 
ATOM     98  O   UNL     1       0.994   0.680  16.101  1.00  0.00    -0.237 OA
ATOM     99  O   UNL     1       2.925  -0.226  17.346  1.00  0.00    -0.237 OA
ATOM    100  O   UNL     1       2.972  -0.140  14.882  1.00  0.00    -0.744 OA
ENDBRANCH  96  97
ENDBRANCH  64  89
ENDBRANCH  38  39
ENDBRANCH  31  33
ENDBRANCH  30  31
ENDBRANCH  29  30
ENDBRANCH  28  29
ENDBRANCH  27  28
ENDBRANCH  26  27
ENDBRANCH   1  26
TORSDOF 23
