REMARK SMILES COc1ccc(CNC(=O)[C@H]2CC(C)=C(C)C[C@@H]2C(=O)OCCOCCOCCOC(=O)c2ccc(-c3c4nc(c(-c5c(F)cc(S(=O)(=O)[O-])cc5F)c5ccc([nH]5)c(-c5c(F)cc(S(=O)(=O)[O-])cc5F)c5nc(c(-c6c(F)cc(S(=O)(=O)[O-])cc6F)c6ccc3[nH]6)C=C5)C=C4)cc2)cc1OC
REMARK SMILES IDX 25 1 24 2 23 3 22 4 21 5 19 6 20 7 18 8 11 9 12 10 13 11
REMARK SMILES IDX 17 12 14 13 15 14 16 15 9 16 8 17 10 19 7 20 6 21 3 22 4 23
REMARK SMILES IDX 100 24 5 25 99 26 2 27 1 28 101 29 102 30 26 31 27 32 28 33
REMARK SMILES IDX 29 34 30 35 31 36 32 37 33 38 34 39 98 40 35 41 97 42 36 43
REMARK SMILES IDX 37 44 38 45 91 46 39 47 96 48 90 49 92 50 40 51 95 52 89 53
REMARK SMILES IDX 88 54 41 56 75 57 54 58 74 59 55 60 58 61 73 62 93 63 56 64
REMARK SMILES IDX 57 65 72 67 94 68 59 69 42 70 43 71 52 72 44 73 45 74 51 75
REMARK SMILES IDX 53 76 46 77 47 78 48 79 49 80 50 81 76 82 77 83 86 84 78 85
REMARK SMILES IDX 79 86 85 87 87 88 80 89 81 90 82 91 83 92 84 93 60 94 61 95
REMARK SMILES IDX 70 96 62 97 63 98 69 99 71 100 64 101 65 102 66 103 67 104
REMARK SMILES IDX 68 105
REMARK H PARENT 8 18 92 55 58 66
REMARK Flexibility Score: inf
ROOT
ATOM      1  C   UNL     1      -3.457  -9.203  -4.111  1.00  0.00     0.188 C 
ENDROOT
BRANCH   1   2
ATOM      2  O   UNL     1      -3.872 -10.176  -5.061  1.00  0.00    -0.376 OA
BRANCH   2   3
ATOM      3  C   UNL     1      -3.311 -11.473  -5.011  1.00  0.00     0.202 C 
BRANCH   3   4
ATOM      4  C   UNL     1      -1.825 -11.636  -5.337  1.00  0.00     0.261 C 
BRANCH   4   5
ATOM      5  O   UNL     1      -0.943 -10.654  -4.771  1.00  0.00    -0.463 OA
BRANCH   5   6
ATOM      6  C   UNL     1      -0.406  -9.755  -5.649  1.00  0.00     0.310 C 
ATOM      7  O   UNL     1      -0.726  -9.670  -6.826  1.00  0.00    -0.252 OA
BRANCH   6   8
ATOM      8  C   UNL     1       0.711  -8.945  -4.983  1.00  0.00     0.116 C 
ATOM      9  C   UNL     1       0.175  -8.030  -3.872  1.00  0.00     0.097 C 
ATOM     10  C   UNL     1      -0.248  -6.630  -4.304  1.00  0.00     0.045 C 
ATOM     11  C   UNL     1       0.479  -6.028  -5.473  1.00  0.00    -0.074 C 
ATOM     12  C   UNL     1       1.558  -8.223  -6.042  1.00  0.00     0.046 C 
ATOM     13  C   UNL     1       0.255  -4.541  -5.616  1.00  0.00     0.039 C 
ATOM     14  C   UNL     1       1.252  -6.765  -6.295  1.00  0.00    -0.073 C 
ATOM     15  C   UNL     1       1.866  -6.205  -7.555  1.00  0.00     0.039 C 
BRANCH   9  16
ATOM     16  C   UNL     1       0.905  -8.233  -2.544  1.00  0.00     0.224 C 
ATOM     17  N   UNL     1       1.538  -7.261  -1.850  1.00  0.00    -0.352 N 
ATOM     18  H   UNL     1       1.554  -7.395  -0.875  1.00  0.00     0.163 HD
ATOM     19  O   UNL     1       0.869  -9.348  -2.007  1.00  0.00    -0.275 OA
BRANCH  17  20
ATOM     20  C   UNL     1       2.194  -6.056  -2.304  1.00  0.00     0.151 C 
BRANCH  20  21
ATOM     21  C   UNL     1       1.834  -4.824  -1.510  1.00  0.00    -0.025 A 
ATOM     22  C   UNL     1       1.277  -2.405  -0.158  1.00  0.00     0.160 A 
ATOM     23  C   UNL     1       0.265  -3.347  -0.383  1.00  0.00     0.051 A 
ATOM     24  C   UNL     1       2.582  -2.670  -0.584  1.00  0.00     0.161 A 
ATOM     25  C   UNL     1       0.540  -4.546  -1.056  1.00  0.00     0.009 A 
ATOM     26  C   UNL     1       2.835  -3.868  -1.269  1.00  0.00     0.056 A 
BRANCH  22  27
ATOM     27  O   UNL     1       0.972  -1.293   0.580  1.00  0.00    -0.493 OA
ATOM     28  C   UNL     1       0.233  -0.332  -0.179  1.00  0.00     0.278 C 
ENDBRANCH  22  27
BRANCH  24  29
ATOM     29  O   UNL     1       3.712  -1.917  -0.419  1.00  0.00    -0.493 OA
ATOM     30  C   UNL     1       3.582  -0.596   0.081  1.00  0.00     0.278 C 
ENDBRANCH  24  29
ENDBRANCH  20  21
ENDBRANCH  17  20
ENDBRANCH   9  16
ENDBRANCH   6   8
ENDBRANCH   5   6
ENDBRANCH   4   5
ENDBRANCH   3   4
ENDBRANCH   2   3
ENDBRANCH   1   2
BRANCH   1  31
ATOM     31  C   UNL     1      -3.044  -9.624  -2.682  1.00  0.00     0.188 C 
BRANCH  31  32
ATOM     32  O   UNL     1      -3.644 -10.795  -2.188  1.00  0.00    -0.376 OA
BRANCH  32  33
ATOM     33  C   UNL     1      -4.867 -10.800  -1.495  1.00  0.00     0.202 C 
BRANCH  33  34
ATOM     34  C   UNL     1      -5.801  -9.598  -1.289  1.00  0.00     0.261 C 
BRANCH  34  35
ATOM     35  O   UNL     1      -5.644  -8.469  -2.149  1.00  0.00    -0.460 OA
BRANCH  35  36
ATOM     36  C   UNL     1      -5.234  -7.333  -1.540  1.00  0.00     0.338 C 
ATOM     37  O   UNL     1      -4.917  -7.198  -0.361  1.00  0.00    -0.246 OA
BRANCH  36  38
ATOM     38  C   UNL     1      -5.090  -6.250  -2.523  1.00  0.00     0.060 A 
ATOM     39  C   UNL     1      -3.808  -5.756  -2.794  1.00  0.00     0.016 A 
ATOM     40  C   UNL     1      -6.217  -5.656  -3.095  1.00  0.00     0.016 A 
ATOM     41  C   UNL     1      -3.651  -4.641  -3.620  1.00  0.00     0.010 A 
ATOM     42  C   UNL     1      -6.056  -4.532  -3.911  1.00  0.00     0.010 A 
ATOM     43  C   UNL     1      -4.776  -3.999  -4.154  1.00  0.00    -0.014 A 
BRANCH  43  44
ATOM     44  C   UNL     1      -4.646  -2.676  -4.819  1.00  0.00     0.031 A 
ATOM     45  C   UNL     1      -4.962  -1.437  -4.026  1.00  0.00     0.074 A 
ATOM     46  C   UNL     1      -4.255  -2.565  -6.101  1.00  0.00     0.049 A 
ATOM     47  N   UNL     1      -5.044  -0.193  -4.422  1.00  0.00    -0.248 NA
ATOM     48  C   UNL     1      -5.218  -1.631  -2.590  1.00  0.00     0.031 C 
ATOM     49  C   UNL     1      -3.849  -3.672  -6.963  1.00  0.00     0.029 A 
ATOM     50  N   UNL     1      -4.153  -1.456  -6.905  1.00  0.00    -0.354 N 
ATOM     51  C   UNL     1      -5.381   0.543  -3.292  1.00  0.00     0.074 A 
ATOM     52  C   UNL     1      -5.500  -0.397  -2.197  1.00  0.00     0.031 C 
ATOM     53  C   UNL     1      -3.554  -3.188  -8.182  1.00  0.00     0.029 A 
ATOM     54  C   UNL     1      -3.798  -1.746  -8.201  1.00  0.00     0.049 A 
ATOM     55  H   UNL     1      -4.317  -0.540  -6.583  1.00  0.00     0.167 HD
ATOM     56  C   UNL     1      -5.577   1.878  -3.175  1.00  0.00     0.037 A 
ATOM     57  C   UNL     1      -3.715  -0.946  -9.284  1.00  0.00     0.037 A 
ATOM     58  C   UNL     1      -5.471   2.813  -4.265  1.00  0.00     0.049 A 
ATOM     59  C   UNL     1      -4.035   0.523  -9.156  1.00  0.00     0.074 A 
ATOM     60  C   UNL     1      -5.663   4.183  -4.246  1.00  0.00     0.029 A 
ATOM     61  N   UNL     1      -5.154   2.473  -5.572  1.00  0.00    -0.354 N 
ATOM     62  N   UNL     1      -4.370   1.207  -8.087  1.00  0.00    -0.248 NA
ATOM     63  C   UNL     1      -3.974   1.328 -10.385  1.00  0.00     0.031 C 
ATOM     64  C   UNL     1      -5.505   4.666  -5.550  1.00  0.00     0.029 A 
ATOM     65  C   UNL     1      -5.164   3.604  -6.372  1.00  0.00     0.049 A 
ATOM     66  H   UNL     1      -4.952   1.562  -5.885  1.00  0.00     0.167 HD
ATOM     67  C   UNL     1      -4.531   2.524  -8.510  1.00  0.00     0.074 A 
ATOM     68  C   UNL     1      -4.252   2.543  -9.931  1.00  0.00     0.031 C 
ATOM     69  C   UNL     1      -4.874   3.618  -7.785  1.00  0.00     0.037 A 
BRANCH  56  70
ATOM     70  C   UNL     1      -5.974   2.395  -1.821  1.00  0.00     0.058 A 
ATOM     71  C   UNL     1      -5.068   2.439  -0.749  1.00  0.00     0.135 A 
ATOM     72  C   UNL     1      -7.285   2.844  -1.591  1.00  0.00     0.135 A 
ATOM     73  F   UNL     1      -3.808   2.004  -0.910  1.00  0.00    -0.206 F 
ATOM     74  C   UNL     1      -5.459   2.872   0.513  1.00  0.00     0.059 A 
ATOM     75  C   UNL     1      -7.690   3.307  -0.344  1.00  0.00     0.059 A 
ATOM     76  F   UNL     1      -8.191   2.822  -2.582  1.00  0.00    -0.206 F 
ATOM     77  C   UNL     1      -6.775   3.296   0.708  1.00  0.00     0.060 A 
BRANCH  77  78
ATOM     78  S   UNL     1      -7.278   3.822   2.360  1.00  0.00     0.124 S 
ATOM     79  O   UNL     1      -7.367   2.542   3.055  1.00  0.00    -0.237 OA
ATOM     80  O   UNL     1      -6.173   4.686   2.763  1.00  0.00    -0.237 OA
ATOM     81  O   UNL     1      -8.549   4.501   2.128  1.00  0.00    -0.744 OA
ENDBRANCH  77  78
ENDBRANCH  56  70
BRANCH  57  82
ATOM     82  C   UNL     1      -3.332  -1.519 -10.602  1.00  0.00     0.058 A 
ATOM     83  C   UNL     1      -2.097  -1.211 -11.192  1.00  0.00     0.135 A 
ATOM     84  C   UNL     1      -4.191  -2.383 -11.300  1.00  0.00     0.135 A 
ATOM     85  F   UNL     1      -1.249  -0.375 -10.573  1.00  0.00    -0.206 F 
ATOM     86  C   UNL     1      -1.728  -1.732 -12.428  1.00  0.00     0.059 A 
ATOM     87  C   UNL     1      -3.835  -2.938 -12.525  1.00  0.00     0.059 A 
ATOM     88  F   UNL     1      -5.384  -2.709 -10.779  1.00  0.00    -0.206 F 
ATOM     89  C   UNL     1      -2.603  -2.600 -13.085  1.00  0.00     0.060 A 
BRANCH  89  90
ATOM     90  S   UNL     1      -2.088  -3.318 -14.660  1.00  0.00     0.124 S 
ATOM     91  O   UNL     1      -2.196  -2.171 -15.555  1.00  0.00    -0.237 OA
ATOM     92  O   UNL     1      -0.732  -3.769 -14.362  1.00  0.00    -0.237 OA
ATOM     93  O   UNL     1      -3.061  -4.384 -14.878  1.00  0.00    -0.744 OA
ENDBRANCH  89  90
ENDBRANCH  57  82
BRANCH  69  94
ATOM     94  C   UNL     1      -4.924   4.945  -8.495  1.00  0.00     0.058 A 
ATOM     95  C   UNL     1      -5.962   5.274  -9.381  1.00  0.00     0.135 A 
ATOM     96  C   UNL     1      -3.953   5.926  -8.234  1.00  0.00     0.135 A 
ATOM     97  F   UNL     1      -6.914   4.373  -9.671  1.00  0.00    -0.206 F 
ATOM     98  C   UNL     1      -6.026   6.522  -9.995  1.00  0.00     0.059 A 
ATOM     99  C   UNL     1      -4.010   7.188  -8.817  1.00  0.00     0.059 A 
ATOM    100  F   UNL     1      -2.944   5.668  -7.386  1.00  0.00    -0.206 F 
ATOM    101  C   UNL     1      -5.046   7.474  -9.705  1.00  0.00     0.060 A 
BRANCH 101 102
ATOM    102  S   UNL     1      -5.163   9.104 -10.474  1.00  0.00     0.124 S 
ATOM    103  O   UNL     1      -4.748   8.814 -11.843  1.00  0.00    -0.237 OA
ATOM    104  O   UNL     1      -6.573   9.435 -10.296  1.00  0.00    -0.237 OA
ATOM    105  O   UNL     1      -4.232   9.915  -9.695  1.00  0.00    -0.744 OA
ENDBRANCH 101 102
ENDBRANCH  69  94
ENDBRANCH  43  44
ENDBRANCH  36  38
ENDBRANCH  35  36
ENDBRANCH  34  35
ENDBRANCH  33  34
ENDBRANCH  32  33
ENDBRANCH  31  32
ENDBRANCH   1  31
TORSDOF 25
