REMARK SMILES COCc1cc(OCC(=O)OCCOCCOCCOC(=O)c2ccc(-c3c4nc(c(-c5c(F)cc(S(=O)(=O)[O-])cc5F)c5ccc([nH]5)c(-c5c(F)cc(S(=O)(=O)[O-])cc5F)c5nc(c(-c6c(F)cc(S(=O)(=O)[O-])cc6F)c6ccc3[nH]6)C=C5)C=C4)cc2)nc(Nc2cccc(C)c2C)n1
REMARK SMILES IDX 15 1 14 2 13 3 12 4 11 5 9 6 10 7 8 8 7 9 6 10 4 11 5 12
REMARK SMILES IDX 100 13 90 14 89 15 3 16 2 17 1 18 91 19 92 21 93 22 98 23
REMARK SMILES IDX 94 24 96 25 99 26 95 27 97 28 16 29 17 30 18 31 19 32 20 33
REMARK SMILES IDX 21 34 22 35 23 36 24 37 88 38 25 39 87 40 26 41 27 42 28 43
REMARK SMILES IDX 81 44 29 45 86 46 80 47 82 48 30 49 85 50 79 51 78 52 31 54
REMARK SMILES IDX 65 55 44 56 64 57 45 58 48 59 63 60 83 61 46 62 47 63 62 65
REMARK SMILES IDX 84 66 49 67 32 68 33 69 42 70 34 71 35 72 41 73 43 74 36 75
REMARK SMILES IDX 37 76 38 77 39 78 40 79 66 80 67 81 76 82 68 83 69 84 75 85
REMARK SMILES IDX 77 86 70 87 71 88 72 89 73 90 74 91 50 92 51 93 60 94 52 95
REMARK SMILES IDX 53 96 59 97 61 98 54 99 55 100 56 101 57 102 58 103
REMARK H PARENT 91 20 82 53 48 64
REMARK Flexibility Score: inf
ROOT
ATOM      1  C   UNL     1       4.522  -4.041   0.983  1.00  0.00     0.188 C 
ENDROOT
BRANCH   1   2
ATOM      2  O   UNL     1       5.851  -4.534   1.074  1.00  0.00    -0.376 OA
BRANCH   2   3
ATOM      3  C   UNL     1       6.171  -5.622   0.216  1.00  0.00     0.202 C 
BRANCH   3   4
ATOM      4  C   UNL     1       5.376  -6.914   0.451  1.00  0.00     0.261 C 
BRANCH   4   5
ATOM      5  O   UNL     1       3.969  -6.812   0.110  1.00  0.00    -0.461 OA
BRANCH   5   6
ATOM      6  C   UNL     1       3.154  -7.598   0.875  1.00  0.00     0.344 C 
ATOM      7  O   UNL     1       3.551  -8.297   1.803  1.00  0.00    -0.248 OA
BRANCH   6   8
ATOM      8  C   UNL     1       1.671  -7.588   0.473  1.00  0.00     0.353 C 
BRANCH   8   9
ATOM      9  O   UNL     1       1.192  -6.787  -0.587  1.00  0.00    -0.466 OA
BRANCH   9  10
ATOM     10  C   UNL     1       0.708  -5.539  -0.307  1.00  0.00     0.219 A 
ATOM     11  C   UNL     1       0.765  -3.515   0.857  1.00  0.00     0.076 A 
ATOM     12  C   UNL     1       0.926  -4.884   0.881  1.00  0.00     0.095 A 
ATOM     13  N   UNL     1       0.248  -2.909  -0.244  1.00  0.00    -0.215 NA
ATOM     14  C   UNL     1      -0.108  -3.640  -1.314  1.00  0.00     0.230 A 
ATOM     15  N   UNL     1       0.162  -4.948  -1.387  1.00  0.00    -0.177 NA
BRANCH  11  16
ATOM     16  C   UNL     1       1.690  -2.744   1.827  1.00  0.00     0.216 C 
BRANCH  16  17
ATOM     17  O   UNL     1       1.324  -1.595   2.563  1.00  0.00    -0.378 OA
ATOM     18  C   UNL     1       2.446  -0.716   2.745  1.00  0.00     0.195 C 
ENDBRANCH  16  17
ENDBRANCH  11  16
BRANCH  14  19
ATOM     19  N   UNL     1      -0.696  -3.079  -2.457  1.00  0.00    -0.324 N 
ATOM     20  H   UNL     1      -0.815  -3.710  -3.203  1.00  0.00     0.170 HD
BRANCH  19  21
ATOM     21  C   UNL     1      -1.144  -1.775  -2.725  1.00  0.00     0.044 A 
ATOM     22  C   UNL     1      -2.497  -1.466  -2.508  1.00  0.00     0.026 A 
ATOM     23  C   UNL     1      -0.338  -0.809  -3.373  1.00  0.00    -0.025 A 
ATOM     24  C   UNL     1      -3.007  -0.196  -2.784  1.00  0.00     0.002 A 
ATOM     25  C   UNL     1      -0.814   0.521  -3.517  1.00  0.00    -0.046 A 
ATOM     26  C   UNL     1       0.973  -1.192  -4.005  1.00  0.00     0.047 C 
ATOM     27  C   UNL     1      -2.159   0.803  -3.244  1.00  0.00     0.004 A 
ATOM     28  C   UNL     1       0.060   1.664  -3.966  1.00  0.00     0.044 C 
ENDBRANCH  19  21
ENDBRANCH  14  19
ENDBRANCH   9  10
ENDBRANCH   8   9
ENDBRANCH   6   8
ENDBRANCH   5   6
ENDBRANCH   4   5
ENDBRANCH   3   4
ENDBRANCH   2   3
ENDBRANCH   1   2
BRANCH   1  29
ATOM     29  C   UNL     1       4.082  -3.541  -0.410  1.00  0.00     0.188 C 
BRANCH  29  30
ATOM     30  O   UNL     1       4.090  -2.106  -0.416  1.00  0.00    -0.376 OA
BRANCH  30  31
ATOM     31  C   UNL     1       3.297  -1.536  -1.470  1.00  0.00     0.202 C 
BRANCH  31  32
ATOM     32  C   UNL     1       2.637  -0.220  -1.006  1.00  0.00     0.261 C 
BRANCH  32  33
ATOM     33  O   UNL     1       1.403  -0.484  -0.301  1.00  0.00    -0.460 OA
BRANCH  33  34
ATOM     34  C   UNL     1       0.531   0.556  -0.130  1.00  0.00     0.338 C 
ATOM     35  O   UNL     1       0.638   1.653  -0.629  1.00  0.00    -0.246 OA
BRANCH  34  36
ATOM     36  C   UNL     1      -0.361   0.252   1.036  1.00  0.00     0.060 A 
ATOM     37  C   UNL     1      -1.239  -0.837   1.093  1.00  0.00     0.016 A 
ATOM     38  C   UNL     1      -0.158   1.014   2.189  1.00  0.00     0.016 A 
ATOM     39  C   UNL     1      -1.772  -1.273   2.323  1.00  0.00     0.010 A 
ATOM     40  C   UNL     1      -0.697   0.595   3.415  1.00  0.00     0.010 A 
ATOM     41  C   UNL     1      -1.485  -0.570   3.503  1.00  0.00    -0.014 A 
BRANCH  41  42
ATOM     42  C   UNL     1      -2.299  -0.764   4.739  1.00  0.00     0.031 A 
ATOM     43  C   UNL     1      -3.525   0.107   4.808  1.00  0.00     0.074 A 
ATOM     44  C   UNL     1      -1.982  -1.568   5.777  1.00  0.00     0.049 A 
ATOM     45  N   UNL     1      -4.316   0.366   5.812  1.00  0.00    -0.248 NA
ATOM     46  C   UNL     1      -3.869   0.822   3.564  1.00  0.00     0.031 C 
ATOM     47  C   UNL     1      -0.851  -2.493   5.847  1.00  0.00     0.029 A 
ATOM     48  N   UNL     1      -2.597  -1.718   7.004  1.00  0.00    -0.354 N 
ATOM     49  C   UNL     1      -5.231   1.288   5.323  1.00  0.00     0.074 A 
ATOM     50  C   UNL     1      -4.870   1.583   3.958  1.00  0.00     0.031 C 
ATOM     51  C   UNL     1      -0.853  -3.107   7.050  1.00  0.00     0.029 A 
ATOM     52  C   UNL     1      -1.963  -2.598   7.858  1.00  0.00     0.049 A 
ATOM     53  H   UNL     1      -3.420  -1.236   7.250  1.00  0.00     0.167 HD
ATOM     54  C   UNL     1      -6.297   1.841   5.941  1.00  0.00     0.037 A 
ATOM     55  C   UNL     1      -2.246  -2.928   9.141  1.00  0.00     0.037 A 
ATOM     56  C   UNL     1      -6.658   1.572   7.297  1.00  0.00     0.049 A 
ATOM     57  C   UNL     1      -3.415  -2.249   9.836  1.00  0.00     0.074 A 
ATOM     58  C   UNL     1      -7.680   2.124   8.043  1.00  0.00     0.029 A 
ATOM     59  N   UNL     1      -6.005   0.658   8.108  1.00  0.00    -0.354 N 
ATOM     60  N   UNL     1      -4.264  -1.365   9.364  1.00  0.00    -0.248 NA
ATOM     61  C   UNL     1      -3.659  -2.606  11.246  1.00  0.00     0.031 C 
ATOM     62  C   UNL     1      -7.641   1.547   9.317  1.00  0.00     0.029 A 
ATOM     63  C   UNL     1      -6.614   0.615   9.346  1.00  0.00     0.049 A 
ATOM     64  H   UNL     1      -5.224   0.120   7.841  1.00  0.00     0.167 HD
ATOM     65  C   UNL     1      -5.159  -1.097  10.400  1.00  0.00     0.074 A 
ATOM     66  C   UNL     1      -4.754  -1.913  11.524  1.00  0.00     0.031 C 
ATOM     67  C   UNL     1      -6.218  -0.250  10.426  1.00  0.00     0.037 A 
BRANCH  54  68
ATOM     68  C   UNL     1      -7.110   2.793   5.119  1.00  0.00     0.058 A 
ATOM     69  C   UNL     1      -7.912   2.329   4.063  1.00  0.00     0.135 A 
ATOM     70  C   UNL     1      -7.006   4.178   5.315  1.00  0.00     0.135 A 
ATOM     71  F   UNL     1      -8.001   1.014   3.808  1.00  0.00    -0.206 F 
ATOM     72  C   UNL     1      -8.549   3.210   3.199  1.00  0.00     0.059 A 
ATOM     73  C   UNL     1      -7.659   5.076   4.478  1.00  0.00     0.059 A 
ATOM     74  F   UNL     1      -6.232   4.667   6.296  1.00  0.00    -0.206 F 
ATOM     75  C   UNL     1      -8.409   4.582   3.410  1.00  0.00     0.060 A 
BRANCH  75  76
ATOM     76  S   UNL     1      -9.216   5.713   2.261  1.00  0.00     0.124 S 
ATOM     77  O   UNL     1      -8.338   5.623   1.099  1.00  0.00    -0.237 OA
ATOM     78  O   UNL     1     -10.537   5.111   2.104  1.00  0.00    -0.237 OA
ATOM     79  O   UNL     1      -9.193   6.989   2.969  1.00  0.00    -0.744 OA
ENDBRANCH  75  76
ENDBRANCH  54  68
BRANCH  55  80
ATOM     80  C   UNL     1      -1.440  -3.935   9.904  1.00  0.00     0.058 A 
ATOM     81  C   UNL     1      -2.016  -5.150  10.320  1.00  0.00     0.135 A 
ATOM     82  C   UNL     1      -0.133  -3.667  10.339  1.00  0.00     0.135 A 
ATOM     83  F   UNL     1      -3.273  -5.452   9.959  1.00  0.00    -0.206 F 
ATOM     84  C   UNL     1      -1.347  -6.037  11.163  1.00  0.00     0.059 A 
ATOM     85  C   UNL     1       0.567  -4.550  11.164  1.00  0.00     0.059 A 
ATOM     86  F   UNL     1       0.472  -2.524   9.982  1.00  0.00    -0.206 F 
ATOM     87  C   UNL     1      -0.056  -5.724  11.588  1.00  0.00     0.060 A 
BRANCH  87  88
ATOM     88  S   UNL     1       0.805  -6.879  12.683  1.00  0.00     0.124 S 
ATOM     89  O   UNL     1       0.140  -6.631  13.957  1.00  0.00    -0.237 OA
ATOM     90  O   UNL     1       0.524  -8.167  12.057  1.00  0.00    -0.237 OA
ATOM     91  O   UNL     1       2.196  -6.442  12.601  1.00  0.00    -0.744 OA
ENDBRANCH  87  88
ENDBRANCH  55  80
BRANCH  67  92
ATOM     92  C   UNL     1      -7.065  -0.209  11.666  1.00  0.00     0.058 A 
ATOM     93  C   UNL     1      -6.652   0.469  12.822  1.00  0.00     0.135 A 
ATOM     94  C   UNL     1      -8.358  -0.758  11.650  1.00  0.00     0.135 A 
ATOM     95  F   UNL     1      -5.426   1.012  12.884  1.00  0.00    -0.206 F 
ATOM     96  C   UNL     1      -7.490   0.596  13.924  1.00  0.00     0.059 A 
ATOM     97  C   UNL     1      -9.220  -0.624  12.732  1.00  0.00     0.059 A 
ATOM     98  F   UNL     1      -8.805  -1.402  10.560  1.00  0.00    -0.206 F 
ATOM     99  C   UNL     1      -8.775   0.052  13.868  1.00  0.00     0.060 A 
BRANCH  99 100
ATOM    100  S   UNL     1      -9.881   0.283  15.277  1.00  0.00     0.124 S 
ATOM    101  O   UNL     1      -9.362  -0.700  16.222  1.00  0.00    -0.237 OA
ATOM    102  O   UNL     1      -9.656   1.681  15.628  1.00  0.00    -0.237 OA
ATOM    103  O   UNL     1     -11.200  -0.012  14.724  1.00  0.00    -0.744 OA
ENDBRANCH  99 100
ENDBRANCH  67  92
ENDBRANCH  41  42
ENDBRANCH  34  36
ENDBRANCH  33  34
ENDBRANCH  32  33
ENDBRANCH  31  32
ENDBRANCH  30  31
ENDBRANCH  29  30
ENDBRANCH   1  29
TORSDOF 26
