REMARK SMILES CCCCN(c1ccccc1C(=O)OCCOCCOCCOC(=O)c1ccc(-c2c3nc(c(-c4c(F)cc(S(=O)(=O)[O-])cc4F)c4ccc([nH]4)c(-c4c(F)cc(S(=O)(=O)[O-])cc4F)c4nc(c(-c5c(F)cc(S(=O)(=O)[O-])cc5F)c5ccc2[nH]5)C=C4)C=C3)cc1)S(=O)(=O)c1ccc2c(c1)oc(=O)n2C
REMARK SMILES IDX 18 1 17 2 16 3 15 4 14 5 12 6 13 7 11 8 6 9 7 10 8 11 10 12
REMARK SMILES IDX 9 13 5 14 4 15 3 16 2 17 1 18 92 19 93 20 94 21 95 22 96 23
REMARK SMILES IDX 100 24 97 25 99 26 98 27 101 28 104 29 102 30 105 31 103 32
REMARK SMILES IDX 19 33 20 34 21 35 22 36 23 37 24 38 25 39 26 40 27 41 91 42
REMARK SMILES IDX 28 43 90 44 29 45 30 46 31 47 84 48 32 49 89 50 83 51 85 52
REMARK SMILES IDX 33 53 88 54 82 55 81 56 34 58 68 59 47 60 67 61 48 62 51 63
REMARK SMILES IDX 66 64 86 65 49 66 50 67 65 69 87 70 52 71 35 72 36 73 45 74
REMARK SMILES IDX 37 75 38 76 44 77 46 78 39 79 40 80 41 81 42 82 43 83 69 84
REMARK SMILES IDX 70 85 79 86 71 87 72 88 78 89 80 90 73 91 74 92 75 93 76 94
REMARK SMILES IDX 77 95 53 96 54 97 63 98 55 99 56 100 62 101 64 102 57 103
REMARK SMILES IDX 58 104 59 105 60 106 61 107
REMARK H PARENT 85 57 51 68
REMARK Flexibility Score: inf
ROOT
ATOM      1  C   UNL     1      -0.096  -6.470  -0.001  1.00  0.00     0.188 C 
ENDROOT
BRANCH   1   2
ATOM      2  O   UNL     1       1.199  -6.492   0.586  1.00  0.00    -0.376 OA
BRANCH   2   3
ATOM      3  C   UNL     1       2.037  -5.349   0.435  1.00  0.00     0.202 C 
BRANCH   3   4
ATOM      4  C   UNL     1       2.101  -4.648  -0.930  1.00  0.00     0.261 C 
BRANCH   4   5
ATOM      5  O   UNL     1       0.815  -4.195  -1.398  1.00  0.00    -0.460 OA
BRANCH   5   6
ATOM      6  C   UNL     1       0.514  -4.450  -2.689  1.00  0.00     0.340 C 
ATOM      7  O   UNL     1       1.252  -4.978  -3.506  1.00  0.00    -0.246 OA
BRANCH   6   8
ATOM      8  C   UNL     1      -0.901  -4.130  -3.009  1.00  0.00     0.084 A 
ATOM      9  C   UNL     1      -1.538  -2.867  -2.934  1.00  0.00     0.066 A 
ATOM     10  C   UNL     1      -2.789  -2.760  -3.577  1.00  0.00     0.028 A 
ATOM     11  C   UNL     1      -3.476  -3.875  -4.075  1.00  0.00     0.002 A 
ATOM     12  C   UNL     1      -1.597  -5.248  -3.527  1.00  0.00     0.018 A 
ATOM     13  C   UNL     1      -2.893  -5.130  -4.015  1.00  0.00     0.001 A 
BRANCH   9  14
ATOM     14  N   UNL     1      -1.033  -1.655  -2.285  1.00  0.00    -0.265 N 
BRANCH  14  15
ATOM     15  C   UNL     1       0.439  -1.474  -2.111  1.00  0.00     0.136 C 
BRANCH  15  16
ATOM     16  C   UNL     1       1.000  -0.087  -2.418  1.00  0.00     0.022 C 
BRANCH  16  17
ATOM     17  C   UNL     1       0.972   0.972  -1.315  1.00  0.00    -0.002 C 
ATOM     18  C   UNL     1       1.520   0.535   0.035  1.00  0.00     0.004 C 
ENDBRANCH  16  17
ENDBRANCH  15  16
ENDBRANCH  14  15
BRANCH  14  19
ATOM     19  S   UNL     1      -2.005  -0.786  -1.141  1.00  0.00     0.264 S 
ATOM     20  O   UNL     1      -1.416  -0.917   0.175  1.00  0.00    -0.201 OA
ATOM     21  O   UNL     1      -2.211   0.530  -1.720  1.00  0.00    -0.201 OA
BRANCH  19  22
ATOM     22  C   UNL     1      -3.635  -1.497  -0.994  1.00  0.00     0.091 A 
ATOM     23  C   UNL     1      -4.771  -0.717  -1.322  1.00  0.00     0.025 A 
ATOM     24  C   UNL     1      -3.772  -2.817  -0.562  1.00  0.00     0.071 A 
ATOM     25  C   UNL     1      -6.048  -1.288  -1.331  1.00  0.00     0.032 A 
ATOM     26  C   UNL     1      -5.031  -3.368  -0.640  1.00  0.00     0.157 A 
ATOM     27  C   UNL     1      -6.133  -2.629  -1.028  1.00  0.00     0.090 A 
ATOM     28  O   UNL     1      -5.324  -4.706  -0.434  1.00  0.00    -0.408 OA
ATOM     29  N   UNL     1      -7.179  -3.518  -1.076  1.00  0.00    -0.277 N 
ATOM     30  C   UNL     1      -6.683  -4.769  -0.769  1.00  0.00     0.419 A 
ATOM     31  C   UNL     1      -8.520  -3.254  -1.509  1.00  0.00     0.157 C 
ATOM     32  O   UNL     1      -7.311  -5.822  -0.810  1.00  0.00    -0.223 OA
ENDBRANCH  19  22
ENDBRANCH  14  19
ENDBRANCH   9  14
ENDBRANCH   6   8
ENDBRANCH   5   6
ENDBRANCH   4   5
ENDBRANCH   3   4
ENDBRANCH   2   3
ENDBRANCH   1   2
BRANCH   1  33
ATOM     33  C   UNL     1      -1.045  -5.311   0.362  1.00  0.00     0.188 C 
BRANCH  33  34
ATOM     34  O   UNL     1      -0.440  -4.261   1.078  1.00  0.00    -0.376 OA
BRANCH  34  35
ATOM     35  C   UNL     1      -0.637  -4.179   2.480  1.00  0.00     0.202 C 
BRANCH  35  36
ATOM     36  C   UNL     1      -0.776  -5.414   3.397  1.00  0.00     0.261 C 
BRANCH  36  37
ATOM     37  O   UNL     1      -1.212  -6.648   2.817  1.00  0.00    -0.460 OA
BRANCH  37  38
ATOM     38  C   UNL     1      -2.548  -6.846   2.704  1.00  0.00     0.338 C 
ATOM     39  O   UNL     1      -3.430  -6.068   3.013  1.00  0.00    -0.246 OA
BRANCH  38  40
ATOM     40  C   UNL     1      -2.738  -8.088   1.919  1.00  0.00     0.060 A 
ATOM     41  C   UNL     1      -3.367  -8.022   0.665  1.00  0.00     0.016 A 
ATOM     42  C   UNL     1      -2.258  -9.304   2.405  1.00  0.00     0.016 A 
ATOM     43  C   UNL     1      -3.533  -9.181  -0.098  1.00  0.00     0.010 A 
ATOM     44  C   UNL     1      -2.453 -10.466   1.656  1.00  0.00     0.010 A 
ATOM     45  C   UNL     1      -3.115 -10.415   0.415  1.00  0.00    -0.014 A 
BRANCH  45  46
ATOM     46  C   UNL     1      -3.568 -11.686  -0.202  1.00  0.00     0.031 A 
ATOM     47  C   UNL     1      -4.775 -12.357   0.396  1.00  0.00     0.074 A 
ATOM     48  C   UNL     1      -2.910 -12.258  -1.226  1.00  0.00     0.049 A 
ATOM     49  N   UNL     1      -5.265 -13.546   0.170  1.00  0.00    -0.248 NA
ATOM     50  C   UNL     1      -5.518 -11.578   1.402  1.00  0.00     0.031 C 
ATOM     51  C   UNL     1      -1.761 -11.685  -1.923  1.00  0.00     0.029 A 
ATOM     52  N   UNL     1      -3.104 -13.473  -1.838  1.00  0.00    -0.354 N 
ATOM     53  C   UNL     1      -6.358 -13.668   1.020  1.00  0.00     0.074 A 
ATOM     54  C   UNL     1      -6.445 -12.443   1.782  1.00  0.00     0.031 C 
ATOM     55  C   UNL     1      -1.333 -12.562  -2.850  1.00  0.00     0.029 A 
ATOM     56  C   UNL     1      -2.149 -13.775  -2.780  1.00  0.00     0.049 A 
ATOM     57  H   UNL     1      -3.856 -14.071  -1.622  1.00  0.00     0.167 HD
ATOM     58  C   UNL     1      -7.213 -14.709   1.152  1.00  0.00     0.037 A 
ATOM     59  C   UNL     1      -1.938 -14.913  -3.474  1.00  0.00     0.037 A 
ATOM     60  C   UNL     1      -7.116 -15.926   0.390  1.00  0.00     0.049 A 
ATOM     61  C   UNL     1      -2.858 -16.091  -3.260  1.00  0.00     0.074 A 
ATOM     62  C   UNL     1      -7.936 -17.038   0.439  1.00  0.00     0.029 A 
ATOM     63  N   UNL     1      -6.134 -16.192  -0.554  1.00  0.00    -0.354 N 
ATOM     64  N   UNL     1      -3.893 -16.197  -2.459  1.00  0.00    -0.248 NA
ATOM     65  C   UNL     1      -2.584 -17.305  -4.042  1.00  0.00     0.031 C 
ATOM     66  C   UNL     1      -7.418 -18.000  -0.433  1.00  0.00     0.029 A 
ATOM     67  C   UNL     1      -6.316 -17.460  -1.079  1.00  0.00     0.049 A 
ATOM     68  H   UNL     1      -5.415 -15.572  -0.812  1.00  0.00     0.167 HD
ATOM     69  C   UNL     1      -4.416 -17.470  -2.674  1.00  0.00     0.074 A 
ATOM     70  C   UNL     1      -3.583 -18.098  -3.678  1.00  0.00     0.031 C 
ATOM     71  C   UNL     1      -5.494 -18.062  -2.099  1.00  0.00     0.037 A 
BRANCH  58  72
ATOM     72  C   UNL     1      -8.302 -14.591   2.182  1.00  0.00     0.058 A 
ATOM     73  C   UNL     1      -9.379 -13.703   2.027  1.00  0.00     0.135 A 
ATOM     74  C   UNL     1      -8.281 -15.398   3.332  1.00  0.00     0.135 A 
ATOM     75  F   UNL     1      -9.439 -12.892   0.958  1.00  0.00    -0.206 F 
ATOM     76  C   UNL     1     -10.380 -13.599   2.986  1.00  0.00     0.059 A 
ATOM     77  C   UNL     1      -9.290 -15.335   4.288  1.00  0.00     0.059 A 
ATOM     78  F   UNL     1      -7.273 -16.260   3.534  1.00  0.00    -0.206 F 
ATOM     79  C   UNL     1     -10.328 -14.422   4.113  1.00  0.00     0.060 A 
BRANCH  79  80
ATOM     80  S   UNL     1     -11.642 -14.284   5.342  1.00  0.00     0.124 S 
ATOM     81  O   UNL     1     -11.346 -12.987   5.943  1.00  0.00    -0.237 OA
ATOM     82  O   UNL     1     -12.846 -14.341   4.519  1.00  0.00    -0.237 OA
ATOM     83  O   UNL     1     -11.423 -15.439   6.207  1.00  0.00    -0.744 OA
ENDBRANCH  79  80
ENDBRANCH  58  72
BRANCH  59  84
ATOM     84  C   UNL     1      -0.797 -15.008  -4.428  1.00  0.00     0.058 A 
ATOM     85  C   UNL     1      -1.016 -15.112  -5.810  1.00  0.00     0.135 A 
ATOM     86  C   UNL     1       0.533 -15.009  -3.978  1.00  0.00     0.135 A 
ATOM     87  F   UNL     1      -2.268 -15.131  -6.291  1.00  0.00    -0.206 F 
ATOM     88  C   UNL     1       0.039 -15.229  -6.710  1.00  0.00     0.059 A 
ATOM     89  C   UNL     1       1.606 -15.095  -4.861  1.00  0.00     0.059 A 
ATOM     90  F   UNL     1       0.800 -14.908  -2.667  1.00  0.00    -0.206 F 
ATOM     91  C   UNL     1       1.348 -15.215  -6.226  1.00  0.00     0.060 A 
BRANCH  91  92
ATOM     92  S   UNL     1       2.708 -15.319  -7.409  1.00  0.00     0.124 S 
ATOM     93  O   UNL     1       2.605 -16.703  -7.856  1.00  0.00    -0.237 OA
ATOM     94  O   UNL     1       2.338 -14.302  -8.389  1.00  0.00    -0.237 OA
ATOM     95  O   UNL     1       3.882 -15.004  -6.601  1.00  0.00    -0.744 OA
ENDBRANCH  91  92
ENDBRANCH  59  84
BRANCH  71  96
ATOM     96  C   UNL     1      -5.891 -19.431  -2.585  1.00  0.00     0.058 A 
ATOM     97  C   UNL     1      -5.150 -20.581  -2.274  1.00  0.00     0.135 A 
ATOM     98  C   UNL     1      -7.088 -19.600  -3.303  1.00  0.00     0.135 A 
ATOM     99  F   UNL     1      -3.997 -20.479  -1.594  1.00  0.00    -0.206 F 
ATOM    100  C   UNL     1      -5.571 -21.847  -2.671  1.00  0.00     0.059 A 
ATOM    101  C   UNL     1      -7.544 -20.858  -3.683  1.00  0.00     0.059 A 
ATOM    102  F   UNL     1      -7.843 -18.535  -3.618  1.00  0.00    -0.206 F 
ATOM    103  C   UNL     1      -6.774 -21.976  -3.369  1.00  0.00     0.060 A 
BRANCH 103 104
ATOM    104  S   UNL     1      -7.336 -23.628  -3.832  1.00  0.00     0.124 S 
ATOM    105  O   UNL     1      -6.395 -23.973  -4.893  1.00  0.00    -0.237 OA
ATOM    106  O   UNL     1      -7.183 -24.370  -2.584  1.00  0.00    -0.237 OA
ATOM    107  O   UNL     1      -8.714 -23.413  -4.262  1.00  0.00    -0.744 OA
ENDBRANCH 103 104
ENDBRANCH  71  96
ENDBRANCH  45  46
ENDBRANCH  38  40
ENDBRANCH  37  38
ENDBRANCH  36  37
ENDBRANCH  35  36
ENDBRANCH  34  35
ENDBRANCH  33  34
ENDBRANCH   1  33
TORSDOF 26
