REMARK SMILES O=C(OCCOCCOCCOC(=O)[C@H]1C[NH2+]CCN1c1ncc(C(F)(F)F)cc1Cl)c1ccc(-c2c3nc(c(-c4c(F)cc(S(=O)(=O)[O-])cc4F)c4ccc([nH]4)c(-c4c(F)cc(S(=O)(=O)[O-])cc4F)c4nc(c(-c5c(F)cc(S(=O)(=O)[O-])cc5F)c5ccc2[nH]5)C=C4)C=C3)cc1
REMARK SMILES IDX 7 1 6 2 5 3 4 4 3 5 2 6 1 7 32 8 33 9 97 10 34 11 96 12
REMARK SMILES IDX 35 13 36 14 37 15 90 16 38 17 95 18 89 19 91 20 39 21 94 22
REMARK SMILES IDX 88 23 87 24 40 26 74 27 53 28 73 29 54 30 57 31 72 32 92 33
REMARK SMILES IDX 55 34 56 35 71 37 93 38 58 39 41 40 42 41 51 42 43 43 44 44
REMARK SMILES IDX 50 45 52 46 45 47 46 48 47 49 48 50 49 51 75 52 76 53 85 54
REMARK SMILES IDX 77 55 78 56 84 57 86 58 79 59 80 60 81 61 82 62 83 63 59 64
REMARK SMILES IDX 60 65 69 66 61 67 62 68 68 69 70 70 63 71 64 72 65 73 66 74
REMARK SMILES IDX 67 75 8 76 9 77 10 78 11 79 12 80 13 81 14 82 15 83 16 84
REMARK SMILES IDX 20 85 17 86 19 87 18 88 21 91 22 92 30 93 23 94 29 95 31 96
REMARK SMILES IDX 24 97 25 98 26 99 27 100 28 101
REMARK H PARENT 91 25 57 36 17 89 17 90
REMARK Flexibility Score: inf
ROOT
ATOM      1  C   UNL     1       4.686   0.779   2.808  1.00  0.00     0.188 C 
ENDROOT
BRANCH   1   2
ATOM      2  O   UNL     1       3.766   1.236   3.806  1.00  0.00    -0.376 OA
BRANCH   2   3
ATOM      3  C   UNL     1       3.641   0.343   4.921  1.00  0.00     0.202 C 
BRANCH   3   4
ATOM      4  C   UNL     1       2.920  -0.992   4.655  1.00  0.00     0.261 C 
BRANCH   4   5
ATOM      5  O   UNL     1       3.030  -1.455   3.299  1.00  0.00    -0.460 OA
BRANCH   5   6
ATOM      6  C   UNL     1       2.212  -1.214   2.244  1.00  0.00     0.338 C 
ATOM      7  O   UNL     1       2.485  -1.753   1.171  1.00  0.00    -0.246 OA
BRANCH   6   8
ATOM      8  C   UNL     1       1.011  -0.318   2.290  1.00  0.00     0.060 A 
ATOM      9  C   UNL     1       0.745   0.629   3.277  1.00  0.00     0.016 A 
ATOM     10  C   UNL     1       0.101  -0.415   1.219  1.00  0.00     0.016 A 
ATOM     11  C   UNL     1      -0.426   1.375   3.272  1.00  0.00     0.010 A 
ATOM     12  C   UNL     1      -1.071   0.352   1.189  1.00  0.00     0.010 A 
ATOM     13  C   UNL     1      -1.357   1.213   2.249  1.00  0.00    -0.014 A 
BRANCH  13  14
ATOM     14  C   UNL     1      -2.687   1.818   2.456  1.00  0.00     0.031 A 
ATOM     15  C   UNL     1      -3.763   0.950   3.018  1.00  0.00     0.074 A 
ATOM     16  C   UNL     1      -2.854   3.143   2.310  1.00  0.00     0.049 A 
ATOM     17  N   UNL     1      -4.973   1.273   3.378  1.00  0.00    -0.248 NA
ATOM     18  C   UNL     1      -3.438  -0.476   3.195  1.00  0.00     0.031 C 
ATOM     19  C   UNL     1      -1.831   4.040   1.796  1.00  0.00     0.029 A 
ATOM     20  N   UNL     1      -3.899   3.975   2.615  1.00  0.00    -0.354 N 
ATOM     21  C   UNL     1      -5.571   0.087   3.774  1.00  0.00     0.074 A 
ATOM     22  C   UNL     1      -4.589  -0.963   3.628  1.00  0.00     0.031 C 
ATOM     23  C   UNL     1      -2.260   5.306   1.891  1.00  0.00     0.029 A 
ATOM     24  C   UNL     1      -3.606   5.310   2.437  1.00  0.00     0.049 A 
ATOM     25  H   UNL     1      -4.773   3.651   2.931  1.00  0.00     0.167 HD
ATOM     26  C   UNL     1      -6.843  -0.097   4.191  1.00  0.00     0.037 A 
ATOM     27  C   UNL     1      -4.347   6.408   2.683  1.00  0.00     0.037 A 
ATOM     28  C   UNL     1      -7.790   0.980   4.301  1.00  0.00     0.049 A 
ATOM     29  C   UNL     1      -5.754   6.175   3.157  1.00  0.00     0.074 A 
ATOM     30  C   UNL     1      -9.128   0.925   4.636  1.00  0.00     0.029 A 
ATOM     31  N   UNL     1      -7.487   2.319   4.067  1.00  0.00    -0.354 N 
ATOM     32  N   UNL     1      -6.336   5.039   3.468  1.00  0.00    -0.248 NA
ATOM     33  C   UNL     1      -6.624   7.350   3.261  1.00  0.00     0.031 C 
ATOM     34  C   UNL     1      -9.646   2.222   4.556  1.00  0.00     0.029 A 
ATOM     35  C   UNL     1      -8.618   3.097   4.235  1.00  0.00     0.049 A 
ATOM     36  H   UNL     1      -6.598   2.661   3.818  1.00  0.00     0.167 HD
ATOM     37  C   UNL     1      -7.647   5.357   3.785  1.00  0.00     0.074 A 
ATOM     38  C   UNL     1      -7.757   6.801   3.678  1.00  0.00     0.031 C 
ATOM     39  C   UNL     1      -8.676   4.535   4.109  1.00  0.00     0.037 A 
BRANCH  26  40
ATOM     40  C   UNL     1      -7.276  -1.513   4.436  1.00  0.00     0.058 A 
ATOM     41  C   UNL     1      -6.798  -2.270   5.518  1.00  0.00     0.135 A 
ATOM     42  C   UNL     1      -8.136  -2.147   3.525  1.00  0.00     0.135 A 
ATOM     43  F   UNL     1      -5.938  -1.728   6.396  1.00  0.00    -0.206 F 
ATOM     44  C   UNL     1      -7.128  -3.614   5.667  1.00  0.00     0.059 A 
ATOM     45  C   UNL     1      -8.504  -3.481   3.671  1.00  0.00     0.059 A 
ATOM     46  F   UNL     1      -8.606  -1.477   2.461  1.00  0.00    -0.206 F 
ATOM     47  C   UNL     1      -7.979  -4.211   4.735  1.00  0.00     0.060 A 
BRANCH  47  48
ATOM     48  S   UNL     1      -8.380  -5.961   4.926  1.00  0.00     0.124 S 
ATOM     49  O   UNL     1      -7.117  -6.592   4.553  1.00  0.00    -0.237 OA
ATOM     50  O   UNL     1      -8.736  -6.045   6.339  1.00  0.00    -0.237 OA
ATOM     51  O   UNL     1      -9.482  -6.162   3.991  1.00  0.00    -0.744 OA
ENDBRANCH  47  48
ENDBRANCH  26  40
BRANCH  27  52
ATOM     52  C   UNL     1      -3.804   7.782   2.462  1.00  0.00     0.058 A 
ATOM     53  C   UNL     1      -3.687   8.702   3.517  1.00  0.00     0.135 A 
ATOM     54  C   UNL     1      -3.378   8.210   1.193  1.00  0.00     0.135 A 
ATOM     55  F   UNL     1      -4.086   8.361   4.753  1.00  0.00    -0.206 F 
ATOM     56  C   UNL     1      -3.180   9.987   3.323  1.00  0.00     0.059 A 
ATOM     57  C   UNL     1      -2.829   9.472   0.981  1.00  0.00     0.059 A 
ATOM     58  F   UNL     1      -3.465   7.384   0.139  1.00  0.00    -0.206 F 
ATOM     59  C   UNL     1      -2.748  10.361   2.050  1.00  0.00     0.060 A 
BRANCH  59  60
ATOM     60  S   UNL     1      -2.049  12.010   1.811  1.00  0.00     0.124 S 
ATOM     61  O   UNL     1      -3.240  12.847   1.881  1.00  0.00    -0.237 OA
ATOM     62  O   UNL     1      -1.124  12.117   2.935  1.00  0.00    -0.237 OA
ATOM     63  O   UNL     1      -1.418  11.918   0.497  1.00  0.00    -0.744 OA
ENDBRANCH  59  60
ENDBRANCH  27  52
BRANCH  39  64
ATOM     64  C   UNL     1      -9.994   5.194   4.385  1.00  0.00     0.058 A 
ATOM     65  C   UNL     1     -10.769   5.751   3.357  1.00  0.00     0.135 A 
ATOM     66  C   UNL     1     -10.498   5.234   5.694  1.00  0.00     0.135 A 
ATOM     67  F   UNL     1     -10.321   5.744   2.091  1.00  0.00    -0.206 F 
ATOM     68  C   UNL     1     -11.991   6.355   3.622  1.00  0.00     0.059 A 
ATOM     69  C   UNL     1     -11.732   5.804   5.976  1.00  0.00     0.059 A 
ATOM     70  F   UNL     1      -9.795   4.705   6.707  1.00  0.00    -0.206 F 
ATOM     71  C   UNL     1     -12.464   6.375   4.936  1.00  0.00     0.060 A 
BRANCH  71  72
ATOM     72  S   UNL     1     -14.064   7.139   5.265  1.00  0.00     0.124 S 
ATOM     73  O   UNL     1     -13.743   8.556   5.131  1.00  0.00    -0.237 OA
ATOM     74  O   UNL     1     -14.901   6.575   4.211  1.00  0.00    -0.237 OA
ATOM     75  O   UNL     1     -14.381   6.691   6.617  1.00  0.00    -0.744 OA
ENDBRANCH  71  72
ENDBRANCH  39  64
ENDBRANCH  13  14
ENDBRANCH   6   8
ENDBRANCH   5   6
ENDBRANCH   4   5
ENDBRANCH   3   4
ENDBRANCH   2   3
ENDBRANCH   1   2
BRANCH   1  76
ATOM     76  C   UNL     1       5.580   1.884   2.249  1.00  0.00     0.188 C 
BRANCH  76  77
ATOM     77  O   UNL     1       6.555   2.438   3.129  1.00  0.00    -0.376 OA
BRANCH  77  78
ATOM     78  C   UNL     1       6.109   2.959   4.375  1.00  0.00     0.202 C 
BRANCH  78  79
ATOM     79  C   UNL     1       5.319   4.271   4.359  1.00  0.00     0.261 C 
BRANCH  79  80
ATOM     80  O   UNL     1       4.207   4.274   3.463  1.00  0.00    -0.462 OA
BRANCH  80  81
ATOM     81  C   UNL     1       4.385   4.922   2.268  1.00  0.00     0.334 C 
ATOM     82  O   UNL     1       5.438   5.432   1.920  1.00  0.00    -0.250 OA
BRANCH  81  83
ATOM     83  C   UNL     1       3.095   4.900   1.416  1.00  0.00     0.249 C 
ATOM     84  C   UNL     1       1.960   4.065   2.053  1.00  0.00     0.298 C 
ATOM     85  N   UNL     1       2.563   6.254   1.225  1.00  0.00    -0.331 N 
ATOM     86  N   UNL     1       1.407   4.621   3.314  1.00  0.00    -0.343 N 
ATOM     87  C   UNL     1       2.144   6.950   2.432  1.00  0.00     0.180 C 
ATOM     88  C   UNL     1       1.095   6.067   3.164  1.00  0.00     0.282 C 
ATOM     89  H   UNL     1       2.092   4.503   4.060  1.00  0.00     0.346 HD
ATOM     90  H   UNL     1       0.545   4.124   3.539  1.00  0.00     0.346 HD
BRANCH  85  91
ATOM     91  C   UNL     1       2.836   6.924   0.061  1.00  0.00     0.148 A 
ATOM     92  N   UNL     1       3.859   7.806   0.073  1.00  0.00    -0.237 NA
ATOM     93  C   UNL     1       2.121   6.663  -1.121  1.00  0.00     0.084 A 
ATOM     94  C   UNL     1       4.204   8.402  -1.093  1.00  0.00     0.126 A 
ATOM     95  C   UNL     1       2.488   7.298  -2.306  1.00  0.00     0.039 A 
ATOM     96  Cl  UNL     1       0.780   5.573  -1.175  1.00  0.00    -0.080 Cl
ATOM     97  C   UNL     1       3.568   8.180  -2.305  1.00  0.00     0.075 A 
BRANCH  97  98
ATOM     98  C   UNL     1       4.062   8.846  -3.547  1.00  0.00     0.417 C 
ATOM     99  F   UNL     1       4.105  10.202  -3.448  1.00  0.00    -0.166 F 
ATOM    100  F   UNL     1       5.329   8.459  -3.870  1.00  0.00    -0.166 F 
ATOM    101  F   UNL     1       3.308   8.574  -4.649  1.00  0.00    -0.166 F 
ENDBRANCH  97  98
ENDBRANCH  85  91
ENDBRANCH  81  83
ENDBRANCH  80  81
ENDBRANCH  79  80
ENDBRANCH  78  79
ENDBRANCH  77  78
ENDBRANCH  76  77
ENDBRANCH   1  76
TORSDOF 22
