REMARK SMILES C[C@]1(C(=O)N2CCC(CC(=O)OCCOCCOCCOC(=O)c3ccc(-c4c5nc(c(-c6c(F)cc(S(=O)(=O)[O-])cc6F)c6ccc([nH]6)c(-c6c(F)cc(S(=O)(=O)[O-])cc6F)c6nc(c(-c7c(F)cc(S(=O)(=O)[O-])cc7F)c7ccc4[nH]7)C=C6)C=C5)cc3)CC2)CCC[NH2+]C1
REMARK SMILES IDX 17 1 16 2 15 3 14 4 13 5 12 6 10 7 11 8 9 9 8 10 3 11 4 12
REMARK SMILES IDX 5 13 6 14 91 15 7 16 90 17 2 18 1 19 92 20 96 21 93 22 95 23
REMARK SMILES IDX 94 24 18 27 19 28 20 29 21 30 22 31 23 32 24 33 25 34 89 35
REMARK SMILES IDX 26 36 88 37 27 38 28 39 29 40 82 41 30 42 87 43 81 44 83 45
REMARK SMILES IDX 31 46 86 47 80 48 79 49 32 51 66 52 45 53 65 54 46 55 49 56
REMARK SMILES IDX 64 57 84 58 47 59 48 60 63 62 85 63 50 64 33 65 34 66 43 67
REMARK SMILES IDX 35 68 36 69 42 70 44 71 37 72 38 73 39 74 40 75 41 76 67 77
REMARK SMILES IDX 68 78 77 79 69 80 70 81 76 82 78 83 71 84 72 85 73 86 74 87
REMARK SMILES IDX 75 88 51 89 52 90 61 91 53 92 54 93 60 94 62 95 55 96 56 97
REMARK SMILES IDX 57 98 58 99 59 100
REMARK H PARENT 95 25 95 26 83 50 49 61
REMARK Flexibility Score: inf
ROOT
ATOM      1  C   UNL     1       8.251   1.482   1.334  1.00  0.00     0.188 C 
ENDROOT
BRANCH   1   2
ATOM      2  C   UNL     1       8.898   1.486  -0.051  1.00  0.00     0.188 C 
BRANCH   2   3
ATOM      3  O   UNL     1       9.555   2.686  -0.442  1.00  0.00    -0.376 OA
BRANCH   3   4
ATOM      4  C   UNL     1       8.759   3.869  -0.481  1.00  0.00     0.202 C 
BRANCH   4   5
ATOM      5  C   UNL     1       7.620   3.887  -1.510  1.00  0.00     0.261 C 
BRANCH   5   6
ATOM      6  O   UNL     1       6.742   2.750  -1.408  1.00  0.00    -0.463 OA
BRANCH   6   7
ATOM      7  C   UNL     1       6.566   2.034  -2.544  1.00  0.00     0.306 C 
ATOM      8  O   UNL     1       6.990   2.365  -3.647  1.00  0.00    -0.252 OA
BRANCH   7   9
ATOM      9  C   UNL     1       5.822   0.724  -2.361  1.00  0.00     0.126 C 
BRANCH   9  10
ATOM     10  C   UNL     1       5.135   0.328  -1.033  1.00  0.00     0.003 C 
ATOM     11  C   UNL     1       1.080  -0.046  -0.061  1.00  0.00     0.234 C 
ATOM     12  O   UNL     1       0.466  -0.996   0.439  1.00  0.00    -0.274 OA
ATOM     13  N   UNL     1       2.456  -0.033  -0.050  1.00  0.00    -0.342 N 
ATOM     14  C   UNL     1       3.209  -1.249  -0.279  1.00  0.00     0.120 C 
ATOM     15  C   UNL     1       3.246   1.020   0.554  1.00  0.00     0.120 C 
ATOM     16  C   UNL     1       4.272  -0.940  -1.328  1.00  0.00     0.026 C 
ATOM     17  C   UNL     1       4.322   1.484  -0.417  1.00  0.00     0.026 C 
BRANCH  11  18
ATOM     18  C   UNL     1       0.315   0.988  -0.941  1.00  0.00     0.095 C 
ATOM     19  C   UNL     1      -0.223   0.140  -2.124  1.00  0.00     0.028 C 
ATOM     20  C   UNL     1      -0.880   1.557  -0.151  1.00  0.00     0.028 C 
ATOM     21  C   UNL     1       1.093   2.160  -1.573  1.00  0.00     0.277 C 
ATOM     22  C   UNL     1      -0.419   2.629   0.834  1.00  0.00     0.063 C 
ATOM     23  N   UNL     1       1.472   3.234  -0.652  1.00  0.00    -0.345 N 
ATOM     24  C   UNL     1       0.349   3.743   0.125  1.00  0.00     0.260 C 
ATOM     25  H   UNL     1       2.177   2.876  -0.008  1.00  0.00     0.346 HD
ATOM     26  H   UNL     1       1.827   4.007  -1.215  1.00  0.00     0.346 HD
ENDBRANCH  11  18
ENDBRANCH   9  10
ENDBRANCH   7   9
ENDBRANCH   6   7
ENDBRANCH   5   6
ENDBRANCH   4   5
ENDBRANCH   3   4
ENDBRANCH   2   3
ENDBRANCH   1   2
BRANCH   1  27
ATOM     27  O   UNL     1       7.394   2.577   1.637  1.00  0.00    -0.376 OA
BRANCH  27  28
ATOM     28  C   UNL     1       6.723   2.499   2.902  1.00  0.00     0.202 C 
BRANCH  28  29
ATOM     29  C   UNL     1       7.614   2.264   4.141  1.00  0.00     0.261 C 
BRANCH  29  30
ATOM     30  O   UNL     1       8.353   1.023   4.149  1.00  0.00    -0.460 OA
BRANCH  30  31
ATOM     31  C   UNL     1       7.665  -0.126   3.944  1.00  0.00     0.338 C 
ATOM     32  O   UNL     1       6.453  -0.256   3.981  1.00  0.00    -0.246 OA
BRANCH  31  33
ATOM     33  C   UNL     1       8.600  -1.143   3.384  1.00  0.00     0.060 A 
ATOM     34  C   UNL     1       8.124  -2.000   2.380  1.00  0.00     0.016 A 
ATOM     35  C   UNL     1       9.943  -1.213   3.772  1.00  0.00     0.016 A 
ATOM     36  C   UNL     1       8.970  -2.951   1.799  1.00  0.00     0.010 A 
ATOM     37  C   UNL     1      10.786  -2.173   3.198  1.00  0.00     0.010 A 
ATOM     38  C   UNL     1      10.297  -3.071   2.233  1.00  0.00    -0.014 A 
BRANCH  38  39
ATOM     39  C   UNL     1      11.101  -4.264   1.851  1.00  0.00     0.031 A 
ATOM     40  C   UNL     1      11.160  -5.415   2.824  1.00  0.00     0.074 A 
ATOM     41  C   UNL     1      11.741  -4.356   0.670  1.00  0.00     0.049 A 
ATOM     42  N   UNL     1      11.837  -6.532   2.753  1.00  0.00    -0.248 NA
ATOM     43  C   UNL     1      10.339  -5.285   4.040  1.00  0.00     0.031 C 
ATOM     44  C   UNL     1      11.730  -3.345  -0.386  1.00  0.00     0.029 A 
ATOM     45  N   UNL     1      12.537  -5.358   0.165  1.00  0.00    -0.354 N 
ATOM     46  C   UNL     1      11.518  -7.240   3.906  1.00  0.00     0.074 A 
ATOM     47  C   UNL     1      10.621  -6.410   4.680  1.00  0.00     0.031 C 
ATOM     48  C   UNL     1      12.496  -3.772  -1.408  1.00  0.00     0.029 A 
ATOM     49  C   UNL     1      13.078  -5.071  -1.068  1.00  0.00     0.049 A 
ATOM     50  H   UNL     1      12.705  -6.202   0.642  1.00  0.00     0.167 HD
ATOM     51  C   UNL     1      11.918  -8.477   4.284  1.00  0.00     0.037 A 
ATOM     52  C   UNL     1      13.958  -5.766  -1.821  1.00  0.00     0.037 A 
ATOM     53  C   UNL     1      12.819  -9.304   3.527  1.00  0.00     0.049 A 
ATOM     54  C   UNL     1      14.475  -7.099  -1.327  1.00  0.00     0.074 A 
ATOM     55  C   UNL     1      13.304 -10.561   3.846  1.00  0.00     0.029 A 
ATOM     56  N   UNL     1      13.369  -8.962   2.302  1.00  0.00    -0.354 N 
ATOM     57  N   UNL     1      14.165  -7.754  -0.233  1.00  0.00    -0.248 NA
ATOM     58  C   UNL     1      15.464  -7.787  -2.173  1.00  0.00     0.031 C 
ATOM     59  C   UNL     1      14.179 -10.963   2.832  1.00  0.00     0.029 A 
ATOM     60  C   UNL     1      14.198  -9.979   1.857  1.00  0.00     0.049 A 
ATOM     61  H   UNL     1      13.196  -8.122   1.820  1.00  0.00     0.167 HD
ATOM     62  C   UNL     1      14.888  -8.944  -0.283  1.00  0.00     0.074 A 
ATOM     63  C   UNL     1      15.645  -8.924  -1.515  1.00  0.00     0.031 C 
ATOM     64  C   UNL     1      14.924  -9.963   0.613  1.00  0.00     0.037 A 
BRANCH  51  65
ATOM     65  C   UNL     1      11.385  -9.011   5.583  1.00  0.00     0.058 A 
ATOM     66  C   UNL     1      10.049  -9.424   5.711  1.00  0.00     0.135 A 
ATOM     67  C   UNL     1      12.226  -9.155   6.697  1.00  0.00     0.135 A 
ATOM     68  F   UNL     1       9.197  -9.285   4.682  1.00  0.00    -0.206 F 
ATOM     69  C   UNL     1       9.562  -9.947   6.903  1.00  0.00     0.059 A 
ATOM     70  C   UNL     1      11.767  -9.701   7.892  1.00  0.00     0.059 A 
ATOM     71  F   UNL     1      13.510  -8.769   6.629  1.00  0.00    -0.206 F 
ATOM     72  C   UNL     1      10.430 -10.085   7.987  1.00  0.00     0.060 A 
BRANCH  72  73
ATOM     73  S   UNL     1       9.786 -10.786   9.521  1.00  0.00     0.124 S 
ATOM     74  O   UNL     1       8.937  -9.700  10.002  1.00  0.00    -0.237 OA
ATOM     75  O   UNL     1       9.086 -11.976   9.048  1.00  0.00    -0.237 OA
ATOM     76  O   UNL     1      10.987 -11.040  10.310  1.00  0.00    -0.744 OA
ENDBRANCH  72  73
ENDBRANCH  51  65
BRANCH  52  77
ATOM     77  C   UNL     1      14.452  -5.217  -3.116  1.00  0.00     0.058 A 
ATOM     78  C   UNL     1      14.161  -5.851  -4.335  1.00  0.00     0.135 A 
ATOM     79  C   UNL     1      15.288  -4.090  -3.155  1.00  0.00     0.135 A 
ATOM     80  F   UNL     1      13.380  -6.942  -4.352  1.00  0.00    -0.206 F 
ATOM     81  C   UNL     1      14.711  -5.414  -5.537  1.00  0.00     0.059 A 
ATOM     82  C   UNL     1      15.825  -3.615  -4.348  1.00  0.00     0.059 A 
ATOM     83  F   UNL     1      15.596  -3.441  -2.021  1.00  0.00    -0.206 F 
ATOM     84  C   UNL     1      15.548  -4.298  -5.532  1.00  0.00     0.060 A 
BRANCH  84  85
ATOM     85  S   UNL     1      16.262  -3.739  -7.094  1.00  0.00     0.124 S 
ATOM     86  O   UNL     1      17.282  -4.753  -7.330  1.00  0.00    -0.237 OA
ATOM     87  O   UNL     1      15.109  -3.773  -7.989  1.00  0.00    -0.237 OA
ATOM     88  O   UNL     1      16.760  -2.404  -6.776  1.00  0.00    -0.744 OA
ENDBRANCH  84  85
ENDBRANCH  52  77
BRANCH  64  89
ATOM     89  C   UNL     1      15.757 -11.171   0.275  1.00  0.00     0.058 A 
ATOM     90  C   UNL     1      17.160 -11.140   0.313  1.00  0.00     0.135 A 
ATOM     91  C   UNL     1      15.138 -12.395  -0.029  1.00  0.00     0.135 A 
ATOM     92  F   UNL     1      17.803  -9.997   0.596  1.00  0.00    -0.206 F 
ATOM     93  C   UNL     1      17.920 -12.274   0.038  1.00  0.00     0.059 A 
ATOM     94  C   UNL     1      15.878 -13.548  -0.279  1.00  0.00     0.059 A 
ATOM     95  F   UNL     1      13.799 -12.485  -0.066  1.00  0.00    -0.206 F 
ATOM     96  C   UNL     1      17.269 -13.474  -0.254  1.00  0.00     0.060 A 
BRANCH  96  97
ATOM     97  S   UNL     1      18.267 -14.946  -0.571  1.00  0.00     0.124 S 
ATOM     98  O   UNL     1      18.795 -14.664  -1.901  1.00  0.00    -0.237 OA
ATOM     99  O   UNL     1      19.237 -14.907   0.518  1.00  0.00    -0.237 OA
ATOM    100  O   UNL     1      17.298 -16.036  -0.499  1.00  0.00    -0.744 OA
ENDBRANCH  96  97
ENDBRANCH  64  89
ENDBRANCH  38  39
ENDBRANCH  31  33
ENDBRANCH  30  31
ENDBRANCH  29  30
ENDBRANCH  28  29
ENDBRANCH  27  28
ENDBRANCH   1  27
TORSDOF 22
