REMARK SMILES Cc1cc(C(=O)Nc2c(Cl)cc(Cl)cc2C(=O)OCCOCCOCCOC(=O)c2ccc(-c3c4nc(c(-c5c(F)cc(S(=O)(=O)[O-])cc5F)c5ccc([nH]5)c(-c5c(F)cc(S(=O)(=O)[O-])cc5F)c5nc(c(-c6c(F)cc(S(=O)(=O)[O-])cc6F)c6ccc3[nH]6)C=C5)C=C4)cc2)c(C)s1
REMARK SMILES IDX 23 1 22 2 21 3 20 4 19 5 18 6 16 7 17 8 15 9 8 10 9 11 10 12
REMARK SMILES IDX 11 13 14 14 12 15 13 16 7 17 5 18 6 19 4 21 1 22 2 23 3 24
REMARK SMILES IDX 98 25 96 26 97 27 24 28 25 29 26 30 27 31 28 32 29 33 30 34
REMARK SMILES IDX 31 35 95 36 32 37 94 38 33 39 34 40 35 41 88 42 36 43 93 44
REMARK SMILES IDX 87 45 89 46 37 47 92 48 86 49 85 50 38 52 72 53 51 54 71 55
REMARK SMILES IDX 52 56 55 57 70 58 90 59 53 60 54 61 69 63 91 64 56 65 39 66
REMARK SMILES IDX 40 67 49 68 41 69 42 70 48 71 50 72 43 73 44 74 45 75 46 76
REMARK SMILES IDX 47 77 73 78 74 79 83 80 75 81 76 82 82 83 84 84 77 85 78 86
REMARK SMILES IDX 79 87 80 88 81 89 57 90 58 91 67 92 59 93 60 94 66 95 68 96
REMARK SMILES IDX 61 97 62 98 63 99 64 100 65 101
REMARK H PARENT 7 20 89 51 55 62
REMARK Flexibility Score: inf
ROOT
ATOM      1  C   UNL     1      -0.095  -4.525   3.387  1.00  0.00     0.188 C 
ENDROOT
BRANCH   1   2
ATOM      2  C   UNL     1      -0.674  -5.925   3.672  1.00  0.00     0.188 C 
BRANCH   2   3
ATOM      3  O   UNL     1       0.192  -6.979   4.076  1.00  0.00    -0.376 OA
BRANCH   3   4
ATOM      4  C   UNL     1       1.443  -7.159   3.425  1.00  0.00     0.202 C 
BRANCH   4   5
ATOM      5  C   UNL     1       1.439  -7.369   1.908  1.00  0.00     0.261 C 
BRANCH   5   6
ATOM      6  O   UNL     1       0.814  -6.295   1.177  1.00  0.00    -0.460 OA
BRANCH   6   7
ATOM      7  C   UNL     1      -0.242  -6.662   0.413  1.00  0.00     0.340 C 
ATOM      8  O   UNL     1      -0.623  -7.806   0.216  1.00  0.00    -0.246 OA
BRANCH   7   9
ATOM      9  C   UNL     1      -1.002  -5.503  -0.121  1.00  0.00     0.086 A 
ATOM     10  C   UNL     1      -0.436  -4.310  -0.620  1.00  0.00     0.075 A 
ATOM     11  C   UNL     1      -1.264  -3.505  -1.426  1.00  0.00     0.067 A 
ATOM     12  Cl  UNL     1      -0.620  -2.370  -2.569  1.00  0.00    -0.082 Cl
ATOM     13  C   UNL     1      -2.652  -3.683  -1.441  1.00  0.00     0.043 A 
ATOM     14  C   UNL     1      -2.397  -5.680  -0.136  1.00  0.00     0.038 A 
ATOM     15  C   UNL     1      -3.216  -4.734  -0.734  1.00  0.00     0.043 A 
ATOM     16  Cl  UNL     1      -4.922  -4.899  -0.650  1.00  0.00    -0.084 Cl
BRANCH  10  17
ATOM     17  N   UNL     1       0.888  -3.969  -0.255  1.00  0.00    -0.320 N 
ATOM     18  C   UNL     1       1.515  -2.758   0.008  1.00  0.00     0.256 C 
ATOM     19  O   UNL     1       2.736  -2.807   0.179  1.00  0.00    -0.269 OA
ATOM     20  H   UNL     1       1.486  -4.747  -0.171  1.00  0.00     0.170 HD
BRANCH  18  21
ATOM     21  C   UNL     1       0.768  -1.493   0.165  1.00  0.00     0.054 A 
ATOM     22  C   UNL     1      -2.505   0.412   0.469  1.00  0.00     0.056 C 
ATOM     23  C   UNL     1      -1.095  -0.064   0.397  1.00  0.00     0.003 A 
ATOM     24  C   UNL     1      -0.598  -1.332   0.608  1.00  0.00     0.029 A 
ATOM     25  S   UNL     1       0.153   1.022   0.010  1.00  0.00    -0.145 S 
ATOM     26  C   UNL     1       1.330  -0.231  -0.033  1.00  0.00     0.014 A 
ATOM     27  C   UNL     1       2.741   0.186  -0.305  1.00  0.00     0.057 C 
ENDBRANCH  18  21
ENDBRANCH  10  17
ENDBRANCH   7   9
ENDBRANCH   6   7
ENDBRANCH   5   6
ENDBRANCH   4   5
ENDBRANCH   3   4
ENDBRANCH   2   3
ENDBRANCH   1   2
BRANCH   1  28
ATOM     28  O   UNL     1       1.272  -4.384   3.725  1.00  0.00    -0.376 OA
BRANCH  28  29
ATOM     29  C   UNL     1       1.564  -3.526   4.819  1.00  0.00     0.202 C 
BRANCH  29  30
ATOM     30  C   UNL     1       1.070  -3.989   6.198  1.00  0.00     0.261 C 
BRANCH  30  31
ATOM     31  O   UNL     1      -0.334  -4.282   6.299  1.00  0.00    -0.460 OA
BRANCH  31  32
ATOM     32  C   UNL     1      -1.192  -3.239   6.228  1.00  0.00     0.338 C 
ATOM     33  O   UNL     1      -0.908  -2.068   6.057  1.00  0.00    -0.246 OA
BRANCH  32  34
ATOM     34  C   UNL     1      -2.566  -3.791   6.198  1.00  0.00     0.060 A 
ATOM     35  C   UNL     1      -3.397  -3.491   5.111  1.00  0.00     0.016 A 
ATOM     36  C   UNL     1      -3.025  -4.610   7.233  1.00  0.00     0.016 A 
ATOM     37  C   UNL     1      -4.701  -3.992   5.071  1.00  0.00     0.010 A 
ATOM     38  C   UNL     1      -4.336  -5.096   7.199  1.00  0.00     0.010 A 
ATOM     39  C   UNL     1      -5.189  -4.769   6.131  1.00  0.00    -0.014 A 
BRANCH  39  40
ATOM     40  C   UNL     1      -6.634  -5.101   6.212  1.00  0.00     0.031 A 
ATOM     41  C   UNL     1      -7.533  -4.205   7.021  1.00  0.00     0.074 A 
ATOM     42  C   UNL     1      -7.143  -6.178   5.586  1.00  0.00     0.049 A 
ATOM     43  N   UNL     1      -8.815  -4.309   7.257  1.00  0.00    -0.248 NA
ATOM     44  C   UNL     1      -6.896  -3.037   7.649  1.00  0.00     0.031 C 
ATOM     45  C   UNL     1      -6.387  -7.108   4.750  1.00  0.00     0.029 A 
ATOM     46  N   UNL     1      -8.424  -6.673   5.566  1.00  0.00    -0.354 N 
ATOM     47  C   UNL     1      -9.138  -3.225   8.066  1.00  0.00     0.074 A 
ATOM     48  C   UNL     1      -7.914  -2.490   8.297  1.00  0.00     0.031 C 
ATOM     49  C   UNL     1      -7.219  -8.065   4.301  1.00  0.00     0.029 A 
ATOM     50  C   UNL     1      -8.558  -7.832   4.840  1.00  0.00     0.049 A 
ATOM     51  H   UNL     1      -9.176  -6.238   6.030  1.00  0.00     0.167 HD
ATOM     52  C   UNL     1     -10.345  -2.872   8.567  1.00  0.00     0.037 A 
ATOM     53  C   UNL     1      -9.635  -8.620   4.645  1.00  0.00     0.037 A 
ATOM     54  C   UNL     1     -11.562  -3.606   8.342  1.00  0.00     0.049 A 
ATOM     55  C   UNL     1     -10.954  -8.245   5.273  1.00  0.00     0.074 A 
ATOM     56  C   UNL     1     -12.841  -3.306   8.777  1.00  0.00     0.029 A 
ATOM     57  N   UNL     1     -11.649  -4.795   7.635  1.00  0.00    -0.354 N 
ATOM     58  N   UNL     1     -11.255  -7.194   5.998  1.00  0.00    -0.248 NA
ATOM     59  C   UNL     1     -12.080  -9.167   5.058  1.00  0.00     0.031 C 
ATOM     60  C   UNL     1     -13.693  -4.340   8.373  1.00  0.00     0.029 A 
ATOM     61  C   UNL     1     -12.954  -5.260   7.647  1.00  0.00     0.049 A 
ATOM     62  H   UNL     1     -10.894  -5.244   7.190  1.00  0.00     0.167 HD
ATOM     63  C   UNL     1     -12.609  -7.312   6.298  1.00  0.00     0.074 A 
ATOM     64  C   UNL     1     -13.069  -8.536   5.676  1.00  0.00     0.031 C 
ATOM     65  C   UNL     1     -13.401  -6.478   7.018  1.00  0.00     0.037 A 
BRANCH  52  66
ATOM     66  C   UNL     1     -10.395  -1.650   9.441  1.00  0.00     0.058 A 
ATOM     67  C   UNL     1     -10.261  -0.357   8.912  1.00  0.00     0.135 A 
ATOM     68  C   UNL     1     -10.581  -1.777  10.827  1.00  0.00     0.135 A 
ATOM     69  F   UNL     1     -10.062  -0.181   7.596  1.00  0.00    -0.206 F 
ATOM     70  C   UNL     1     -10.273   0.767   9.732  1.00  0.00     0.059 A 
ATOM     71  C   UNL     1     -10.621  -0.665  11.662  1.00  0.00     0.059 A 
ATOM     72  F   UNL     1     -10.712  -2.992  11.383  1.00  0.00    -0.206 F 
ATOM     73  C   UNL     1     -10.447   0.602  11.107  1.00  0.00     0.060 A 
BRANCH  73  74
ATOM     74  S   UNL     1     -10.438   2.066  12.163  1.00  0.00     0.124 S 
ATOM     75  O   UNL     1      -9.015   2.390  12.195  1.00  0.00    -0.237 OA
ATOM     76  O   UNL     1     -11.282   2.995  11.419  1.00  0.00    -0.237 OA
ATOM     77  O   UNL     1     -11.001   1.581  13.419  1.00  0.00    -0.744 OA
ENDBRANCH  73  74
ENDBRANCH  52  66
BRANCH  53  78
ATOM     78  C   UNL     1      -9.520  -9.846   3.811  1.00  0.00     0.058 A 
ATOM     79  C   UNL     1     -10.121  -9.914   2.546  1.00  0.00     0.135 A 
ATOM     80  C   UNL     1      -8.811 -10.970   4.260  1.00  0.00     0.135 A 
ATOM     81  F   UNL     1     -10.824  -8.870   2.080  1.00  0.00    -0.206 F 
ATOM     82  C   UNL     1     -10.029 -11.056   1.755  1.00  0.00     0.059 A 
ATOM     83  C   UNL     1      -8.686 -12.116   3.479  1.00  0.00     0.059 A 
ATOM     84  F   UNL     1      -8.214 -10.954   5.462  1.00  0.00    -0.206 F 
ATOM     85  C   UNL     1      -9.305 -12.151   2.230  1.00  0.00     0.060 A 
BRANCH  85  86
ATOM     86  S   UNL     1      -9.143 -13.606   1.171  1.00  0.00     0.124 S 
ATOM     87  O   UNL     1     -10.475 -14.191   1.270  1.00  0.00    -0.237 OA
ATOM     88  O   UNL     1      -8.800 -13.011  -0.117  1.00  0.00    -0.237 OA
ATOM     89  O   UNL     1      -8.071 -14.365   1.808  1.00  0.00    -0.744 OA
ENDBRANCH  85  86
ENDBRANCH  53  78
BRANCH  65  90
ATOM     90  C   UNL     1     -14.856  -6.835   7.146  1.00  0.00     0.058 A 
ATOM     91  C   UNL     1     -15.292  -7.871   7.986  1.00  0.00     0.135 A 
ATOM     92  C   UNL     1     -15.832  -6.091   6.463  1.00  0.00     0.135 A 
ATOM     93  F   UNL     1     -14.400  -8.617   8.657  1.00  0.00    -0.206 F 
ATOM     94  C   UNL     1     -16.644  -8.169   8.130  1.00  0.00     0.059 A 
ATOM     95  C   UNL     1     -17.190  -6.355   6.611  1.00  0.00     0.059 A 
ATOM     96  F   UNL     1     -15.470  -5.081   5.655  1.00  0.00    -0.206 F 
ATOM     97  C   UNL     1     -17.586  -7.404   7.439  1.00  0.00     0.060 A 
BRANCH  97  98
ATOM     98  S   UNL     1     -19.340  -7.774   7.663  1.00  0.00     0.124 S 
ATOM     99  O   UNL     1     -19.492  -8.978   6.853  1.00  0.00    -0.237 OA
ATOM    100  O   UNL     1     -19.439  -7.965   9.107  1.00  0.00    -0.237 OA
ATOM    101  O   UNL     1     -20.006  -6.581   7.148  1.00  0.00    -0.744 OA
ENDBRANCH  97  98
ENDBRANCH  65  90
ENDBRANCH  39  40
ENDBRANCH  32  34
ENDBRANCH  31  32
ENDBRANCH  30  31
ENDBRANCH  29  30
ENDBRANCH  28  29
ENDBRANCH   1  28
TORSDOF 22
