REMARK SMILES CC(C)C[C@H](NC(=O)[C@@H](NC(=O)[C@H](C)NC(=O)CNC(=O)OCc1ccccc1)C(C)C)C(=O)OCCOCCOCCOC(=O)c1ccc(-c2c3nc(c(-c4c(F)cc(S(=O)(=O)[O-])cc4F)c4ccc([nH]4)c(-c4c(F)cc(S(=O)(=O)[O-])cc4F)c4nc(c(-c5c(F)cc(S(=O)(=O)[O-])cc5F)c5ccc2[nH]5)C=C4)C=C3)cc1
REMARK SMILES IDX 36 1 35 2 33 3 34 4 5 5 4 6 2 7 1 8 3 9 6 10 7 11 8 13 9 14
REMARK SMILES IDX 10 15 11 16 12 18 13 19 14 20 15 21 16 22 17 24 18 25 19 26
REMARK SMILES IDX 20 27 21 29 22 30 23 31 24 32 25 33 29 34 26 35 28 36 27 37
REMARK SMILES IDX 30 38 31 39 32 40 37 41 38 42 39 43 40 44 41 45 42 46 43 47
REMARK SMILES IDX 44 48 45 49 46 50 47 51 48 52 112 53 49 54 111 55 50 56
REMARK SMILES IDX 51 57 52 58 105 59 53 60 110 61 104 62 106 63 54 64 109 65
REMARK SMILES IDX 103 66 102 67 55 69 89 70 68 71 88 72 69 73 72 74 87 75
REMARK SMILES IDX 107 76 70 77 71 78 86 80 108 81 73 82 56 83 57 84 66 85
REMARK SMILES IDX 58 86 59 87 65 88 67 89 60 90 61 91 62 92 63 93 64 94 90 95
REMARK SMILES IDX 91 96 100 97 92 98 93 99 99 100 101 101 94 102 95 103 96 104
REMARK SMILES IDX 97 105 98 106 74 107 75 108 84 109 76 110 77 111 83 112
REMARK SMILES IDX 85 113 78 114 79 115 80 116 81 117 82 118
REMARK H PARENT 6 12 10 17 15 23 19 28 106 68 72 79
REMARK Flexibility Score: inf
ROOT
ATOM      1  C   UNL     1      -2.098  -1.003   0.157  1.00  0.00     0.261 C 
ENDROOT
BRANCH   1   2
ATOM      2  O   UNL     1      -2.341  -2.474  -0.858  1.00  0.00    -0.462 OA
BRANCH   2   3
ATOM      3  C   UNL     1      -3.339  -3.329  -1.596  1.00  0.00     0.328 C 
ATOM      4  O   UNL     1      -3.918  -4.269  -1.022  1.00  0.00    -0.250 OA
BRANCH   3   5
ATOM      5  C   UNL     1      -4.165  -3.054  -2.916  1.00  0.00     0.192 C 
BRANCH   5   6
ATOM      6  C   UNL     1      -4.310  -4.448  -3.624  1.00  0.00     0.040 C 
BRANCH   6   7
ATOM      7  C   UNL     1      -3.140  -4.861  -4.539  1.00  0.00    -0.015 C 
ATOM      8  C   UNL     1      -1.792  -4.290  -4.141  1.00  0.00     0.007 C 
ATOM      9  C   UNL     1      -2.988  -6.377  -4.597  1.00  0.00     0.007 C 
ENDBRANCH   6   7
ENDBRANCH   5   6
BRANCH   5  10
ATOM     10  N   UNL     1      -3.986  -2.041  -3.916  1.00  0.00    -0.341 N 
ATOM     11  C   UNL     1      -3.546  -0.789  -3.640  1.00  0.00     0.243 C 
ATOM     12  H   UNL     1      -4.194  -2.267  -4.851  1.00  0.00     0.164 HD
ATOM     13  O   UNL     1      -3.450   0.031  -4.547  1.00  0.00    -0.273 OA
BRANCH  11  14
ATOM     14  C   UNL     1      -2.879  -0.659  -2.285  1.00  0.00     0.174 C 
BRANCH  14  15
ATOM     15  N   UNL     1      -4.115  -1.241  -1.075  1.00  0.00    -0.342 N 
ATOM     16  C   UNL     1      -4.439  -2.037   0.183  1.00  0.00     0.242 C 
ATOM     17  H   UNL     1      -4.974  -0.865  -1.376  1.00  0.00     0.164 HD
ATOM     18  O   UNL     1      -5.580  -1.808   0.628  1.00  0.00    -0.273 OA
BRANCH  16  19
ATOM     19  C   UNL     1      -3.413  -3.158   1.238  1.00  0.00     0.168 C 
ATOM     20  C   UNL     1      -2.653  -2.590   2.463  1.00  0.00     0.041 C 
BRANCH  19  21
ATOM     21  N   UNL     1      -2.424  -4.244   0.782  1.00  0.00    -0.343 N 
ATOM     22  C   UNL     1      -2.632  -5.559   0.407  1.00  0.00     0.240 C 
ATOM     23  H   UNL     1      -1.484  -3.954   0.751  1.00  0.00     0.164 HD
ATOM     24  O   UNL     1      -1.799  -6.111  -0.320  1.00  0.00    -0.273 OA
BRANCH  22  25
ATOM     25  C   UNL     1      -3.865  -6.307   0.911  1.00  0.00     0.219 C 
BRANCH  25  26
ATOM     26  N   UNL     1      -3.505  -6.563   2.282  1.00  0.00    -0.312 N 
ATOM     27  C   UNL     1      -3.878  -5.713   3.269  1.00  0.00     0.407 C 
ATOM     28  H   UNL     1      -2.981  -7.366   2.504  1.00  0.00     0.167 HD
ATOM     29  O   UNL     1      -3.114  -5.443   4.185  1.00  0.00    -0.225 OA
BRANCH  27  30
ATOM     30  O   UNL     1      -5.146  -5.262   3.106  1.00  0.00    -0.445 OA
BRANCH  30  31
ATOM     31  C   UNL     1      -5.638  -4.346   4.095  1.00  0.00     0.270 C 
BRANCH  31  32
ATOM     32  C   UNL     1      -5.847  -4.968   5.454  1.00  0.00    -0.011 A 
ATOM     33  C   UNL     1      -6.373  -4.189   6.489  1.00  0.00     0.007 A 
ATOM     34  C   UNL     1      -5.442  -6.281   5.745  1.00  0.00     0.007 A 
ATOM     35  C   UNL     1      -6.414  -4.692   7.791  1.00  0.00     0.000 A 
ATOM     36  C   UNL     1      -5.423  -6.758   7.047  1.00  0.00     0.000 A 
ATOM     37  C   UNL     1      -5.906  -5.960   8.073  1.00  0.00     0.000 A 
ENDBRANCH  31  32
ENDBRANCH  30  31
ENDBRANCH  27  30
ENDBRANCH  25  26
ENDBRANCH  22  25
ENDBRANCH  19  21
ENDBRANCH  16  19
ENDBRANCH  14  15
BRANCH  14  38
ATOM     38  C   UNL     1      -1.203  -1.196  -2.590  1.00  0.00     0.015 C 
ATOM     39  C   UNL     1      -0.687  -1.058  -4.044  1.00  0.00     0.010 C 
ATOM     40  C   UNL     1      -0.008  -0.576  -1.783  1.00  0.00     0.010 C 
ENDBRANCH  14  38
ENDBRANCH  11  14
ENDBRANCH   5  10
ENDBRANCH   3   5
ENDBRANCH   2   3
ENDBRANCH   1   2
BRANCH   1  41
ATOM     41  C   UNL     1      -3.121   0.106   0.893  1.00  0.00     0.202 C 
BRANCH  41  42
ATOM     42  O   UNL     1      -3.684   1.086  -0.001  1.00  0.00    -0.376 OA
BRANCH  42  43
ATOM     43  C   UNL     1      -5.106   1.282  -0.007  1.00  0.00     0.188 C 
BRANCH  43  44
ATOM     44  C   UNL     1      -5.660   1.405  -1.435  1.00  0.00     0.188 C 
BRANCH  44  45
ATOM     45  O   UNL     1      -4.757   1.701  -2.487  1.00  0.00    -0.376 OA
BRANCH  45  46
ATOM     46  C   UNL     1      -3.809   2.758  -2.362  1.00  0.00     0.202 C 
BRANCH  46  47
ATOM     47  C   UNL     1      -4.326   4.132  -1.943  1.00  0.00     0.261 C 
BRANCH  47  48
ATOM     48  O   UNL     1      -5.731   4.313  -2.096  1.00  0.00    -0.460 OA
BRANCH  48  49
ATOM     49  C   UNL     1      -6.241   4.046  -3.336  1.00  0.00     0.338 C 
ATOM     50  O   UNL     1      -5.657   4.045  -4.377  1.00  0.00    -0.246 OA
BRANCH  49  51
ATOM     51  C   UNL     1      -7.594   3.473  -3.066  1.00  0.00     0.060 A 
ATOM     52  C   UNL     1      -7.971   2.312  -3.757  1.00  0.00     0.016 A 
ATOM     53  C   UNL     1      -8.365   3.940  -1.990  1.00  0.00     0.016 A 
ATOM     54  C   UNL     1      -9.144   1.641  -3.399  1.00  0.00     0.010 A 
ATOM     55  C   UNL     1      -9.533   3.273  -1.632  1.00  0.00     0.010 A 
ATOM     56  C   UNL     1      -9.955   2.158  -2.376  1.00  0.00    -0.014 A 
BRANCH  56  57
ATOM     57  C   UNL     1     -11.406   1.861  -2.375  1.00  0.00     0.031 A 
ATOM     58  C   UNL     1     -12.242   2.766  -3.245  1.00  0.00     0.074 A 
ATOM     59  C   UNL     1     -11.970   0.907  -1.615  1.00  0.00     0.049 A 
ATOM     60  N   UNL     1     -13.538   2.864  -3.348  1.00  0.00    -0.248 NA
ATOM     61  C   UNL     1     -11.499   3.711  -4.101  1.00  0.00     0.031 C 
ATOM     62  C   UNL     1     -11.259  -0.043  -0.763  1.00  0.00     0.029 A 
ATOM     63  N   UNL     1     -13.296   0.600  -1.429  1.00  0.00    -0.354 N 
ATOM     64  C   UNL     1     -13.756   3.883  -4.269  1.00  0.00     0.074 A 
ATOM     65  C   UNL     1     -12.472   4.398  -4.669  1.00  0.00     0.031 C 
ATOM     66  C   UNL     1     -12.161  -0.817  -0.127  1.00  0.00     0.029 A 
ATOM     67  C   UNL     1     -13.510  -0.389  -0.496  1.00  0.00     0.049 A 
ATOM     68  H   UNL     1     -14.025   1.046  -1.917  1.00  0.00     0.167 HD
ATOM     69  C   UNL     1     -14.929   4.354  -4.745  1.00  0.00     0.037 A 
ATOM     70  C   UNL     1     -14.668  -0.860   0.013  1.00  0.00     0.037 A 
ATOM     71  C   UNL     1     -16.203   3.855  -4.319  1.00  0.00     0.049 A 
ATOM     72  C   UNL     1     -15.973  -0.273  -0.478  1.00  0.00     0.074 A 
ATOM     73  C   UNL     1     -17.461   4.253  -4.727  1.00  0.00     0.029 A 
ATOM     74  N   UNL     1     -16.376   2.857  -3.372  1.00  0.00    -0.354 N 
ATOM     75  N   UNL     1     -16.171   0.673  -1.369  1.00  0.00    -0.248 NA
ATOM     76  C   UNL     1     -17.210  -0.811   0.104  1.00  0.00     0.031 C 
ATOM     77  C   UNL     1     -18.399   3.532  -3.982  1.00  0.00     0.029 A 
ATOM     78  C   UNL     1     -17.724   2.640  -3.162  1.00  0.00     0.049 A 
ATOM     79  H   UNL     1     -15.648   2.376  -2.917  1.00  0.00     0.167 HD
ATOM     80  C   UNL     1     -17.552   0.818  -1.475  1.00  0.00     0.074 A 
ATOM     81  C   UNL     1     -18.140  -0.142  -0.564  1.00  0.00     0.031 C 
ATOM     82  C   UNL     1     -18.274   1.663  -2.255  1.00  0.00     0.037 A 
BRANCH  69  83
ATOM     83  C   UNL     1     -14.865   5.484  -5.731  1.00  0.00     0.058 A 
ATOM     84  C   UNL     1     -14.364   5.307  -7.032  1.00  0.00     0.135 A 
ATOM     85  C   UNL     1     -15.288   6.770  -5.360  1.00  0.00     0.135 A 
ATOM     86  F   UNL     1     -13.907   4.107  -7.423  1.00  0.00    -0.206 F 
ATOM     87  C   UNL     1     -14.263   6.370  -7.922  1.00  0.00     0.059 A 
ATOM     88  C   UNL     1     -15.227   7.840  -6.245  1.00  0.00     0.059 A 
ATOM     89  F   UNL     1     -15.752   6.999  -4.122  1.00  0.00    -0.206 F 
ATOM     90  C   UNL     1     -14.702   7.633  -7.520  1.00  0.00     0.060 A 
BRANCH  90  91
ATOM     91  S   UNL     1     -14.582   8.998  -8.693  1.00  0.00     0.124 S 
ATOM     92  O   UNL     1     -13.140   9.224  -8.732  1.00  0.00    -0.237 OA
ATOM     93  O   UNL     1     -15.166   8.422  -9.899  1.00  0.00    -0.237 OA
ATOM     94  O   UNL     1     -15.365  10.057  -8.064  1.00  0.00    -0.744 OA
ENDBRANCH  90  91
ENDBRANCH  69  83
BRANCH  70  95
ATOM     95  C   UNL     1     -14.658  -1.925   1.058  1.00  0.00     0.058 A 
ATOM     96  C   UNL     1     -15.161  -3.209   0.796  1.00  0.00     0.135 A 
ATOM     97  C   UNL     1     -14.161  -1.676   2.348  1.00  0.00     0.135 A 
ATOM     98  F   UNL     1     -15.666  -3.497  -0.413  1.00  0.00    -0.206 F 
ATOM     99  C   UNL     1     -15.182  -4.202   1.773  1.00  0.00     0.059 A 
ATOM    100  C   UNL     1     -14.146  -2.660   3.333  1.00  0.00     0.059 A 
ATOM    101  F   UNL     1     -13.667  -0.467   2.656  1.00  0.00    -0.206 F 
ATOM    102  C   UNL     1     -14.667  -3.918   3.039  1.00  0.00     0.060 A 
BRANCH 102 103
ATOM    103  S   UNL     1     -14.653  -5.229   4.283  1.00  0.00     0.124 S 
ATOM    104  O   UNL     1     -16.072  -5.354   4.597  1.00  0.00    -0.237 OA
ATOM    105  O   UNL     1     -14.062  -6.341   3.546  1.00  0.00    -0.237 OA
ATOM    106  O   UNL     1     -13.819  -4.674   5.345  1.00  0.00    -0.744 OA
ENDBRANCH 102 103
ENDBRANCH  70  95
BRANCH  82 107
ATOM    107  C   UNL     1     -19.773   1.560  -2.200  1.00  0.00     0.058 A 
ATOM    108  C   UNL     1     -20.508   2.015  -1.095  1.00  0.00     0.135 A 
ATOM    109  C   UNL     1     -20.486   1.081  -3.312  1.00  0.00     0.135 A 
ATOM    110  F   UNL     1     -19.875   2.483  -0.008  1.00  0.00    -0.206 F 
ATOM    111  C   UNL     1     -21.898   1.979  -1.086  1.00  0.00     0.059 A 
ATOM    112  C   UNL     1     -21.876   1.067  -3.338  1.00  0.00     0.059 A 
ATOM    113  F   UNL     1     -19.830   0.652  -4.403  1.00  0.00    -0.206 F 
ATOM    114  C   UNL     1     -22.573   1.508  -2.215  1.00  0.00     0.060 A 
BRANCH 114 115
ATOM    115  S   UNL     1     -24.378   1.506  -2.205  1.00  0.00     0.124 S 
ATOM    116  O   UNL     1     -24.665   0.415  -1.280  1.00  0.00    -0.237 OA
ATOM    117  O   UNL     1     -24.688   2.848  -1.720  1.00  0.00    -0.237 OA
ATOM    118  O   UNL     1     -24.726   1.254  -3.600  1.00  0.00    -0.744 OA
ENDBRANCH 114 115
ENDBRANCH  82 107
ENDBRANCH  56  57
ENDBRANCH  49  51
ENDBRANCH  48  49
ENDBRANCH  47  48
ENDBRANCH  46  47
ENDBRANCH  45  46
ENDBRANCH  44  45
ENDBRANCH  43  44
ENDBRANCH  42  43
ENDBRANCH  41  42
ENDBRANCH   1  41
TORSDOF 33
