REMARK SMILES CC(C)N(CCCC(=O)OCCOCCOCCOC(=O)c1ccc(-c2c3nc(c(-c4c(F)cc(S(=O)(=O)[O-])cc4F)c4ccc([nH]4)c(-c4c(F)cc(S(=O)(=O)[O-])cc4F)c4nc(c(-c5c(F)cc(S(=O)(=O)[O-])cc5F)c5ccc2[nH]5)C=C4)C=C3)cc1)C(=O)N[C@@H]1CCCC1(C)C
REMARK SMILES IDX 14 1 13 2 12 3 11 4 10 5 8 6 9 7 7 8 6 9 5 10 4 11 2 12 1 13
REMARK SMILES IDX 3 14 88 15 89 16 90 17 91 19 92 20 95 21 93 22 94 23 96 24
REMARK SMILES IDX 97 25 15 26 16 27 17 28 18 29 19 30 20 31 21 32 22 33 23 34
REMARK SMILES IDX 87 35 24 36 86 37 25 38 26 39 27 40 80 41 28 42 85 43 79 44
REMARK SMILES IDX 81 45 29 46 84 47 78 48 77 49 30 51 64 52 43 53 63 54 44 55
REMARK SMILES IDX 47 56 62 57 82 58 45 59 46 60 61 62 83 63 48 64 31 65 32 66
REMARK SMILES IDX 41 67 33 68 34 69 40 70 42 71 35 72 36 73 37 74 38 75 39 76
REMARK SMILES IDX 65 77 66 78 75 79 67 80 68 81 74 82 76 83 69 84 70 85 71 86
REMARK SMILES IDX 72 87 73 88 49 89 50 90 59 91 51 92 52 93 58 94 60 95 53 96
REMARK SMILES IDX 54 97 55 98 56 99 57 100
REMARK H PARENT 90 18 81 50 47 61
REMARK Flexibility Score: inf
ROOT
ATOM      1  C   UNL     1      -3.693  -1.252   3.373  1.00  0.00     0.188 C 
ENDROOT
BRANCH   1   2
ATOM      2  O   UNL     1      -3.143   0.052   3.463  1.00  0.00    -0.376 OA
BRANCH   2   3
ATOM      3  C   UNL     1      -3.267   0.779   2.235  1.00  0.00     0.202 C 
BRANCH   3   4
ATOM      4  C   UNL     1      -2.190   0.433   1.173  1.00  0.00     0.261 C 
BRANCH   4   5
ATOM      5  O   UNL     1      -2.567  -0.414   0.043  1.00  0.00    -0.463 OA
BRANCH   5   6
ATOM      6  C   UNL     1      -2.240  -1.747  -0.018  1.00  0.00     0.305 C 
ATOM      7  O   UNL     1      -1.921  -2.416   0.955  1.00  0.00    -0.252 OA
BRANCH   6   8
ATOM      8  C   UNL     1      -2.183  -2.261  -1.482  1.00  0.00     0.124 C 
BRANCH   8   9
ATOM      9  C   UNL     1      -3.013  -3.447  -2.062  1.00  0.00     0.033 C 
BRANCH   9  10
ATOM     10  C   UNL     1      -4.483  -3.412  -2.626  1.00  0.00     0.122 C 
BRANCH  10  11
ATOM     11  N   UNL     1      -4.986  -2.217  -3.288  1.00  0.00    -0.322 N 
BRANCH  11  12
ATOM     12  C   UNL     1      -5.964  -2.366  -4.407  1.00  0.00     0.080 C 
ATOM     13  C   UNL     1      -6.594  -1.067  -4.949  1.00  0.00     0.031 C 
ATOM     14  C   UNL     1      -5.420  -3.147  -5.605  1.00  0.00     0.031 C 
ENDBRANCH  11  12
BRANCH  11  15
ATOM     15  C   UNL     1      -4.710  -0.994  -2.772  1.00  0.00     0.317 C 
ATOM     16  O   UNL     1      -4.376  -0.041  -3.478  1.00  0.00    -0.249 OA
ATOM     17  N   UNL     1      -4.735  -0.801  -1.437  1.00  0.00    -0.335 N 
ATOM     18  H   UNL     1      -4.093  -0.101  -1.177  1.00  0.00     0.165 HD
BRANCH  17  19
ATOM     19  C   UNL     1      -5.435  -1.324  -0.256  1.00  0.00     0.089 C 
ATOM     20  C   UNL     1      -5.247  -2.740   0.312  1.00  0.00     0.025 C 
ATOM     21  C   UNL     1      -6.936  -0.984  -0.158  1.00  0.00    -0.015 C 
ATOM     22  C   UNL     1      -6.635  -3.284   0.567  1.00  0.00     0.003 C 
ATOM     23  C   UNL     1      -7.473  -2.040   0.822  1.00  0.00     0.008 C 
ATOM     24  C   UNL     1      -7.098   0.451   0.371  1.00  0.00     0.013 C 
ATOM     25  C   UNL     1      -7.690  -1.092  -1.478  1.00  0.00     0.013 C 
ENDBRANCH  17  19
ENDBRANCH  11  15
ENDBRANCH  10  11
ENDBRANCH   9  10
ENDBRANCH   8   9
ENDBRANCH   6   8
ENDBRANCH   5   6
ENDBRANCH   4   5
ENDBRANCH   3   4
ENDBRANCH   2   3
ENDBRANCH   1   2
BRANCH   1  26
ATOM     26  C   UNL     1      -5.013  -1.419   4.126  1.00  0.00     0.188 C 
BRANCH  26  27
ATOM     27  O   UNL     1      -6.105  -0.652   3.616  1.00  0.00    -0.376 OA
BRANCH  27  28
ATOM     28  C   UNL     1      -7.206  -0.525   4.535  1.00  0.00     0.202 C 
BRANCH  28  29
ATOM     29  C   UNL     1      -7.961  -1.804   4.963  1.00  0.00     0.261 C 
BRANCH  29  30
ATOM     30  O   UNL     1      -7.084  -2.811   5.494  1.00  0.00    -0.460 OA
BRANCH  30  31
ATOM     31  C   UNL     1      -7.021  -3.962   4.766  1.00  0.00     0.338 C 
ATOM     32  O   UNL     1      -7.745  -4.280   3.847  1.00  0.00    -0.246 OA
BRANCH  31  33
ATOM     33  C   UNL     1      -5.774  -4.694   5.111  1.00  0.00     0.060 A 
ATOM     34  C   UNL     1      -5.081  -5.328   4.068  1.00  0.00     0.016 A 
ATOM     35  C   UNL     1      -5.272  -4.738   6.413  1.00  0.00     0.016 A 
ATOM     36  C   UNL     1      -3.931  -6.072   4.334  1.00  0.00     0.010 A 
ATOM     37  C   UNL     1      -4.123  -5.488   6.681  1.00  0.00     0.010 A 
ATOM     38  C   UNL     1      -3.480  -6.202   5.652  1.00  0.00    -0.014 A 
BRANCH  38  39
ATOM     39  C   UNL     1      -2.532  -7.288   6.007  1.00  0.00     0.031 A 
ATOM     40  C   UNL     1      -3.116  -8.539   6.612  1.00  0.00     0.074 A 
ATOM     41  C   UNL     1      -1.209  -7.193   5.784  1.00  0.00     0.049 A 
ATOM     42  N   UNL     1      -2.515  -9.563   7.155  1.00  0.00    -0.248 NA
ATOM     43  C   UNL     1      -4.588  -8.640   6.611  1.00  0.00     0.031 C 
ATOM     44  C   UNL     1      -0.533  -6.072   5.132  1.00  0.00     0.029 A 
ATOM     45  N   UNL     1      -0.191  -8.059   6.101  1.00  0.00    -0.354 N 
ATOM     46  C   UNL     1      -3.530 -10.419   7.569  1.00  0.00     0.074 A 
ATOM     47  C   UNL     1      -4.786  -9.782   7.249  1.00  0.00     0.031 C 
ATOM     48  C   UNL     1       0.792  -6.309   5.120  1.00  0.00     0.029 A 
ATOM     49  C   UNL     1       1.062  -7.573   5.803  1.00  0.00     0.049 A 
ATOM     50  H   UNL     1      -0.343  -8.944   6.504  1.00  0.00     0.167 HD
ATOM     51  C   UNL     1      -3.424 -11.635   8.153  1.00  0.00     0.037 A 
ATOM     52  C   UNL     1       2.280  -8.078   6.087  1.00  0.00     0.037 A 
ATOM     53  C   UNL     1      -2.170 -12.266   8.461  1.00  0.00     0.049 A 
ATOM     54  C   UNL     1       2.372  -9.395   6.826  1.00  0.00     0.074 A 
ATOM     55  C   UNL     1      -1.946 -13.480   9.084  1.00  0.00     0.029 A 
ATOM     56  N   UNL     1      -0.925 -11.735   8.156  1.00  0.00    -0.354 N 
ATOM     57  N   UNL     1       1.407 -10.180   7.247  1.00  0.00    -0.248 NA
ATOM     58  C   UNL     1       3.721  -9.897   7.129  1.00  0.00     0.031 C 
ATOM     59  C   UNL     1      -0.565 -13.666   9.192  1.00  0.00     0.029 A 
ATOM     60  C   UNL     1       0.070 -12.597   8.581  1.00  0.00     0.049 A 
ATOM     61  H   UNL     1      -0.773 -10.873   7.705  1.00  0.00     0.167 HD
ATOM     62  C   UNL     1       2.033 -11.286   7.816  1.00  0.00     0.074 A 
ATOM     63  C   UNL     1       3.458 -11.073   7.681  1.00  0.00     0.031 C 
ATOM     64  C   UNL     1       1.483 -12.382   8.397  1.00  0.00     0.037 A 
BRANCH  51  65
ATOM     65  C   UNL     1      -4.694 -12.357   8.508  1.00  0.00     0.058 A 
ATOM     66  C   UNL     1      -5.524 -12.915   7.523  1.00  0.00     0.135 A 
ATOM     67  C   UNL     1      -5.059 -12.540   9.852  1.00  0.00     0.135 A 
ATOM     68  F   UNL     1      -5.239 -12.745   6.222  1.00  0.00    -0.206 F 
ATOM     69  C   UNL     1      -6.672 -13.625   7.857  1.00  0.00     0.059 A 
ATOM     70  C   UNL     1      -6.187 -13.271  10.210  1.00  0.00     0.059 A 
ATOM     71  F   UNL     1      -4.308 -12.015  10.833  1.00  0.00    -0.206 F 
ATOM     72  C   UNL     1      -6.990 -13.806   9.204  1.00  0.00     0.060 A 
BRANCH  72  73
ATOM     73  S   UNL     1      -8.459 -14.769   9.618  1.00  0.00     0.124 S 
ATOM     74  O   UNL     1      -9.528 -13.876   9.181  1.00  0.00    -0.237 OA
ATOM     75  O   UNL     1      -8.274 -15.975   8.818  1.00  0.00    -0.237 OA
ATOM     76  O   UNL     1      -8.350 -14.955  11.062  1.00  0.00    -0.744 OA
ENDBRANCH  72  73
ENDBRANCH  51  65
BRANCH  52  77
ATOM     77  C   UNL     1       3.522  -7.337   5.721  1.00  0.00     0.058 A 
ATOM     78  C   UNL     1       4.451  -7.870   4.814  1.00  0.00     0.135 A 
ATOM     79  C   UNL     1       3.842  -6.112   6.329  1.00  0.00     0.135 A 
ATOM     80  F   UNL     1       4.202  -9.043   4.211  1.00  0.00    -0.206 F 
ATOM     81  C   UNL     1       5.669  -7.246   4.560  1.00  0.00     0.059 A 
ATOM     82  C   UNL     1       5.038  -5.450   6.064  1.00  0.00     0.059 A 
ATOM     83  F   UNL     1       2.990  -5.548   7.198  1.00  0.00    -0.206 F 
ATOM     84  C   UNL     1       5.957  -6.038   5.196  1.00  0.00     0.060 A 
BRANCH  84  85
ATOM     85  S   UNL     1       7.547  -5.243   4.875  1.00  0.00     0.124 S 
ATOM     86  O   UNL     1       8.463  -6.120   5.595  1.00  0.00    -0.237 OA
ATOM     87  O   UNL     1       7.627  -5.293   3.419  1.00  0.00    -0.237 OA
ATOM     88  O   UNL     1       7.376  -3.909   5.441  1.00  0.00    -0.744 OA
ENDBRANCH  84  85
ENDBRANCH  52  77
BRANCH  64  89
ATOM     89  C   UNL     1       2.413 -13.476   8.850  1.00  0.00     0.058 A 
ATOM     90  C   UNL     1       3.252 -13.333   9.964  1.00  0.00     0.135 A 
ATOM     91  C   UNL     1       2.415 -14.714   8.184  1.00  0.00     0.135 A 
ATOM     92  F   UNL     1       3.290 -12.172  10.637  1.00  0.00    -0.206 F 
ATOM     93  C   UNL     1       4.086 -14.365  10.383  1.00  0.00     0.059 A 
ATOM     94  C   UNL     1       3.214 -15.771   8.605  1.00  0.00     0.059 A 
ATOM     95  F   UNL     1       1.618 -14.912   7.121  1.00  0.00    -0.206 F 
ATOM     96  C   UNL     1       4.058 -15.582   9.698  1.00  0.00     0.060 A 
BRANCH  96  97
ATOM     97  S   UNL     1       5.123 -16.922  10.269  1.00  0.00     0.124 S 
ATOM     98  O   UNL     1       6.439 -16.449   9.854  1.00  0.00    -0.237 OA
ATOM     99  O   UNL     1       4.875 -16.926  11.708  1.00  0.00    -0.237 OA
ATOM    100  O   UNL     1       4.620 -18.088   9.550  1.00  0.00    -0.744 OA
ENDBRANCH  96  97
ENDBRANCH  64  89
ENDBRANCH  38  39
ENDBRANCH  31  33
ENDBRANCH  30  31
ENDBRANCH  29  30
ENDBRANCH  28  29
ENDBRANCH  27  28
ENDBRANCH  26  27
ENDBRANCH   1  26
TORSDOF 26
