REMARK SMILES O=C(N[C@@H](Cc1c[nH]c2ccccc12)C(=O)N[C@@H](CO)C(=O)OCCOCCOCCOC(=O)c1ccc(-c2c3nc(c(-c4c(F)cc(S(=O)(=O)[O-])cc4F)c4ccc([nH]4)c(-c4c(F)cc(S(=O)(=O)[O-])cc4F)c4nc(c(-c5c(F)cc(S(=O)(=O)[O-])cc5F)c5ccc2[nH]5)C=C4)C=C3)cc1)c1ccc(F)cc1
REMARK SMILES IDX 27 1 26 2 25 3 24 4 23 5 21 6 22 7 18 8 17 9 15 10 16 11
REMARK SMILES IDX 4 13 3 14 1 15 2 16 101 18 102 19 107 20 103 21 106 22
REMARK SMILES IDX 104 23 105 24 5 25 6 26 7 27 14 28 8 29 9 30 13 31 10 33
REMARK SMILES IDX 12 34 11 35 19 36 20 37 28 39 29 40 30 41 31 42 32 43 33 44
REMARK SMILES IDX 34 45 35 46 36 47 100 48 37 49 99 50 38 51 39 52 40 53 93 54
REMARK SMILES IDX 41 55 98 56 92 57 94 58 42 59 97 60 91 61 90 62 43 64 77 65
REMARK SMILES IDX 56 66 76 67 57 68 60 69 75 70 95 71 58 72 59 73 74 75 96 76
REMARK SMILES IDX 61 77 44 78 45 79 54 80 46 81 47 82 53 83 55 84 48 85 49 86
REMARK SMILES IDX 50 87 51 88 52 89 78 90 79 91 88 92 80 93 81 94 87 95 89 96
REMARK SMILES IDX 82 97 83 98 84 99 85 100 86 101 62 102 63 103 72 104 64 105
REMARK SMILES IDX 65 106 71 107 73 108 66 109 67 110 68 111 69 112 70 113
REMARK H PARENT 17 12 3 17 8 32 20 38 94 63 60 74
REMARK Flexibility Score: inf
ROOT
ATOM      1  C   UNL     1       6.956   5.158   1.628  1.00  0.00     0.188 C 
ENDROOT
BRANCH   1   2
ATOM      2  O   UNL     1       7.184   6.343   2.383  1.00  0.00    -0.376 OA
BRANCH   2   3
ATOM      3  C   UNL     1       6.007   7.073   2.715  1.00  0.00     0.202 C 
BRANCH   3   4
ATOM      4  C   UNL     1       5.311   6.474   3.934  1.00  0.00     0.261 C 
BRANCH   4   5
ATOM      5  O   UNL     1       4.750   5.177   3.644  1.00  0.00    -0.462 OA
BRANCH   5   6
ATOM      6  C   UNL     1       3.443   5.137   3.269  1.00  0.00     0.331 C 
ATOM      7  O   UNL     1       2.714   6.119   3.189  1.00  0.00    -0.250 OA
BRANCH   6   8
ATOM      8  C   UNL     1       2.963   3.694   3.004  1.00  0.00     0.218 C 
BRANCH   8   9
ATOM      9  N   UNL     1       4.006   2.666   3.002  1.00  0.00    -0.339 N 
ATOM     10  C   UNL     1       4.389   1.752   2.075  1.00  0.00     0.243 C 
ATOM     11  O   UNL     1       5.309   0.998   2.421  1.00  0.00    -0.273 OA
ATOM     12  H   UNL     1       4.531   2.632   3.834  1.00  0.00     0.164 HD
BRANCH  10  13
ATOM     13  C   UNL     1       3.744   1.555   0.678  1.00  0.00     0.176 C 
BRANCH  13  14
ATOM     14  N   UNL     1       2.379   1.041   0.747  1.00  0.00    -0.340 N 
ATOM     15  O   UNL     1       0.676  -0.368   0.330  1.00  0.00    -0.269 OA
ATOM     16  C   UNL     1       1.885  -0.155   0.278  1.00  0.00     0.251 C 
ATOM     17  H   UNL     1       1.724   1.629   1.187  1.00  0.00     0.164 HD
BRANCH  16  18
ATOM     18  C   UNL     1       2.776  -1.186  -0.311  1.00  0.00     0.040 A 
ATOM     19  C   UNL     1       3.828  -1.749   0.425  1.00  0.00     0.017 A 
ATOM     20  C   UNL     1       2.500  -1.653  -1.604  1.00  0.00     0.017 A 
ATOM     21  C   UNL     1       4.627  -2.742  -0.151  1.00  0.00     0.040 A 
ATOM     22  C   UNL     1       3.297  -2.651  -2.172  1.00  0.00     0.040 A 
ATOM     23  C   UNL     1       4.354  -3.184  -1.442  1.00  0.00     0.123 A 
ATOM     24  F   UNL     1       5.112  -4.148  -1.980  1.00  0.00    -0.207 F 
ENDBRANCH  16  18
ENDBRANCH  13  14
BRANCH  13  25
ATOM     25  C   UNL     1       4.011   2.593  -0.425  1.00  0.00     0.072 C 
BRANCH  25  26
ATOM     26  C   UNL     1       3.369   3.946  -0.396  1.00  0.00    -0.020 A 
ATOM     27  C   UNL     1       2.047   4.285  -0.175  1.00  0.00     0.087 A 
ATOM     28  C   UNL     1       4.032   5.175  -0.739  1.00  0.00     0.003 A 
ATOM     29  N   UNL     1       1.956   5.654  -0.117  1.00  0.00    -0.361 N 
ATOM     30  C   UNL     1       3.157   6.221  -0.465  1.00  0.00     0.046 A 
ATOM     31  C   UNL     1       5.311   5.495  -1.242  1.00  0.00     0.010 A 
ATOM     32  H   UNL     1       1.147   6.155   0.136  1.00  0.00     0.166 HD
ATOM     33  C   UNL     1       3.523   7.568  -0.582  1.00  0.00     0.026 A 
ATOM     34  C   UNL     1       5.680   6.832  -1.415  1.00  0.00     0.001 A 
ATOM     35  C   UNL     1       4.804   7.854  -1.065  1.00  0.00     0.002 A 
ENDBRANCH  25  26
ENDBRANCH  13  25
ENDBRANCH  10  13
ENDBRANCH   8   9
BRANCH   8  36
ATOM     36  C   UNL     1       1.856   3.351   4.003  1.00  0.00     0.193 C 
BRANCH  36  37
ATOM     37  O   UNL     1       2.373   3.160   5.318  1.00  0.00    -0.394 OA
ATOM     38  H   UNL     1       3.002   2.421   5.314  1.00  0.00     0.210 HD
ENDBRANCH  36  37
ENDBRANCH   8  36
ENDBRANCH   6   8
ENDBRANCH   5   6
ENDBRANCH   4   5
ENDBRANCH   3   4
ENDBRANCH   2   3
ENDBRANCH   1   2
BRANCH   1  39
ATOM     39  C   UNL     1       7.335   3.863   2.360  1.00  0.00     0.188 C 
BRANCH  39  40
ATOM     40  O   UNL     1       8.359   3.887   3.344  1.00  0.00    -0.376 OA
BRANCH  40  41
ATOM     41  C   UNL     1       9.512   4.673   3.092  1.00  0.00     0.202 C 
BRANCH  41  42
ATOM     42  C   UNL     1      10.417   4.210   1.949  1.00  0.00     0.261 C 
BRANCH  42  43
ATOM     43  O   UNL     1       9.759   4.181   0.668  1.00  0.00    -0.460 OA
BRANCH  43  44
ATOM     44  C   UNL     1       9.742   2.968   0.060  1.00  0.00     0.338 C 
ATOM     45  O   UNL     1      10.232   1.931   0.471  1.00  0.00    -0.246 OA
BRANCH  44  46
ATOM     46  C   UNL     1       8.927   3.014  -1.171  1.00  0.00     0.060 A 
ATOM     47  C   UNL     1       7.819   2.162  -1.261  1.00  0.00     0.016 A 
ATOM     48  C   UNL     1       9.329   3.764  -2.278  1.00  0.00     0.016 A 
ATOM     49  C   UNL     1       7.124   2.036  -2.468  1.00  0.00     0.010 A 
ATOM     50  C   UNL     1       8.644   3.620  -3.493  1.00  0.00     0.010 A 
ATOM     51  C   UNL     1       7.554   2.736  -3.603  1.00  0.00    -0.014 A 
BRANCH  51  52
ATOM     52  C   UNL     1       6.997   2.406  -4.942  1.00  0.00     0.031 A 
ATOM     53  C   UNL     1       7.652   1.316  -5.746  1.00  0.00     0.074 A 
ATOM     54  C   UNL     1       5.933   3.055  -5.449  1.00  0.00     0.049 A 
ATOM     55  N   UNL     1       7.419   0.941  -6.977  1.00  0.00    -0.248 NA
ATOM     56  C   UNL     1       8.701   0.540  -5.066  1.00  0.00     0.031 C 
ATOM     57  C   UNL     1       5.152   4.069  -4.750  1.00  0.00     0.029 A 
ATOM     58  N   UNL     1       5.333   2.966  -6.683  1.00  0.00    -0.354 N 
ATOM     59  C   UNL     1       8.294  -0.109  -7.223  1.00  0.00     0.074 A 
ATOM     60  C   UNL     1       9.066  -0.309  -6.015  1.00  0.00     0.031 C 
ATOM     61  C   UNL     1       4.196   4.535  -5.571  1.00  0.00     0.029 A 
ATOM     62  C   UNL     1       4.323   3.881  -6.871  1.00  0.00     0.049 A 
ATOM     63  H   UNL     1       5.601   2.310  -7.366  1.00  0.00     0.167 HD
ATOM     64  C   UNL     1       8.447  -0.838  -8.354  1.00  0.00     0.037 A 
ATOM     65  C   UNL     1       3.611   4.186  -7.975  1.00  0.00     0.037 A 
ATOM     66  C   UNL     1       7.699  -0.625  -9.565  1.00  0.00     0.049 A 
ATOM     67  C   UNL     1       3.877   3.443  -9.259  1.00  0.00     0.074 A 
ATOM     68  C   UNL     1       7.803  -1.298 -10.769  1.00  0.00     0.029 A 
ATOM     69  N   UNL     1       6.719   0.341  -9.730  1.00  0.00    -0.354 N 
ATOM     70  N   UNL     1       4.719   2.463  -9.484  1.00  0.00    -0.248 NA
ATOM     71  C   UNL     1       3.105   3.853 -10.442  1.00  0.00     0.031 C 
ATOM     72  C   UNL     1       6.913  -0.712 -11.676  1.00  0.00     0.029 A 
ATOM     73  C   UNL     1       6.225   0.298 -11.023  1.00  0.00     0.049 A 
ATOM     74  H   UNL     1       6.419   0.966  -9.031  1.00  0.00     0.167 HD
ATOM     75  C   UNL     1       4.559   2.122 -10.824  1.00  0.00     0.074 A 
ATOM     76  C   UNL     1       3.538   2.998 -11.360  1.00  0.00     0.031 C 
ATOM     77  C   UNL     1       5.199   1.167 -11.542  1.00  0.00     0.037 A 
BRANCH  64  78
ATOM     78  C   UNL     1       9.503  -1.903  -8.343  1.00  0.00     0.058 A 
ATOM     79  C   UNL     1       9.318  -3.117  -7.664  1.00  0.00     0.135 A 
ATOM     80  C   UNL     1      10.714  -1.707  -9.025  1.00  0.00     0.135 A 
ATOM     81  F   UNL     1       8.185  -3.343  -6.980  1.00  0.00    -0.206 F 
ATOM     82  C   UNL     1      10.311  -4.091  -7.638  1.00  0.00     0.059 A 
ATOM     83  C   UNL     1      11.712  -2.676  -9.030  1.00  0.00     0.059 A 
ATOM     84  F   UNL     1      10.940  -0.560  -9.684  1.00  0.00    -0.206 F 
ATOM     85  C   UNL     1      11.507  -3.858  -8.319  1.00  0.00     0.060 A 
BRANCH  85  86
ATOM     86  S   UNL     1      12.796  -5.121  -8.265  1.00  0.00     0.124 S 
ATOM     87  O   UNL     1      13.315  -4.947  -6.912  1.00  0.00    -0.237 OA
ATOM     88  O   UNL     1      12.043  -6.348  -8.502  1.00  0.00    -0.237 OA
ATOM     89  O   UNL     1      13.701  -4.728  -9.341  1.00  0.00    -0.744 OA
ENDBRANCH  85  86
ENDBRANCH  64  78
BRANCH  65  90
ATOM     90  C   UNL     1       2.606   5.283  -7.935  1.00  0.00     0.058 A 
ATOM     91  C   UNL     1       1.233   5.016  -8.034  1.00  0.00     0.135 A 
ATOM     92  C   UNL     1       3.003   6.624  -7.811  1.00  0.00     0.135 A 
ATOM     93  F   UNL     1       0.804   3.752  -8.171  1.00  0.00    -0.206 F 
ATOM     94  C   UNL     1       0.289   6.039  -8.023  1.00  0.00     0.059 A 
ATOM     95  C   UNL     1       2.077   7.662  -7.774  1.00  0.00     0.059 A 
ATOM     96  F   UNL     1       4.306   6.934  -7.711  1.00  0.00    -0.206 F 
ATOM     97  C   UNL     1       0.722   7.360  -7.890  1.00  0.00     0.060 A 
BRANCH  97  98
ATOM     98  S   UNL     1      -0.512   8.678  -7.830  1.00  0.00     0.124 S 
ATOM     99  O   UNL     1      -0.918   8.764  -9.227  1.00  0.00    -0.237 OA
ATOM    100  O   UNL     1      -1.503   8.130  -6.909  1.00  0.00    -0.237 OA
ATOM    101  O   UNL     1       0.242   9.819  -7.319  1.00  0.00    -0.744 OA
ENDBRANCH  97  98
ENDBRANCH  65  90
BRANCH  77 102
ATOM    102  C   UNL     1       4.795   0.982 -12.979  1.00  0.00     0.058 A 
ATOM    103  C   UNL     1       5.203   1.877 -13.980  1.00  0.00     0.135 A 
ATOM    104  C   UNL     1       4.056  -0.147 -13.367  1.00  0.00     0.135 A 
ATOM    105  F   UNL     1       5.904   2.975 -13.659  1.00  0.00    -0.206 F 
ATOM    106  C   UNL     1       4.886   1.661 -15.318  1.00  0.00     0.059 A 
ATOM    107  C   UNL     1       3.747  -0.394 -14.701  1.00  0.00     0.059 A 
ATOM    108  F   UNL     1       3.649  -1.037 -12.448  1.00  0.00    -0.206 F 
ATOM    109  C   UNL     1       4.162   0.520 -15.669  1.00  0.00     0.060 A 
BRANCH 109 110
ATOM    110  S   UNL     1       3.807   0.219 -17.415  1.00  0.00     0.124 S 
ATOM    111  O   UNL     1       2.729   1.171 -17.664  1.00  0.00    -0.237 OA
ATOM    112  O   UNL     1       5.084   0.526 -18.052  1.00  0.00    -0.237 OA
ATOM    113  O   UNL     1       3.422  -1.189 -17.445  1.00  0.00    -0.744 OA
ENDBRANCH 109 110
ENDBRANCH  77 102
ENDBRANCH  51  52
ENDBRANCH  44  46
ENDBRANCH  43  44
ENDBRANCH  42  43
ENDBRANCH  41  42
ENDBRANCH  40  41
ENDBRANCH  39  40
ENDBRANCH   1  39
TORSDOF 28
