REMARK SMILES Cc1ccc(NC(=O)C[C@H]2SC[C@H](C(=O)OCCOCCOCCOC(=O)c3ccc(-c4c5nc(c(-c6c(F)cc(S(=O)(=O)[O-])cc6F)c6ccc([nH]6)c(-c6c(F)cc(S(=O)(=O)[O-])cc6F)c6nc(c(-c7c(F)cc(S(=O)(=O)[O-])cc7F)c7ccc4[nH]7)C=C6)C=C5)cc3)NC2=O)cc1
REMARK SMILES IDX 20 1 19 2 18 3 17 4 16 5 14 6 15 7 13 8 10 9 11 10 95 11
REMARK SMILES IDX 12 12 94 13 96 14 9 16 7 17 6 18 8 20 5 21 1 22 2 23 3 24
REMARK SMILES IDX 98 25 4 26 97 27 21 28 22 29 23 30 24 31 25 32 26 33 27 34
REMARK SMILES IDX 28 35 29 36 93 37 30 38 92 39 31 40 32 41 33 42 86 43 34 44
REMARK SMILES IDX 91 45 85 46 87 47 35 48 90 49 84 50 83 51 36 53 70 54 49 55
REMARK SMILES IDX 69 56 50 57 53 58 68 59 88 60 51 61 52 62 67 64 89 65 54 66
REMARK SMILES IDX 37 67 38 68 47 69 39 70 40 71 46 72 48 73 41 74 42 75 43 76
REMARK SMILES IDX 44 77 45 78 71 79 72 80 81 81 73 82 74 83 80 84 82 85 75 86
REMARK SMILES IDX 76 87 77 88 78 89 79 90 55 91 56 92 65 93 57 94 58 95 64 96
REMARK SMILES IDX 66 97 59 98 60 99 61 100 62 101 63 102
REMARK H PARENT 94 15 6 19 87 52 53 63
REMARK Flexibility Score: inf
ROOT
ATOM      1  C   UNL     1      -8.473  -3.215  -7.467  1.00  0.00     0.188 C 
ENDROOT
BRANCH   1   2
ATOM      2  O   UNL     1      -9.455  -4.051  -6.880  1.00  0.00    -0.376 OA
BRANCH   2   3
ATOM      3  C   UNL     1      -8.945  -4.829  -5.808  1.00  0.00     0.202 C 
BRANCH   3   4
ATOM      4  C   UNL     1      -7.822  -4.271  -4.897  1.00  0.00     0.261 C 
BRANCH   4   5
ATOM      5  O   UNL     1      -6.307  -4.011  -5.449  1.00  0.00    -0.462 OA
BRANCH   5   6
ATOM      6  C   UNL     1      -4.896  -3.989  -5.327  1.00  0.00     0.329 C 
ATOM      7  O   UNL     1      -4.401  -4.475  -6.335  1.00  0.00    -0.250 OA
BRANCH   6   8
ATOM      8  C   UNL     1      -3.711  -3.708  -4.142  1.00  0.00     0.202 C 
ATOM      9  C   UNL     1      -1.505  -3.332  -1.904  1.00  0.00     0.145 C 
ATOM     10  S   UNL     1      -1.909  -1.883  -2.934  1.00  0.00    -0.145 SA
ATOM     11  C   UNL     1      -1.792  -4.657  -2.672  1.00  0.00     0.234 C 
ATOM     12  C   UNL     1      -3.582  -2.380  -3.370  1.00  0.00     0.107 C 
ATOM     13  N   UNL     1      -2.996  -4.797  -3.381  1.00  0.00    -0.341 N 
ATOM     14  O   UNL     1      -1.058  -5.639  -2.550  1.00  0.00    -0.274 OA
ATOM     15  H   UNL     1      -3.413  -5.689  -3.382  1.00  0.00     0.164 HD
BRANCH   9  16
ATOM     16  C   UNL     1      -0.124  -2.966  -1.318  1.00  0.00     0.124 C 
BRANCH  16  17
ATOM     17  C   UNL     1       0.887  -4.026  -0.982  1.00  0.00     0.226 C 
ATOM     18  N   UNL     1       0.611  -5.050  -0.145  1.00  0.00    -0.326 N 
ATOM     19  H   UNL     1       1.281  -5.771  -0.164  1.00  0.00     0.169 HD
ATOM     20  O   UNL     1       2.030  -3.953  -1.452  1.00  0.00    -0.275 OA
BRANCH  18  21
ATOM     21  C   UNL     1      -0.441  -5.283   0.742  1.00  0.00     0.041 A 
ATOM     22  C   UNL     1      -3.378  -6.386   3.687  1.00  0.00     0.044 C 
ATOM     23  C   UNL     1      -2.398  -5.991   2.623  1.00  0.00    -0.051 A 
ATOM     24  C   UNL     1      -2.058  -4.646   2.422  1.00  0.00     0.005 A 
ATOM     25  C   UNL     1      -1.764  -6.974   1.862  1.00  0.00     0.005 A 
ATOM     26  C   UNL     1      -1.085  -4.291   1.479  1.00  0.00     0.026 A 
ATOM     27  C   UNL     1      -0.778  -6.622   0.946  1.00  0.00     0.026 A 
ENDBRANCH  18  21
ENDBRANCH  16  17
ENDBRANCH   9  16
ENDBRANCH   6   8
ENDBRANCH   5   6
ENDBRANCH   4   5
ENDBRANCH   3   4
ENDBRANCH   2   3
ENDBRANCH   1   2
BRANCH   1  28
ATOM     28  C   UNL     1      -8.561  -1.799  -6.880  1.00  0.00     0.188 C 
BRANCH  28  29
ATOM     29  O   UNL     1      -8.723  -1.746  -5.464  1.00  0.00    -0.376 OA
BRANCH  29  30
ATOM     30  C   UNL     1     -10.031  -1.495  -4.953  1.00  0.00     0.202 C 
BRANCH  30  31
ATOM     31  C   UNL     1     -10.232   0.016  -4.807  1.00  0.00     0.261 C 
BRANCH  31  32
ATOM     32  O   UNL     1      -9.701   0.473  -3.538  1.00  0.00    -0.460 OA
BRANCH  32  33
ATOM     33  C   UNL     1      -8.386   0.792  -3.568  1.00  0.00     0.338 C 
ATOM     34  O   UNL     1      -7.897   1.720  -4.202  1.00  0.00    -0.246 OA
BRANCH  33  35
ATOM     35  C   UNL     1      -7.627  -0.336  -2.977  1.00  0.00     0.060 A 
ATOM     36  C   UNL     1      -6.617  -0.789  -3.765  1.00  0.00     0.016 A 
ATOM     37  C   UNL     1      -8.055  -1.165  -1.933  1.00  0.00     0.016 A 
ATOM     38  C   UNL     1      -6.222  -2.122  -3.606  1.00  0.00     0.010 A 
ATOM     39  C   UNL     1      -7.535  -2.494  -1.756  1.00  0.00     0.010 A 
ATOM     40  C   UNL     1      -6.587  -3.074  -2.621  1.00  0.00    -0.014 A 
BRANCH  40  41
ATOM     41  C   UNL     1      -6.215  -4.650  -2.463  1.00  0.00     0.031 A 
ATOM     42  C   UNL     1      -5.822  -5.070  -1.068  1.00  0.00     0.074 A 
ATOM     43  C   UNL     1      -6.117  -5.812  -3.262  1.00  0.00     0.049 A 
ATOM     44  N   UNL     1      -5.583  -6.291  -0.707  1.00  0.00    -0.248 NA
ATOM     45  C   UNL     1      -5.608  -4.129   0.024  1.00  0.00     0.031 C 
ATOM     46  C   UNL     1      -6.800  -7.083  -2.847  1.00  0.00     0.029 A 
ATOM     47  N   UNL     1      -5.875  -6.184  -4.600  1.00  0.00    -0.354 N 
ATOM     48  C   UNL     1      -5.701  -6.339   0.649  1.00  0.00     0.074 A 
ATOM     49  C   UNL     1      -5.493  -4.972   1.054  1.00  0.00     0.031 C 
ATOM     50  C   UNL     1      -6.727  -8.019  -3.810  1.00  0.00     0.029 A 
ATOM     51  C   UNL     1      -5.920  -7.521  -4.902  1.00  0.00     0.049 A 
ATOM     52  H   UNL     1      -5.682  -5.509  -5.290  1.00  0.00     0.167 HD
ATOM     53  C   UNL     1      -6.173  -7.482   1.227  1.00  0.00     0.037 A 
ATOM     54  C   UNL     1      -5.099  -8.167  -5.788  1.00  0.00     0.037 A 
ATOM     55  C   UNL     1      -6.166  -8.644   0.311  1.00  0.00     0.049 A 
ATOM     56  C   UNL     1      -4.413  -9.269  -5.021  1.00  0.00     0.074 A 
ATOM     57  C   UNL     1      -7.136  -9.495  -0.195  1.00  0.00     0.029 A 
ATOM     58  N   UNL     1      -4.988  -9.002  -0.346  1.00  0.00    -0.354 N 
ATOM     59  N   UNL     1      -4.798  -9.581  -3.819  1.00  0.00    -0.248 NA
ATOM     60  C   UNL     1      -3.223 -10.017  -5.413  1.00  0.00     0.031 C 
ATOM     61  C   UNL     1      -6.520 -10.385  -1.126  1.00  0.00     0.029 A 
ATOM     62  C   UNL     1      -5.167 -10.099  -1.177  1.00  0.00     0.049 A 
ATOM     63  H   UNL     1      -4.130  -8.531  -0.234  1.00  0.00     0.167 HD
ATOM     64  C   UNL     1      -3.894 -10.380  -3.217  1.00  0.00     0.074 A 
ATOM     65  C   UNL     1      -2.929 -10.665  -4.267  1.00  0.00     0.031 C 
ATOM     66  C   UNL     1      -4.029 -10.679  -1.896  1.00  0.00     0.037 A 
BRANCH  53  67
ATOM     67  C   UNL     1      -6.807  -7.525   2.613  1.00  0.00     0.058 A 
ATOM     68  C   UNL     1      -7.168  -8.756   3.205  1.00  0.00     0.135 A 
ATOM     69  C   UNL     1      -7.158  -6.392   3.385  1.00  0.00     0.135 A 
ATOM     70  F   UNL     1      -6.962  -9.920   2.572  1.00  0.00    -0.206 F 
ATOM     71  C   UNL     1      -7.779  -8.852   4.462  1.00  0.00     0.059 A 
ATOM     72  C   UNL     1      -7.697  -6.465   4.668  1.00  0.00     0.059 A 
ATOM     73  F   UNL     1      -7.060  -5.143   2.921  1.00  0.00    -0.206 F 
ATOM     74  C   UNL     1      -8.020  -7.700   5.198  1.00  0.00     0.060 A 
BRANCH  74  75
ATOM     75  S   UNL     1      -8.754  -7.806   6.838  1.00  0.00     0.124 S 
ATOM     76  O   UNL     1     -10.154  -8.060   6.519  1.00  0.00    -0.237 OA
ATOM     77  O   UNL     1      -8.021  -8.914   7.440  1.00  0.00    -0.237 OA
ATOM     78  O   UNL     1      -8.473  -6.493   7.415  1.00  0.00    -0.744 OA
ENDBRANCH  74  75
ENDBRANCH  53  67
BRANCH  54  79
ATOM     79  C   UNL     1      -4.552  -7.409  -6.977  1.00  0.00     0.058 A 
ATOM     80  C   UNL     1      -5.474  -6.942  -7.945  1.00  0.00     0.135 A 
ATOM     81  C   UNL     1      -3.251  -6.879  -7.073  1.00  0.00     0.135 A 
ATOM     82  F   UNL     1      -6.720  -7.443  -7.968  1.00  0.00    -0.206 F 
ATOM     83  C   UNL     1      -5.200  -5.868  -8.805  1.00  0.00     0.059 A 
ATOM     84  C   UNL     1      -2.935  -5.808  -7.948  1.00  0.00     0.059 A 
ATOM     85  F   UNL     1      -2.314  -7.254  -6.189  1.00  0.00    -0.206 F 
ATOM     86  C   UNL     1      -3.956  -5.236  -8.729  1.00  0.00     0.060 A 
BRANCH  86  87
ATOM     87  S   UNL     1      -3.935  -3.396  -9.055  1.00  0.00     0.124 S 
ATOM     88  O   UNL     1      -3.452  -3.336 -10.429  1.00  0.00    -0.237 OA
ATOM     89  O   UNL     1      -5.337  -3.003  -8.877  1.00  0.00    -0.237 OA
ATOM     90  O   UNL     1      -3.024  -2.848  -8.050  1.00  0.00    -0.744 OA
ENDBRANCH  86  87
ENDBRANCH  54  79
BRANCH  66  91
ATOM     91  C   UNL     1      -3.083 -11.587  -1.193  1.00  0.00     0.058 A 
ATOM     92  C   UNL     1      -2.644 -12.792  -1.763  1.00  0.00     0.135 A 
ATOM     93  C   UNL     1      -2.669 -11.316   0.125  1.00  0.00     0.135 A 
ATOM     94  F   UNL     1      -3.064 -13.174  -2.981  1.00  0.00    -0.206 F 
ATOM     95  C   UNL     1      -1.774 -13.644  -1.095  1.00  0.00     0.059 A 
ATOM     96  C   UNL     1      -1.847 -12.181   0.833  1.00  0.00     0.059 A 
ATOM     97  F   UNL     1      -3.026 -10.187   0.754  1.00  0.00    -0.206 F 
ATOM     98  C   UNL     1      -1.375 -13.324   0.201  1.00  0.00     0.060 A 
BRANCH  98  99
ATOM     99  S   UNL     1      -0.235 -14.415   1.061  1.00  0.00     0.124 S 
ATOM    100  O   UNL     1      -0.697 -15.740   0.657  1.00  0.00    -0.237 OA
ATOM    101  O   UNL     1       1.044 -13.992   0.498  1.00  0.00    -0.237 OA
ATOM    102  O   UNL     1      -0.446 -14.085   2.466  1.00  0.00    -0.744 OA
ENDBRANCH  98  99
ENDBRANCH  66  91
ENDBRANCH  40  41
ENDBRANCH  33  35
ENDBRANCH  32  33
ENDBRANCH  31  32
ENDBRANCH  30  31
ENDBRANCH  29  30
ENDBRANCH  28  29
ENDBRANCH   1  28
TORSDOF 23
