REMARK SMILES C[C@@H](NC(=O)[C@H]1CC=CC[C@@H]1C(=O)OCCOCCOCCOC(=O)c1ccc(-c2c3nc(c(-c4c(F)cc(S(=O)(=O)[O-])cc4F)c4ccc([nH]4)c(-c4c(F)cc(S(=O)(=O)[O-])cc4F)c4nc(c(-c5c(F)cc(S(=O)(=O)[O-])cc5F)c5ccc2[nH]5)C=C4)C=C3)cc1)c1ccc(-n2ccnc2)cc1
REMARK SMILES IDX 18 1 17 2 16 3 15 4 14 5 12 6 13 7 11 8 6 9 7 10 8 11 10 12
REMARK SMILES IDX 9 13 4 14 3 15 5 17 2 18 1 19 92 20 93 21 102 22 94 23
REMARK SMILES IDX 101 24 95 25 96 26 97 27 100 28 98 29 99 30 19 31 20 32
REMARK SMILES IDX 21 33 22 34 23 35 24 36 25 37 26 38 27 39 91 40 28 41 90 42
REMARK SMILES IDX 29 43 30 44 31 45 84 46 32 47 89 48 83 49 85 50 33 51 88 52
REMARK SMILES IDX 82 53 81 54 34 56 68 57 47 58 67 59 48 60 51 61 66 62 86 63
REMARK SMILES IDX 49 64 50 65 65 67 87 68 52 69 35 70 36 71 45 72 37 73 38 74
REMARK SMILES IDX 44 75 46 76 39 77 40 78 41 79 42 80 43 81 69 82 70 83 79 84
REMARK SMILES IDX 71 85 72 86 78 87 80 88 73 89 74 90 75 91 76 92 77 93 53 94
REMARK SMILES IDX 54 95 63 96 55 97 56 98 62 99 64 100 57 101 58 102 59 103
REMARK SMILES IDX 60 104 61 105
REMARK H PARENT 3 16 85 55 51 66
REMARK Flexibility Score: inf
ROOT
ATOM      1  C   UNL     1      -5.506   4.795  -2.518  1.00  0.00     0.188 C 
ENDROOT
BRANCH   1   2
ATOM      2  O   UNL     1      -6.504   3.827  -2.276  1.00  0.00    -0.376 OA
BRANCH   2   3
ATOM      3  C   UNL     1      -6.557   2.713  -3.156  1.00  0.00     0.202 C 
BRANCH   3   4
ATOM      4  C   UNL     1      -5.294   2.118  -3.826  1.00  0.00     0.261 C 
BRANCH   4   5
ATOM      5  O   UNL     1      -4.007   2.375  -3.214  1.00  0.00    -0.463 OA
BRANCH   5   6
ATOM      6  C   UNL     1      -3.096   2.954  -4.041  1.00  0.00     0.310 C 
ATOM      7  O   UNL     1      -3.355   3.239  -5.212  1.00  0.00    -0.252 OA
BRANCH   6   8
ATOM      8  C   UNL     1      -1.698   3.235  -3.488  1.00  0.00     0.115 C 
ATOM      9  C   UNL     1      -1.243   2.715  -2.087  1.00  0.00     0.097 C 
ATOM     10  C   UNL     1      -0.954   3.777  -1.012  1.00  0.00     0.041 C 
ATOM     11  C   UNL     1      -0.664   5.160  -1.482  1.00  0.00    -0.030 C 
ATOM     12  C   UNL     1      -1.345   4.702  -3.834  1.00  0.00     0.043 C 
ATOM     13  C   UNL     1      -0.833   5.570  -2.739  1.00  0.00    -0.030 C 
BRANCH   9  14
ATOM     14  C   UNL     1       0.060   1.933  -2.243  1.00  0.00     0.224 C 
ATOM     15  N   UNL     1       0.491   1.025  -1.334  1.00  0.00    -0.349 N 
ATOM     16  H   UNL     1       1.147   0.402  -1.722  1.00  0.00     0.164 HD
ATOM     17  O   UNL     1       0.809   2.091  -3.213  1.00  0.00    -0.275 OA
BRANCH  15  18
ATOM     18  C   UNL     1       0.232   0.731   0.082  1.00  0.00     0.109 C 
ATOM     19  C   UNL     1       1.119  -0.474   0.445  1.00  0.00     0.036 C 
BRANCH  18  20
ATOM     20  C   UNL     1      -1.196   0.412   0.490  1.00  0.00    -0.026 A 
ATOM     21  C   UNL     1      -1.781   1.085   1.583  1.00  0.00     0.008 A 
ATOM     22  C   UNL     1      -1.914  -0.638  -0.101  1.00  0.00     0.008 A 
ATOM     23  C   UNL     1      -3.037   0.713   2.085  1.00  0.00     0.027 A 
ATOM     24  C   UNL     1      -3.197  -0.969   0.347  1.00  0.00     0.027 A 
ATOM     25  C   UNL     1      -3.758  -0.290   1.433  1.00  0.00     0.046 A 
BRANCH  25  26
ATOM     26  N   UNL     1      -5.117  -0.501   1.746  1.00  0.00    -0.306 N 
ATOM     27  C   UNL     1      -5.698  -0.665   2.979  1.00  0.00     0.113 A 
ATOM     28  C   UNL     1      -6.150  -0.485   0.834  1.00  0.00     0.204 A 
ATOM     29  C   UNL     1      -7.049  -0.783   2.737  1.00  0.00     0.131 A 
ATOM     30  N   UNL     1      -7.323  -0.646   1.403  1.00  0.00    -0.245 NA
ENDBRANCH  25  26
ENDBRANCH  18  20
ENDBRANCH  15  18
ENDBRANCH   9  14
ENDBRANCH   6   8
ENDBRANCH   5   6
ENDBRANCH   4   5
ENDBRANCH   3   4
ENDBRANCH   2   3
ENDBRANCH   1   2
BRANCH   1  31
ATOM     31  C   UNL     1      -4.510   4.853  -1.361  1.00  0.00     0.188 C 
BRANCH  31  32
ATOM     32  O   UNL     1      -4.045   3.634  -0.798  1.00  0.00    -0.376 OA
BRANCH  32  33
ATOM     33  C   UNL     1      -4.952   2.745  -0.164  1.00  0.00     0.202 C 
BRANCH  33  34
ATOM     34  C   UNL     1      -5.750   3.197   1.066  1.00  0.00     0.261 C 
BRANCH  34  35
ATOM     35  O   UNL     1      -5.474   4.532   1.469  1.00  0.00    -0.460 OA
BRANCH  35  36
ATOM     36  C   UNL     1      -4.439   4.681   2.325  1.00  0.00     0.338 C 
ATOM     37  O   UNL     1      -3.859   3.840   2.974  1.00  0.00    -0.246 OA
BRANCH  36  38
ATOM     38  C   UNL     1      -3.984   6.059   2.111  1.00  0.00     0.060 A 
ATOM     39  C   UNL     1      -2.877   6.229   1.279  1.00  0.00     0.016 A 
ATOM     40  C   UNL     1      -4.701   7.147   2.600  1.00  0.00     0.016 A 
ATOM     41  C   UNL     1      -2.482   7.499   0.901  1.00  0.00     0.010 A 
ATOM     42  C   UNL     1      -4.291   8.428   2.242  1.00  0.00     0.010 A 
ATOM     43  C   UNL     1      -3.179   8.602   1.397  1.00  0.00    -0.014 A 
BRANCH  43  44
ATOM     44  C   UNL     1      -2.622   9.947   1.178  1.00  0.00     0.031 A 
ATOM     45  C   UNL     1      -1.888  10.576   2.320  1.00  0.00     0.074 A 
ATOM     46  C   UNL     1      -2.741  10.549  -0.017  1.00  0.00     0.049 A 
ATOM     47  N   UNL     1      -1.451  11.795   2.455  1.00  0.00    -0.248 NA
ATOM     48  C   UNL     1      -1.623   9.704   3.479  1.00  0.00     0.031 C 
ATOM     49  C   UNL     1      -3.341   9.949  -1.210  1.00  0.00     0.029 A 
ATOM     50  N   UNL     1      -2.362  11.798  -0.424  1.00  0.00    -0.354 N 
ATOM     51  C   UNL     1      -0.912  11.856   3.735  1.00  0.00     0.074 A 
ATOM     52  C   UNL     1      -1.075  10.552   4.334  1.00  0.00     0.031 C 
ATOM     53  C   UNL     1      -3.288  10.835  -2.218  1.00  0.00     0.029 A 
ATOM     54  C   UNL     1      -2.716  12.083  -1.721  1.00  0.00     0.049 A 
ATOM     55  H   UNL     1      -1.882  12.433   0.156  1.00  0.00     0.167 HD
ATOM     56  C   UNL     1      -0.349  12.922   4.347  1.00  0.00     0.037 A 
ATOM     57  C   UNL     1      -2.622  13.241  -2.402  1.00  0.00     0.037 A 
ATOM     58  C   UNL     1      -0.197  14.196   3.698  1.00  0.00     0.049 A 
ATOM     59  C   UNL     1      -2.053  14.434  -1.679  1.00  0.00     0.074 A 
ATOM     60  C   UNL     1       0.353  15.361   4.196  1.00  0.00     0.029 A 
ATOM     61  N   UNL     1      -0.606  14.466   2.396  1.00  0.00    -0.354 N 
ATOM     62  N   UNL     1      -1.588  14.508  -0.452  1.00  0.00    -0.248 NA
ATOM     63  C   UNL     1      -2.011  15.700  -2.418  1.00  0.00     0.031 C 
ATOM     64  C   UNL     1       0.223  16.351   3.215  1.00  0.00     0.029 A 
ATOM     65  C   UNL     1      -0.346  15.787   2.081  1.00  0.00     0.049 A 
ATOM     66  H   UNL     1      -1.020  13.813   1.787  1.00  0.00     0.167 HD
ATOM     67  C   UNL     1      -1.173  15.823  -0.278  1.00  0.00     0.074 A 
ATOM     68  C   UNL     1      -1.435  16.503  -1.534  1.00  0.00     0.031 C 
ATOM     69  C   UNL     1      -0.623  16.418   0.811  1.00  0.00     0.037 A 
BRANCH  56  70
ATOM     70  C   UNL     1       0.049  12.761   5.789  1.00  0.00     0.058 A 
ATOM     71  C   UNL     1       1.098  11.920   6.196  1.00  0.00     0.135 A 
ATOM     72  C   UNL     1      -0.668  13.435   6.792  1.00  0.00     0.135 A 
ATOM     73  F   UNL     1       1.801  11.226   5.287  1.00  0.00    -0.206 F 
ATOM     74  C   UNL     1       1.392  11.720   7.543  1.00  0.00     0.059 A 
ATOM     75  C   UNL     1      -0.370  13.277   8.142  1.00  0.00     0.059 A 
ATOM     76  F   UNL     1      -1.689  14.243   6.465  1.00  0.00    -0.206 F 
ATOM     77  C   UNL     1       0.648  12.400   8.508  1.00  0.00     0.060 A 
BRANCH  77  78
ATOM     78  S   UNL     1       1.025  12.114  10.251  1.00  0.00     0.124 S 
ATOM     79  O   UNL     1       0.512  10.761  10.442  1.00  0.00    -0.237 OA
ATOM     80  O   UNL     1       2.478  12.250  10.281  1.00  0.00    -0.237 OA
ATOM     81  O   UNL     1       0.285  13.168  10.937  1.00  0.00    -0.744 OA
ENDBRANCH  77  78
ENDBRANCH  56  70
BRANCH  57  82
ATOM     82  C   UNL     1      -3.089  13.323  -3.812  1.00  0.00     0.058 A 
ATOM     83  C   UNL     1      -2.179  13.513  -4.863  1.00  0.00     0.135 A 
ATOM     84  C   UNL     1      -4.445  13.172  -4.148  1.00  0.00     0.135 A 
ATOM     85  F   UNL     1      -0.874  13.673  -4.599  1.00  0.00    -0.206 F 
ATOM     86  C   UNL     1      -2.594  13.549  -6.192  1.00  0.00     0.059 A 
ATOM     87  C   UNL     1      -4.881  13.178  -5.470  1.00  0.00     0.059 A 
ATOM     88  F   UNL     1      -5.359  12.980  -3.184  1.00  0.00    -0.206 F 
ATOM     89  C   UNL     1      -3.947  13.371  -6.486  1.00  0.00     0.060 A 
BRANCH  89  90
ATOM     90  S   UNL     1      -4.460  13.350  -8.218  1.00  0.00     0.124 S 
ATOM     91  O   UNL     1      -4.270  14.745  -8.599  1.00  0.00    -0.237 OA
ATOM     92  O   UNL     1      -3.524  12.395  -8.802  1.00  0.00    -0.237 OA
ATOM     93  O   UNL     1      -5.847  12.898  -8.152  1.00  0.00    -0.744 OA
ENDBRANCH  89  90
ENDBRANCH  57  82
BRANCH  69  94
ATOM     94  C   UNL     1      -0.232  17.862   0.671  1.00  0.00     0.058 A 
ATOM     95  C   UNL     1      -1.188  18.887   0.622  1.00  0.00     0.135 A 
ATOM     96  C   UNL     1       1.125  18.221   0.647  1.00  0.00     0.135 A 
ATOM     97  F   UNL     1      -2.498  18.592   0.635  1.00  0.00    -0.206 F 
ATOM     98  C   UNL     1      -0.812  20.221   0.528  1.00  0.00     0.059 A 
ATOM     99  C   UNL     1       1.524  19.551   0.589  1.00  0.00     0.059 A 
ATOM    100  F   UNL     1       2.078  17.277   0.705  1.00  0.00    -0.206 F 
ATOM    101  C   UNL     1       0.547  20.543   0.517  1.00  0.00     0.060 A 
BRANCH 101 102
ATOM    102  S   UNL     1       1.022  22.281   0.433  1.00  0.00     0.124 S 
ATOM    103  O   UNL     1       0.693  22.608  -0.950  1.00  0.00    -0.237 OA
ATOM    104  O   UNL     1       0.166  22.886   1.449  1.00  0.00    -0.237 OA
ATOM    105  O   UNL     1       2.446  22.260   0.753  1.00  0.00    -0.744 OA
ENDBRANCH 101 102
ENDBRANCH  69  94
ENDBRANCH  43  44
ENDBRANCH  36  38
ENDBRANCH  35  36
ENDBRANCH  34  35
ENDBRANCH  33  34
ENDBRANCH  32  33
ENDBRANCH  31  32
ENDBRANCH   1  31
TORSDOF 24
