REMARK SMILES Cc1ccc(NC(=O)C[C@@H](C(=O)OCCOCCOCCOC(=O)c2ccc(-c3c4nc(c(-c5c(F)cc(S(=O)(=O)[O-])cc5F)c5ccc([nH]5)c(-c5c(F)cc(S(=O)(=O)[O-])cc5F)c5nc(c(-c6c(F)cc(S(=O)(=O)[O-])cc6F)c6ccc3[nH]6)C=C5)C=C4)cc2)[NH+]2CCOCC2)cc1
REMARK SMILES IDX 17 1 16 2 15 3 14 4 13 5 11 6 12 7 10 8 9 9 7 10 6 11 8 13
REMARK SMILES IDX 5 14 1 15 2 16 3 17 98 18 4 19 97 20 91 21 92 22 96 23 93 25
REMARK SMILES IDX 95 26 94 27 18 28 19 29 20 30 21 31 22 32 23 33 24 34 25 35
REMARK SMILES IDX 26 36 90 37 27 38 89 39 28 40 29 41 30 42 83 43 31 44 88 45
REMARK SMILES IDX 82 46 84 47 32 48 87 49 81 50 80 51 33 53 67 54 46 55 66 56
REMARK SMILES IDX 47 57 50 58 65 59 85 60 48 61 49 62 64 64 86 65 51 66 34 67
REMARK SMILES IDX 35 68 44 69 36 70 37 71 43 72 45 73 38 74 39 75 40 76 41 77
REMARK SMILES IDX 42 78 68 79 69 80 78 81 70 82 71 83 77 84 79 85 72 86 73 87
REMARK SMILES IDX 74 88 75 89 76 90 52 91 53 92 62 93 54 94 55 95 61 96 63 97
REMARK SMILES IDX 56 98 57 99 58 100 59 101 60 102
REMARK H PARENT 6 12 91 24 84 52 50 63
REMARK Flexibility Score: inf
ROOT
ATOM      1  C   UNL     1      -0.237   0.676   2.175  1.00  0.00     0.188 C 
ENDROOT
BRANCH   1   2
ATOM      2  O   UNL     1       0.159   1.825   1.409  1.00  0.00    -0.376 OA
BRANCH   2   3
ATOM      3  C   UNL     1      -0.750   2.301   0.111  1.00  0.00     0.202 C 
BRANCH   3   4
ATOM      4  C   UNL     1      -0.764   1.545  -1.990  1.00  0.00     0.261 C 
BRANCH   4   5
ATOM      5  O   UNL     1      -1.095   0.017  -3.083  1.00  0.00    -0.459 OA
BRANCH   5   6
ATOM      6  C   UNL     1      -1.631  -1.488  -3.684  1.00  0.00     0.365 C 
ATOM      7  O   UNL     1      -1.499  -1.835  -4.859  1.00  0.00    -0.245 OA
BRANCH   6   8
ATOM      8  C   UNL     1      -2.690  -2.774  -2.765  1.00  0.00     0.304 C 
BRANCH   8   9
ATOM      9  C   UNL     1      -3.831  -2.401  -1.332  1.00  0.00     0.177 C 
BRANCH   9  10
ATOM     10  C   UNL     1      -4.399  -0.776  -0.520  1.00  0.00     0.231 C 
ATOM     11  N   UNL     1      -3.823   0.624  -0.446  1.00  0.00    -0.326 N 
ATOM     12  H   UNL     1      -4.510   1.268  -0.159  1.00  0.00     0.169 HD
ATOM     13  O   UNL     1      -5.521  -0.859   0.029  1.00  0.00    -0.274 OA
BRANCH  11  14
ATOM     14  C   UNL     1      -2.492   1.328  -0.686  1.00  0.00     0.041 A 
ATOM     15  C   UNL     1       2.343   3.020  -0.609  1.00  0.00     0.044 C 
ATOM     16  C   UNL     1       0.961   2.617  -1.074  1.00  0.00    -0.051 A 
ATOM     17  C   UNL     1       0.663   0.979  -0.547  1.00  0.00     0.005 A 
ATOM     18  C   UNL     1      -0.464   3.640  -1.479  1.00  0.00     0.005 A 
ATOM     19  C   UNL     1      -1.040   0.428  -0.301  1.00  0.00     0.026 A 
ATOM     20  C   UNL     1      -2.176   3.020  -1.231  1.00  0.00     0.026 A 
ENDBRANCH  11  14
ENDBRANCH   9  10
ENDBRANCH   8   9
BRANCH   8  21
ATOM     21  N   UNL     1      -1.824  -4.033  -2.636  1.00  0.00    -0.319 N 
ATOM     22  C   UNL     1      -0.954  -4.439  -3.756  1.00  0.00     0.291 C 
ATOM     23  C   UNL     1      -2.179  -5.229  -1.869  1.00  0.00     0.291 C 
ATOM     24  H   UNL     1      -1.356  -3.447  -1.944  1.00  0.00     0.348 HD
ATOM     25  C   UNL     1      -1.547  -5.580  -4.580  1.00  0.00     0.221 C 
ATOM     26  C   UNL     1      -2.404  -6.567  -2.633  1.00  0.00     0.221 C 
ATOM     27  O   UNL     1      -1.570  -6.763  -3.778  1.00  0.00    -0.370 OA
ENDBRANCH   8  21
ENDBRANCH   6   8
ENDBRANCH   5   6
ENDBRANCH   4   5
ENDBRANCH   3   4
ENDBRANCH   2   3
ENDBRANCH   1   2
BRANCH   1  28
ATOM     28  C   UNL     1      -1.691   0.807   2.631  1.00  0.00     0.188 C 
BRANCH  28  29
ATOM     29  O   UNL     1      -1.879   1.625   3.760  1.00  0.00    -0.376 OA
BRANCH  29  30
ATOM     30  C   UNL     1      -0.911   1.340   4.766  1.00  0.00     0.202 C 
BRANCH  30  31
ATOM     31  C   UNL     1      -0.617  -0.183   5.141  1.00  0.00     0.261 C 
BRANCH  31  32
ATOM     32  O   UNL     1      -1.531  -1.165   4.540  1.00  0.00    -0.460 OA
BRANCH  32  33
ATOM     33  C   UNL     1      -1.254  -2.510   4.367  1.00  0.00     0.338 C 
ATOM     34  O   UNL     1      -0.887  -3.267   5.244  1.00  0.00    -0.246 OA
BRANCH  33  35
ATOM     35  C   UNL     1      -1.667  -2.926   2.954  1.00  0.00     0.060 A 
ATOM     36  C   UNL     1      -0.924  -3.663   2.023  1.00  0.00     0.016 A 
ATOM     37  C   UNL     1      -2.745  -2.278   2.440  1.00  0.00     0.016 A 
ATOM     38  C   UNL     1      -0.994  -3.377   0.602  1.00  0.00     0.010 A 
ATOM     39  C   UNL     1      -2.629  -1.847   1.122  1.00  0.00     0.010 A 
ATOM     40  C   UNL     1      -1.762  -2.306   0.105  1.00  0.00    -0.014 A 
BRANCH  40  41
ATOM     41  C   UNL     1      -1.571  -1.425  -1.410  1.00  0.00     0.031 A 
ATOM     42  C   UNL     1      -3.017  -0.439  -2.421  1.00  0.00     0.074 A 
ATOM     43  C   UNL     1      -0.077  -1.442  -1.694  1.00  0.00     0.049 A 
ATOM     44  N   UNL     1      -2.920   0.733  -3.107  1.00  0.00    -0.248 NA
ATOM     45  C   UNL     1      -4.515  -0.782  -2.966  1.00  0.00     0.031 C 
ATOM     46  C   UNL     1       0.868  -0.617  -2.702  1.00  0.00     0.029 A 
ATOM     47  N   UNL     1       0.978  -1.990  -0.977  1.00  0.00    -0.354 N 
ATOM     48  C   UNL     1      -3.763   0.910  -4.161  1.00  0.00     0.074 A 
ATOM     49  C   UNL     1      -4.916   0.259  -3.695  1.00  0.00     0.031 C 
ATOM     50  C   UNL     1       2.158  -0.610  -2.413  1.00  0.00     0.029 A 
ATOM     51  C   UNL     1       2.244  -1.713  -1.546  1.00  0.00     0.049 A 
ATOM     52  H   UNL     1       0.858  -2.518  -0.155  1.00  0.00     0.167 HD
ATOM     53  C   UNL     1      -3.414   1.199  -5.462  1.00  0.00     0.037 A 
ATOM     54  C   UNL     1       2.991  -2.731  -2.006  1.00  0.00     0.037 A 
ATOM     55  C   UNL     1      -1.954   1.078  -5.807  1.00  0.00     0.049 A 
ATOM     56  C   UNL     1       2.622  -2.917  -3.578  1.00  0.00     0.074 A 
ATOM     57  C   UNL     1      -0.828   1.881  -5.716  1.00  0.00     0.029 A 
ATOM     58  N   UNL     1      -1.415  -0.129  -6.285  1.00  0.00    -0.354 N 
ATOM     59  N   UNL     1       1.509  -2.454  -4.173  1.00  0.00    -0.248 NA
ATOM     60  C   UNL     1       3.601  -3.227  -4.619  1.00  0.00     0.031 C 
ATOM     61  C   UNL     1       0.365   1.076  -5.943  1.00  0.00     0.029 A 
ATOM     62  C   UNL     1       0.015  -0.254  -6.182  1.00  0.00     0.049 A 
ATOM     63  H   UNL     1      -1.978  -0.842  -6.665  1.00  0.00     0.167 HD
ATOM     64  C   UNL     1       1.651  -2.228  -5.547  1.00  0.00     0.074 A 
ATOM     65  C   UNL     1       2.997  -2.785  -5.748  1.00  0.00     0.031 C 
ATOM     66  C   UNL     1       0.785  -1.589  -6.473  1.00  0.00     0.037 A 
BRANCH  53  67
ATOM     67  C   UNL     1      -4.497   1.840  -6.368  1.00  0.00     0.058 A 
ATOM     68  C   UNL     1      -4.130   2.850  -7.276  1.00  0.00     0.135 A 
ATOM     69  C   UNL     1      -5.904   1.648  -6.280  1.00  0.00     0.135 A 
ATOM     70  F   UNL     1      -2.839   3.099  -7.538  1.00  0.00    -0.206 F 
ATOM     71  C   UNL     1      -5.064   3.671  -7.932  1.00  0.00     0.059 A 
ATOM     72  C   UNL     1      -6.854   2.510  -6.846  1.00  0.00     0.059 A 
ATOM     73  F   UNL     1      -6.439   0.562  -5.708  1.00  0.00    -0.206 F 
ATOM     74  C   UNL     1      -6.423   3.530  -7.673  1.00  0.00     0.060 A 
BRANCH  74  75
ATOM     75  S   UNL     1      -7.605   4.658  -8.443  1.00  0.00     0.124 S 
ATOM     76  O   UNL     1      -7.087   5.965  -8.049  1.00  0.00    -0.237 OA
ATOM     77  O   UNL     1      -7.472   4.320  -9.855  1.00  0.00    -0.237 OA
ATOM     78  O   UNL     1      -8.881   4.293  -7.830  1.00  0.00    -0.744 OA
ENDBRANCH  74  75
ENDBRANCH  53  67
BRANCH  54  79
ATOM     79  C   UNL     1       3.450  -3.281  -0.655  1.00  0.00     0.058 A 
ATOM     80  C   UNL     1       4.210  -2.326   0.134  1.00  0.00     0.135 A 
ATOM     81  C   UNL     1       2.634  -4.121   0.134  1.00  0.00     0.135 A 
ATOM     82  F   UNL     1       4.956  -1.402  -0.499  1.00  0.00    -0.206 F 
ATOM     83  C   UNL     1       4.040  -2.116   1.518  1.00  0.00     0.059 A 
ATOM     84  C   UNL     1       2.498  -3.953   1.542  1.00  0.00     0.059 A 
ATOM     85  F   UNL     1       1.787  -4.973  -0.463  1.00  0.00    -0.206 F 
ATOM     86  C   UNL     1       3.172  -2.932   2.218  1.00  0.00     0.060 A 
BRANCH  86  87
ATOM     87  S   UNL     1       2.930  -2.611   3.993  1.00  0.00     0.124 S 
ATOM     88  O   UNL     1       4.229  -2.976   4.543  1.00  0.00    -0.237 OA
ATOM     89  O   UNL     1       2.606  -1.187   4.021  1.00  0.00    -0.237 OA
ATOM     90  O   UNL     1       1.829  -3.502   4.325  1.00  0.00    -0.744 OA
ENDBRANCH  86  87
ENDBRANCH  54  79
BRANCH  66  91
ATOM     91  C   UNL     1       0.507  -2.296  -7.855  1.00  0.00     0.058 A 
ATOM     92  C   UNL     1       1.151  -3.471  -8.310  1.00  0.00     0.135 A 
ATOM     93  C   UNL     1      -0.539  -1.879  -8.731  1.00  0.00     0.135 A 
ATOM     94  F   UNL     1       2.083  -4.109  -7.595  1.00  0.00    -0.206 F 
ATOM     95  C   UNL     1       0.857  -4.103  -9.525  1.00  0.00     0.059 A 
ATOM     96  C   UNL     1      -0.902  -2.542  -9.911  1.00  0.00     0.059 A 
ATOM     97  F   UNL     1      -1.297  -0.804  -8.497  1.00  0.00    -0.206 F 
ATOM     98  C   UNL     1      -0.173  -3.636 -10.322  1.00  0.00     0.060 A 
BRANCH  98  99
ATOM     99  S   UNL     1      -0.532  -4.477 -11.869  1.00  0.00     0.124 S 
ATOM    100  O   UNL     1       0.660  -4.167 -12.653  1.00  0.00    -0.237 OA
ATOM    101  O   UNL     1      -0.662  -5.867 -11.443  1.00  0.00    -0.237 OA
ATOM    102  O   UNL     1      -1.766  -3.849 -12.328  1.00  0.00    -0.744 OA
ENDBRANCH  98  99
ENDBRANCH  66  91
ENDBRANCH  40  41
ENDBRANCH  33  35
ENDBRANCH  32  33
ENDBRANCH  31  32
ENDBRANCH  30  31
ENDBRANCH  29  30
ENDBRANCH  28  29
ENDBRANCH   1  28
TORSDOF 24
