REMARK SMILES COc1cc(N[C@H]2C=C[C@@H](C(=O)OCCOCCOCCOC(=O)c3ccc(-c4c5nc(c(-c6c(F)cc(S(=O)(=O)[O-])cc6F)c6ccc([nH]6)c(-c6c(F)cc(S(=O)(=O)[O-])cc6F)c6nc(c(-c7c(F)cc(S(=O)(=O)[O-])cc7F)c7ccc4[nH]7)C=C6)C=C5)cc3)C2)c([N+](=O)[O-])cc1F
REMARK SMILES IDX 17 1 16 2 15 3 14 4 13 5 11 6 12 7 10 8 7 9 8 10 91 11 9 12
REMARK SMILES IDX 6 13 5 15 3 16 4 17 97 18 96 19 98 20 92 21 2 22 1 23 93 24
REMARK SMILES IDX 94 25 95 26 18 27 19 28 20 29 21 30 22 31 23 32 24 33 25 34
REMARK SMILES IDX 26 35 90 36 27 37 89 38 28 39 29 40 30 41 83 42 31 43 88 44
REMARK SMILES IDX 82 45 84 46 32 47 87 48 81 49 80 50 33 52 67 53 46 54 66 55
REMARK SMILES IDX 47 56 50 57 65 58 85 59 48 60 49 61 64 63 86 64 51 65 34 66
REMARK SMILES IDX 35 67 44 68 36 69 37 70 43 71 45 72 38 73 39 74 40 75 41 76
REMARK SMILES IDX 42 77 68 78 69 79 78 80 70 81 71 82 77 83 79 84 72 85 73 86
REMARK SMILES IDX 74 87 75 88 76 89 52 90 53 91 62 92 54 93 55 94 61 95 63 96
REMARK SMILES IDX 56 97 57 98 58 99 59 100 60 101
REMARK H PARENT 6 14 84 51 50 62
REMARK Flexibility Score: inf
ROOT
ATOM      1  C   UNL     1      -4.167  -0.792   1.745  1.00  0.00     0.188 C 
ENDROOT
BRANCH   1   2
ATOM      2  O   UNL     1      -3.671  -1.741   0.809  1.00  0.00    -0.376 OA
BRANCH   2   3
ATOM      3  C   UNL     1      -2.492  -1.411   0.076  1.00  0.00     0.202 C 
BRANCH   3   4
ATOM      4  C   UNL     1      -2.386  -0.010  -0.552  1.00  0.00     0.261 C 
BRANCH   4   5
ATOM      5  O   UNL     1      -2.514   1.074   0.396  1.00  0.00    -0.463 OA
BRANCH   5   6
ATOM      6  C   UNL     1      -3.166   2.177  -0.053  1.00  0.00     0.312 C 
ATOM      7  O   UNL     1      -3.535   2.317  -1.216  1.00  0.00    -0.252 OA
BRANCH   6   8
ATOM      8  C   UNL     1      -3.495   3.213   1.037  1.00  0.00     0.124 C 
ATOM      9  C   UNL     1      -2.193   4.558   2.655  1.00  0.00     0.103 C 
ATOM     10  C   UNL     1      -2.384   5.279   1.374  1.00  0.00    -0.006 C 
ATOM     11  C   UNL     1      -2.780   3.169   2.402  1.00  0.00     0.048 C 
ATOM     12  C   UNL     1      -3.128   4.575   0.515  1.00  0.00    -0.014 C 
BRANCH   9  13
ATOM     13  N   UNL     1      -0.807   4.569   3.094  1.00  0.00    -0.373 N 
ATOM     14  H   UNL     1      -0.625   5.174   3.849  1.00  0.00     0.161 HD
BRANCH  13  15
ATOM     15  C   UNL     1       0.301   3.878   2.636  1.00  0.00     0.117 A 
ATOM     16  C   UNL     1       1.336   2.360   0.994  1.00  0.00     0.157 A 
ATOM     17  C   UNL     1       0.268   3.148   1.434  1.00  0.00     0.082 A 
ATOM     18  C   UNL     1       2.527   2.374   1.705  1.00  0.00     0.172 A 
ATOM     19  C   UNL     1       2.641   3.122   2.866  1.00  0.00     0.131 A 
ATOM     20  F   UNL     1       3.598   1.693   1.277  1.00  0.00    -0.203 F 
ATOM     21  C   UNL     1       1.536   3.859   3.336  1.00  0.00     0.295 A 
BRANCH  16  22
ATOM     22  O   UNL     1       1.132   1.657  -0.163  1.00  0.00    -0.494 OA
ATOM     23  C   UNL     1       1.528   0.289  -0.063  1.00  0.00     0.278 C 
ENDBRANCH  16  22
BRANCH  21  24
ATOM     24  N   UNL     1       1.730   4.608   4.592  1.00  0.00     0.065 N 
ATOM     25  O   UNL     1       0.735   5.072   5.170  1.00  0.00    -0.258 OA
ATOM     26  O   UNL     1       2.891   4.732   5.012  1.00  0.00    -0.258 OA
ENDBRANCH  21  24
ENDBRANCH  13  15
ENDBRANCH   9  13
ENDBRANCH   6   8
ENDBRANCH   5   6
ENDBRANCH   4   5
ENDBRANCH   3   4
ENDBRANCH   2   3
ENDBRANCH   1   2
BRANCH   1  27
ATOM     27  C   UNL     1      -3.187  -0.238   2.790  1.00  0.00     0.188 C 
BRANCH  27  28
ATOM     28  O   UNL     1      -1.845  -0.633   2.619  1.00  0.00    -0.376 OA
BRANCH  28  29
ATOM     29  C   UNL     1      -1.294  -1.544   3.554  1.00  0.00     0.202 C 
BRANCH  29  30
ATOM     30  C   UNL     1      -2.090  -2.760   4.074  1.00  0.00     0.261 C 
BRANCH  30  31
ATOM     31  O   UNL     1      -3.512  -2.623   4.218  1.00  0.00    -0.460 OA
BRANCH  31  32
ATOM     32  C   UNL     1      -3.972  -2.003   5.330  1.00  0.00     0.338 C 
ATOM     33  O   UNL     1      -3.297  -1.544   6.240  1.00  0.00    -0.246 OA
BRANCH  32  34
ATOM     34  C   UNL     1      -5.417  -1.738   5.131  1.00  0.00     0.060 A 
ATOM     35  C   UNL     1      -5.869  -0.409   5.076  1.00  0.00     0.016 A 
ATOM     36  C   UNL     1      -6.316  -2.792   4.958  1.00  0.00     0.016 A 
ATOM     37  C   UNL     1      -7.222  -0.133   4.864  1.00  0.00     0.010 A 
ATOM     38  C   UNL     1      -7.674  -2.514   4.779  1.00  0.00     0.010 A 
ATOM     39  C   UNL     1      -8.139  -1.186   4.757  1.00  0.00    -0.014 A 
BRANCH  39  40
ATOM     40  C   UNL     1      -9.597  -0.917   4.823  1.00  0.00     0.031 A 
ATOM     41  C   UNL     1     -10.289  -1.087   6.148  1.00  0.00     0.074 A 
ATOM     42  C   UNL     1     -10.298  -0.533   3.741  1.00  0.00     0.049 A 
ATOM     43  N   UNL     1     -11.561  -1.008   6.438  1.00  0.00    -0.248 NA
ATOM     44  C   UNL     1      -9.425  -1.393   7.301  1.00  0.00     0.031 C 
ATOM     45  C   UNL     1      -9.736  -0.280   2.416  1.00  0.00     0.029 A 
ATOM     46  N   UNL     1     -11.643  -0.301   3.587  1.00  0.00    -0.354 N 
ATOM     47  C   UNL     1     -11.652  -1.261   7.802  1.00  0.00     0.074 A 
ATOM     48  C   UNL     1     -10.312  -1.529   8.275  1.00  0.00     0.031 C 
ATOM     49  C   UNL     1     -10.733   0.062   1.580  1.00  0.00     0.029 A 
ATOM     50  C   UNL     1     -12.006   0.011   2.299  1.00  0.00     0.049 A 
ATOM     51  H   UNL     1     -12.287  -0.354   4.331  1.00  0.00     0.167 HD
ATOM     52  C   UNL     1     -12.752  -1.260   8.590  1.00  0.00     0.037 A 
ATOM     53  C   UNL     1     -13.227   0.208   1.757  1.00  0.00     0.037 A 
ATOM     54  C   UNL     1     -14.084  -1.000   8.112  1.00  0.00     0.049 A 
ATOM     55  C   UNL     1     -14.451   0.112   2.633  1.00  0.00     0.074 A 
ATOM     56  C   UNL     1     -15.264  -0.973   8.833  1.00  0.00     0.029 A 
ATOM     57  N   UNL     1     -14.416  -0.731   6.791  1.00  0.00    -0.354 N 
ATOM     58  N   UNL     1     -14.527  -0.126   3.921  1.00  0.00    -0.248 NA
ATOM     59  C   UNL     1     -15.756   0.308   1.984  1.00  0.00     0.031 C 
ATOM     60  C   UNL     1     -16.316  -0.747   7.940  1.00  0.00     0.029 A 
ATOM     61  C   UNL     1     -15.786  -0.565   6.672  1.00  0.00     0.049 A 
ATOM     62  H   UNL     1     -13.772  -0.667   6.049  1.00  0.00     0.167 HD
ATOM     63  C   UNL     1     -15.882  -0.083   4.241  1.00  0.00     0.074 A 
ATOM     64  C   UNL     1     -16.589   0.212   3.012  1.00  0.00     0.031 C 
ATOM     65  C   UNL     1     -16.482  -0.268   5.443  1.00  0.00     0.037 A 
BRANCH  52  66
ATOM     66  C   UNL     1     -12.566  -1.574  10.050  1.00  0.00     0.058 A 
ATOM     67  C   UNL     1     -13.070  -2.767  10.591  1.00  0.00     0.135 A 
ATOM     68  C   UNL     1     -11.924  -0.680  10.922  1.00  0.00     0.135 A 
ATOM     69  F   UNL     1     -13.685  -3.663   9.803  1.00  0.00    -0.206 F 
ATOM     70  C   UNL     1     -12.957  -3.057  11.947  1.00  0.00     0.059 A 
ATOM     71  C   UNL     1     -11.772  -0.964  12.277  1.00  0.00     0.059 A 
ATOM     72  F   UNL     1     -11.400   0.464  10.453  1.00  0.00    -0.206 F 
ATOM     73  C   UNL     1     -12.304  -2.149  12.782  1.00  0.00     0.060 A 
BRANCH  73  74
ATOM     74  S   UNL     1     -12.126  -2.564  14.530  1.00  0.00     0.124 S 
ATOM     75  O   UNL     1     -13.502  -2.473  15.002  1.00  0.00    -0.237 OA
ATOM     76  O   UNL     1     -11.560  -3.908  14.467  1.00  0.00    -0.237 OA
ATOM     77  O   UNL     1     -11.219  -1.535  15.030  1.00  0.00    -0.744 OA
ENDBRANCH  73  74
ENDBRANCH  52  66
BRANCH  53  78
ATOM     78  C   UNL     1     -13.345   0.521   0.307  1.00  0.00     0.058 A 
ATOM     79  C   UNL     1     -13.032  -0.433  -0.675  1.00  0.00     0.135 A 
ATOM     80  C   UNL     1     -13.735   1.797  -0.126  1.00  0.00     0.135 A 
ATOM     81  F   UNL     1     -12.656  -1.670  -0.316  1.00  0.00    -0.206 F 
ATOM     82  C   UNL     1     -13.058  -0.121  -2.030  1.00  0.00     0.059 A 
ATOM     83  C   UNL     1     -13.796   2.126  -1.478  1.00  0.00     0.059 A 
ATOM     84  F   UNL     1     -14.067   2.736   0.773  1.00  0.00    -0.206 F 
ATOM     85  C   UNL     1     -13.433   1.165  -2.421  1.00  0.00     0.060 A 
BRANCH  85  86
ATOM     86  S   UNL     1     -13.413   1.564  -4.183  1.00  0.00     0.124 S 
ATOM     87  O   UNL     1     -11.987   1.484  -4.483  1.00  0.00    -0.237 OA
ATOM     88  O   UNL     1     -14.241   0.502  -4.744  1.00  0.00    -0.237 OA
ATOM     89  O   UNL     1     -13.991   2.902  -4.234  1.00  0.00    -0.744 OA
ENDBRANCH  85  86
ENDBRANCH  53  78
BRANCH  65  90
ATOM     90  C   UNL     1     -17.981  -0.136   5.517  1.00  0.00     0.058 A 
ATOM     91  C   UNL     1     -18.567   0.931   6.221  1.00  0.00     0.135 A 
ATOM     92  C   UNL     1     -18.837  -1.112   4.982  1.00  0.00     0.135 A 
ATOM     93  F   UNL     1     -17.797   1.889   6.761  1.00  0.00    -0.206 F 
ATOM     94  C   UNL     1     -19.942   1.011   6.413  1.00  0.00     0.059 A 
ATOM     95  C   UNL     1     -20.219  -1.035   5.136  1.00  0.00     0.059 A 
ATOM     96  F   UNL     1     -18.332  -2.148   4.294  1.00  0.00    -0.206 F 
ATOM     97  C   UNL     1     -20.761   0.021   5.870  1.00  0.00     0.060 A 
BRANCH  97  98
ATOM     98  S   UNL     1     -22.543   0.143   6.130  1.00  0.00     0.124 S 
ATOM     99  O   UNL     1     -22.655  -0.104   7.564  1.00  0.00    -0.237 OA
ATOM    100  O   UNL     1     -22.823   1.508   5.697  1.00  0.00    -0.237 OA
ATOM    101  O   UNL     1     -23.085  -0.904   5.269  1.00  0.00    -0.744 OA
ENDBRANCH  97  98
ENDBRANCH  65  90
ENDBRANCH  39  40
ENDBRANCH  32  34
ENDBRANCH  31  32
ENDBRANCH  30  31
ENDBRANCH  29  30
ENDBRANCH  28  29
ENDBRANCH  27  28
ENDBRANCH   1  27
TORSDOF 24
