REMARK SMILES CC[NH+]1CCC2(CC1)OC[C@@H](C(=O)OCCOCCOCCOC(=O)c1ccc(-c3c4nc(c(-c5c(F)cc(S(=O)(=O)[O-])cc5F)c5ccc([nH]5)c(-c5c(F)cc(S(=O)(=O)[O-])cc5F)c5nc(c(-c6c(F)cc(S(=O)(=O)[O-])cc6F)c6ccc3[nH]6)C=C5)C=C4)cc1)N2C(=O)c1ccc(Cl)c([N+](=O)[O-])c1
REMARK SMILES IDX 18 1 17 2 16 3 15 4 14 5 12 6 13 7 11 8 3 9 4 10 8 11 5 13
REMARK SMILES IDX 7 14 6 15 9 16 92 17 10 18 2 19 1 20 93 21 94 22 95 23 96 24
REMARK SMILES IDX 104 25 97 26 100 27 98 28 99 29 101 30 102 31 103 32 19 33
REMARK SMILES IDX 20 34 21 35 22 36 23 37 24 38 25 39 26 40 27 41 91 42 28 43
REMARK SMILES IDX 90 44 29 45 30 46 31 47 84 48 32 49 89 50 83 51 85 52 33 53
REMARK SMILES IDX 88 54 82 55 81 56 34 58 68 59 47 60 67 61 48 62 51 63 66 64
REMARK SMILES IDX 86 65 49 66 50 67 65 69 87 70 52 71 35 72 36 73 45 74 37 75
REMARK SMILES IDX 38 76 44 77 46 78 39 79 40 80 41 81 42 82 43 83 69 84 70 85
REMARK SMILES IDX 79 86 71 87 72 88 78 89 80 90 73 91 74 92 75 93 76 94 77 95
REMARK SMILES IDX 53 96 54 97 63 98 55 99 56 100 62 101 64 102 57 103 58 104
REMARK SMILES IDX 59 105 60 106 61 107
REMARK H PARENT 3 12 85 57 51 68
REMARK Flexibility Score: inf
ROOT
ATOM      1  C   UNL     1       2.252  -7.143  -5.800  1.00  0.00     0.188 C 
ENDROOT
BRANCH   1   2
ATOM      2  O   UNL     1       1.314  -8.135  -6.191  1.00  0.00    -0.376 OA
BRANCH   2   3
ATOM      3  C   UNL     1       0.062  -7.756  -6.736  1.00  0.00     0.202 C 
BRANCH   3   4
ATOM      4  C   UNL     1      -0.968  -7.122  -5.783  1.00  0.00     0.261 C 
BRANCH   4   5
ATOM      5  O   UNL     1      -0.657  -5.822  -5.201  1.00  0.00    -0.462 OA
BRANCH   5   6
ATOM      6  C   UNL     1      -0.215  -5.882  -3.920  1.00  0.00     0.331 C 
ATOM      7  O   UNL     1      -0.045  -6.953  -3.331  1.00  0.00    -0.250 OA
BRANCH   6   8
ATOM      8  C   UNL     1       0.062  -4.557  -3.158  1.00  0.00     0.224 C 
ATOM      9  N   UNL     1       0.601   0.255  -1.418  1.00  0.00    -0.335 N 
ATOM     10  C   UNL     1       1.530  -0.858  -1.346  1.00  0.00     0.267 C 
ATOM     11  C   UNL     1      -0.670   0.087  -2.099  1.00  0.00     0.267 C 
ATOM     12  H   UNL     1       1.093   0.757  -2.157  1.00  0.00     0.348 HD
ATOM     13  C   UNL     1       0.887  -2.216  -1.174  1.00  0.00     0.120 C 
ATOM     14  C   UNL     1      -1.303  -1.285  -2.016  1.00  0.00     0.120 C 
ATOM     15  C   UNL     1      -0.339  -2.462  -2.077  1.00  0.00     0.155 C 
ATOM     16  O   UNL     1      -1.071  -3.486  -1.353  1.00  0.00    -0.352 OA
ATOM     17  N   UNL     1      -0.040  -3.090  -3.393  1.00  0.00    -0.293 N 
ATOM     18  C   UNL     1      -0.888  -4.741  -1.980  1.00  0.00     0.200 C 
BRANCH   9  19
ATOM     19  C   UNL     1       0.617   1.207  -0.313  1.00  0.00     0.258 C 
ATOM     20  C   UNL     1       0.762   0.589   1.072  1.00  0.00     0.071 C 
ENDBRANCH   9  19
BRANCH  17  21
ATOM     21  C   UNL     1       0.773  -2.524  -4.386  1.00  0.00     0.257 C 
ATOM     22  O   UNL     1       1.619  -3.191  -4.973  1.00  0.00    -0.269 OA
BRANCH  21  23
ATOM     23  C   UNL     1       0.758  -1.095  -4.793  1.00  0.00     0.047 A 
ATOM     24  C   UNL     1      -0.251  -0.537  -5.577  1.00  0.00     0.016 A 
ATOM     25  C   UNL     1       1.889  -0.314  -4.516  1.00  0.00     0.101 A 
ATOM     26  C   UNL     1      -0.177   0.823  -5.944  1.00  0.00     0.028 A 
ATOM     27  C   UNL     1       1.884   1.079  -4.727  1.00  0.00     0.288 A 
ATOM     28  C   UNL     1       0.859   1.653  -5.478  1.00  0.00     0.118 A 
ATOM     29  Cl  UNL     1       0.780   3.315  -5.948  1.00  0.00    -0.077 Cl
BRANCH  27  30
ATOM     30  N   UNL     1       2.898   1.870  -4.014  1.00  0.00     0.064 N 
ATOM     31  O   UNL     1       2.660   3.059  -3.765  1.00  0.00    -0.258 OA
ATOM     32  O   UNL     1       3.912   1.273  -3.624  1.00  0.00    -0.258 OA
ENDBRANCH  27  30
ENDBRANCH  21  23
ENDBRANCH  17  21
ENDBRANCH   6   8
ENDBRANCH   5   6
ENDBRANCH   4   5
ENDBRANCH   3   4
ENDBRANCH   2   3
ENDBRANCH   1   2
BRANCH   1  33
ATOM     33  C   UNL     1       2.106  -5.711  -6.303  1.00  0.00     0.188 C 
BRANCH  33  34
ATOM     34  O   UNL     1       1.564  -5.590  -7.609  1.00  0.00    -0.376 OA
BRANCH  34  35
ATOM     35  C   UNL     1       1.532  -4.256  -8.115  1.00  0.00     0.202 C 
BRANCH  35  36
ATOM     36  C   UNL     1       2.777  -4.034  -8.970  1.00  0.00     0.261 C 
BRANCH  36  37
ATOM     37  O   UNL     1       3.992  -4.179  -8.214  1.00  0.00    -0.460 OA
BRANCH  37  38
ATOM     38  C   UNL     1       4.237  -3.224  -7.285  1.00  0.00     0.338 C 
ATOM     39  O   UNL     1       3.648  -2.158  -7.168  1.00  0.00    -0.246 OA
BRANCH  38  40
ATOM     40  C   UNL     1       5.222  -3.764  -6.314  1.00  0.00     0.060 A 
ATOM     41  C   UNL     1       5.007  -3.557  -4.944  1.00  0.00     0.016 A 
ATOM     42  C   UNL     1       6.325  -4.511  -6.738  1.00  0.00     0.016 A 
ATOM     43  C   UNL     1       5.923  -4.039  -4.003  1.00  0.00     0.010 A 
ATOM     44  C   UNL     1       7.242  -4.990  -5.798  1.00  0.00     0.010 A 
ATOM     45  C   UNL     1       7.071  -4.721  -4.427  1.00  0.00    -0.014 A 
BRANCH  45  46
ATOM     46  C   UNL     1       8.185  -5.000  -3.482  1.00  0.00     0.031 A 
ATOM     47  C   UNL     1       9.405  -4.115  -3.534  1.00  0.00     0.074 A 
ATOM     48  C   UNL     1       8.138  -6.026  -2.610  1.00  0.00     0.049 A 
ATOM     49  N   UNL     1      10.536  -4.219  -2.886  1.00  0.00    -0.248 NA
ATOM     50  C   UNL     1       9.342  -2.965  -4.452  1.00  0.00     0.031 C 
ATOM     51  C   UNL     1       7.016  -6.947  -2.443  1.00  0.00     0.029 A 
ATOM     52  N   UNL     1       9.079  -6.479  -1.715  1.00  0.00    -0.354 N 
ATOM     53  C   UNL     1      11.327  -3.166  -3.334  1.00  0.00     0.074 A 
ATOM     54  C   UNL     1      10.555  -2.447  -4.324  1.00  0.00     0.031 C 
ATOM     55  C   UNL     1       7.343  -7.871  -1.522  1.00  0.00     0.029 A 
ATOM     56  C   UNL     1       8.709  -7.630  -1.058  1.00  0.00     0.049 A 
ATOM     57  H   UNL     1       9.937  -6.022  -1.559  1.00  0.00     0.167 HD
ATOM     58  C   UNL     1      12.582  -2.827  -2.955  1.00  0.00     0.037 A 
ATOM     59  C   UNL     1       9.403  -8.415  -0.207  1.00  0.00     0.037 A 
ATOM     60  C   UNL     1      13.342  -3.532  -1.956  1.00  0.00     0.049 A 
ATOM     61  C   UNL     1      10.815  -8.036   0.175  1.00  0.00     0.074 A 
ATOM     62  C   UNL     1      14.599  -3.226  -1.463  1.00  0.00     0.029 A 
ATOM     63  N   UNL     1      12.928  -4.684  -1.307  1.00  0.00    -0.354 N 
ATOM     64  N   UNL     1      11.529  -7.007  -0.216  1.00  0.00    -0.248 NA
ATOM     65  C   UNL     1      11.514  -8.922   1.118  1.00  0.00     0.031 C 
ATOM     66  C   UNL     1      14.973  -4.230  -0.566  1.00  0.00     0.029 A 
ATOM     67  C   UNL     1      13.921  -5.123  -0.445  1.00  0.00     0.049 A 
ATOM     68  H   UNL     1      12.059  -5.126  -1.439  1.00  0.00     0.167 HD
ATOM     69  C   UNL     1      12.745  -7.107   0.457  1.00  0.00     0.074 A 
ATOM     70  C   UNL     1      12.665  -8.287   1.289  1.00  0.00     0.031 C 
ATOM     71  C   UNL     1      13.829  -6.293   0.392  1.00  0.00     0.037 A 
BRANCH  58  72
ATOM     72  C   UNL     1      13.235  -1.657  -3.638  1.00  0.00     0.058 A 
ATOM     73  C   UNL     1      12.833  -0.334  -3.399  1.00  0.00     0.135 A 
ATOM     74  C   UNL     1      14.333  -1.863  -4.490  1.00  0.00     0.135 A 
ATOM     75  F   UNL     1      11.778  -0.080  -2.607  1.00  0.00    -0.206 F 
ATOM     76  C   UNL     1      13.487   0.743  -3.990  1.00  0.00     0.059 A 
ATOM     77  C   UNL     1      15.020  -0.801  -5.069  1.00  0.00     0.059 A 
ATOM     78  F   UNL     1      14.757  -3.109  -4.757  1.00  0.00    -0.206 F 
ATOM     79  C   UNL     1      14.585   0.499  -4.818  1.00  0.00     0.060 A 
BRANCH  79  80
ATOM     80  S   UNL     1      15.447   1.908  -5.546  1.00  0.00     0.124 S 
ATOM     81  O   UNL     1      14.468   2.377  -6.522  1.00  0.00    -0.237 OA
ATOM     82  O   UNL     1      15.655   2.775  -4.391  1.00  0.00    -0.237 OA
ATOM     83  O   UNL     1      16.657   1.316  -6.107  1.00  0.00    -0.744 OA
ENDBRANCH  79  80
ENDBRANCH  58  72
BRANCH  59  84
ATOM     84  C   UNL     1       8.793  -9.667   0.326  1.00  0.00     0.058 A 
ATOM     85  C   UNL     1       8.493  -9.812   1.690  1.00  0.00     0.135 A 
ATOM     86  C   UNL     1       8.528 -10.759  -0.516  1.00  0.00     0.135 A 
ATOM     87  F   UNL     1       8.741  -8.805   2.541  1.00  0.00    -0.206 F 
ATOM     88  C   UNL     1       7.980 -10.999   2.203  1.00  0.00     0.059 A 
ATOM     89  C   UNL     1       7.985 -11.945  -0.032  1.00  0.00     0.059 A 
ATOM     90  F   UNL     1       8.789 -10.674  -1.830  1.00  0.00    -0.206 F 
ATOM     91  C   UNL     1       7.729 -12.061   1.333  1.00  0.00     0.060 A 
BRANCH  91  92
ATOM     92  S   UNL     1       7.035 -13.588   2.005  1.00  0.00     0.124 S 
ATOM     93  O   UNL     1       8.176 -14.135   2.731  1.00  0.00    -0.237 OA
ATOM     94  O   UNL     1       5.936 -13.089   2.826  1.00  0.00    -0.237 OA
ATOM     95  O   UNL     1       6.632 -14.327   0.813  1.00  0.00    -0.744 OA
ENDBRANCH  91  92
ENDBRANCH  59  84
BRANCH  71  96
ATOM     96  C   UNL     1      15.005  -6.614   1.278  1.00  0.00     0.058 A 
ATOM     97  C   UNL     1      15.836  -7.721   1.043  1.00  0.00     0.135 A 
ATOM     98  C   UNL     1      15.339  -5.763   2.346  1.00  0.00     0.135 A 
ATOM     99  F   UNL     1      15.563  -8.568   0.038  1.00  0.00    -0.206 F 
ATOM    100  C   UNL     1      16.938  -7.989   1.850  1.00  0.00     0.059 A 
ATOM    101  C   UNL     1      16.455  -5.994   3.146  1.00  0.00     0.059 A 
ATOM    102  F   UNL     1      14.589  -4.682   2.610  1.00  0.00    -0.206 F 
ATOM    103  C   UNL     1      17.241  -7.118   2.899  1.00  0.00     0.060 A 
BRANCH 103 104
ATOM    104  S   UNL     1      18.689  -7.462   3.921  1.00  0.00     0.124 S 
ATOM    105  O   UNL     1      18.238  -8.617   4.691  1.00  0.00    -0.237 OA
ATOM    106  O   UNL     1      19.720  -7.729   2.923  1.00  0.00    -0.237 OA
ATOM    107  O   UNL     1      18.868  -6.231   4.685  1.00  0.00    -0.744 OA
ENDBRANCH 103 104
ENDBRANCH  71  96
ENDBRANCH  45  46
ENDBRANCH  38  40
ENDBRANCH  37  38
ENDBRANCH  36  37
ENDBRANCH  35  36
ENDBRANCH  34  35
ENDBRANCH  33  34
ENDBRANCH   1  33
TORSDOF 24
