REMARK SMILES COc1cccc(CC2(CO)CCN(c3nc(C)ccc3C(=O)OCCOCCOCCOC(=O)c3ccc(-c4c5nc(c(-c6c(F)cc(S(=O)(=O)[O-])cc6F)c6ccc([nH]6)c(-c6c(F)cc(S(=O)(=O)[O-])cc6F)c6nc(c(-c7c(F)cc(S(=O)(=O)[O-])cc7F)c7ccc4[nH]7)C=C6)C=C5)cc3)CC2)c1
REMARK SMILES IDX 28 1 27 2 26 3 25 4 24 5 22 6 23 7 21 8 15 9 16 10 17 11
REMARK SMILES IDX 20 12 18 13 19 14 14 15 9 16 12 17 103 18 13 19 102 20 8 21
REMARK SMILES IDX 7 22 3 23 4 24 104 25 5 26 6 27 2 28 1 29 10 30 11 31 29 33
REMARK SMILES IDX 30 34 31 35 32 36 33 37 34 38 35 39 36 40 37 41 101 42 38 43
REMARK SMILES IDX 100 44 39 45 40 46 41 47 94 48 42 49 99 50 93 51 95 52 43 53
REMARK SMILES IDX 98 54 92 55 91 56 44 58 78 59 57 60 77 61 58 62 61 63 76 64
REMARK SMILES IDX 96 65 59 66 60 67 75 69 97 70 62 71 45 72 46 73 55 74 47 75
REMARK SMILES IDX 48 76 54 77 56 78 49 79 50 80 51 81 52 82 53 83 79 84 80 85
REMARK SMILES IDX 89 86 81 87 82 88 88 89 90 90 83 91 84 92 85 93 86 94 87 95
REMARK SMILES IDX 63 96 64 97 73 98 65 99 66 100 72 101 74 102 67 103 68 104
REMARK SMILES IDX 69 105 70 106 71 107
REMARK H PARENT 11 32 95 57 61 68
REMARK Flexibility Score: inf
ROOT
ATOM      1  C   UNL     1       1.050   0.402  -4.568  1.00  0.00     0.188 C 
ENDROOT
BRANCH   1   2
ATOM      2  O   UNL     1      -0.114  -0.391  -4.388  1.00  0.00    -0.376 OA
BRANCH   2   3
ATOM      3  C   UNL     1      -1.237   0.302  -3.876  1.00  0.00     0.202 C 
BRANCH   3   4
ATOM      4  C   UNL     1      -1.933   1.240  -4.869  1.00  0.00     0.261 C 
BRANCH   4   5
ATOM      5  O   UNL     1      -1.051   1.995  -5.722  1.00  0.00    -0.460 OA
BRANCH   5   6
ATOM      6  C   UNL     1      -0.789   3.285  -5.409  1.00  0.00     0.341 C 
ATOM      7  O   UNL     1      -1.224   3.880  -4.424  1.00  0.00    -0.246 OA
BRANCH   6   8
ATOM      8  C   UNL     1       0.038   3.896  -6.477  1.00  0.00     0.102 A 
ATOM      9  C   UNL     1       1.148   4.697  -6.201  1.00  0.00     0.143 A 
ATOM     10  N   UNL     1       1.783   5.385  -7.180  1.00  0.00    -0.235 NA
ATOM     11  C   UNL     1       1.378   5.259  -8.458  1.00  0.00     0.040 A 
ATOM     12  C   UNL     1      -0.351   3.742  -7.815  1.00  0.00     0.021 A 
ATOM     13  C   UNL     1       2.137   6.078  -9.454  1.00  0.00     0.067 C 
ATOM     14  C   UNL     1       0.336   4.422  -8.820  1.00  0.00     0.024 A 
BRANCH   9  15
ATOM     15  N   UNL     1       1.765   4.791  -4.986  1.00  0.00    -0.356 N 
ATOM     16  C   UNL     1       3.823   5.250  -2.990  1.00  0.00     0.001 C 
ATOM     17  C   UNL     1       2.997   6.405  -3.610  1.00  0.00     0.031 C 
ATOM     18  C   UNL     1       3.798   4.011  -3.906  1.00  0.00     0.031 C 
ATOM     19  C   UNL     1       1.667   6.032  -4.255  1.00  0.00     0.119 C 
ATOM     20  C   UNL     1       2.421   3.643  -4.423  1.00  0.00     0.119 C 
BRANCH  16  21
ATOM     21  C   UNL     1       3.396   4.905  -1.518  1.00  0.00     0.045 C 
BRANCH  21  22
ATOM     22  C   UNL     1       2.065   4.243  -1.249  1.00  0.00    -0.044 A 
ATOM     23  C   UNL     1       0.698   2.251  -1.000  1.00  0.00     0.119 A 
ATOM     24  C   UNL     1      -0.452   3.033  -1.068  1.00  0.00     0.046 A 
ATOM     25  C   UNL     1       1.957   2.846  -1.095  1.00  0.00     0.050 A 
ATOM     26  C   UNL     1      -0.347   4.419  -1.132  1.00  0.00     0.004 A 
ATOM     27  C   UNL     1       0.907   5.021  -1.183  1.00  0.00     0.004 A 
BRANCH  23  28
ATOM     28  O   UNL     1       0.518   0.894  -0.982  1.00  0.00    -0.497 OA
ATOM     29  C   UNL     1       1.158   0.266   0.123  1.00  0.00     0.278 C 
ENDBRANCH  23  28
ENDBRANCH  21  22
ENDBRANCH  16  21
BRANCH  16  30
ATOM     30  C   UNL     1       5.302   5.739  -2.970  1.00  0.00     0.163 C 
BRANCH  30  31
ATOM     31  O   UNL     1       5.498   6.761  -2.009  1.00  0.00    -0.396 OA
ATOM     32  H   UNL     1       4.939   7.523  -2.228  1.00  0.00     0.210 HD
ENDBRANCH  30  31
ENDBRANCH  16  30
ENDBRANCH   9  15
ENDBRANCH   6   8
ENDBRANCH   5   6
ENDBRANCH   4   5
ENDBRANCH   3   4
ENDBRANCH   2   3
ENDBRANCH   1   2
BRANCH   1  33
ATOM     33  C   UNL     1       1.521   0.446  -6.035  1.00  0.00     0.188 C 
BRANCH  33  34
ATOM     34  O   UNL     1       1.246  -0.633  -6.922  1.00  0.00    -0.376 OA
BRANCH  34  35
ATOM     35  C   UNL     1       1.075  -1.936  -6.396  1.00  0.00     0.202 C 
BRANCH  35  36
ATOM     36  C   UNL     1       2.278  -2.613  -5.727  1.00  0.00     0.261 C 
BRANCH  36  37
ATOM     37  O   UNL     1       3.149  -1.763  -4.963  1.00  0.00    -0.460 OA
BRANCH  37  38
ATOM     38  C   UNL     1       4.218  -1.277  -5.645  1.00  0.00     0.338 C 
ATOM     39  O   UNL     1       4.476  -1.468  -6.821  1.00  0.00    -0.246 OA
BRANCH  38  40
ATOM     40  C   UNL     1       5.014  -0.366  -4.783  1.00  0.00     0.060 A 
ATOM     41  C   UNL     1       5.483   0.828  -5.339  1.00  0.00     0.016 A 
ATOM     42  C   UNL     1       5.377  -0.712  -3.476  1.00  0.00     0.016 A 
ATOM     43  C   UNL     1       6.341   1.655  -4.604  1.00  0.00     0.010 A 
ATOM     44  C   UNL     1       6.259   0.107  -2.750  1.00  0.00     0.010 A 
ATOM     45  C   UNL     1       6.768   1.286  -3.314  1.00  0.00    -0.014 A 
BRANCH  45  46
ATOM     46  C   UNL     1       7.872   2.062  -2.672  1.00  0.00     0.031 A 
ATOM     47  C   UNL     1       9.259   1.921  -3.230  1.00  0.00     0.074 A 
ATOM     48  C   UNL     1       7.674   2.899  -1.634  1.00  0.00     0.049 A 
ATOM     49  N   UNL     1      10.339   2.594  -2.937  1.00  0.00    -0.248 NA
ATOM     50  C   UNL     1       9.462   0.840  -4.208  1.00  0.00     0.031 C 
ATOM     51  C   UNL     1       6.421   3.042  -0.911  1.00  0.00     0.029 A 
ATOM     52  N   UNL     1       8.493   3.850  -1.060  1.00  0.00    -0.354 N 
ATOM     53  C   UNL     1      11.365   1.980  -3.643  1.00  0.00     0.074 A 
ATOM     54  C   UNL     1      10.768   0.914  -4.419  1.00  0.00     0.031 C 
ATOM     55  C   UNL     1       6.496   4.125  -0.116  1.00  0.00     0.029 A 
ATOM     56  C   UNL     1       7.810   4.739  -0.246  1.00  0.00     0.049 A 
ATOM     57  H   UNL     1       9.465   3.893  -1.213  1.00  0.00     0.167 HD
ATOM     58  C   UNL     1      12.692   2.243  -3.597  1.00  0.00     0.037 A 
ATOM     59  C   UNL     1       8.188   5.929   0.276  1.00  0.00     0.037 A 
ATOM     60  C   UNL     1      13.286   3.267  -2.779  1.00  0.00     0.049 A 
ATOM     61  C   UNL     1       9.646   6.308   0.175  1.00  0.00     0.074 A 
ATOM     62  C   UNL     1      14.627   3.549  -2.589  1.00  0.00     0.029 A 
ATOM     63  N   UNL     1      12.575   4.176  -2.009  1.00  0.00    -0.354 N 
ATOM     64  N   UNL     1      10.609   5.718  -0.492  1.00  0.00    -0.248 NA
ATOM     65  C   UNL     1      10.090   7.468   0.966  1.00  0.00     0.031 C 
ATOM     66  C   UNL     1      14.729   4.607  -1.679  1.00  0.00     0.029 A 
ATOM     67  C   UNL     1      13.449   5.022  -1.347  1.00  0.00     0.049 A 
ATOM     68  H   UNL     1      11.593   4.215  -1.944  1.00  0.00     0.167 HD
ATOM     69  C   UNL     1      11.772   6.409  -0.168  1.00  0.00     0.074 A 
ATOM     70  C   UNL     1      11.384   7.512   0.684  1.00  0.00     0.031 C 
ATOM     71  C   UNL     1      13.053   6.121  -0.503  1.00  0.00     0.037 A 
BRANCH  58  72
ATOM     72  C   UNL     1      13.589   1.337  -4.387  1.00  0.00     0.058 A 
ATOM     73  C   UNL     1      13.648   1.389  -5.787  1.00  0.00     0.135 A 
ATOM     74  C   UNL     1      14.388   0.387  -3.728  1.00  0.00     0.135 A 
ATOM     75  F   UNL     1      12.877   2.254  -6.465  1.00  0.00    -0.206 F 
ATOM     76  C   UNL     1      14.451   0.514  -6.510  1.00  0.00     0.059 A 
ATOM     77  C   UNL     1      15.220  -0.477  -4.429  1.00  0.00     0.059 A 
ATOM     78  F   UNL     1      14.355   0.287  -2.390  1.00  0.00    -0.206 F 
ATOM     79  C   UNL     1      15.233  -0.416  -5.822  1.00  0.00     0.060 A 
BRANCH  79  80
ATOM     80  S   UNL     1      16.269  -1.545  -6.774  1.00  0.00     0.124 S 
ATOM     81  O   UNL     1      15.270  -2.442  -7.348  1.00  0.00    -0.237 OA
ATOM     82  O   UNL     1      16.927  -0.644  -7.715  1.00  0.00    -0.237 OA
ATOM     83  O   UNL     1      17.140  -2.140  -5.766  1.00  0.00    -0.744 OA
ENDBRANCH  79  80
ENDBRANCH  58  72
BRANCH  59  84
ATOM     84  C   UNL     1       7.223   6.879   0.926  1.00  0.00     0.058 A 
ATOM     85  C   UNL     1       7.085   8.196   0.438  1.00  0.00     0.135 A 
ATOM     86  C   UNL     1       6.473   6.551   2.065  1.00  0.00     0.135 A 
ATOM     87  F   UNL     1       7.786   8.592  -0.637  1.00  0.00    -0.206 F 
ATOM     88  C   UNL     1       6.282   9.147   1.069  1.00  0.00     0.059 A 
ATOM     89  C   UNL     1       5.627   7.471   2.687  1.00  0.00     0.059 A 
ATOM     90  F   UNL     1       6.564   5.325   2.603  1.00  0.00    -0.206 F 
ATOM     91  C   UNL     1       5.558   8.774   2.198  1.00  0.00     0.060 A 
BRANCH  91  92
ATOM     92  S   UNL     1       4.518  10.004   3.019  1.00  0.00     0.124 S 
ATOM     93  O   UNL     1       5.504  10.764   3.778  1.00  0.00    -0.237 OA
ATOM     94  O   UNL     1       3.904  10.702   1.893  1.00  0.00    -0.237 OA
ATOM     95  O   UNL     1       3.602   9.189   3.813  1.00  0.00    -0.744 OA
ENDBRANCH  91  92
ENDBRANCH  59  84
BRANCH  71  96
ATOM     96  C   UNL     1      14.136   6.997   0.063  1.00  0.00     0.058 A 
ATOM     97  C   UNL     1      14.473   6.959   1.426  1.00  0.00     0.135 A 
ATOM     98  C   UNL     1      14.887   7.835  -0.775  1.00  0.00     0.135 A 
ATOM     99  F   UNL     1      13.786   6.175   2.272  1.00  0.00    -0.206 F 
ATOM    100  C   UNL     1      15.504   7.738   1.942  1.00  0.00     0.059 A 
ATOM    101  C   UNL     1      15.940   8.602  -0.285  1.00  0.00     0.059 A 
ATOM    102  F   UNL     1      14.614   7.901  -2.088  1.00  0.00    -0.206 F 
ATOM    103  C   UNL     1      16.234   8.555   1.077  1.00  0.00     0.060 A 
BRANCH 103 104
ATOM    104  S   UNL     1      17.596   9.528   1.753  1.00  0.00     0.124 S 
ATOM    105  O   UNL     1      16.881  10.566   2.488  1.00  0.00    -0.237 OA
ATOM    106  O   UNL     1      18.306   8.547   2.569  1.00  0.00    -0.237 OA
ATOM    107  O   UNL     1      18.313   9.981   0.564  1.00  0.00    -0.744 OA
ENDBRANCH 103 104
ENDBRANCH  71  96
ENDBRANCH  45  46
ENDBRANCH  38  40
ENDBRANCH  37  38
ENDBRANCH  36  37
ENDBRANCH  35  36
ENDBRANCH  34  35
ENDBRANCH  33  34
ENDBRANCH   1  33
TORSDOF 26
