REMARK SMILES Cc1cc(N2CC[C@H](CC(=O)OCCOCCOCCOC(=O)c3ccc(-c4c5nc(c(-c6c(F)cc(S(=O)(=O)[O-])cc6F)c6ccc([nH]6)c(-c6c(F)cc(S(=O)(=O)[O-])cc6F)c6nc(c(-c7c(F)cc(S(=O)(=O)[O-])cc7F)c7ccc4[nH]7)C=C6)C=C5)cc3)C2)ncc1[N+](=O)[O-]
REMARK SMILES IDX 16 1 15 2 14 3 13 4 12 5 10 6 11 7 9 8 8 9 5 10 6 11 90 12
REMARK SMILES IDX 7 13 4 14 1 15 2 16 3 17 93 18 92 19 91 20 94 21 95 22 96 23
REMARK SMILES IDX 17 24 18 25 19 26 20 27 21 28 22 29 23 30 24 31 25 32 89 33
REMARK SMILES IDX 26 34 88 35 27 36 28 37 29 38 82 39 30 40 87 41 81 42 83 43
REMARK SMILES IDX 31 44 86 45 80 46 79 47 32 49 66 50 45 51 65 52 46 53 49 54
REMARK SMILES IDX 64 55 84 56 47 57 48 58 63 60 85 61 50 62 33 63 34 64 43 65
REMARK SMILES IDX 35 66 36 67 42 68 44 69 37 70 38 71 39 72 40 73 41 74 67 75
REMARK SMILES IDX 68 76 77 77 69 78 70 79 76 80 78 81 71 82 72 83 73 84 74 85
REMARK SMILES IDX 75 86 51 87 52 88 61 89 53 90 54 91 60 92 62 93 55 94 56 95
REMARK SMILES IDX 57 96 58 97 59 98
REMARK H PARENT 83 48 49 59
REMARK Flexibility Score: inf
ROOT
ATOM      1  C   UNL     1       5.054   7.692   1.164  1.00  0.00     0.188 C 
ENDROOT
BRANCH   1   2
ATOM      2  O   UNL     1       6.448   7.963   1.276  1.00  0.00    -0.376 OA
BRANCH   2   3
ATOM      3  C   UNL     1       7.331   7.058   0.614  1.00  0.00     0.202 C 
BRANCH   3   4
ATOM      4  C   UNL     1       7.296   5.599   1.095  1.00  0.00     0.261 C 
BRANCH   4   5
ATOM      5  O   UNL     1       5.984   4.998   1.047  1.00  0.00    -0.463 OA
BRANCH   5   6
ATOM      6  C   UNL     1       5.566   4.411   2.198  1.00  0.00     0.306 C 
ATOM      7  O   UNL     1       6.260   4.272   3.200  1.00  0.00    -0.252 OA
BRANCH   6   8
ATOM      8  C   UNL     1       4.103   4.009   2.202  1.00  0.00     0.128 C 
BRANCH   8   9
ATOM      9  C   UNL     1       3.359   3.838   0.878  1.00  0.00     0.021 C 
ATOM     10  N   UNL     1       1.738   2.428  -0.163  1.00  0.00    -0.356 N 
ATOM     11  C   UNL     1       2.906   2.481  -1.036  1.00  0.00     0.118 C 
ATOM     12  C   UNL     1       1.992   3.140   1.091  1.00  0.00     0.122 C 
ATOM     13  C   UNL     1       4.046   2.913  -0.122  1.00  0.00     0.027 C 
BRANCH  10  14
ATOM     14  C   UNL     1       1.056   1.226  -0.064  1.00  0.00     0.129 A 
ATOM     15  C   UNL     1      -2.571   0.154   0.057  1.00  0.00     0.052 C 
ATOM     16  C   UNL     1      -1.074   0.021   0.053  1.00  0.00     0.032 A 
ATOM     17  C   UNL     1      -0.337   1.226   0.032  1.00  0.00     0.057 A 
ATOM     18  C   UNL     1      -0.339  -1.171   0.054  1.00  0.00     0.290 A 
ATOM     19  C   UNL     1       1.048  -1.092  -0.015  1.00  0.00     0.199 A 
ATOM     20  N   UNL     1       1.746   0.069  -0.088  1.00  0.00    -0.232 NA
BRANCH  18  21
ATOM     21  N   UNL     1      -0.920  -2.512   0.118  1.00  0.00     0.064 N 
ATOM     22  O   UNL     1      -0.219  -3.457  -0.277  1.00  0.00    -0.258 OA
ATOM     23  O   UNL     1      -2.057  -2.647   0.584  1.00  0.00    -0.258 OA
ENDBRANCH  18  21
ENDBRANCH  10  14
ENDBRANCH   8   9
ENDBRANCH   6   8
ENDBRANCH   5   6
ENDBRANCH   4   5
ENDBRANCH   3   4
ENDBRANCH   2   3
ENDBRANCH   1   2
BRANCH   1  24
ATOM     24  C   UNL     1       4.488   7.678  -0.258  1.00  0.00     0.188 C 
BRANCH  24  25
ATOM     25  O   UNL     1       5.214   6.894  -1.197  1.00  0.00    -0.376 OA
BRANCH  25  26
ATOM     26  C   UNL     1       4.733   6.917  -2.545  1.00  0.00     0.202 C 
BRANCH  26  27
ATOM     27  C   UNL     1       4.522   8.307  -3.183  1.00  0.00     0.261 C 
BRANCH  27  28
ATOM     28  O   UNL     1       3.534   9.141  -2.540  1.00  0.00    -0.460 OA
BRANCH  28  29
ATOM     29  C   UNL     1       2.308   8.607  -2.332  1.00  0.00     0.338 C 
ATOM     30  O   UNL     1       1.868   7.593  -2.847  1.00  0.00    -0.246 OA
BRANCH  29  31
ATOM     31  C   UNL     1       1.678   9.293  -1.170  1.00  0.00     0.060 A 
ATOM     32  C   UNL     1       0.951   8.509  -0.263  1.00  0.00     0.016 A 
ATOM     33  C   UNL     1       1.843  10.661  -0.925  1.00  0.00     0.016 A 
ATOM     34  C   UNL     1       0.348   9.094   0.854  1.00  0.00     0.010 A 
ATOM     35  C   UNL     1       1.229  11.249   0.190  1.00  0.00     0.010 A 
ATOM     36  C   UNL     1       0.446  10.476   1.066  1.00  0.00    -0.014 A 
BRANCH  36  37
ATOM     37  C   UNL     1      -0.430  11.121   2.082  1.00  0.00     0.031 A 
ATOM     38  C   UNL     1      -1.716  11.756   1.618  1.00  0.00     0.074 A 
ATOM     39  C   UNL     1      -0.136  11.097   3.396  1.00  0.00     0.049 A 
ATOM     40  N   UNL     1      -2.654  12.344   2.316  1.00  0.00    -0.248 NA
ATOM     41  C   UNL     1      -1.980  11.719   0.170  1.00  0.00     0.031 C 
ATOM     42  C   UNL     1       1.054  10.491   3.989  1.00  0.00     0.029 A 
ATOM     43  N   UNL     1      -0.829  11.598   4.473  1.00  0.00    -0.354 N 
ATOM     44  C   UNL     1      -3.619  12.740   1.397  1.00  0.00     0.074 A 
ATOM     45  C   UNL     1      -3.135  12.361   0.087  1.00  0.00     0.031 C 
ATOM     46  C   UNL     1       1.011  10.659   5.324  1.00  0.00     0.029 A 
ATOM     47  C   UNL     1      -0.198  11.402   5.680  1.00  0.00     0.049 A 
ATOM     48  H   UNL     1      -1.697  12.054   4.388  1.00  0.00     0.167 HD
ATOM     49  C   UNL     1      -4.807  13.350   1.619  1.00  0.00     0.037 A 
ATOM     50  C   UNL     1      -0.548  11.789   6.925  1.00  0.00     0.037 A 
ATOM     51  C   UNL     1      -5.293  13.735   2.919  1.00  0.00     0.049 A 
ATOM     52  C   UNL     1      -1.846  12.531   7.140  1.00  0.00     0.074 A 
ATOM     53  C   UNL     1      -6.492  14.348   3.240  1.00  0.00     0.029 A 
ATOM     54  N   UNL     1      -4.605  13.556   4.109  1.00  0.00    -0.354 N 
ATOM     55  N   UNL     1      -2.762  12.869   6.264  1.00  0.00    -0.248 NA
ATOM     56  C   UNL     1      -2.159  12.940   8.518  1.00  0.00     0.031 C 
ATOM     57  C   UNL     1      -6.508  14.585   4.619  1.00  0.00     0.029 A 
ATOM     58  C   UNL     1      -5.344  14.070   5.164  1.00  0.00     0.049 A 
ATOM     59  H   UNL     1      -3.723  13.128   4.193  1.00  0.00     0.167 HD
ATOM     60  C   UNL     1      -3.769  13.502   6.989  1.00  0.00     0.074 A 
ATOM     61  C   UNL     1      -3.358  13.485   8.376  1.00  0.00     0.031 C 
ATOM     62  C   UNL     1      -4.931  14.047   6.545  1.00  0.00     0.037 A 
BRANCH  49  63
ATOM     63  C   UNL     1      -5.663  13.659   0.422  1.00  0.00     0.058 A 
ATOM     64  C   UNL     1      -6.328  12.648  -0.290  1.00  0.00     0.135 A 
ATOM     65  C   UNL     1      -5.851  14.987   0.006  1.00  0.00     0.135 A 
ATOM     66  F   UNL     1      -6.166  11.360   0.053  1.00  0.00    -0.206 F 
ATOM     67  C   UNL     1      -7.133  12.941  -1.386  1.00  0.00     0.059 A 
ATOM     68  C   UNL     1      -6.674  15.305  -1.070  1.00  0.00     0.059 A 
ATOM     69  F   UNL     1      -5.234  15.990   0.649  1.00  0.00    -0.206 F 
ATOM     70  C   UNL     1      -7.301  14.273  -1.767  1.00  0.00     0.060 A 
BRANCH  70  71
ATOM     71  S   UNL     1      -8.358  14.636  -3.184  1.00  0.00     0.124 S 
ATOM     72  O   UNL     1      -7.536  14.158  -4.291  1.00  0.00    -0.237 OA
ATOM     73  O   UNL     1      -9.551  13.847  -2.893  1.00  0.00    -0.237 OA
ATOM     74  O   UNL     1      -8.536  16.084  -3.115  1.00  0.00    -0.744 OA
ENDBRANCH  70  71
ENDBRANCH  49  63
BRANCH  50  75
ATOM     75  C   UNL     1       0.344  11.495   8.081  1.00  0.00     0.058 A 
ATOM     76  C   UNL     1      -0.039  10.598   9.090  1.00  0.00     0.135 A 
ATOM     77  C   UNL     1       1.585  12.138   8.218  1.00  0.00     0.135 A 
ATOM     78  F   UNL     1      -1.223   9.972   9.016  1.00  0.00    -0.206 F 
ATOM     79  C   UNL     1       0.764  10.363  10.202  1.00  0.00     0.059 A 
ATOM     80  C   UNL     1       2.419  11.898   9.306  1.00  0.00     0.059 A 
ATOM     81  F   UNL     1       2.002  13.003   7.281  1.00  0.00    -0.206 F 
ATOM     82  C   UNL     1       1.993  11.018  10.301  1.00  0.00     0.060 A 
BRANCH  82  83
ATOM     83  S   UNL     1       3.046  10.678  11.729  1.00  0.00     0.124 S 
ATOM     84  O   UNL     1       2.338  11.385  12.790  1.00  0.00    -0.237 OA
ATOM     85  O   UNL     1       3.008   9.221  11.796  1.00  0.00    -0.237 OA
ATOM     86  O   UNL     1       4.332  11.248  11.340  1.00  0.00    -0.744 OA
ENDBRANCH  82  83
ENDBRANCH  50  75
BRANCH  62  87
ATOM     87  C   UNL     1      -5.861  14.640   7.571  1.00  0.00     0.058 A 
ATOM     88  C   UNL     1      -5.559  15.835   8.244  1.00  0.00     0.135 A 
ATOM     89  C   UNL     1      -7.089  14.022   7.861  1.00  0.00     0.135 A 
ATOM     90  F   UNL     1      -4.400  16.469   8.007  1.00  0.00    -0.206 F 
ATOM     91  C   UNL     1      -6.423  16.374   9.194  1.00  0.00     0.059 A 
ATOM     92  C   UNL     1      -7.981  14.559   8.784  1.00  0.00     0.059 A 
ATOM     93  F   UNL     1      -7.438  12.886   7.236  1.00  0.00    -0.206 F 
ATOM     94  C   UNL     1      -7.631  15.727   9.459  1.00  0.00     0.060 A 
BRANCH  94  95
ATOM     95  S   UNL     1      -8.745  16.440  10.688  1.00  0.00     0.124 S 
ATOM     96  O   UNL     1      -8.060  16.109  11.933  1.00  0.00    -0.237 OA
ATOM     97  O   UNL     1      -8.751  17.854  10.325  1.00  0.00    -0.237 OA
ATOM     98  O   UNL     1     -10.003  15.735  10.457  1.00  0.00    -0.744 OA
ENDBRANCH  94  95
ENDBRANCH  62  87
ENDBRANCH  36  37
ENDBRANCH  29  31
ENDBRANCH  28  29
ENDBRANCH  27  28
ENDBRANCH  26  27
ENDBRANCH  25  26
ENDBRANCH  24  25
ENDBRANCH   1  24
TORSDOF 23
