REMARK SMILES Cc1cccc(C(=O)NCc2ccc(C(=O)OCCOCCOCCOC(=O)c3ccc(-c4c5nc(c(-c6c(F)cc(S(=O)(=O)[O-])cc6F)c6ccc([nH]6)c(-c6c(F)cc(S(=O)(=O)[O-])cc6F)c6nc(c(-c7c(F)cc(S(=O)(=O)[O-])cc7F)c7ccc4[nH]7)C=C6)C=C5)cc3)o2)c1O
REMARK SMILES IDX 21 1 20 2 19 3 18 4 17 5 15 6 16 7 14 8 11 9 12 10 95 11
REMARK SMILES IDX 13 12 10 13 9 14 7 15 8 16 6 18 1 19 2 20 3 21 96 22 4 23
REMARK SMILES IDX 5 24 97 25 22 27 23 28 24 29 25 30 26 31 27 32 28 33 29 34
REMARK SMILES IDX 30 35 94 36 31 37 93 38 32 39 33 40 34 41 87 42 35 43 92 44
REMARK SMILES IDX 86 45 88 46 36 47 91 48 85 49 84 50 37 52 71 53 50 54 70 55
REMARK SMILES IDX 51 56 54 57 69 58 89 59 52 60 53 61 68 63 90 64 55 65 38 66
REMARK SMILES IDX 39 67 48 68 40 69 41 70 47 71 49 72 42 73 43 74 44 75 45 76
REMARK SMILES IDX 46 77 72 78 73 79 82 80 74 81 75 82 81 83 83 84 76 85 77 86
REMARK SMILES IDX 78 87 79 88 80 89 56 90 57 91 66 92 58 93 59 94 65 95 67 96
REMARK SMILES IDX 60 97 61 98 62 99 63 100 64 101
REMARK H PARENT 9 17 97 26 88 51 54 62
REMARK Flexibility Score: inf
ROOT
ATOM      1  C   UNL     1       7.342   1.850  -4.100  1.00  0.00     0.188 C 
ENDROOT
BRANCH   1   2
ATOM      2  O   UNL     1       7.542   1.427  -5.444  1.00  0.00    -0.376 OA
BRANCH   2   3
ATOM      3  C   UNL     1       7.177   2.292  -6.512  1.00  0.00     0.202 C 
BRANCH   3   4
ATOM      4  C   UNL     1       5.690   2.627  -6.649  1.00  0.00     0.261 C 
BRANCH   4   5
ATOM      5  O   UNL     1       5.226   3.455  -5.569  1.00  0.00    -0.457 OA
BRANCH   5   6
ATOM      6  C   UNL     1       4.196   2.947  -4.827  1.00  0.00     0.374 C 
ATOM      7  O   UNL     1       3.570   1.933  -5.110  1.00  0.00    -0.242 OA
BRANCH   6   8
ATOM      8  C   UNL     1       4.049   3.721  -3.616  1.00  0.00     0.211 A 
ATOM      9  C   UNL     1       3.620   3.971  -1.464  1.00  0.00     0.124 A 
ATOM     10  C   UNL     1       4.064   5.196  -1.918  1.00  0.00     0.048 A 
ATOM     11  O   UNL     1       3.597   3.078  -2.493  1.00  0.00    -0.452 OA
ATOM     12  C   UNL     1       4.346   5.035  -3.296  1.00  0.00     0.058 A 
BRANCH   9  13
ATOM     13  C   UNL     1       3.176   3.482  -0.131  1.00  0.00     0.191 C 
BRANCH  13  14
ATOM     14  N   UNL     1       1.736   3.576  -0.075  1.00  0.00    -0.345 N 
ATOM     15  C   UNL     1       0.650   2.742  -0.101  1.00  0.00     0.255 C 
ATOM     16  O   UNL     1      -0.413   3.373  -0.091  1.00  0.00    -0.269 OA
ATOM     17  H   UNL     1       1.452   4.515   0.004  1.00  0.00     0.164 HD
BRANCH  15  18
ATOM     18  C   UNL     1       0.663   1.231  -0.122  1.00  0.00     0.081 A 
ATOM     19  C   UNL     1      -1.886  -1.683   0.054  1.00  0.00     0.048 C 
ATOM     20  C   UNL     1      -0.602  -0.902  -0.024  1.00  0.00    -0.008 A 
ATOM     21  C   UNL     1       0.596  -1.611  -0.129  1.00  0.00     0.007 A 
ATOM     22  C   UNL     1      -0.558   0.512  -0.014  1.00  0.00     0.131 A 
ATOM     23  C   UNL     1       1.801  -0.931  -0.244  1.00  0.00     0.001 A 
ATOM     24  C   UNL     1       1.829   0.469  -0.264  1.00  0.00     0.018 A 
BRANCH  22  25
ATOM     25  O   UNL     1      -1.743   1.198   0.103  1.00  0.00    -0.507 OA
ATOM     26  H   UNL     1      -2.551   0.728   0.174  1.00  0.00     0.293 HD
ENDBRANCH  22  25
ENDBRANCH  15  18
ENDBRANCH  13  14
ENDBRANCH   9  13
ENDBRANCH   6   8
ENDBRANCH   5   6
ENDBRANCH   4   5
ENDBRANCH   3   4
ENDBRANCH   2   3
ENDBRANCH   1   2
BRANCH   1  27
ATOM     27  C   UNL     1       7.758   3.277  -3.695  1.00  0.00     0.188 C 
BRANCH  27  28
ATOM     28  O   UNL     1       8.674   3.901  -4.587  1.00  0.00    -0.376 OA
BRANCH  28  29
ATOM     29  C   UNL     1       9.983   4.114  -4.074  1.00  0.00     0.202 C 
BRANCH  29  30
ATOM     30  C   UNL     1      10.846   2.849  -4.114  1.00  0.00     0.261 C 
BRANCH  30  31
ATOM     31  O   UNL     1      10.404   1.806  -3.231  1.00  0.00    -0.460 OA
BRANCH  31  32
ATOM     32  C   UNL     1      10.440   2.089  -1.911  1.00  0.00     0.338 C 
ATOM     33  O   UNL     1      10.820   3.124  -1.391  1.00  0.00    -0.246 OA
BRANCH  32  34
ATOM     34  C   UNL     1       9.784   0.990  -1.180  1.00  0.00     0.060 A 
ATOM     35  C   UNL     1       8.769   1.308  -0.271  1.00  0.00     0.016 A 
ATOM     36  C   UNL     1      10.196  -0.334  -1.357  1.00  0.00     0.016 A 
ATOM     37  C   UNL     1       8.197   0.300   0.504  1.00  0.00     0.010 A 
ATOM     38  C   UNL     1       9.629  -1.340  -0.572  1.00  0.00     0.010 A 
ATOM     39  C   UNL     1       8.656  -1.020   0.390  1.00  0.00    -0.014 A 
BRANCH  39  40
ATOM     40  C   UNL     1       8.255  -2.016   1.411  1.00  0.00     0.031 A 
ATOM     41  C   UNL     1       9.136  -2.203   2.615  1.00  0.00     0.074 A 
ATOM     42  C   UNL     1       7.113  -2.716   1.291  1.00  0.00     0.049 A 
ATOM     43  N   UNL     1       8.954  -2.958   3.667  1.00  0.00    -0.248 NA
ATOM     44  C   UNL     1      10.393  -1.436   2.634  1.00  0.00     0.031 C 
ATOM     45  C   UNL     1       6.180  -2.631   0.170  1.00  0.00     0.029 A 
ATOM     46  N   UNL     1       6.549  -3.640   2.133  1.00  0.00    -0.354 N 
ATOM     47  C   UNL     1      10.064  -2.750   4.477  1.00  0.00     0.074 A 
ATOM     48  C   UNL     1      10.932  -1.827   3.778  1.00  0.00     0.031 C 
ATOM     49  C   UNL     1       5.156  -3.475   0.394  1.00  0.00     0.029 A 
ATOM     50  C   UNL     1       5.363  -4.155   1.672  1.00  0.00     0.049 A 
ATOM     51  H   UNL     1       6.957  -3.910   2.988  1.00  0.00     0.167 HD
ATOM     52  C   UNL     1      10.333  -3.269   5.698  1.00  0.00     0.037 A 
ATOM     53  C   UNL     1       4.538  -5.068   2.223  1.00  0.00     0.037 A 
ATOM     54  C   UNL     1       9.481  -4.199   6.389  1.00  0.00     0.049 A 
ATOM     55  C   UNL     1       4.866  -5.647   3.575  1.00  0.00     0.074 A 
ATOM     56  C   UNL     1       9.664  -4.776   7.634  1.00  0.00     0.029 A 
ATOM     57  N   UNL     1       8.288  -4.697   5.889  1.00  0.00    -0.354 N 
ATOM     58  N   UNL     1       5.895  -5.403   4.351  1.00  0.00    -0.248 NA
ATOM     59  C   UNL     1       3.911  -6.616   4.130  1.00  0.00     0.031 C 
ATOM     60  C   UNL     1       8.593  -5.646   7.874  1.00  0.00     0.029 A 
ATOM     61  C   UNL     1       7.728  -5.583   6.794  1.00  0.00     0.049 A 
ATOM     62  H   UNL     1       7.897  -4.456   5.018  1.00  0.00     0.167 HD
ATOM     63  C   UNL     1       5.697  -6.168   5.497  1.00  0.00     0.074 A 
ATOM     64  C   UNL     1       4.446  -6.874   5.316  1.00  0.00     0.031 C 
ATOM     65  C   UNL     1       6.479  -6.275   6.601  1.00  0.00     0.037 A 
BRANCH  52  66
ATOM     66  C   UNL     1      11.616  -2.844   6.352  1.00  0.00     0.058 A 
ATOM     67  C   UNL     1      11.766  -1.560   6.900  1.00  0.00     0.135 A 
ATOM     68  C   UNL     1      12.706  -3.724   6.428  1.00  0.00     0.135 A 
ATOM     69  F   UNL     1      10.760  -0.673   6.832  1.00  0.00    -0.206 F 
ATOM     70  C   UNL     1      12.965  -1.152   7.475  1.00  0.00     0.059 A 
ATOM     71  C   UNL     1      13.908  -3.344   7.017  1.00  0.00     0.059 A 
ATOM     72  F   UNL     1      12.614  -4.960   5.912  1.00  0.00    -0.206 F 
ATOM     73  C   UNL     1      14.033  -2.050   7.523  1.00  0.00     0.060 A 
BRANCH  73  74
ATOM     74  S   UNL     1      15.590  -1.506   8.255  1.00  0.00     0.124 S 
ATOM     75  O   UNL     1      16.139  -0.678   7.186  1.00  0.00    -0.237 OA
ATOM     76  O   UNL     1      15.145  -0.789   9.446  1.00  0.00    -0.237 OA
ATOM     77  O   UNL     1      16.299  -2.756   8.509  1.00  0.00    -0.744 OA
ENDBRANCH  73  74
ENDBRANCH  52  66
BRANCH  53  78
ATOM     78  C   UNL     1       3.299  -5.471   1.512  1.00  0.00     0.058 A 
ATOM     79  C   UNL     1       2.040  -5.053   1.966  1.00  0.00     0.135 A 
ATOM     80  C   UNL     1       3.348  -6.282   0.369  1.00  0.00     0.135 A 
ATOM     81  F   UNL     1       1.943  -4.283   3.060  1.00  0.00    -0.206 F 
ATOM     82  C   UNL     1       0.870  -5.435   1.320  1.00  0.00     0.059 A 
ATOM     83  C   UNL     1       2.193  -6.658  -0.310  1.00  0.00     0.059 A 
ATOM     84  F   UNL     1       4.531  -6.700  -0.108  1.00  0.00    -0.206 F 
ATOM     85  C   UNL     1       0.958  -6.234   0.178  1.00  0.00     0.060 A 
BRANCH  85  86
ATOM     86  S   UNL     1      -0.563  -6.659  -0.698  1.00  0.00     0.124 S 
ATOM     87  O   UNL     1      -1.120  -7.693   0.165  1.00  0.00    -0.237 OA
ATOM     88  O   UNL     1      -1.273  -5.383  -0.707  1.00  0.00    -0.237 OA
ATOM     89  O   UNL     1      -0.082  -7.109  -2.000  1.00  0.00    -0.744 OA
ENDBRANCH  85  86
ENDBRANCH  53  78
BRANCH  65  90
ATOM     90  C   UNL     1       5.986  -7.162   7.709  1.00  0.00     0.058 A 
ATOM     91  C   UNL     1       6.026  -8.561   7.606  1.00  0.00     0.135 A 
ATOM     92  C   UNL     1       5.488  -6.605   8.897  1.00  0.00     0.135 A 
ATOM     93  F   UNL     1       6.490  -9.144   6.490  1.00  0.00    -0.206 F 
ATOM     94  C   UNL     1       5.556  -9.378   8.630  1.00  0.00     0.059 A 
ATOM     95  C   UNL     1       5.034  -7.402   9.943  1.00  0.00     0.059 A 
ATOM     96  F   UNL     1       5.441  -5.272   9.052  1.00  0.00    -0.206 F 
ATOM     97  C   UNL     1       5.055  -8.789   9.792  1.00  0.00     0.060 A 
BRANCH  97  98
ATOM     98  S   UNL     1       4.449  -9.852  11.120  1.00  0.00     0.124 S 
ATOM     99  O   UNL     1       3.120 -10.204  10.629  1.00  0.00    -0.237 OA
ATOM    100  O   UNL     1       5.427 -10.936  11.130  1.00  0.00    -0.237 OA
ATOM    101  O   UNL     1       4.478  -8.980  12.290  1.00  0.00    -0.744 OA
ENDBRANCH  97  98
ENDBRANCH  65  90
ENDBRANCH  39  40
ENDBRANCH  32  34
ENDBRANCH  31  32
ENDBRANCH  30  31
ENDBRANCH  29  30
ENDBRANCH  28  29
ENDBRANCH  27  28
ENDBRANCH   1  27
TORSDOF 24
