REMARK SMILES Cc1ccc(OCC(=O)Oc2ccc(C(=O)OCCOCCOCCOC(=O)c3ccc(-c4c5nc(c(-c6c(F)cc(S(=O)(=O)[O-])cc6F)c6ccc([nH]6)c(-c6c(F)cc(S(=O)(=O)[O-])cc6F)c6nc(c(-c7c(F)cc(S(=O)(=O)[O-])cc7F)c7ccc4[nH]7)C=C6)C=C5)cc3)cc2)cc1C
REMARK SMILES IDX 21 1 20 2 19 3 18 4 17 5 15 6 16 7 14 8 11 9 12 10 96 11
REMARK SMILES IDX 13 12 95 13 10 14 8 15 9 16 7 17 6 18 5 19 1 20 2 21 3 22
REMARK SMILES IDX 98 23 4 24 97 25 99 26 22 27 23 28 24 29 25 30 26 31 27 32
REMARK SMILES IDX 28 33 29 34 30 35 94 36 31 37 93 38 32 39 33 40 34 41 87 42
REMARK SMILES IDX 35 43 92 44 86 45 88 46 36 47 91 48 85 49 84 50 37 52 71 53
REMARK SMILES IDX 50 54 70 55 51 56 54 57 69 58 89 59 52 60 53 61 68 63 90 64
REMARK SMILES IDX 55 65 38 66 39 67 48 68 40 69 41 70 47 71 49 72 42 73 43 74
REMARK SMILES IDX 44 75 45 76 46 77 72 78 73 79 82 80 74 81 75 82 81 83 83 84
REMARK SMILES IDX 76 85 77 86 78 87 79 88 80 89 56 90 57 91 66 92 58 93 59 94
REMARK SMILES IDX 65 95 67 96 60 97 61 98 62 99 63 100 64 101
REMARK H PARENT 88 51 54 62
REMARK Flexibility Score: inf
ROOT
ATOM      1  C   UNL     1      -5.826   1.483   8.955  1.00  0.00     0.188 C 
ENDROOT
BRANCH   1   2
ATOM      2  O   UNL     1      -5.965   2.496   9.930  1.00  0.00    -0.376 OA
BRANCH   2   3
ATOM      3  C   UNL     1      -6.172   3.846   9.555  1.00  0.00     0.202 C 
BRANCH   3   4
ATOM      4  C   UNL     1      -5.603   4.478   8.276  1.00  0.00     0.261 C 
BRANCH   4   5
ATOM      5  O   UNL     1      -5.635   3.657   7.106  1.00  0.00    -0.460 OA
BRANCH   5   6
ATOM      6  C   UNL     1      -4.420   3.321   6.609  1.00  0.00     0.338 C 
ATOM      7  O   UNL     1      -3.331   3.679   7.039  1.00  0.00    -0.246 OA
BRANCH   6   8
ATOM      8  C   UNL     1      -4.563   2.314   5.536  1.00  0.00     0.060 A 
ATOM      9  C   UNL     1      -4.671   0.463   3.467  1.00  0.00     0.131 A 
ATOM     10  C   UNL     1      -3.666   0.357   4.428  1.00  0.00     0.048 A 
ATOM     11  C   UNL     1      -5.682   1.418   3.590  1.00  0.00     0.048 A 
ATOM     12  C   UNL     1      -3.607   1.292   5.460  1.00  0.00     0.019 A 
ATOM     13  C   UNL     1      -5.620   2.360   4.618  1.00  0.00     0.019 A 
BRANCH   9  14
ATOM     14  O   UNL     1      -4.590  -0.425   2.384  1.00  0.00    -0.424 OA
BRANCH  14  15
ATOM     15  C   UNL     1      -4.647   0.157   1.121  1.00  0.00     0.349 C 
ATOM     16  O   UNL     1      -5.003   1.302   0.854  1.00  0.00    -0.248 OA
BRANCH  15  17
ATOM     17  C   UNL     1      -4.207  -0.837   0.056  1.00  0.00     0.352 C 
BRANCH  17  18
ATOM     18  O   UNL     1      -2.934  -1.437   0.206  1.00  0.00    -0.482 OA
BRANCH  18  19
ATOM     19  C   UNL     1      -1.820  -0.655   0.063  1.00  0.00     0.120 A 
ATOM     20  C   UNL     1       1.938   1.492  -0.052  1.00  0.00     0.044 C 
ATOM     21  C   UNL     1       0.654   0.709  -0.051  1.00  0.00    -0.048 A 
ATOM     22  C   UNL     1      -0.563   1.402  -0.131  1.00  0.00     0.007 A 
ATOM     23  C   UNL     1       0.631  -0.693   0.042  1.00  0.00    -0.045 A 
ATOM     24  C   UNL     1      -1.788   0.727  -0.089  1.00  0.00     0.047 A 
ATOM     25  C   UNL     1      -0.611  -1.354   0.108  1.00  0.00     0.050 A 
ATOM     26  C   UNL     1       1.877  -1.536   0.076  1.00  0.00     0.045 C 
ENDBRANCH  18  19
ENDBRANCH  17  18
ENDBRANCH  15  17
ENDBRANCH  14  15
ENDBRANCH   9  14
ENDBRANCH   6   8
ENDBRANCH   5   6
ENDBRANCH   4   5
ENDBRANCH   3   4
ENDBRANCH   2   3
ENDBRANCH   1   2
BRANCH   1  27
ATOM     27  C   UNL     1      -6.995   1.164   8.003  1.00  0.00     0.188 C 
BRANCH  27  28
ATOM     28  O   UNL     1      -8.152   1.970   8.009  1.00  0.00    -0.376 OA
BRANCH  28  29
ATOM     29  C   UNL     1      -9.013   1.987   9.134  1.00  0.00     0.202 C 
BRANCH  29  30
ATOM     30  C   UNL     1      -9.148   0.859  10.173  1.00  0.00     0.261 C 
BRANCH  30  31
ATOM     31  O   UNL     1      -8.018   0.011  10.386  1.00  0.00    -0.460 OA
BRANCH  31  32
ATOM     32  C   UNL     1      -8.143  -1.248   9.904  1.00  0.00     0.338 C 
ATOM     33  O   UNL     1      -9.094  -1.713   9.287  1.00  0.00    -0.246 OA
BRANCH  32  34
ATOM     34  C   UNL     1      -6.867  -1.959  10.080  1.00  0.00     0.060 A 
ATOM     35  C   UNL     1      -6.139  -2.325   8.940  1.00  0.00     0.016 A 
ATOM     36  C   UNL     1      -6.413  -2.297  11.355  1.00  0.00     0.016 A 
ATOM     37  C   UNL     1      -4.955  -3.049   9.073  1.00  0.00     0.010 A 
ATOM     38  C   UNL     1      -5.237  -3.041  11.484  1.00  0.00     0.010 A 
ATOM     39  C   UNL     1      -4.516  -3.441  10.344  1.00  0.00    -0.014 A 
BRANCH  39  40
ATOM     40  C   UNL     1      -3.394  -4.402  10.474  1.00  0.00     0.031 A 
ATOM     41  C   UNL     1      -3.712  -5.857  10.683  1.00  0.00     0.074 A 
ATOM     42  C   UNL     1      -2.116  -3.990  10.397  1.00  0.00     0.049 A 
ATOM     43  N   UNL     1      -2.900  -6.864  10.879  1.00  0.00    -0.248 NA
ATOM     44  C   UNL     1      -5.137  -6.226  10.671  1.00  0.00     0.031 C 
ATOM     45  C   UNL     1      -1.684  -2.614  10.159  1.00  0.00     0.029 A 
ATOM     46  N   UNL     1      -0.945  -4.694  10.525  1.00  0.00    -0.354 N 
ATOM     47  C   UNL     1      -3.713  -7.982  11.021  1.00  0.00     0.074 A 
ATOM     48  C   UNL     1      -5.083  -7.526  10.917  1.00  0.00     0.031 C 
ATOM     49  C   UNL     1      -0.340  -2.571  10.175  1.00  0.00     0.029 A 
ATOM     50  C   UNL     1       0.181  -3.909  10.456  1.00  0.00     0.049 A 
ATOM     51  H   UNL     1      -0.914  -5.670  10.654  1.00  0.00     0.167 HD
ATOM     52  C   UNL     1      -3.351  -9.272  11.214  1.00  0.00     0.037 A 
ATOM     53  C   UNL     1       1.479  -4.229  10.627  1.00  0.00     0.037 A 
ATOM     54  C   UNL     1      -1.986  -9.719  11.323  1.00  0.00     0.049 A 
ATOM     55  C   UNL     1       1.856  -5.661  10.914  1.00  0.00     0.074 A 
ATOM     56  C   UNL     1      -1.515 -11.007  11.503  1.00  0.00     0.029 A 
ATOM     57  N   UNL     1      -0.874  -8.890  11.273  1.00  0.00    -0.354 N 
ATOM     58  N   UNL     1       1.080  -6.715  11.021  1.00  0.00    -0.248 NA
ATOM     59  C   UNL     1       3.285  -5.950  11.101  1.00  0.00     0.031 C 
ATOM     60  C   UNL     1      -0.122 -10.951  11.616  1.00  0.00     0.029 A 
ATOM     61  C   UNL     1       0.280  -9.636  11.446  1.00  0.00     0.049 A 
ATOM     62  H   UNL     1      -0.902  -7.916  11.136  1.00  0.00     0.167 HD
ATOM     63  C   UNL     1       1.929  -7.792  11.258  1.00  0.00     0.074 A 
ATOM     64  C   UNL     1       3.277  -7.265  11.268  1.00  0.00     0.031 C 
ATOM     65  C   UNL     1       1.620  -9.100  11.446  1.00  0.00     0.037 A 
BRANCH  52  66
ATOM     66  C   UNL     1      -4.449 -10.291  11.348  1.00  0.00     0.058 A 
ATOM     67  C   UNL     1      -5.237 -10.678  10.252  1.00  0.00     0.135 A 
ATOM     68  C   UNL     1      -4.696 -10.912  12.583  1.00  0.00     0.135 A 
ATOM     69  F   UNL     1      -5.057 -10.103   9.052  1.00  0.00    -0.206 F 
ATOM     70  C   UNL     1      -6.248 -11.625  10.382  1.00  0.00     0.059 A 
ATOM     71  C   UNL     1      -5.682 -11.883  12.729  1.00  0.00     0.059 A 
ATOM     72  F   UNL     1      -3.974 -10.578  13.664  1.00  0.00    -0.206 F 
ATOM     73  C   UNL     1      -6.462 -12.223  11.625  1.00  0.00     0.060 A 
BRANCH  73  74
ATOM     74  S   UNL     1      -7.773 -13.454  11.775  1.00  0.00     0.124 S 
ATOM     75  O   UNL     1      -8.968 -12.620  11.687  1.00  0.00    -0.237 OA
ATOM     76  O   UNL     1      -7.520 -14.321  10.628  1.00  0.00    -0.237 OA
ATOM     77  O   UNL     1      -7.526 -14.059  13.081  1.00  0.00    -0.744 OA
ENDBRANCH  73  74
ENDBRANCH  52  66
BRANCH  53  78
ATOM     78  C   UNL     1       2.525  -3.173  10.545  1.00  0.00     0.058 A 
ATOM     79  C   UNL     1       3.449  -3.147   9.490  1.00  0.00     0.135 A 
ATOM     80  C   UNL     1       2.625  -2.172  11.525  1.00  0.00     0.135 A 
ATOM     81  F   UNL     1       3.404  -4.089   8.536  1.00  0.00    -0.206 F 
ATOM     82  C   UNL     1       4.444  -2.178   9.417  1.00  0.00     0.059 A 
ATOM     83  C   UNL     1       3.594  -1.176  11.459  1.00  0.00     0.059 A 
ATOM     84  F   UNL     1       1.761  -2.148  12.552  1.00  0.00    -0.206 F 
ATOM     85  C   UNL     1       4.507  -1.194  10.405  1.00  0.00     0.060 A 
BRANCH  85  86
ATOM     86  S   UNL     1       5.776   0.085  10.275  1.00  0.00     0.124 S 
ATOM     87  O   UNL     1       6.982  -0.663  10.610  1.00  0.00    -0.237 OA
ATOM     88  O   UNL     1       5.649   0.500   8.882  1.00  0.00    -0.237 OA
ATOM     89  O   UNL     1       5.355   1.078  11.259  1.00  0.00    -0.744 OA
ENDBRANCH  85  86
ENDBRANCH  53  78
BRANCH  65  90
ATOM     90  C   UNL     1       2.758 -10.067  11.638  1.00  0.00     0.058 A 
ATOM     91  C   UNL     1       3.512 -10.100  12.821  1.00  0.00     0.135 A 
ATOM     92  C   UNL     1       3.061 -11.012  10.643  1.00  0.00     0.135 A 
ATOM     93  F   UNL     1       3.269  -9.217  13.803  1.00  0.00    -0.206 F 
ATOM     94  C   UNL     1       4.542 -11.019  13.002  1.00  0.00     0.059 A 
ATOM     95  C   UNL     1       4.066 -11.959  10.815  1.00  0.00     0.059 A 
ATOM     96  F   UNL     1       2.364 -11.034   9.496  1.00  0.00    -0.206 F 
ATOM     97  C   UNL     1       4.809 -11.947  11.994  1.00  0.00     0.060 A 
BRANCH  97  98
ATOM     98  S   UNL     1       6.126 -13.155  12.255  1.00  0.00     0.124 S 
ATOM     99  O   UNL     1       7.318 -12.327  12.113  1.00  0.00    -0.237 OA
ATOM    100  O   UNL     1       5.845 -13.636  13.604  1.00  0.00    -0.237 OA
ATOM    101  O   UNL     1       5.909 -14.130  11.191  1.00  0.00    -0.744 OA
ENDBRANCH  97  98
ENDBRANCH  65  90
ENDBRANCH  39  40
ENDBRANCH  32  34
ENDBRANCH  31  32
ENDBRANCH  30  31
ENDBRANCH  29  30
ENDBRANCH  28  29
ENDBRANCH  27  28
ENDBRANCH   1  27
TORSDOF 25
