REMARK SMILES CC(C)c1cc2c(cc1Cl)C=C(C(=O)OCCOCCOCCOC(=O)c1ccc(-c3c4nc(c(-c5c(F)cc(S(=O)(=O)[O-])cc5F)c5ccc([nH]5)c(-c5c(F)cc(S(=O)(=O)[O-])cc5F)c5nc(c(-c6c(F)cc(S(=O)(=O)[O-])cc6F)c6ccc3[nH]6)C=C5)C=C4)cc1)[C@@H](C(F)(F)F)O2
REMARK SMILES IDX 20 1 19 2 18 3 17 4 16 5 15 6 13 7 14 8 12 9 4 10 5 11 9 12
REMARK SMILES IDX 6 13 8 14 10 15 7 16 98 17 11 18 93 19 2 20 1 21 3 22 94 23
REMARK SMILES IDX 95 24 96 25 97 26 21 27 22 28 23 29 24 30 25 31 26 32 27 33
REMARK SMILES IDX 28 34 92 35 29 36 91 37 30 38 31 39 32 40 85 41 33 42 90 43
REMARK SMILES IDX 84 44 86 45 34 46 89 47 83 48 82 49 35 51 69 52 48 53 68 54
REMARK SMILES IDX 49 55 52 56 67 57 87 58 50 59 51 60 66 62 88 63 53 64 36 65
REMARK SMILES IDX 37 66 46 67 38 68 39 69 45 70 47 71 40 72 41 73 42 74 43 75
REMARK SMILES IDX 44 76 70 77 71 78 80 79 72 80 73 81 79 82 81 83 74 84 75 85
REMARK SMILES IDX 76 86 77 87 78 88 54 89 55 90 64 91 56 92 57 93 63 94 65 95
REMARK SMILES IDX 58 96 59 97 60 98 61 99 62 100
REMARK H PARENT 86 50 52 61
REMARK Flexibility Score: inf
ROOT
ATOM      1  C   UNL     1      -7.728  -2.256   3.255  1.00  0.00     0.188 C 
ENDROOT
BRANCH   1   2
ATOM      2  C   UNL     1      -8.715  -1.314   2.531  1.00  0.00     0.188 C 
BRANCH   2   3
ATOM      3  O   UNL     1      -9.980  -1.911   2.312  1.00  0.00    -0.376 OA
BRANCH   3   4
ATOM      4  C   UNL     1     -10.343  -2.196   0.973  1.00  0.00     0.202 C 
BRANCH   4   5
ATOM      5  C   UNL     1      -9.498  -3.226   0.208  1.00  0.00     0.261 C 
BRANCH   5   6
ATOM      6  O   UNL     1      -8.077  -3.129   0.395  1.00  0.00    -0.460 OA
BRANCH   6   7
ATOM      7  C   UNL     1      -7.409  -2.272  -0.405  1.00  0.00     0.338 C 
ATOM      8  O   UNL     1      -7.894  -1.554  -1.262  1.00  0.00    -0.246 OA
BRANCH   7   9
ATOM      9  C   UNL     1      -5.988  -2.252   0.009  1.00  0.00     0.087 C 
ATOM     10  C   UNL     1      -1.224  -0.947   1.043  1.00  0.00    -0.023 A 
ATOM     11  C   UNL     1      -1.924  -2.166   0.918  1.00  0.00     0.052 A 
ATOM     12  C   UNL     1      -1.984   0.236   1.035  1.00  0.00     0.045 A 
ATOM     13  C   UNL     1      -3.304  -2.202   0.696  1.00  0.00     0.128 A 
ATOM     14  C   UNL     1      -3.366   0.198   0.796  1.00  0.00     0.032 A 
ATOM     15  Cl  UNL     1      -1.302   1.798   1.305  1.00  0.00    -0.084 Cl
ATOM     16  C   UNL     1      -4.022  -1.017   0.584  1.00  0.00     0.019 A 
ATOM     17  O   UNL     1      -3.858  -3.442   0.571  1.00  0.00    -0.475 OA
ATOM     18  C   UNL     1      -5.422  -1.052   0.192  1.00  0.00     0.027 C 
ATOM     19  C   UNL     1      -5.272  -3.558   0.249  1.00  0.00     0.316 C 
BRANCH  10  20
ATOM     20  C   UNL     1       0.296  -1.022   1.119  1.00  0.00     0.014 C 
ATOM     21  C   UNL     1       1.003  -0.225   0.016  1.00  0.00     0.012 C 
ATOM     22  C   UNL     1       0.850  -0.690   2.504  1.00  0.00     0.012 C 
ENDBRANCH  10  20
BRANCH  19  23
ATOM     23  C   UNL     1      -5.398  -4.535  -0.930  1.00  0.00     0.430 C 
ATOM     24  F   UNL     1      -4.739  -5.694  -0.675  1.00  0.00    -0.167 F 
ATOM     25  F   UNL     1      -6.685  -4.877  -1.176  1.00  0.00    -0.167 F 
ATOM     26  F   UNL     1      -4.888  -4.025  -2.072  1.00  0.00    -0.167 F 
ENDBRANCH  19  23
ENDBRANCH   7   9
ENDBRANCH   6   7
ENDBRANCH   5   6
ENDBRANCH   4   5
ENDBRANCH   3   4
ENDBRANCH   2   3
ENDBRANCH   1   2
BRANCH   1  27
ATOM     27  O   UNL     1      -8.188  -3.499   3.776  1.00  0.00    -0.376 OA
BRANCH  27  28
ATOM     28  C   UNL     1      -9.415  -3.535   4.497  1.00  0.00     0.202 C 
BRANCH  28  29
ATOM     29  C   UNL     1      -9.572  -2.646   5.739  1.00  0.00     0.261 C 
BRANCH  29  30
ATOM     30  O   UNL     1      -9.288  -1.255   5.522  1.00  0.00    -0.460 OA
BRANCH  30  31
ATOM     31  C   UNL     1      -8.182  -0.777   6.149  1.00  0.00     0.338 C 
ATOM     32  O   UNL     1      -7.433  -1.392   6.888  1.00  0.00    -0.246 OA
BRANCH  31  33
ATOM     33  C   UNL     1      -7.882   0.578   5.639  1.00  0.00     0.060 A 
ATOM     34  C   UNL     1      -8.821   1.607   5.720  1.00  0.00     0.016 A 
ATOM     35  C   UNL     1      -6.619   0.812   5.076  1.00  0.00     0.016 A 
ATOM     36  C   UNL     1      -8.483   2.882   5.252  1.00  0.00     0.010 A 
ATOM     37  C   UNL     1      -6.292   2.079   4.591  1.00  0.00     0.010 A 
ATOM     38  C   UNL     1      -7.215   3.128   4.693  1.00  0.00    -0.014 A 
BRANCH  38  39
ATOM     39  C   UNL     1      -6.804   4.514   4.359  1.00  0.00     0.031 A 
ATOM     40  C   UNL     1      -6.843   5.033   2.953  1.00  0.00     0.074 A 
ATOM     41  C   UNL     1      -6.376   5.306   5.359  1.00  0.00     0.049 A 
ATOM     42  N   UNL     1      -6.590   6.241   2.519  1.00  0.00    -0.248 NA
ATOM     43  C   UNL     1      -7.206   4.075   1.900  1.00  0.00     0.031 C 
ATOM     44  C   UNL     1      -6.263   4.897   6.761  1.00  0.00     0.029 A 
ATOM     45  N   UNL     1      -5.963   6.613   5.357  1.00  0.00    -0.354 N 
ATOM     46  C   UNL     1      -6.791   6.203   1.145  1.00  0.00     0.074 A 
ATOM     47  C   UNL     1      -7.137   4.835   0.813  1.00  0.00     0.031 C 
ATOM     48  C   UNL     1      -5.832   5.940   7.487  1.00  0.00     0.029 A 
ATOM     49  C   UNL     1      -5.623   7.083   6.602  1.00  0.00     0.049 A 
ATOM     50  H   UNL     1      -5.915   7.163   4.541  1.00  0.00     0.167 HD
ATOM     51  C   UNL     1      -6.715   7.221   0.253  1.00  0.00     0.037 A 
ATOM     52  C   UNL     1      -5.199   8.300   6.993  1.00  0.00     0.037 A 
ATOM     53  C   UNL     1      -6.344   8.575   0.591  1.00  0.00     0.049 A 
ATOM     54  C   UNL     1      -5.074   9.398   5.976  1.00  0.00     0.074 A 
ATOM     55  C   UNL     1      -6.278   9.682  -0.239  1.00  0.00     0.029 A 
ATOM     56  N   UNL     1      -5.959   9.005   1.853  1.00  0.00    -0.354 N 
ATOM     57  N   UNL     1      -5.341   9.367   4.692  1.00  0.00    -0.248 NA
ATOM     58  C   UNL     1      -4.594  10.699   6.461  1.00  0.00     0.031 C 
ATOM     59  C   UNL     1      -5.808  10.768   0.510  1.00  0.00     0.029 A 
ATOM     60  C   UNL     1      -5.625  10.351   1.818  1.00  0.00     0.049 A 
ATOM     61  H   UNL     1      -5.928   8.437   2.657  1.00  0.00     0.167 HD
ATOM     62  C   UNL     1      -5.073  10.645   4.217  1.00  0.00     0.074 A 
ATOM     63  C   UNL     1      -4.643  11.431   5.356  1.00  0.00     0.031 C 
ATOM     64  C   UNL     1      -5.174  11.122   2.952  1.00  0.00     0.037 A 
BRANCH  51  65
ATOM     65  C   UNL     1      -7.051   6.919  -1.182  1.00  0.00     0.058 A 
ATOM     66  C   UNL     1      -8.375   6.675  -1.584  1.00  0.00     0.135 A 
ATOM     67  C   UNL     1      -6.059   6.936  -2.176  1.00  0.00     0.135 A 
ATOM     68  F   UNL     1      -9.361   6.638  -0.674  1.00  0.00    -0.206 F 
ATOM     69  C   UNL     1      -8.700   6.436  -2.915  1.00  0.00     0.059 A 
ATOM     70  C   UNL     1      -6.365   6.723  -3.518  1.00  0.00     0.059 A 
ATOM     71  F   UNL     1      -4.779   7.168  -1.849  1.00  0.00    -0.206 F 
ATOM     72  C   UNL     1      -7.687   6.463  -3.876  1.00  0.00     0.060 A 
BRANCH  72  73
ATOM     73  S   UNL     1      -8.132   6.158  -5.599  1.00  0.00     0.124 S 
ATOM     74  O   UNL     1      -8.455   4.735  -5.568  1.00  0.00    -0.237 OA
ATOM     75  O   UNL     1      -9.262   7.060  -5.793  1.00  0.00    -0.237 OA
ATOM     76  O   UNL     1      -6.919   6.509  -6.332  1.00  0.00    -0.744 OA
ENDBRANCH  72  73
ENDBRANCH  51  65
BRANCH  52  77
ATOM     77  C   UNL     1      -4.907   8.544   8.428  1.00  0.00     0.058 A 
ATOM     78  C   UNL     1      -5.774   9.316   9.214  1.00  0.00     0.135 A 
ATOM     79  C   UNL     1      -3.789   7.969   9.051  1.00  0.00     0.135 A 
ATOM     80  F   UNL     1      -6.853   9.889   8.659  1.00  0.00    -0.206 F 
ATOM     81  C   UNL     1      -5.543   9.511  10.571  1.00  0.00     0.059 A 
ATOM     82  C   UNL     1      -3.549   8.132  10.411  1.00  0.00     0.059 A 
ATOM     83  F   UNL     1      -2.940   7.210   8.342  1.00  0.00    -0.206 F 
ATOM     84  C   UNL     1      -4.432   8.907  11.162  1.00  0.00     0.060 A 
BRANCH  84  85
ATOM     85  S   UNL     1      -4.187   9.107  12.940  1.00  0.00     0.124 S 
ATOM     86  O   UNL     1      -3.802  10.511  13.028  1.00  0.00    -0.237 OA
ATOM     87  O   UNL     1      -5.506   8.772  13.468  1.00  0.00    -0.237 OA
ATOM     88  O   UNL     1      -3.134   8.143  13.245  1.00  0.00    -0.744 OA
ENDBRANCH  84  85
ENDBRANCH  52  77
BRANCH  64  89
ATOM     89  C   UNL     1      -4.802  12.563   2.728  1.00  0.00     0.058 A 
ATOM     90  C   UNL     1      -3.464  12.988   2.768  1.00  0.00     0.135 A 
ATOM     91  C   UNL     1      -5.785  13.523   2.436  1.00  0.00     0.135 A 
ATOM     92  F   UNL     1      -2.486  12.113   3.051  1.00  0.00    -0.206 F 
ATOM     93  C   UNL     1      -3.116  14.317   2.550  1.00  0.00     0.059 A 
ATOM     94  C   UNL     1      -5.457  14.853   2.189  1.00  0.00     0.059 A 
ATOM     95  F   UNL     1      -7.079  13.170   2.378  1.00  0.00    -0.206 F 
ATOM     96  C   UNL     1      -4.120  15.243   2.260  1.00  0.00     0.060 A 
BRANCH  96  97
ATOM     97  S   UNL     1      -3.649  16.960   1.957  1.00  0.00     0.124 S 
ATOM     98  O   UNL     1      -3.290  17.408   3.299  1.00  0.00    -0.237 OA
ATOM     99  O   UNL     1      -2.540  16.818   1.019  1.00  0.00    -0.237 OA
ATOM    100  O   UNL     1      -4.862  17.553   1.401  1.00  0.00    -0.744 OA
ENDBRANCH  96  97
ENDBRANCH  64  89
ENDBRANCH  38  39
ENDBRANCH  31  33
ENDBRANCH  30  31
ENDBRANCH  29  30
ENDBRANCH  28  29
ENDBRANCH  27  28
ENDBRANCH   1  27
TORSDOF 22
