REMARK SMILES COC(=O)[C@]1(C)C[C@H](C(=O)OCCOCCOCCOC(=O)c2ccc(-c3c4nc(c(-c5c(F)cc(S(=O)(=O)[O-])cc5F)c5ccc([nH]5)c(-c5c(F)cc(S(=O)(=O)[O-])cc5F)c5nc(c(-c6c(F)cc(S(=O)(=O)[O-])cc6F)c6ccc3[nH]6)C=C5)C=C4)cc2)[C@H](c2ccccc2F)[N@H+]1C
REMARK SMILES IDX 16 1 15 2 14 3 13 4 12 5 11 6 9 7 10 8 8 9 5 10 7 11 97 12
REMARK SMILES IDX 6 13 89 14 98 15 3 17 4 18 2 19 1 20 90 21 91 22 95 23 92 24
REMARK SMILES IDX 94 25 96 26 93 27 17 28 18 29 19 30 20 31 21 32 22 33 23 34
REMARK SMILES IDX 24 35 88 36 25 37 87 38 26 39 27 40 28 41 81 42 29 43 86 44
REMARK SMILES IDX 80 45 82 46 30 47 85 48 79 49 78 50 31 52 65 53 44 54 64 55
REMARK SMILES IDX 45 56 48 57 63 58 83 59 46 60 47 61 62 63 84 64 49 65 32 66
REMARK SMILES IDX 33 67 42 68 34 69 35 70 41 71 43 72 36 73 37 74 38 75 39 76
REMARK SMILES IDX 40 77 66 78 67 79 76 80 68 81 69 82 75 83 77 84 70 85 71 86
REMARK SMILES IDX 72 87 73 88 74 89 50 90 51 91 60 92 52 93 53 94 59 95 61 96
REMARK SMILES IDX 54 97 55 98 56 99 57 100 58 101
REMARK H PARENT 97 16 82 51 48 62
REMARK Flexibility Score: inf
ROOT
ATOM      1  C   UNL     1      -3.466  -5.847   0.594  1.00  0.00     0.188 C 
ENDROOT
BRANCH   1   2
ATOM      2  C   UNL     1      -3.989  -5.981  -0.843  1.00  0.00     0.188 C 
BRANCH   2   3
ATOM      3  O   UNL     1      -4.539  -7.243  -1.210  1.00  0.00    -0.376 OA
BRANCH   3   4
ATOM      4  C   UNL     1      -3.696  -8.380  -1.035  1.00  0.00     0.202 C 
BRANCH   4   5
ATOM      5  C   UNL     1      -2.340  -8.278  -1.731  1.00  0.00     0.261 C 
BRANCH   5   6
ATOM      6  O   UNL     1      -1.426  -7.518  -0.911  1.00  0.00    -0.463 OA
BRANCH   6   7
ATOM      7  C   UNL     1      -0.308  -7.096  -1.533  1.00  0.00     0.315 C 
ATOM      8  O   UNL     1      -0.089  -7.310  -2.723  1.00  0.00    -0.252 OA
BRANCH   7   9
ATOM      9  C   UNL     1       0.751  -6.470  -0.627  1.00  0.00     0.169 C 
ATOM     10  C   UNL     1       0.486  -4.053  -0.687  1.00  0.00     0.194 C 
ATOM     11  C   UNL     1       1.276  -5.210  -1.312  1.00  0.00     0.103 C 
ATOM     12  N   UNL     1       0.249  -4.503   0.737  1.00  0.00    -0.316 N 
ATOM     13  C   UNL     1       1.282  -2.750  -0.931  1.00  0.00     0.092 C 
ATOM     14  C   UNL     1       0.555  -5.978   0.832  1.00  0.00     0.233 C 
ATOM     15  C   UNL     1       1.071  -3.721   1.680  1.00  0.00     0.334 C 
ATOM     16  H   UNL     1      -0.725  -4.342   0.991  1.00  0.00     0.349 HD
BRANCH  10  17
ATOM     17  C   UNL     1      -0.873  -3.824  -1.420  1.00  0.00     0.367 C 
ATOM     18  O   UNL     1      -1.072  -4.129  -2.590  1.00  0.00    -0.245 OA
BRANCH  17  19
ATOM     19  O   UNL     1      -1.788  -3.180  -0.640  1.00  0.00    -0.464 OA
ATOM     20  C   UNL     1      -3.048  -2.838  -1.241  1.00  0.00     0.282 C 
ENDBRANCH  17  19
ENDBRANCH  10  17
BRANCH  14  21
ATOM     21  C   UNL     1      -0.229  -6.839   1.832  1.00  0.00     0.046 A 
ATOM     22  C   UNL     1      -0.374  -8.227   1.623  1.00  0.00     0.013 A 
ATOM     23  C   UNL     1      -0.752  -6.364   3.048  1.00  0.00     0.132 A 
ATOM     24  C   UNL     1      -1.111  -9.044   2.495  1.00  0.00     0.001 A 
ATOM     25  C   UNL     1      -1.451  -7.179   3.945  1.00  0.00     0.040 A 
ATOM     26  F   UNL     1      -0.594  -5.099   3.440  1.00  0.00    -0.206 F 
ATOM     27  C   UNL     1      -1.659  -8.517   3.657  1.00  0.00     0.003 A 
ENDBRANCH  14  21
ENDBRANCH   7   9
ENDBRANCH   6   7
ENDBRANCH   5   6
ENDBRANCH   4   5
ENDBRANCH   3   4
ENDBRANCH   2   3
ENDBRANCH   1   2
BRANCH   1  28
ATOM     28  O   UNL     1      -4.078  -6.717   1.539  1.00  0.00    -0.376 OA
BRANCH  28  29
ATOM     29  C   UNL     1      -5.436  -6.409   1.829  1.00  0.00     0.202 C 
BRANCH  29  30
ATOM     30  C   UNL     1      -5.549  -5.428   2.996  1.00  0.00     0.261 C 
BRANCH  30  31
ATOM     31  O   UNL     1      -5.147  -4.107   2.581  1.00  0.00    -0.460 OA
BRANCH  31  32
ATOM     32  C   UNL     1      -4.183  -3.531   3.344  1.00  0.00     0.338 C 
ATOM     33  O   UNL     1      -3.725  -3.951   4.392  1.00  0.00    -0.246 OA
BRANCH  32  34
ATOM     34  C   UNL     1      -3.655  -2.336   2.653  1.00  0.00     0.060 A 
ATOM     35  C   UNL     1      -2.279  -2.275   2.416  1.00  0.00     0.016 A 
ATOM     36  C   UNL     1      -4.473  -1.262   2.298  1.00  0.00     0.016 A 
ATOM     37  C   UNL     1      -1.710  -1.136   1.841  1.00  0.00     0.010 A 
ATOM     38  C   UNL     1      -3.897  -0.116   1.728  1.00  0.00     0.010 A 
ATOM     39  C   UNL     1      -2.508  -0.038   1.510  1.00  0.00    -0.014 A 
BRANCH  39  40
ATOM     40  C   UNL     1      -1.883   1.250   1.107  1.00  0.00     0.031 A 
ATOM     41  C   UNL     1      -1.688   2.302   2.159  1.00  0.00     0.074 A 
ATOM     42  C   UNL     1      -1.477   1.495  -0.153  1.00  0.00     0.049 A 
ATOM     43  N   UNL     1      -1.323   3.549   2.026  1.00  0.00    -0.248 NA
ATOM     44  C   UNL     1      -1.908   1.878   3.551  1.00  0.00     0.031 C 
ATOM     45  C   UNL     1      -1.437   0.516  -1.229  1.00  0.00     0.029 A 
ATOM     46  N   UNL     1      -1.039   2.652  -0.750  1.00  0.00    -0.354 N 
ATOM     47  C   UNL     1      -1.276   4.065   3.314  1.00  0.00     0.074 A 
ATOM     48  C   UNL     1      -1.661   2.998   4.213  1.00  0.00     0.031 C 
ATOM     49  C   UNL     1      -1.100   1.122  -2.379  1.00  0.00     0.029 A 
ATOM     50  C   UNL     1      -0.889   2.541  -2.115  1.00  0.00     0.049 A 
ATOM     51  H   UNL     1      -0.851   3.480  -0.252  1.00  0.00     0.167 HD
ATOM     52  C   UNL     1      -0.941   5.315   3.708  1.00  0.00     0.037 A 
ATOM     53  C   UNL     1      -0.635   3.478  -3.049  1.00  0.00     0.037 A 
ATOM     54  C   UNL     1      -0.575   6.373   2.805  1.00  0.00     0.049 A 
ATOM     55  C   UNL     1      -0.401   4.897  -2.608  1.00  0.00     0.074 A 
ATOM     56  C   UNL     1      -0.259   7.687   3.099  1.00  0.00     0.029 A 
ATOM     57  N   UNL     1      -0.484   6.239   1.426  1.00  0.00    -0.354 N 
ATOM     58  N   UNL     1      -0.401   5.388  -1.391  1.00  0.00    -0.248 NA
ATOM     59  C   UNL     1      -0.120   5.886  -3.657  1.00  0.00     0.031 C 
ATOM     60  C   UNL     1      -0.020   8.359   1.894  1.00  0.00     0.029 A 
ATOM     61  C   UNL     1      -0.141   7.452   0.853  1.00  0.00     0.049 A 
ATOM     62  H   UNL     1      -0.641   5.404   0.929  1.00  0.00     0.167 HD
ATOM     63  C   UNL     1      -0.090   6.736  -1.525  1.00  0.00     0.074 A 
ATOM     64  C   UNL     1       0.094   6.983  -2.941  1.00  0.00     0.031 C 
ATOM     65  C   UNL     1       0.040   7.680  -0.560  1.00  0.00     0.037 A 
BRANCH  52  66
ATOM     66  C   UNL     1      -1.024   5.607   5.178  1.00  0.00     0.058 A 
ATOM     67  C   UNL     1      -0.085   5.100   6.090  1.00  0.00     0.135 A 
ATOM     68  C   UNL     1      -2.081   6.379   5.684  1.00  0.00     0.135 A 
ATOM     69  F   UNL     1       0.931   4.334   5.660  1.00  0.00    -0.206 F 
ATOM     70  C   UNL     1      -0.213   5.317   7.458  1.00  0.00     0.059 A 
ATOM     71  C   UNL     1      -2.215   6.629   7.045  1.00  0.00     0.059 A 
ATOM     72  F   UNL     1      -3.009   6.880   4.854  1.00  0.00    -0.206 F 
ATOM     73  C   UNL     1      -1.288   6.075   7.926  1.00  0.00     0.060 A 
BRANCH  73  74
ATOM     74  S   UNL     1      -1.467   6.319   9.706  1.00  0.00     0.124 S 
ATOM     75  O   UNL     1      -1.955   5.010  10.130  1.00  0.00    -0.237 OA
ATOM     76  O   UNL     1      -0.106   6.650  10.116  1.00  0.00    -0.237 OA
ATOM     77  O   UNL     1      -2.431   7.410   9.804  1.00  0.00    -0.744 OA
ENDBRANCH  73  74
ENDBRANCH  52  66
BRANCH  53  78
ATOM     78  C   UNL     1      -0.608   3.108  -4.491  1.00  0.00     0.058 A 
ATOM     79  C   UNL     1       0.592   3.089  -5.215  1.00  0.00     0.135 A 
ATOM     80  C   UNL     1      -1.787   2.763  -5.172  1.00  0.00     0.135 A 
ATOM     81  F   UNL     1       1.744   3.421  -4.612  1.00  0.00    -0.206 F 
ATOM     82  C   UNL     1       0.624   2.751  -6.565  1.00  0.00     0.059 A 
ATOM     83  C   UNL     1      -1.778   2.401  -6.516  1.00  0.00     0.059 A 
ATOM     84  F   UNL     1      -2.962   2.759  -4.523  1.00  0.00    -0.206 F 
ATOM     85  C   UNL     1      -0.567   2.407  -7.207  1.00  0.00     0.060 A 
BRANCH  85  86
ATOM     86  S   UNL     1      -0.507   1.928  -8.949  1.00  0.00     0.124 S 
ATOM     87  O   UNL     1      -0.273   3.213  -9.599  1.00  0.00    -0.237 OA
ATOM     88  O   UNL     1       0.611   0.990  -8.970  1.00  0.00    -0.237 OA
ATOM     89  O   UNL     1      -1.820   1.334  -9.179  1.00  0.00    -0.744 OA
ENDBRANCH  85  86
ENDBRANCH  53  78
BRANCH  65  90
ATOM     90  C   UNL     1       0.426   9.064  -0.997  1.00  0.00     0.058 A 
ATOM     91  C   UNL     1      -0.490   9.920  -1.627  1.00  0.00     0.135 A 
ATOM     92  C   UNL     1       1.711   9.561  -0.725  1.00  0.00     0.135 A 
ATOM     93  F   UNL     1      -1.728   9.489  -1.917  1.00  0.00    -0.206 F 
ATOM     94  C   UNL     1      -0.142  11.218  -1.985  1.00  0.00     0.059 A 
ATOM     95  C   UNL     1       2.073  10.863  -1.052  1.00  0.00     0.059 A 
ATOM     96  F   UNL     1       2.621   8.784  -0.117  1.00  0.00    -0.206 F 
ATOM     97  C   UNL     1       1.142  11.682  -1.690  1.00  0.00     0.060 A 
BRANCH  97  98
ATOM     98  S   UNL     1       1.568  13.384  -2.115  1.00  0.00     0.124 S 
ATOM     99  O   UNL     1       1.756  13.288  -3.558  1.00  0.00    -0.237 OA
ATOM    100  O   UNL     1       0.387  14.122  -1.676  1.00  0.00    -0.237 OA
ATOM    101  O   UNL     1       2.779  13.634  -1.338  1.00  0.00    -0.744 OA
ENDBRANCH  97  98
ENDBRANCH  65  90
ENDBRANCH  39  40
ENDBRANCH  32  34
ENDBRANCH  31  32
ENDBRANCH  30  31
ENDBRANCH  29  30
ENDBRANCH  28  29
ENDBRANCH   1  28
TORSDOF 23
