REMARK SMILES CC(C)(C)OC(=O)N1CCSC[C@@H]1CC(=O)OCCOCCOCCOC(=O)c1ccc(-c2c3nc(c(-c4c(F)cc(S(=O)(=O)[O-])cc4F)c4ccc([nH]4)c(-c4c(F)cc(S(=O)(=O)[O-])cc4F)c4nc(c(-c5c(F)cc(S(=O)(=O)[O-])cc5F)c5ccc2[nH]5)C=C4)C=C3)cc1
REMARK SMILES IDX 21 1 20 2 19 3 18 4 17 5 15 6 16 7 14 8 13 9 8 10 9 11 10 12
REMARK SMILES IDX 12 13 11 14 6 15 7 16 5 17 2 18 1 19 3 20 4 21 22 22 23 23
REMARK SMILES IDX 24 24 25 25 26 26 27 27 28 28 29 29 30 30 94 31 31 32 93 33
REMARK SMILES IDX 32 34 33 35 34 36 87 37 35 38 92 39 86 40 88 41 36 42 91 43
REMARK SMILES IDX 85 44 84 45 37 47 71 48 50 49 70 50 51 51 54 52 69 53 89 54
REMARK SMILES IDX 52 55 53 56 68 58 90 59 55 60 38 61 39 62 48 63 40 64 41 65
REMARK SMILES IDX 47 66 49 67 42 68 43 69 44 70 45 71 46 72 72 73 73 74 82 75
REMARK SMILES IDX 74 76 75 77 81 78 83 79 76 80 77 81 78 82 79 83 80 84 56 85
REMARK SMILES IDX 57 86 66 87 58 88 59 89 65 90 67 91 60 92 61 93 62 94 63 95
REMARK SMILES IDX 64 96
REMARK H PARENT 88 46 54 57
REMARK Flexibility Score: inf
ROOT
ATOM      1  C   UNL     1      -2.179   2.408   5.209  1.00  0.00     0.188 C 
ENDROOT
BRANCH   1   2
ATOM      2  O   UNL     1      -3.278   2.617   6.081  1.00  0.00    -0.376 OA
BRANCH   2   3
ATOM      3  C   UNL     1      -3.986   3.848   5.906  1.00  0.00     0.202 C 
BRANCH   3   4
ATOM      4  C   UNL     1      -3.141   5.139   5.875  1.00  0.00     0.261 C 
BRANCH   4   5
ATOM      5  O   UNL     1      -2.161   5.158   4.806  1.00  0.00    -0.463 OA
BRANCH   5   6
ATOM      6  C   UNL     1      -0.956   5.709   5.123  1.00  0.00     0.307 C 
ATOM      7  O   UNL     1      -0.768   6.448   6.082  1.00  0.00    -0.252 OA
BRANCH   6   8
ATOM      8  C   UNL     1       0.176   5.141   4.283  1.00  0.00     0.148 C 
BRANCH   8   9
ATOM      9  C   UNL     1       0.167   5.446   2.768  1.00  0.00     0.109 C 
ATOM     10  N   UNL     1       0.954   4.442   1.987  1.00  0.00    -0.303 N 
ATOM     11  C   UNL     1       2.353   4.265   2.398  1.00  0.00     0.134 C 
ATOM     12  C   UNL     1       3.171   5.534   2.120  1.00  0.00     0.091 C 
ATOM     13  C   UNL     1       0.717   6.856   2.471  1.00  0.00     0.095 C 
ATOM     14  S   UNL     1       2.496   7.054   2.898  1.00  0.00    -0.158 SA
BRANCH  10  15
ATOM     15  C   UNL     1       0.580   4.084   0.683  1.00  0.00     0.410 C 
ATOM     16  O   UNL     1      -0.262   4.715   0.034  1.00  0.00    -0.224 OA
BRANCH  15  17
ATOM     17  O   UNL     1       1.245   2.988   0.235  1.00  0.00    -0.444 OA
BRANCH  17  18
ATOM     18  C   UNL     1       1.180   2.411  -1.110  1.00  0.00     0.106 C 
ATOM     19  C   UNL     1       1.870   1.037  -0.997  1.00  0.00     0.056 C 
ATOM     20  C   UNL     1       1.992   3.289  -2.056  1.00  0.00     0.056 C 
ATOM     21  C   UNL     1      -0.213   2.168  -1.707  1.00  0.00     0.056 C 
ENDBRANCH  17  18
ENDBRANCH  15  17
ENDBRANCH  10  15
ENDBRANCH   8   9
ENDBRANCH   6   8
ENDBRANCH   5   6
ENDBRANCH   4   5
ENDBRANCH   3   4
ENDBRANCH   2   3
ENDBRANCH   1   2
BRANCH   1  22
ATOM     22  C   UNL     1      -2.489   2.383   3.707  1.00  0.00     0.188 C 
BRANCH  22  23
ATOM     23  O   UNL     1      -3.614   3.137   3.272  1.00  0.00    -0.376 OA
BRANCH  23  24
ATOM     24  C   UNL     1      -3.852   3.140   1.863  1.00  0.00     0.202 C 
BRANCH  24  25
ATOM     25  C   UNL     1      -4.212   1.759   1.252  1.00  0.00     0.261 C 
BRANCH  25  26
ATOM     26  O   UNL     1      -3.252   0.682   1.413  1.00  0.00    -0.460 OA
BRANCH  26  27
ATOM     27  C   UNL     1      -1.987   1.020   1.107  1.00  0.00     0.338 C 
ATOM     28  O   UNL     1      -1.667   2.101   0.617  1.00  0.00    -0.246 OA
BRANCH  27  29
ATOM     29  C   UNL     1      -0.953   0.104   1.623  1.00  0.00     0.060 A 
ATOM     30  C   UNL     1       0.211   0.708   2.115  1.00  0.00     0.016 A 
ATOM     31  C   UNL     1      -1.030  -1.284   1.549  1.00  0.00     0.016 A 
ATOM     32  C   UNL     1       1.341  -0.043   2.400  1.00  0.00     0.010 A 
ATOM     33  C   UNL     1       0.100  -2.051   1.887  1.00  0.00     0.010 A 
ATOM     34  C   UNL     1       1.308  -1.433   2.269  1.00  0.00    -0.014 A 
BRANCH  34  35
ATOM     35  C   UNL     1       2.568  -2.189   2.494  1.00  0.00     0.031 A 
ATOM     36  C   UNL     1       3.283  -2.852   1.346  1.00  0.00     0.074 A 
ATOM     37  C   UNL     1       3.136  -2.176   3.717  1.00  0.00     0.049 A 
ATOM     38  N   UNL     1       4.394  -3.544   1.355  1.00  0.00    -0.248 NA
ATOM     39  C   UNL     1       2.683  -2.704   0.011  1.00  0.00     0.031 C 
ATOM     40  C   UNL     1       2.589  -1.494   4.892  1.00  0.00     0.029 A 
ATOM     41  N   UNL     1       4.302  -2.737   4.172  1.00  0.00    -0.354 N 
ATOM     42  C   UNL     1       4.623  -3.923   0.036  1.00  0.00     0.074 A 
ATOM     43  C   UNL     1       3.528  -3.391  -0.747  1.00  0.00     0.031 C 
ATOM     44  C   UNL     1       3.423  -1.666   5.928  1.00  0.00     0.029 A 
ATOM     45  C   UNL     1       4.523  -2.531   5.513  1.00  0.00     0.049 A 
ATOM     46  H   UNL     1       4.921  -3.239   3.594  1.00  0.00     0.167 HD
ATOM     47  C   UNL     1       5.649  -4.650  -0.471  1.00  0.00     0.037 A 
ATOM     48  C   UNL     1       5.474  -3.019   6.332  1.00  0.00     0.037 A 
ATOM     49  C   UNL     1       6.730  -5.188   0.319  1.00  0.00     0.049 A 
ATOM     50  C   UNL     1       6.534  -3.921   5.767  1.00  0.00     0.074 A 
ATOM     51  C   UNL     1       7.807  -5.950  -0.103  1.00  0.00     0.029 A 
ATOM     52  N   UNL     1       6.866  -5.036   1.691  1.00  0.00    -0.354 N 
ATOM     53  N   UNL     1       6.719  -4.294   4.523  1.00  0.00    -0.248 NA
ATOM     54  C   UNL     1       7.506  -4.476   6.717  1.00  0.00     0.031 C 
ATOM     55  C   UNL     1       8.559  -6.309   1.022  1.00  0.00     0.029 A 
ATOM     56  C   UNL     1       7.986  -5.721   2.138  1.00  0.00     0.049 A 
ATOM     57  H   UNL     1       6.257  -4.516   2.264  1.00  0.00     0.167 HD
ATOM     58  C   UNL     1       7.835  -5.123   4.539  1.00  0.00     0.074 A 
ATOM     59  C   UNL     1       8.296  -5.173   5.912  1.00  0.00     0.031 C 
ATOM     60  C   UNL     1       8.423  -5.784   3.510  1.00  0.00     0.037 A 
BRANCH  47  61
ATOM     61  C   UNL     1       5.630  -4.960  -1.944  1.00  0.00     0.058 A 
ATOM     62  C   UNL     1       5.921  -3.991  -2.916  1.00  0.00     0.135 A 
ATOM     63  C   UNL     1       5.368  -6.269  -2.385  1.00  0.00     0.135 A 
ATOM     64  F   UNL     1       6.162  -2.721  -2.553  1.00  0.00    -0.206 F 
ATOM     65  C   UNL     1       5.939  -4.303  -4.273  1.00  0.00     0.059 A 
ATOM     66  C   UNL     1       5.404  -6.609  -3.734  1.00  0.00     0.059 A 
ATOM     67  F   UNL     1       5.081  -7.235  -1.499  1.00  0.00    -0.206 F 
ATOM     68  C   UNL     1       5.679  -5.616  -4.672  1.00  0.00     0.060 A 
BRANCH  68  69
ATOM     69  S   UNL     1       5.711  -6.008  -6.435  1.00  0.00     0.124 S 
ATOM     70  O   UNL     1       4.497  -5.345  -6.902  1.00  0.00    -0.237 OA
ATOM     71  O   UNL     1       6.968  -5.404  -6.866  1.00  0.00    -0.237 OA
ATOM     72  O   UNL     1       5.678  -7.467  -6.461  1.00  0.00    -0.744 OA
ENDBRANCH  68  69
ENDBRANCH  47  61
BRANCH  48  73
ATOM     73  C   UNL     1       5.417  -2.712   7.786  1.00  0.00     0.058 A 
ATOM     74  C   UNL     1       6.384  -1.907   8.403  1.00  0.00     0.135 A 
ATOM     75  C   UNL     1       4.368  -3.203   8.582  1.00  0.00     0.135 A 
ATOM     76  F   UNL     1       7.412  -1.426   7.688  1.00  0.00    -0.206 F 
ATOM     77  C   UNL     1       6.314  -1.599   9.758  1.00  0.00     0.059 A 
ATOM     78  C   UNL     1       4.260  -2.883   9.929  1.00  0.00     0.059 A 
ATOM     79  F   UNL     1       3.413  -3.973   8.036  1.00  0.00    -0.206 F 
ATOM     80  C   UNL     1       5.243  -2.085  10.511  1.00  0.00     0.060 A 
BRANCH  80  81
ATOM     81  S   UNL     1       5.119  -1.620  12.251  1.00  0.00     0.124 S 
ATOM     82  O   UNL     1       6.159  -2.448  12.850  1.00  0.00    -0.237 OA
ATOM     83  O   UNL     1       5.390  -0.186  12.204  1.00  0.00    -0.237 OA
ATOM     84  O   UNL     1       3.747  -1.980  12.596  1.00  0.00    -0.744 OA
ENDBRANCH  80  81
ENDBRANCH  48  73
BRANCH  60  85
ATOM     85  C   UNL     1       9.637  -6.610   3.837  1.00  0.00     0.058 A 
ATOM     86  C   UNL     1       9.538  -7.808   4.562  1.00  0.00     0.135 A 
ATOM     87  C   UNL     1      10.914  -6.200   3.420  1.00  0.00     0.135 A 
ATOM     88  F   UNL     1       8.342  -8.243   4.990  1.00  0.00    -0.206 F 
ATOM     89  C   UNL     1      10.667  -8.549   4.900  1.00  0.00     0.059 A 
ATOM     90  C   UNL     1      12.053  -6.940   3.721  1.00  0.00     0.059 A 
ATOM     91  F   UNL     1      11.064  -5.069   2.714  1.00  0.00    -0.206 F 
ATOM     92  C   UNL     1      11.921  -8.103   4.480  1.00  0.00     0.060 A 
BRANCH  92  93
ATOM     93  S   UNL     1      13.379  -9.066   4.932  1.00  0.00     0.124 S 
ATOM     94  O   UNL     1      13.523  -8.733   6.345  1.00  0.00    -0.237 OA
ATOM     95  O   UNL     1      12.955 -10.432   4.642  1.00  0.00    -0.237 OA
ATOM     96  O   UNL     1      14.419  -8.539   4.053  1.00  0.00    -0.744 OA
ENDBRANCH  92  93
ENDBRANCH  60  85
ENDBRANCH  34  35
ENDBRANCH  27  29
ENDBRANCH  26  27
ENDBRANCH  25  26
ENDBRANCH  24  25
ENDBRANCH  23  24
ENDBRANCH  22  23
ENDBRANCH   1  22
TORSDOF 24
