REMARK SMILES Cc1nc(NC(=O)[C@@H]2CCC[C@@H](C(=O)OCCOCCOCCOC(=O)c3ccc(-c4c5nc(c(-c6c(F)cc(S(=O)(=O)[O-])cc6F)c6ccc([nH]6)c(-c6c(F)cc(S(=O)(=O)[O-])cc6F)c6nc(c(-c7c(F)cc(S(=O)(=O)[O-])cc7F)c7ccc4[nH]7)C=C6)C=C5)cc3)C2)ccc1Br
REMARK SMILES IDX 20 1 19 2 18 3 17 4 16 5 15 6 13 7 14 8 12 9 8 10 9 11 93 12
REMARK SMILES IDX 10 13 11 14 6 15 5 16 7 18 4 19 1 20 2 21 3 22 96 23 95 24
REMARK SMILES IDX 97 25 94 26 21 27 22 28 23 29 24 30 25 31 26 32 27 33 28 34
REMARK SMILES IDX 92 35 29 36 91 37 30 38 31 39 32 40 85 41 33 42 90 43 84 44
REMARK SMILES IDX 86 45 34 46 89 47 83 48 82 49 35 51 69 52 48 53 68 54 49 55
REMARK SMILES IDX 52 56 67 57 87 58 50 59 51 60 66 62 88 63 53 64 36 65 37 66
REMARK SMILES IDX 46 67 38 68 39 69 45 70 47 71 40 72 41 73 42 74 43 75 44 76
REMARK SMILES IDX 70 77 71 78 80 79 72 80 73 81 79 82 81 83 74 84 75 85 76 86
REMARK SMILES IDX 77 87 78 88 54 89 55 90 64 91 56 92 57 93 63 94 65 95 58 96
REMARK SMILES IDX 59 97 60 98 61 99 62 100
REMARK H PARENT 5 17 86 50 52 61
REMARK Flexibility Score: inf
ROOT
ATOM      1  C   UNL     1       0.998   4.120   5.974  1.00  0.00     0.188 C 
ENDROOT
BRANCH   1   2
ATOM      2  C   UNL     1       1.349   3.836   4.493  1.00  0.00     0.188 C 
BRANCH   2   3
ATOM      3  O   UNL     1       2.436   4.519   3.961  1.00  0.00    -0.376 OA
BRANCH   3   4
ATOM      4  C   UNL     1       2.213   5.877   3.701  1.00  0.00     0.202 C 
BRANCH   4   5
ATOM      5  C   UNL     1       0.796   6.552   3.686  1.00  0.00     0.261 C 
BRANCH   5   6
ATOM      6  O   UNL     1      -0.340   6.073   4.497  1.00  0.00    -0.463 OA
BRANCH   6   7
ATOM      7  C   UNL     1      -1.371   5.361   3.932  1.00  0.00     0.309 C 
ATOM      8  O   UNL     1      -1.385   5.073   2.738  1.00  0.00    -0.252 OA
BRANCH   7   9
ATOM      9  C   UNL     1      -2.542   4.903   4.906  1.00  0.00     0.100 C 
ATOM     10  C   UNL     1      -2.331   2.428   5.953  1.00  0.00     0.080 C 
ATOM     11  C   UNL     1      -2.777   2.980   7.319  1.00  0.00     0.013 C 
ATOM     12  C   UNL     1      -3.020   3.391   4.885  1.00  0.00     0.028 C 
ATOM     13  C   UNL     1      -2.314   4.461   7.490  1.00  0.00     0.002 C 
ATOM     14  C   UNL     1      -2.586   5.452   6.337  1.00  0.00     0.015 C 
BRANCH  10  15
ATOM     15  C   UNL     1      -2.180   0.660   5.748  1.00  0.00     0.228 C 
ATOM     16  N   UNL     1      -1.181  -0.137   4.683  1.00  0.00    -0.310 N 
ATOM     17  H   UNL     1      -1.042  -1.067   4.974  1.00  0.00     0.171 HD
ATOM     18  O   UNL     1      -2.789  -0.077   6.540  1.00  0.00    -0.274 OA
BRANCH  16  19
ATOM     19  C   UNL     1      -0.164   0.225   2.969  1.00  0.00     0.132 A 
ATOM     20  C   UNL     1       1.733  -1.146   0.070  1.00  0.00     0.068 C 
ATOM     21  C   UNL     1       1.479  -0.136   1.165  1.00  0.00     0.054 A 
ATOM     22  N   UNL     1       0.731  -0.583   2.275  1.00  0.00    -0.235 NA
ATOM     23  C   UNL     1       1.651   1.192   0.773  1.00  0.00     0.039 A 
ATOM     24  C   UNL     1       0.697   2.048   1.194  1.00  0.00     0.021 A 
ATOM     25  Br  UNL     1       2.885   1.820  -0.511  1.00  0.00    -0.049 Br
ATOM     26  C   UNL     1      -0.228   1.530   2.086  1.00  0.00     0.048 A 
ENDBRANCH  16  19
ENDBRANCH  10  15
ENDBRANCH   7   9
ENDBRANCH   6   7
ENDBRANCH   5   6
ENDBRANCH   4   5
ENDBRANCH   3   4
ENDBRANCH   2   3
ENDBRANCH   1   2
BRANCH   1  27
ATOM     27  O   UNL     1       1.999   4.582   6.850  1.00  0.00    -0.376 OA
BRANCH  27  28
ATOM     28  C   UNL     1       3.223   3.870   6.848  1.00  0.00     0.202 C 
BRANCH  28  29
ATOM     29  C   UNL     1       3.197   2.334   6.956  1.00  0.00     0.261 C 
BRANCH  29  30
ATOM     30  O   UNL     1       2.498   1.671   5.886  1.00  0.00    -0.460 OA
BRANCH  30  31
ATOM     31  C   UNL     1       1.270   1.183   6.178  1.00  0.00     0.338 C 
ATOM     32  O   UNL     1       0.749   1.101   7.277  1.00  0.00    -0.246 OA
BRANCH  31  33
ATOM     33  C   UNL     1       0.560   0.794   4.941  1.00  0.00     0.060 A 
ATOM     34  C   UNL     1      -0.891   1.669   4.190  1.00  0.00     0.016 A 
ATOM     35  C   UNL     1       0.750  -0.957   4.710  1.00  0.00     0.016 A 
ATOM     36  C   UNL     1      -2.193   0.656   3.244  1.00  0.00     0.010 A 
ATOM     37  C   UNL     1      -0.426  -1.903   3.767  1.00  0.00     0.010 A 
ATOM     38  C   UNL     1      -1.898  -1.145   3.058  1.00  0.00    -0.014 A 
BRANCH  38  39
ATOM     39  C   UNL     1      -2.668  -2.178   2.308  1.00  0.00     0.031 A 
ATOM     40  C   UNL     1      -3.103  -3.470   2.996  1.00  0.00     0.074 A 
ATOM     41  C   UNL     1      -2.648  -2.117   0.963  1.00  0.00     0.049 A 
ATOM     42  N   UNL     1      -3.646  -4.545   2.477  1.00  0.00    -0.248 NA
ATOM     43  C   UNL     1      -2.871  -3.590   4.451  1.00  0.00     0.031 C 
ATOM     44  C   UNL     1      -2.083  -1.018   0.186  1.00  0.00     0.029 A 
ATOM     45  N   UNL     1      -3.062  -3.009   0.006  1.00  0.00    -0.354 N 
ATOM     46  C   UNL     1      -3.869  -5.425   3.538  1.00  0.00     0.074 A 
ATOM     47  C   UNL     1      -3.289  -4.822   4.713  1.00  0.00     0.031 C 
ATOM     48  C   UNL     1      -2.187  -1.286  -1.122  1.00  0.00     0.029 A 
ATOM     49  C   UNL     1      -2.836  -2.578  -1.282  1.00  0.00     0.049 A 
ATOM     50  H   UNL     1      -3.479  -3.874   0.219  1.00  0.00     0.167 HD
ATOM     51  C   UNL     1      -4.555  -6.595   3.542  1.00  0.00     0.037 A 
ATOM     52  C   UNL     1      -3.147  -3.142  -2.463  1.00  0.00     0.037 A 
ATOM     53  C   UNL     1      -5.111  -7.179   2.348  1.00  0.00     0.049 A 
ATOM     54  C   UNL     1      -3.908  -4.438  -2.444  1.00  0.00     0.074 A 
ATOM     55  C   UNL     1      -5.894  -8.312   2.221  1.00  0.00     0.029 A 
ATOM     56  N   UNL     1      -4.928  -6.670   1.070  1.00  0.00    -0.354 N 
ATOM     57  N   UNL     1      -4.269  -5.162  -1.410  1.00  0.00    -0.248 NA
ATOM     58  C   UNL     1      -4.340  -4.975  -3.740  1.00  0.00     0.031 C 
ATOM     59  C   UNL     1      -6.138  -8.518   0.861  1.00  0.00     0.029 A 
ATOM     60  C   UNL     1      -5.562  -7.479   0.145  1.00  0.00     0.049 A 
ATOM     61  H   UNL     1      -4.422  -5.854   0.853  1.00  0.00     0.167 HD
ATOM     62  C   UNL     1      -5.009  -6.216  -1.927  1.00  0.00     0.074 A 
ATOM     63  C   UNL     1      -5.058  -6.023  -3.363  1.00  0.00     0.031 C 
ATOM     64  C   UNL     1      -5.594  -7.252  -1.277  1.00  0.00     0.037 A 
BRANCH  51  65
ATOM     65  C   UNL     1      -4.840  -7.280   4.860  1.00  0.00     0.058 A 
ATOM     66  C   UNL     1      -5.723  -6.704   5.791  1.00  0.00     0.135 A 
ATOM     67  C   UNL     1      -4.363  -8.572   5.141  1.00  0.00     0.135 A 
ATOM     68  F   UNL     1      -6.214  -5.472   5.583  1.00  0.00    -0.206 F 
ATOM     69  C   UNL     1      -6.120  -7.377   6.943  1.00  0.00     0.059 A 
ATOM     70  C   UNL     1      -4.767  -9.276   6.277  1.00  0.00     0.059 A 
ATOM     71  F   UNL     1      -3.521  -9.181   4.291  1.00  0.00    -0.206 F 
ATOM     72  C   UNL     1      -5.650  -8.671   7.170  1.00  0.00     0.060 A 
BRANCH  72  73
ATOM     73  S   UNL     1      -6.239  -9.551   8.635  1.00  0.00     0.124 S 
ATOM     74  O   UNL     1      -5.684  -8.739   9.713  1.00  0.00    -0.237 OA
ATOM     75  O   UNL     1      -7.688  -9.483   8.473  1.00  0.00    -0.237 OA
ATOM     76  O   UNL     1      -5.656 -10.882   8.493  1.00  0.00    -0.744 OA
ENDBRANCH  72  73
ENDBRANCH  51  65
BRANCH  52  77
ATOM     77  C   UNL     1      -2.858  -2.424  -3.735  1.00  0.00     0.058 A 
ATOM     78  C   UNL     1      -3.903  -1.895  -4.508  1.00  0.00     0.135 A 
ATOM     79  C   UNL     1      -1.545  -2.218  -4.189  1.00  0.00     0.135 A 
ATOM     80  F   UNL     1      -5.175  -2.042  -4.106  1.00  0.00    -0.206 F 
ATOM     81  C   UNL     1      -3.664  -1.237  -5.709  1.00  0.00     0.059 A 
ATOM     82  C   UNL     1      -1.279  -1.534  -5.372  1.00  0.00     0.059 A 
ATOM     83  F   UNL     1      -0.504  -2.660  -3.466  1.00  0.00    -0.206 F 
ATOM     84  C   UNL     1      -2.347  -1.066  -6.136  1.00  0.00     0.060 A 
BRANCH  84  85
ATOM     85  S   UNL     1      -2.057  -0.227  -7.709  1.00  0.00     0.124 S 
ATOM     86  O   UNL     1      -2.639  -1.171  -8.656  1.00  0.00    -0.237 OA
ATOM     87  O   UNL     1      -2.786   1.024  -7.524  1.00  0.00    -0.237 OA
ATOM     88  O   UNL     1      -0.604  -0.099  -7.760  1.00  0.00    -0.744 OA
ENDBRANCH  84  85
ENDBRANCH  52  77
BRANCH  64  89
ATOM     89  C   UNL     1      -6.346  -8.246  -2.112  1.00  0.00     0.058 A 
ATOM     90  C   UNL     1      -5.678  -9.128  -2.974  1.00  0.00     0.135 A 
ATOM     91  C   UNL     1      -7.740  -8.367  -1.991  1.00  0.00     0.135 A 
ATOM     92  F   UNL     1      -4.346  -9.047  -3.126  1.00  0.00    -0.206 F 
ATOM     93  C   UNL     1      -6.369 -10.080  -3.709  1.00  0.00     0.059 A 
ATOM     94  C   UNL     1      -8.447  -9.341  -2.685  1.00  0.00     0.059 A 
ATOM     95  F   UNL     1      -8.423  -7.554  -1.169  1.00  0.00    -0.206 F 
ATOM     96  C   UNL     1      -7.752 -10.185  -3.550  1.00  0.00     0.060 A 
BRANCH  96  97
ATOM     97  S   UNL     1      -8.623 -11.456  -4.485  1.00  0.00     0.124 S 
ATOM     98  O   UNL     1      -8.465 -10.975  -5.853  1.00  0.00    -0.237 OA
ATOM     99  O   UNL     1      -7.869 -12.658  -4.143  1.00  0.00    -0.237 OA
ATOM    100  O   UNL     1      -9.982 -11.401  -3.954  1.00  0.00    -0.744 OA
ENDBRANCH  96  97
ENDBRANCH  64  89
ENDBRANCH  38  39
ENDBRANCH  31  33
ENDBRANCH  30  31
ENDBRANCH  29  30
ENDBRANCH  28  29
ENDBRANCH  27  28
ENDBRANCH   1  27
TORSDOF 22
