REMARK SMILES Cc1nsc(NC(=O)c2ccc(N)cc2)c1C(=O)OCCOCCOCCOC(=O)c1ccc(-c2c3nc(c(-c4c(F)cc(S(=O)(=O)[O-])cc4F)c4ccc([nH]4)c(-c4c(F)cc(S(=O)(=O)[O-])cc4F)c4nc(c(-c5c(F)cc(S(=O)(=O)[O-])cc5F)c5ccc2[nH]5)C=C4)C=C3)cc1
REMARK SMILES IDX 23 1 22 2 21 3 20 4 19 5 17 6 18 7 16 8 1 9 2 10 3 11 4 12
REMARK SMILES IDX 5 13 6 14 7 15 8 17 9 18 10 19 15 20 11 21 14 22 12 23 13 24
REMARK SMILES IDX 24 27 25 28 26 29 27 30 28 31 29 32 30 33 31 34 32 35 96 36
REMARK SMILES IDX 33 37 95 38 34 39 35 40 36 41 89 42 37 43 94 44 88 45 90 46
REMARK SMILES IDX 38 47 93 48 87 49 86 50 39 52 73 53 52 54 72 55 53 56 56 57
REMARK SMILES IDX 71 58 91 59 54 60 55 61 70 63 92 64 57 65 40 66 41 67 50 68
REMARK SMILES IDX 42 69 43 70 49 71 51 72 44 73 45 74 46 75 47 76 48 77 74 78
REMARK SMILES IDX 75 79 84 80 76 81 77 82 83 83 85 84 78 85 79 86 80 87 81 88
REMARK SMILES IDX 82 89 58 90 59 91 68 92 60 93 61 94 67 95 69 96 62 97 63 98
REMARK SMILES IDX 64 99 65 100 66 101
REMARK H PARENT 6 16 13 25 13 26 90 51 56 62
REMARK Flexibility Score: inf
ROOT
ATOM      1  C   UNL     1       3.958   3.575  -0.172  1.00  0.00     0.188 C 
ENDROOT
BRANCH   1   2
ATOM      2  O   UNL     1       4.963   3.591   0.833  1.00  0.00    -0.376 OA
BRANCH   2   3
ATOM      3  C   UNL     1       5.110   2.491   1.721  1.00  0.00     0.202 C 
BRANCH   3   4
ATOM      4  C   UNL     1       3.899   1.978   2.529  1.00  0.00     0.261 C 
BRANCH   4   5
ATOM      5  O   UNL     1       2.721   1.675   1.760  1.00  0.00    -0.460 OA
BRANCH   5   6
ATOM      6  C   UNL     1       1.668   2.526   1.888  1.00  0.00     0.343 C 
ATOM      7  O   UNL     1       1.589   3.411   2.738  1.00  0.00    -0.246 OA
BRANCH   6   8
ATOM      8  C   UNL     1       0.728   2.431   0.779  1.00  0.00     0.117 A 
ATOM      9  C   UNL     1       0.748  -0.157   0.317  1.00  0.00     0.069 C 
ATOM     10  C   UNL     1       0.323   1.247   0.053  1.00  0.00     0.068 A 
ATOM     11  N   UNL     1      -0.475   1.453  -0.995  1.00  0.00    -0.195 NA
ATOM     12  S   UNL     1      -0.647   3.073  -1.228  1.00  0.00    -0.017 S 
ATOM     13  C   UNL     1       0.208   3.564   0.157  1.00  0.00     0.131 A 
BRANCH  13  14
ATOM     14  N   UNL     1       0.482   4.890   0.463  1.00  0.00    -0.312 N 
ATOM     15  C   UNL     1       0.052   6.067  -0.108  1.00  0.00     0.256 C 
ATOM     16  H   UNL     1       1.094   5.011   1.224  1.00  0.00     0.171 HD
ATOM     17  O   UNL     1       0.719   7.091   0.037  1.00  0.00    -0.269 OA
BRANCH  15  18
ATOM     18  C   UNL     1      -1.242   6.169  -0.807  1.00  0.00     0.040 A 
ATOM     19  C   UNL     1      -2.389   5.599  -0.248  1.00  0.00     0.016 A 
ATOM     20  C   UNL     1      -1.328   6.889  -2.000  1.00  0.00     0.016 A 
ATOM     21  C   UNL     1      -3.592   5.635  -0.953  1.00  0.00     0.026 A 
ATOM     22  C   UNL     1      -2.546   6.942  -2.684  1.00  0.00     0.026 A 
ATOM     23  C   UNL     1      -3.667   6.261  -2.200  1.00  0.00     0.031 A 
BRANCH  23  24
ATOM     24  N   UNL     1      -4.877   6.323  -2.875  1.00  0.00    -0.399 N 
ATOM     25  H   UNL     1      -5.661   5.840  -2.526  1.00  0.00     0.156 HD
ATOM     26  H   UNL     1      -4.952   6.850  -3.703  1.00  0.00     0.156 HD
ENDBRANCH  23  24
ENDBRANCH  15  18
ENDBRANCH  13  14
ENDBRANCH   6   8
ENDBRANCH   5   6
ENDBRANCH   4   5
ENDBRANCH   3   4
ENDBRANCH   2   3
ENDBRANCH   1   2
BRANCH   1  27
ATOM     27  C   UNL     1       3.665   2.291  -0.982  1.00  0.00     0.188 C 
BRANCH  27  28
ATOM     28  O   UNL     1       4.261   1.123  -0.455  1.00  0.00    -0.376 OA
BRANCH  28  29
ATOM     29  C   UNL     1       5.279   0.467  -1.196  1.00  0.00     0.202 C 
BRANCH  29  30
ATOM     30  C   UNL     1       6.476   1.240  -1.755  1.00  0.00     0.261 C 
BRANCH  30  31
ATOM     31  O   UNL     1       6.265   2.623  -1.951  1.00  0.00    -0.460 OA
BRANCH  31  32
ATOM     32  C   UNL     1       5.698   2.948  -3.130  1.00  0.00     0.338 C 
ATOM     33  O   UNL     1       5.200   2.182  -3.937  1.00  0.00    -0.246 OA
BRANCH  32  34
ATOM     34  C   UNL     1       5.803   4.399  -3.304  1.00  0.00     0.060 A 
ATOM     35  C   UNL     1       5.115   4.948  -4.386  1.00  0.00     0.016 A 
ATOM     36  C   UNL     1       6.832   5.079  -2.636  1.00  0.00     0.016 A 
ATOM     37  C   UNL     1       5.674   6.040  -5.002  1.00  0.00     0.010 A 
ATOM     38  C   UNL     1       7.399   6.156  -3.260  1.00  0.00     0.010 A 
ATOM     39  C   UNL     1       6.883   6.527  -4.498  1.00  0.00    -0.014 A 
BRANCH  39  40
ATOM     40  C   UNL     1       7.666   7.379  -5.360  1.00  0.00     0.031 A 
ATOM     41  C   UNL     1       7.202   8.777  -5.388  1.00  0.00     0.074 A 
ATOM     42  C   UNL     1       8.761   6.899  -5.979  1.00  0.00     0.049 A 
ATOM     43  N   UNL     1       6.674   9.422  -6.372  1.00  0.00    -0.248 NA
ATOM     44  C   UNL     1       7.158   9.489  -4.100  1.00  0.00     0.031 C 
ATOM     45  C   UNL     1       9.443   5.616  -5.763  1.00  0.00     0.029 A 
ATOM     46  N   UNL     1       9.574   7.522  -6.866  1.00  0.00    -0.354 N 
ATOM     47  C   UNL     1       6.438  10.700  -5.883  1.00  0.00     0.074 A 
ATOM     48  C   UNL     1       6.556  10.623  -4.450  1.00  0.00     0.031 C 
ATOM     49  C   UNL     1      10.680   5.674  -6.306  1.00  0.00     0.029 A 
ATOM     50  C   UNL     1      10.823   6.936  -7.011  1.00  0.00     0.049 A 
ATOM     51  H   UNL     1       9.301   8.325  -7.366  1.00  0.00     0.167 HD
ATOM     52  C   UNL     1       6.421  11.784  -6.702  1.00  0.00     0.037 A 
ATOM     53  C   UNL     1      11.909   7.530  -7.567  1.00  0.00     0.037 A 
ATOM     54  C   UNL     1       6.259  11.406  -8.081  1.00  0.00     0.049 A 
ATOM     55  C   UNL     1      11.404   8.668  -8.390  1.00  0.00     0.074 A 
ATOM     56  C   UNL     1       5.274  10.742  -8.786  1.00  0.00     0.029 A 
ATOM     57  N   UNL     1       7.380  11.374  -8.875  1.00  0.00    -0.354 N 
ATOM     58  N   UNL     1      10.664   8.523  -9.458  1.00  0.00    -0.248 NA
ATOM     59  C   UNL     1      11.318   9.975  -7.751  1.00  0.00     0.031 C 
ATOM     60  C   UNL     1       5.972   9.947  -9.739  1.00  0.00     0.029 A 
ATOM     61  C   UNL     1       7.337  10.208  -9.598  1.00  0.00     0.049 A 
ATOM     62  H   UNL     1       8.085  12.060  -8.918  1.00  0.00     0.167 HD
ATOM     63  C   UNL     1       9.734   9.555  -9.399  1.00  0.00     0.074 A 
ATOM     64  C   UNL     1      10.231  10.455  -8.363  1.00  0.00     0.031 C 
ATOM     65  C   UNL     1       8.505   9.445  -9.987  1.00  0.00     0.037 A 
BRANCH  52  66
ATOM     66  C   UNL     1       6.914  13.140  -6.279  1.00  0.00     0.058 A 
ATOM     67  C   UNL     1       6.632  14.261  -7.081  1.00  0.00     0.135 A 
ATOM     68  C   UNL     1       7.875  13.337  -5.260  1.00  0.00     0.135 A 
ATOM     69  F   UNL     1       5.750  14.175  -8.089  1.00  0.00    -0.206 F 
ATOM     70  C   UNL     1       7.302  15.474  -6.919  1.00  0.00     0.059 A 
ATOM     71  C   UNL     1       8.506  14.552  -5.042  1.00  0.00     0.059 A 
ATOM     72  F   UNL     1       8.326  12.334  -4.497  1.00  0.00    -0.206 F 
ATOM     73  C   UNL     1       8.248  15.602  -5.905  1.00  0.00     0.060 A 
BRANCH  73  74
ATOM     74  S   UNL     1       9.203  17.121  -5.770  1.00  0.00     0.124 S 
ATOM     75  O   UNL     1      10.047  17.036  -6.956  1.00  0.00    -0.237 OA
ATOM     76  O   UNL     1       8.159  18.140  -5.797  1.00  0.00    -0.237 OA
ATOM     77  O   UNL     1       9.892  16.972  -4.492  1.00  0.00    -0.744 OA
ENDBRANCH  73  74
ENDBRANCH  52  66
BRANCH  53  78
ATOM     78  C   UNL     1      13.312   7.442  -7.073  1.00  0.00     0.058 A 
ATOM     79  C   UNL     1      14.393   7.881  -7.857  1.00  0.00     0.135 A 
ATOM     80  C   UNL     1      13.602   7.167  -5.719  1.00  0.00     0.135 A 
ATOM     81  F   UNL     1      14.204   8.197  -9.147  1.00  0.00    -0.206 F 
ATOM     82  C   UNL     1      15.676   8.065  -7.324  1.00  0.00     0.059 A 
ATOM     83  C   UNL     1      14.873   7.330  -5.170  1.00  0.00     0.059 A 
ATOM     84  F   UNL     1      12.636   6.814  -4.859  1.00  0.00    -0.206 F 
ATOM     85  C   UNL     1      15.903   7.800  -5.973  1.00  0.00     0.060 A 
BRANCH  85  86
ATOM     86  S   UNL     1      17.514   8.176  -5.244  1.00  0.00     0.124 S 
ATOM     87  O   UNL     1      18.369   7.171  -5.866  1.00  0.00    -0.237 OA
ATOM     88  O   UNL     1      17.733   9.553  -5.672  1.00  0.00    -0.237 OA
ATOM     89  O   UNL     1      17.288   8.001  -3.811  1.00  0.00    -0.744 OA
ENDBRANCH  85  86
ENDBRANCH  53  78
BRANCH  65  90
ATOM     90  C   UNL     1       8.256   8.297 -10.932  1.00  0.00     0.058 A 
ATOM     91  C   UNL     1       8.184   6.951 -10.531  1.00  0.00     0.135 A 
ATOM     92  C   UNL     1       7.861   8.597 -12.244  1.00  0.00     0.135 A 
ATOM     93  F   UNL     1       8.453   6.595  -9.267  1.00  0.00    -0.206 F 
ATOM     94  C   UNL     1       7.750   5.947 -11.400  1.00  0.00     0.059 A 
ATOM     95  C   UNL     1       7.398   7.617 -13.118  1.00  0.00     0.059 A 
ATOM     96  F   UNL     1       7.850   9.872 -12.666  1.00  0.00    -0.206 F 
ATOM     97  C   UNL     1       7.347   6.293 -12.690  1.00  0.00     0.060 A 
BRANCH  97  98
ATOM     98  S   UNL     1       6.661   5.017 -13.771  1.00  0.00     0.124 S 
ATOM     99  O   UNL     1       7.847   4.244 -14.125  1.00  0.00    -0.237 OA
ATOM    100  O   UNL     1       5.701   4.343 -12.901  1.00  0.00    -0.237 OA
ATOM    101  O   UNL     1       6.065   5.780 -14.865  1.00  0.00    -0.744 OA
ENDBRANCH  97  98
ENDBRANCH  65  90
ENDBRANCH  39  40
ENDBRANCH  32  34
ENDBRANCH  31  32
ENDBRANCH  30  31
ENDBRANCH  29  30
ENDBRANCH  28  29
ENDBRANCH  27  28
ENDBRANCH   1  27
TORSDOF 23
