REMARK SMILES O=C(Cc1ccc(F)c(F)c1)NC1(C(=O)OCCOCCOCCOC(=O)c2ccc(-c3c4nc(c(-c5c(F)cc(S(=O)(=O)[O-])cc5F)c5ccc([nH]5)c(-c5c(F)cc(S(=O)(=O)[O-])cc5F)c5nc(c(-c6c(F)cc(S(=O)(=O)[O-])cc6F)c6ccc3[nH]6)C=C5)C=C4)cc2)CCCC1
REMARK SMILES IDX 20 1 19 2 18 3 17 4 16 5 14 6 15 7 13 8 94 9 97 10 95 11
REMARK SMILES IDX 96 12 12 13 1 14 2 15 3 17 4 18 5 19 11 20 6 21 9 22 7 23
REMARK SMILES IDX 10 24 8 25 21 26 22 27 23 28 24 29 25 30 26 31 27 32 28 33
REMARK SMILES IDX 29 34 93 35 30 36 92 37 31 38 32 39 33 40 86 41 34 42 91 43
REMARK SMILES IDX 85 44 87 45 35 46 90 47 84 48 83 49 36 51 70 52 49 53 69 54
REMARK SMILES IDX 50 55 53 56 68 57 88 58 51 59 52 60 67 62 89 63 54 64 37 65
REMARK SMILES IDX 38 66 47 67 39 68 40 69 46 70 48 71 41 72 42 73 43 74 44 75
REMARK SMILES IDX 45 76 71 77 72 78 81 79 73 80 74 81 80 82 82 83 75 84 76 85
REMARK SMILES IDX 77 86 78 87 79 88 55 89 56 90 65 91 57 92 58 93 64 94 66 95
REMARK SMILES IDX 59 96 60 97 61 98 62 99 63 100
REMARK H PARENT 12 16 87 50 53 61
REMARK Flexibility Score: inf
ROOT
ATOM      1  C   UNL     1      -1.103  -1.719   0.125  1.00  0.00     0.188 C 
ENDROOT
BRANCH   1   2
ATOM      2  O   UNL     1      -2.236  -1.850  -0.723  1.00  0.00    -0.376 OA
BRANCH   2   3
ATOM      3  C   UNL     1      -2.332  -0.852  -1.725  1.00  0.00     0.202 C 
BRANCH   3   4
ATOM      4  C   UNL     1      -1.407  -1.034  -2.937  1.00  0.00     0.261 C 
BRANCH   4   5
ATOM      5  O   UNL     1      -0.019  -1.301  -2.656  1.00  0.00    -0.461 OA
BRANCH   5   6
ATOM      6  C   UNL     1       0.873  -0.286  -2.806  1.00  0.00     0.331 C 
ATOM      7  O   UNL     1       0.549   0.880  -3.011  1.00  0.00    -0.249 OA
BRANCH   6   8
ATOM      8  C   UNL     1       2.365  -0.778  -2.778  1.00  0.00     0.138 C 
ATOM      9  C   UNL     1       2.949  -0.499  -4.183  1.00  0.00     0.040 C 
ATOM     10  C   UNL     1       2.628  -2.295  -2.692  1.00  0.00     0.040 C 
ATOM     11  C   UNL     1       2.485  -1.667  -5.042  1.00  0.00     0.003 C 
ATOM     12  C   UNL     1       2.425  -2.859  -4.098  1.00  0.00     0.003 C 
BRANCH   8  13
ATOM     13  N   UNL     1       3.163  -0.028  -1.788  1.00  0.00    -0.340 N 
ATOM     14  O   UNL     1       1.730  -0.281  -0.021  1.00  0.00    -0.275 OA
ATOM     15  C   UNL     1       2.806   0.104  -0.464  1.00  0.00     0.225 C 
ATOM     16  H   UNL     1       3.995   0.403  -2.091  1.00  0.00     0.164 HD
BRANCH  15  17
ATOM     17  C   UNL     1       3.879   0.704   0.430  1.00  0.00     0.135 C 
BRANCH  17  18
ATOM     18  C   UNL     1       4.677  -0.317   1.216  1.00  0.00    -0.036 A 
ATOM     19  C   UNL     1       4.641  -1.696   0.937  1.00  0.00     0.007 A 
ATOM     20  C   UNL     1       5.504   0.132   2.262  1.00  0.00     0.046 A 
ATOM     21  C   UNL     1       5.388  -2.600   1.697  1.00  0.00     0.043 A 
ATOM     22  C   UNL     1       6.248  -0.776   3.013  1.00  0.00     0.159 A 
ATOM     23  C   UNL     1       6.186  -2.134   2.735  1.00  0.00     0.158 A 
ATOM     24  F   UNL     1       7.028  -0.325   4.003  1.00  0.00    -0.204 F 
ATOM     25  F   UNL     1       6.884  -3.013   3.465  1.00  0.00    -0.204 F 
ENDBRANCH  17  18
ENDBRANCH  15  17
ENDBRANCH   8  13
ENDBRANCH   6   8
ENDBRANCH   5   6
ENDBRANCH   4   5
ENDBRANCH   3   4
ENDBRANCH   2   3
ENDBRANCH   1   2
BRANCH   1  26
ATOM     26  C   UNL     1      -0.061  -2.816  -0.099  1.00  0.00     0.188 C 
BRANCH  26  27
ATOM     27  O   UNL     1      -0.407  -4.016  -0.781  1.00  0.00    -0.376 OA
BRANCH  27  28
ATOM     28  C   UNL     1      -1.623  -4.651  -0.412  1.00  0.00     0.202 C 
BRANCH  28  29
ATOM     29  C   UNL     1      -1.766  -5.160   1.029  1.00  0.00     0.261 C 
BRANCH  29  30
ATOM     30  O   UNL     1      -1.255  -4.269   2.035  1.00  0.00    -0.460 OA
BRANCH  30  31
ATOM     31  C   UNL     1      -0.212  -4.750   2.749  1.00  0.00     0.338 C 
ATOM     32  O   UNL     1       0.260  -5.887   2.699  1.00  0.00    -0.246 OA
BRANCH  31  33
ATOM     33  C   UNL     1       0.432  -3.676   3.521  1.00  0.00     0.060 A 
ATOM     34  C   UNL     1       1.647  -3.173   3.045  1.00  0.00     0.016 A 
ATOM     35  C   UNL     1      -0.059  -3.269   4.764  1.00  0.00     0.016 A 
ATOM     36  C   UNL     1       2.374  -2.271   3.810  1.00  0.00     0.010 A 
ATOM     37  C   UNL     1       0.704  -2.391   5.552  1.00  0.00     0.010 A 
ATOM     38  C   UNL     1       1.945  -1.917   5.090  1.00  0.00    -0.014 A 
BRANCH  38  39
ATOM     39  C   UNL     1       2.949  -1.297   5.994  1.00  0.00     0.031 A 
ATOM     40  C   UNL     1       3.684  -2.195   6.956  1.00  0.00     0.074 A 
ATOM     41  C   UNL     1       3.337  -0.015   5.856  1.00  0.00     0.049 A 
ATOM     42  N   UNL     1       4.560  -1.891   7.877  1.00  0.00    -0.248 NA
ATOM     43  C   UNL     1       3.394  -3.636   6.855  1.00  0.00     0.031 C 
ATOM     44  C   UNL     1       2.822   0.925   4.861  1.00  0.00     0.029 A 
ATOM     45  N   UNL     1       4.288   0.705   6.536  1.00  0.00    -0.354 N 
ATOM     46  C   UNL     1       4.886  -3.091   8.498  1.00  0.00     0.074 A 
ATOM     47  C   UNL     1       4.127  -4.131   7.839  1.00  0.00     0.031 C 
ATOM     48  C   UNL     1       3.484   2.091   4.980  1.00  0.00     0.029 A 
ATOM     49  C   UNL     1       4.431   1.998   6.091  1.00  0.00     0.049 A 
ATOM     50  H   UNL     1       4.820   0.330   7.275  1.00  0.00     0.167 HD
ATOM     51  C   UNL     1       5.728  -3.307   9.536  1.00  0.00     0.037 A 
ATOM     52  C   UNL     1       5.220   2.994   6.545  1.00  0.00     0.037 A 
ATOM     53  C   UNL     1       6.521  -2.281  10.158  1.00  0.00     0.049 A 
ATOM     54  C   UNL     1       6.108   2.748   7.741  1.00  0.00     0.074 A 
ATOM     55  C   UNL     1       7.368  -2.388  11.247  1.00  0.00     0.029 A 
ATOM     56  N   UNL     1       6.580  -0.964   9.731  1.00  0.00    -0.354 N 
ATOM     57  N   UNL     1       6.318   1.634   8.402  1.00  0.00    -0.248 NA
ATOM     58  C   UNL     1       6.846   3.905   8.270  1.00  0.00     0.031 C 
ATOM     59  C   UNL     1       7.912  -1.124  11.501  1.00  0.00     0.029 A 
ATOM     60  C   UNL     1       7.436  -0.242  10.544  1.00  0.00     0.049 A 
ATOM     61  H   UNL     1       6.085  -0.596   8.963  1.00  0.00     0.167 HD
ATOM     62  C   UNL     1       7.221   1.954   9.412  1.00  0.00     0.074 A 
ATOM     63  C   UNL     1       7.532   3.360   9.265  1.00  0.00     0.031 C 
ATOM     64  C   UNL     1       7.742   1.157  10.379  1.00  0.00     0.037 A 
BRANCH  51  65
ATOM     65  C   UNL     1       5.761  -4.692  10.114  1.00  0.00     0.058 A 
ATOM     66  C   UNL     1       6.410  -5.760   9.478  1.00  0.00     0.135 A 
ATOM     67  C   UNL     1       5.112  -4.949  11.333  1.00  0.00     0.135 A 
ATOM     68  F   UNL     1       7.021  -5.574   8.297  1.00  0.00    -0.206 F 
ATOM     69  C   UNL     1       6.390  -7.044  10.016  1.00  0.00     0.059 A 
ATOM     70  C   UNL     1       5.100  -6.217  11.901  1.00  0.00     0.059 A 
ATOM     71  F   UNL     1       4.470  -3.962  11.977  1.00  0.00    -0.206 F 
ATOM     72  C   UNL     1       5.727  -7.263  11.226  1.00  0.00     0.060 A 
BRANCH  72  73
ATOM     73  S   UNL     1       5.692  -8.933  11.911  1.00  0.00     0.124 S 
ATOM     74  O   UNL     1       4.696  -9.576  11.059  1.00  0.00    -0.237 OA
ATOM     75  O   UNL     1       7.069  -9.379  11.725  1.00  0.00    -0.237 OA
ATOM     76  O   UNL     1       5.288  -8.722  13.298  1.00  0.00    -0.744 OA
ENDBRANCH  72  73
ENDBRANCH  51  65
BRANCH  52  77
ATOM     77  C   UNL     1       5.188   4.336   5.901  1.00  0.00     0.058 A 
ATOM     78  C   UNL     1       6.305   4.835   5.214  1.00  0.00     0.135 A 
ATOM     79  C   UNL     1       4.054   5.159   5.986  1.00  0.00     0.135 A 
ATOM     80  F   UNL     1       7.420   4.095   5.117  1.00  0.00    -0.206 F 
ATOM     81  C   UNL     1       6.305   6.106   4.646  1.00  0.00     0.059 A 
ATOM     82  C   UNL     1       4.020   6.422   5.403  1.00  0.00     0.059 A 
ATOM     83  F   UNL     1       2.958   4.730   6.631  1.00  0.00    -0.206 F 
ATOM     84  C   UNL     1       5.155   6.892   4.744  1.00  0.00     0.060 A 
BRANCH  84  85
ATOM     85  S   UNL     1       5.141   8.518   3.959  1.00  0.00     0.124 S 
ATOM     86  O   UNL     1       5.916   9.309   4.907  1.00  0.00    -0.237 OA
ATOM     87  O   UNL     1       5.783   8.247   2.677  1.00  0.00    -0.237 OA
ATOM     88  O   UNL     1       3.718   8.837   3.881  1.00  0.00    -0.744 OA
ENDBRANCH  84  85
ENDBRANCH  52  77
BRANCH  64  89
ATOM     89  C   UNL     1       8.717   1.776  11.342  1.00  0.00     0.058 A 
ATOM     90  C   UNL     1       8.295   2.644  12.360  1.00  0.00     0.135 A 
ATOM     91  C   UNL     1      10.082   1.452  11.279  1.00  0.00     0.135 A 
ATOM     92  F   UNL     1       7.002   2.987  12.463  1.00  0.00    -0.206 F 
ATOM     93  C   UNL     1       9.197   3.190  13.269  1.00  0.00     0.059 A 
ATOM     94  C   UNL     1      10.998   1.968  12.192  1.00  0.00     0.059 A 
ATOM     95  F   UNL     1      10.536   0.615  10.333  1.00  0.00    -0.206 F 
ATOM     96  C   UNL     1      10.547   2.846  13.177  1.00  0.00     0.060 A 
BRANCH  96  97
ATOM     97  S   UNL     1      11.704   3.538  14.378  1.00  0.00     0.124 S 
ATOM     98  O   UNL     1      11.863   4.900  13.882  1.00  0.00    -0.237 OA
ATOM     99  O   UNL     1      10.973   3.402  15.634  1.00  0.00    -0.237 OA
ATOM    100  O   UNL     1      12.879   2.680  14.250  1.00  0.00    -0.744 OA
ENDBRANCH  96  97
ENDBRANCH  64  89
ENDBRANCH  38  39
ENDBRANCH  31  33
ENDBRANCH  30  31
ENDBRANCH  29  30
ENDBRANCH  28  29
ENDBRANCH  27  28
ENDBRANCH  26  27
ENDBRANCH   1  26
TORSDOF 23
