REMARK SMILES COC(=O)c1ccc([C@H]2Nc3c(C(=O)OCCOCCOCCOC(=O)c4ccc(-c5c6nc(c(-c7c(F)cc(S(=O)(=O)[O-])cc7F)c7ccc([nH]7)c(-c7c(F)cc(S(=O)(=O)[O-])cc7F)c7nc(c(-c8c(F)cc(S(=O)(=O)[O-])cc8F)c8ccc5[nH]8)C=C7)C=C6)cc4)cccc3[C@@H]3[C@@H]4CC[C@@H](C4)[C@@H]32)cc1
REMARK SMILES IDX 19 1 18 2 17 3 16 4 15 5 13 6 14 7 12 8 9 9 10 10 103 11
REMARK SMILES IDX 11 12 97 14 101 15 96 16 98 17 100 18 102 19 93 20 95 21
REMARK SMILES IDX 99 22 94 23 8 24 5 25 6 26 105 27 7 28 104 29 3 30 4 31 2 32
REMARK SMILES IDX 1 33 20 34 21 35 22 36 23 37 24 38 25 39 26 40 27 41 28 42
REMARK SMILES IDX 92 43 29 44 91 45 30 46 31 47 32 48 85 49 33 50 90 51 84 52
REMARK SMILES IDX 86 53 34 54 89 55 83 56 82 57 35 59 69 60 48 61 68 62 49 63
REMARK SMILES IDX 52 64 67 65 87 66 50 67 51 68 66 70 88 71 53 72 36 73 37 74
REMARK SMILES IDX 46 75 38 76 39 77 45 78 47 79 40 80 41 81 42 82 43 83 44 84
REMARK SMILES IDX 70 85 71 86 80 87 72 88 73 89 79 90 81 91 74 92 75 93 76 94
REMARK SMILES IDX 77 95 78 96 54 97 55 98 64 99 56 100 57 101 63 102 65 103
REMARK SMILES IDX 58 104 59 105 60 106 61 107 62 108
REMARK H PARENT 10 13 86 58 52 69
REMARK Flexibility Score: inf
ROOT
ATOM      1  C   UNL     1      -6.297  -2.290   6.253  1.00  0.00     0.188 C 
ENDROOT
BRANCH   1   2
ATOM      2  O   UNL     1      -7.602  -2.676   5.850  1.00  0.00    -0.376 OA
BRANCH   2   3
ATOM      3  C   UNL     1      -7.788  -4.005   5.399  1.00  0.00     0.202 C 
BRANCH   3   4
ATOM      4  C   UNL     1      -6.824  -4.547   4.333  1.00  0.00     0.261 C 
BRANCH   4   5
ATOM      5  O   UNL     1      -5.426  -4.459   4.666  1.00  0.00    -0.460 OA
BRANCH   5   6
ATOM      6  C   UNL     1      -4.628  -3.726   3.842  1.00  0.00     0.340 C 
ATOM      7  O   UNL     1      -4.979  -3.185   2.805  1.00  0.00    -0.246 OA
BRANCH   6   8
ATOM      8  C   UNL     1      -3.276  -3.502   4.439  1.00  0.00     0.083 A 
ATOM      9  C   UNL     1      -1.951  -6.607   3.936  1.00  0.00     0.113 C 
ATOM     10  N   UNL     1      -2.879  -5.871   4.802  1.00  0.00    -0.377 N 
ATOM     11  C   UNL     1      -0.778  -6.938   4.886  1.00  0.00     0.027 C 
ATOM     12  C   UNL     1      -2.474  -4.551   4.905  1.00  0.00     0.053 A 
ATOM     13  H   UNL     1      -3.670  -6.257   5.244  1.00  0.00     0.161 HD
ATOM     14  C   UNL     1      -0.366  -5.617   5.722  1.00  0.00     0.030 C 
ATOM     15  C   UNL     1       0.598  -7.371   4.312  1.00  0.00    -0.005 C 
ATOM     16  C   UNL     1      -1.159  -4.355   5.374  1.00  0.00    -0.020 A 
ATOM     17  C   UNL     1       1.173  -5.574   5.536  1.00  0.00    -0.003 C 
ATOM     18  C   UNL     1       1.163  -6.386   3.272  1.00  0.00     0.004 C 
ATOM     19  C   UNL     1       1.523  -7.067   5.506  1.00  0.00     0.008 C 
ATOM     20  C   UNL     1      -2.741  -2.216   4.428  1.00  0.00     0.018 A 
ATOM     21  C   UNL     1      -0.672  -3.050   5.424  1.00  0.00     0.006 A 
ATOM     22  C   UNL     1       1.562  -5.164   4.107  1.00  0.00     0.004 C 
ATOM     23  C   UNL     1      -1.453  -1.993   4.931  1.00  0.00     0.001 A 
BRANCH   9  24
ATOM     24  C   UNL     1      -2.970  -7.449   3.172  1.00  0.00    -0.025 A 
ATOM     25  C   UNL     1      -5.699  -7.975   2.789  1.00  0.00     0.060 A 
ATOM     26  C   UNL     1      -5.121  -6.889   2.140  1.00  0.00     0.016 A 
ATOM     27  C   UNL     1      -4.883  -8.907   3.452  1.00  0.00     0.016 A 
ATOM     28  C   UNL     1      -3.758  -6.662   2.283  1.00  0.00     0.007 A 
ATOM     29  C   UNL     1      -3.509  -8.648   3.646  1.00  0.00     0.007 A 
BRANCH  25  30
ATOM     30  C   UNL     1      -7.182  -7.971   2.879  1.00  0.00     0.337 C 
ATOM     31  O   UNL     1      -7.916  -7.630   1.967  1.00  0.00    -0.246 OA
BRANCH  30  32
ATOM     32  O   UNL     1      -7.548  -8.157   4.176  1.00  0.00    -0.465 OA
ATOM     33  C   UNL     1      -8.860  -7.677   4.511  1.00  0.00     0.282 C 
ENDBRANCH  30  32
ENDBRANCH  25  30
ENDBRANCH   9  24
ENDBRANCH   6   8
ENDBRANCH   5   6
ENDBRANCH   4   5
ENDBRANCH   3   4
ENDBRANCH   2   3
ENDBRANCH   1   2
BRANCH   1  34
ATOM     34  C   UNL     1      -5.479  -3.223   7.178  1.00  0.00     0.188 C 
BRANCH  34  35
ATOM     35  O   UNL     1      -6.206  -4.312   7.727  1.00  0.00    -0.376 OA
BRANCH  35  36
ATOM     36  C   UNL     1      -6.374  -4.261   9.137  1.00  0.00     0.202 C 
BRANCH  36  37
ATOM     37  C   UNL     1      -7.403  -3.219   9.586  1.00  0.00     0.261 C 
BRANCH  37  38
ATOM     38  O   UNL     1      -7.090  -1.855   9.249  1.00  0.00    -0.460 OA
BRANCH  38  39
ATOM     39  C   UNL     1      -5.933  -1.318   9.701  1.00  0.00     0.338 C 
ATOM     40  O   UNL     1      -5.132  -1.834  10.463  1.00  0.00    -0.246 OA
BRANCH  39  41
ATOM     41  C   UNL     1      -5.679  -0.105   8.884  1.00  0.00     0.060 A 
ATOM     42  C   UNL     1      -4.471   0.012   8.173  1.00  0.00     0.016 A 
ATOM     43  C   UNL     1      -6.687   0.847   8.720  1.00  0.00     0.016 A 
ATOM     44  C   UNL     1      -4.267   1.092   7.308  1.00  0.00     0.010 A 
ATOM     45  C   UNL     1      -6.469   1.942   7.883  1.00  0.00     0.010 A 
ATOM     46  C   UNL     1      -5.246   2.088   7.203  1.00  0.00    -0.014 A 
BRANCH  46  47
ATOM     47  C   UNL     1      -4.899   3.431   6.678  1.00  0.00     0.031 A 
ATOM     48  C   UNL     1      -4.442   4.447   7.690  1.00  0.00     0.074 A 
ATOM     49  C   UNL     1      -5.039   3.771   5.385  1.00  0.00     0.049 A 
ATOM     50  N   UNL     1      -4.240   5.729   7.556  1.00  0.00    -0.248 NA
ATOM     51  C   UNL     1      -4.202   3.938   9.053  1.00  0.00     0.031 C 
ATOM     52  C   UNL     1      -5.434   2.872   4.304  1.00  0.00     0.029 A 
ATOM     53  N   UNL     1      -4.887   4.992   4.771  1.00  0.00    -0.354 N 
ATOM     54  C   UNL     1      -3.873   6.183   8.818  1.00  0.00     0.074 A 
ATOM     55  C   UNL     1      -3.906   5.046   9.709  1.00  0.00     0.031 C 
ATOM     56  C   UNL     1      -5.520   3.579   3.161  1.00  0.00     0.029 A 
ATOM     57  C   UNL     1      -5.229   4.986   3.439  1.00  0.00     0.049 A 
ATOM     58  H   UNL     1      -4.564   5.794   5.241  1.00  0.00     0.167 HD
ATOM     59  C   UNL     1      -3.539   7.435   9.202  1.00  0.00     0.037 A 
ATOM     60  C   UNL     1      -5.329   6.008   2.562  1.00  0.00     0.037 A 
ATOM     61  C   UNL     1      -3.526   8.564   8.314  1.00  0.00     0.049 A 
ATOM     62  C   UNL     1      -5.018   7.413   3.024  1.00  0.00     0.074 A 
ATOM     63  C   UNL     1      -3.193   9.876   8.596  1.00  0.00     0.029 A 
ATOM     64  N   UNL     1      -3.878   8.516   6.972  1.00  0.00    -0.354 N 
ATOM     65  N   UNL     1      -4.652   7.831   4.214  1.00  0.00    -0.248 NA
ATOM     66  C   UNL     1      -5.134   8.486   2.025  1.00  0.00     0.031 C 
ATOM     67  C   UNL     1      -3.398  10.633   7.438  1.00  0.00     0.029 A 
ATOM     68  C   UNL     1      -3.791   9.781   6.417  1.00  0.00     0.049 A 
ATOM     69  H   UNL     1      -4.149   7.704   6.487  1.00  0.00     0.167 HD
ATOM     70  C   UNL     1      -4.457   9.206   4.095  1.00  0.00     0.074 A 
ATOM     71  C   UNL     1      -4.746   9.548   2.718  1.00  0.00     0.031 C 
ATOM     72  C   UNL     1      -4.066  10.101   5.037  1.00  0.00     0.037 A 
BRANCH  59  73
ATOM     73  C   UNL     1      -3.207   7.644  10.654  1.00  0.00     0.058 A 
ATOM     74  C   UNL     1      -2.046   7.106  11.235  1.00  0.00     0.135 A 
ATOM     75  C   UNL     1      -4.069   8.383  11.479  1.00  0.00     0.135 A 
ATOM     76  F   UNL     1      -1.200   6.367  10.499  1.00  0.00    -0.206 F 
ATOM     77  C   UNL     1      -1.773   7.263  12.589  1.00  0.00     0.059 A 
ATOM     78  C   UNL     1      -3.798   8.582  12.829  1.00  0.00     0.059 A 
ATOM     79  F   UNL     1      -5.197   8.911  10.978  1.00  0.00    -0.206 F 
ATOM     80  C   UNL     1      -2.656   8.002  13.378  1.00  0.00     0.060 A 
BRANCH  80  81
ATOM     81  S   UNL     1      -2.289   8.188  15.135  1.00  0.00     0.124 S 
ATOM     82  O   UNL     1      -2.561   6.843  15.633  1.00  0.00    -0.237 OA
ATOM     83  O   UNL     1      -0.885   8.586  15.119  1.00  0.00    -0.237 OA
ATOM     84  O   UNL     1      -3.226   9.219  15.571  1.00  0.00    -0.744 OA
ENDBRANCH  80  81
ENDBRANCH  59  73
BRANCH  60  85
ATOM     85  C   UNL     1      -5.752   5.746   1.157  1.00  0.00     0.058 A 
ATOM     86  C   UNL     1      -4.852   5.894   0.091  1.00  0.00     0.135 A 
ATOM     87  C   UNL     1      -7.060   5.338   0.852  1.00  0.00     0.135 A 
ATOM     88  F   UNL     1      -3.596   6.302   0.326  1.00  0.00    -0.206 F 
ATOM     89  C   UNL     1      -5.233   5.652  -1.226  1.00  0.00     0.059 A 
ATOM     90  C   UNL     1      -7.457   5.063  -0.454  1.00  0.00     0.059 A 
ATOM     91  F   UNL     1      -7.962   5.182   1.833  1.00  0.00    -0.206 F 
ATOM     92  C   UNL     1      -6.537   5.227  -1.488  1.00  0.00     0.060 A 
BRANCH  92  93
ATOM     93  S   UNL     1      -6.996   4.852  -3.195  1.00  0.00     0.124 S 
ATOM     94  O   UNL     1      -7.016   6.181  -3.795  1.00  0.00    -0.237 OA
ATOM     95  O   UNL     1      -5.907   3.977  -3.617  1.00  0.00    -0.237 OA
ATOM     96  O   UNL     1      -8.296   4.202  -3.058  1.00  0.00    -0.744 OA
ENDBRANCH  92  93
ENDBRANCH  60  85
BRANCH  72  97
ATOM     97  C   UNL     1      -3.861  11.532   4.612  1.00  0.00     0.058 A 
ATOM     98  C   UNL     1      -4.935  12.383   4.312  1.00  0.00     0.135 A 
ATOM     99  C   UNL     1      -2.567  12.079   4.593  1.00  0.00     0.135 A 
ATOM    100  F   UNL     1      -6.192  11.913   4.314  1.00  0.00    -0.206 F 
ATOM    101  C   UNL     1      -4.731  13.723   3.990  1.00  0.00     0.059 A 
ATOM    102  C   UNL     1      -2.343  13.421   4.305  1.00  0.00     0.059 A 
ATOM    103  F   UNL     1      -1.504  11.313   4.886  1.00  0.00    -0.206 F 
ATOM    104  C   UNL     1      -3.431  14.234   3.995  1.00  0.00     0.060 A 
BRANCH 104 105
ATOM    105  S   UNL     1      -3.186  15.984   3.624  1.00  0.00     0.124 S 
ATOM    106  O   UNL     1      -3.456  16.021   2.191  1.00  0.00    -0.237 OA
ATOM    107  O   UNL     1      -4.183  16.626   4.475  1.00  0.00    -0.237 OA
ATOM    108  O   UNL     1      -1.797  16.222   4.007  1.00  0.00    -0.744 OA
ENDBRANCH 104 105
ENDBRANCH  72  97
ENDBRANCH  46  47
ENDBRANCH  39  41
ENDBRANCH  38  39
ENDBRANCH  37  38
ENDBRANCH  36  37
ENDBRANCH  35  36
ENDBRANCH  34  35
ENDBRANCH   1  34
TORSDOF 23
