REMARK SMILES Cc1ccccc1NC(=O)CSc1nc(C(=O)OCCOCCOCCOC(=O)c2ccc(-c3c4nc(c(-c5c(F)cc(S(=O)(=O)[O-])cc5F)c5ccc([nH]5)c(-c5c(F)cc(S(=O)(=O)[O-])cc5F)c5nc(c(-c6c(F)cc(S(=O)(=O)[O-])cc6F)c6ccc3[nH]6)C=C5)C=C4)cc2)c2ccccc2n1
REMARK SMILES IDX 22 1 21 2 20 3 19 4 18 5 16 6 17 7 15 8 13 9 14 10 102 11
REMARK SMILES IDX 101 12 96 13 100 14 97 15 99 16 98 17 12 18 11 19 9 20 8 21
REMARK SMILES IDX 10 23 7 24 1 25 2 26 3 27 4 28 6 29 5 30 23 31 24 32 25 33
REMARK SMILES IDX 26 34 27 35 28 36 29 37 30 38 31 39 95 40 32 41 94 42 33 43
REMARK SMILES IDX 34 44 35 45 88 46 36 47 93 48 87 49 89 50 37 51 92 52 86 53
REMARK SMILES IDX 85 54 38 56 72 57 51 58 71 59 52 60 55 61 70 62 90 63 53 64
REMARK SMILES IDX 54 65 69 67 91 68 56 69 39 70 40 71 49 72 41 73 42 74 48 75
REMARK SMILES IDX 50 76 43 77 44 78 45 79 46 80 47 81 73 82 74 83 83 84 75 85
REMARK SMILES IDX 76 86 82 87 84 88 77 89 78 90 79 91 80 92 81 93 57 94 58 95
REMARK SMILES IDX 67 96 59 97 60 98 66 99 68 100 61 101 62 102 63 103 64 104
REMARK SMILES IDX 65 105
REMARK H PARENT 8 22 89 55 55 66
REMARK Flexibility Score: inf
ROOT
ATOM      1  C   UNL     1      -4.086   8.237  -7.512  1.00  0.00     0.188 C 
ENDROOT
BRANCH   1   2
ATOM      2  O   UNL     1      -3.207   9.228  -8.036  1.00  0.00    -0.376 OA
BRANCH   2   3
ATOM      3  C   UNL     1      -1.891   9.055  -7.432  1.00  0.00     0.202 C 
BRANCH   3   4
ATOM      4  C   UNL     1      -1.110   7.836  -8.102  1.00  0.00     0.261 C 
BRANCH   4   5
ATOM      5  O   UNL     1      -0.860   6.439  -7.340  1.00  0.00    -0.458 OA
BRANCH   5   6
ATOM      6  C   UNL     1      -0.106   5.815  -6.336  1.00  0.00     0.357 C 
ATOM      7  O   UNL     1       1.003   6.070  -5.894  1.00  0.00    -0.244 OA
BRANCH   6   8
ATOM      8  C   UNL     1      -0.566   4.492  -5.860  1.00  0.00     0.160 A 
ATOM      9  C   UNL     1      -0.821   3.045  -4.094  1.00  0.00     0.189 A 
ATOM     10  N   UNL     1      -0.841   4.312  -4.520  1.00  0.00    -0.215 NA
ATOM     11  N   UNL     1      -0.537   2.001  -4.901  1.00  0.00    -0.222 NA
ATOM     12  C   UNL     1      -0.232   2.232  -6.189  1.00  0.00     0.076 A 
ATOM     13  C   UNL     1      -0.233   3.496  -6.748  1.00  0.00     0.034 A 
ATOM     14  C   UNL     1       0.135   1.191  -7.026  1.00  0.00     0.029 A 
ATOM     15  C   UNL     1       0.176   3.729  -8.086  1.00  0.00     0.013 A 
ATOM     16  C   UNL     1       0.516   1.403  -8.362  1.00  0.00     0.002 A 
ATOM     17  C   UNL     1       0.548   2.681  -8.892  1.00  0.00     0.001 A 
BRANCH   9  18
ATOM     18  S   UNL     1      -1.494   2.525  -2.523  1.00  0.00    -0.076 SA
BRANCH  18  19
ATOM     19  C   UNL     1      -0.999   3.737  -1.261  1.00  0.00     0.178 C 
BRANCH  19  20
ATOM     20  C   UNL     1       0.332   3.494  -0.562  1.00  0.00     0.234 C 
ATOM     21  N   UNL     1       0.768   2.308  -0.046  1.00  0.00    -0.325 N 
ATOM     22  H   UNL     1       1.690   2.356   0.296  1.00  0.00     0.169 HD
ATOM     23  O   UNL     1       1.096   4.453  -0.383  1.00  0.00    -0.274 OA
BRANCH  21  24
ATOM     24  C   UNL     1       0.195   1.035   0.105  1.00  0.00     0.044 A 
ATOM     25  C   UNL     1       2.521  -0.069  -0.131  1.00  0.00     0.046 C 
ATOM     26  C   UNL     1       1.024  -0.107   0.044  1.00  0.00    -0.027 A 
ATOM     27  C   UNL     1       0.433  -1.386   0.097  1.00  0.00     0.005 A 
ATOM     28  C   UNL     1      -0.940  -1.536   0.263  1.00  0.00     0.000 A 
ATOM     29  C   UNL     1      -1.171   0.867   0.351  1.00  0.00     0.026 A 
ATOM     30  C   UNL     1      -1.738  -0.409   0.421  1.00  0.00     0.002 A 
ENDBRANCH  21  24
ENDBRANCH  19  20
ENDBRANCH  18  19
ENDBRANCH   9  18
ENDBRANCH   6   8
ENDBRANCH   5   6
ENDBRANCH   4   5
ENDBRANCH   3   4
ENDBRANCH   2   3
ENDBRANCH   1   2
BRANCH   1  31
ATOM     31  C   UNL     1      -5.332   7.894  -8.307  1.00  0.00     0.188 C 
BRANCH  31  32
ATOM     32  O   UNL     1      -6.545   8.564  -8.013  1.00  0.00    -0.376 OA
BRANCH  32  33
ATOM     33  C   UNL     1      -6.754   9.041  -6.688  1.00  0.00     0.202 C 
BRANCH  33  34
ATOM     34  C   UNL     1      -6.834   8.072  -5.467  1.00  0.00     0.261 C 
BRANCH  34  35
ATOM     35  O   UNL     1      -6.469   6.698  -5.701  1.00  0.00    -0.460 OA
BRANCH  35  36
ATOM     36  C   UNL     1      -6.105   5.944  -4.591  1.00  0.00     0.338 C 
ATOM     37  O   UNL     1      -6.661   4.897  -4.289  1.00  0.00    -0.246 OA
BRANCH  36  38
ATOM     38  C   UNL     1      -4.665   6.187  -4.269  1.00  0.00     0.060 A 
ATOM     39  C   UNL     1      -4.056   6.588  -3.087  1.00  0.00     0.016 A 
ATOM     40  C   UNL     1      -3.826   6.040  -5.322  1.00  0.00     0.016 A 
ATOM     41  C   UNL     1      -2.693   7.101  -3.061  1.00  0.00     0.010 A 
ATOM     42  C   UNL     1      -2.597   6.719  -5.278  1.00  0.00     0.010 A 
ATOM     43  C   UNL     1      -1.931   7.324  -4.219  1.00  0.00    -0.014 A 
BRANCH  43  44
ATOM     44  C   UNL     1      -0.773   8.414  -4.359  1.00  0.00     0.031 A 
ATOM     45  C   UNL     1       0.729   8.450  -4.907  1.00  0.00     0.074 A 
ATOM     46  C   UNL     1      -1.145   9.619  -3.868  1.00  0.00     0.049 A 
ATOM     47  N   UNL     1       1.839   8.613  -4.217  1.00  0.00    -0.248 NA
ATOM     48  C   UNL     1       1.107   8.446  -6.337  1.00  0.00     0.031 C 
ATOM     49  C   UNL     1      -0.336  10.819  -3.720  1.00  0.00     0.029 A 
ATOM     50  N   UNL     1      -2.306   9.892  -3.143  1.00  0.00    -0.354 N 
ATOM     51  C   UNL     1       2.931   8.693  -5.123  1.00  0.00     0.074 A 
ATOM     52  C   UNL     1       2.428   8.356  -6.385  1.00  0.00     0.031 C 
ATOM     53  C   UNL     1      -0.842  11.521  -2.691  1.00  0.00     0.029 A 
ATOM     54  C   UNL     1      -1.967  10.788  -2.126  1.00  0.00     0.049 A 
ATOM     55  H   UNL     1      -3.201   9.521  -3.317  1.00  0.00     0.167 HD
ATOM     56  C   UNL     1       4.149   9.291  -4.961  1.00  0.00     0.037 A 
ATOM     57  C   UNL     1      -2.081  10.354  -0.836  1.00  0.00     0.037 A 
ATOM     58  C   UNL     1       4.064  10.098  -3.776  1.00  0.00     0.049 A 
ATOM     59  C   UNL     1      -0.723  10.015  -0.219  1.00  0.00     0.074 A 
ATOM     60  C   UNL     1       3.629  11.401  -3.598  1.00  0.00     0.029 A 
ATOM     61  N   UNL     1       3.868   9.444  -2.576  1.00  0.00    -0.354 N 
ATOM     62  N   UNL     1       0.431  10.168  -0.827  1.00  0.00    -0.248 NA
ATOM     63  C   UNL     1      -0.547   9.503   1.138  1.00  0.00     0.031 C 
ATOM     64  C   UNL     1       2.984  11.460  -2.329  1.00  0.00     0.029 A 
ATOM     65  C   UNL     1       3.123  10.229  -1.710  1.00  0.00     0.049 A 
ATOM     66  H   UNL     1       4.210   8.545  -2.365  1.00  0.00     0.167 HD
ATOM     67  C   UNL     1       1.459   9.729  -0.022  1.00  0.00     0.074 A 
ATOM     68  C   UNL     1       0.791   9.378   1.218  1.00  0.00     0.031 C 
ATOM     69  C   UNL     1       2.772   9.666  -0.412  1.00  0.00     0.037 A 
BRANCH  56  70
ATOM     70  C   UNL     1       5.127   9.428  -6.151  1.00  0.00     0.058 A 
ATOM     71  C   UNL     1       5.722  10.649  -6.516  1.00  0.00     0.135 A 
ATOM     72  C   UNL     1       5.410   8.358  -7.046  1.00  0.00     0.135 A 
ATOM     73  F   UNL     1       5.626  11.722  -5.718  1.00  0.00    -0.206 F 
ATOM     74  C   UNL     1       6.414  10.832  -7.730  1.00  0.00     0.059 A 
ATOM     75  C   UNL     1       6.039   8.530  -8.294  1.00  0.00     0.059 A 
ATOM     76  F   UNL     1       5.016   7.107  -6.752  1.00  0.00    -0.206 F 
ATOM     77  C   UNL     1       6.532   9.781  -8.636  1.00  0.00     0.060 A 
BRANCH  77  78
ATOM     78  S   UNL     1       7.275  10.071 -10.267  1.00  0.00     0.124 S 
ATOM     79  O   UNL     1       6.770  11.395 -10.622  1.00  0.00    -0.237 OA
ATOM     80  O   UNL     1       8.701   9.997  -9.970  1.00  0.00    -0.237 OA
ATOM     81  O   UNL     1       6.745   8.979 -11.081  1.00  0.00    -0.744 OA
ENDBRANCH  77  78
ENDBRANCH  56  70
BRANCH  57  82
ATOM     82  C   UNL     1      -3.479   9.868  -0.523  1.00  0.00     0.058 A 
ATOM     83  C   UNL     1      -4.529  10.755  -0.880  1.00  0.00     0.135 A 
ATOM     84  C   UNL     1      -3.887   8.570  -0.185  1.00  0.00     0.135 A 
ATOM     85  F   UNL     1      -4.253  12.045  -1.136  1.00  0.00    -0.206 F 
ATOM     86  C   UNL     1      -5.841  10.345  -1.104  1.00  0.00     0.059 A 
ATOM     87  C   UNL     1      -5.225   8.144  -0.354  1.00  0.00     0.059 A 
ATOM     88  F   UNL     1      -2.986   7.647   0.184  1.00  0.00    -0.206 F 
ATOM     89  C   UNL     1      -6.172   9.018  -0.898  1.00  0.00     0.060 A 
BRANCH  89  90
ATOM     90  S   UNL     1      -7.723   8.397  -1.613  1.00  0.00     0.124 S 
ATOM     91  O   UNL     1      -8.638   8.472  -0.483  1.00  0.00    -0.237 OA
ATOM     92  O   UNL     1      -7.974   9.338  -2.704  1.00  0.00    -0.237 OA
ATOM     93  O   UNL     1      -7.341   7.062  -2.053  1.00  0.00    -0.744 OA
ENDBRANCH  89  90
ENDBRANCH  57  82
BRANCH  69  94
ATOM     94  C   UNL     1       3.926   9.061   0.378  1.00  0.00     0.058 A 
ATOM     95  C   UNL     1       3.817   7.955   1.232  1.00  0.00     0.135 A 
ATOM     96  C   UNL     1       5.255   9.501   0.120  1.00  0.00     0.135 A 
ATOM     97  F   UNL     1       2.630   7.389   1.491  1.00  0.00    -0.206 F 
ATOM     98  C   UNL     1       4.934   7.360   1.829  1.00  0.00     0.059 A 
ATOM     99  C   UNL     1       6.382   8.868   0.630  1.00  0.00     0.059 A 
ATOM    100  F   UNL     1       5.503  10.561  -0.667  1.00  0.00    -0.206 F 
ATOM    101  C   UNL     1       6.212   7.818   1.516  1.00  0.00     0.060 A 
BRANCH 101 102
ATOM    102  S   UNL     1       7.671   7.062   2.251  1.00  0.00     0.124 S 
ATOM    103  O   UNL     1       8.006   8.027   3.290  1.00  0.00    -0.237 OA
ATOM    104  O   UNL     1       7.184   5.772   2.719  1.00  0.00    -0.237 OA
ATOM    105  O   UNL     1       8.606   6.999   1.122  1.00  0.00    -0.744 OA
ENDBRANCH 101 102
ENDBRANCH  69  94
ENDBRANCH  43  44
ENDBRANCH  36  38
ENDBRANCH  35  36
ENDBRANCH  34  35
ENDBRANCH  33  34
ENDBRANCH  32  33
ENDBRANCH  31  32
ENDBRANCH   1  31
TORSDOF 24
