REMARK SMILES Cc1ccc(CNC(=O)c2csc(/C=C/C(=O)OCCOCCOCCOC(=O)c3ccc(-c4c5nc(c(-c6c(F)cc(S(=O)(=O)[O-])cc6F)c6ccc([nH]6)c(-c6c(F)cc(S(=O)(=O)[O-])cc6F)c6nc(c(-c7c(F)cc(S(=O)(=O)[O-])cc7F)c7ccc4[nH]7)C=C6)C=C5)cc3)c2)s1
REMARK SMILES IDX 22 1 21 2 20 3 19 4 18 5 16 6 17 7 15 8 14 9 13 10 10 11
REMARK SMILES IDX 11 12 96 13 12 14 8 15 7 16 9 18 6 19 5 20 1 21 2 22 3 23
REMARK SMILES IDX 97 24 4 25 23 26 24 27 25 28 26 29 27 30 28 31 29 32 30 33
REMARK SMILES IDX 31 34 95 35 32 36 94 37 33 38 34 39 35 40 88 41 36 42 93 43
REMARK SMILES IDX 87 44 89 45 37 46 92 47 86 48 85 49 38 51 72 52 51 53 71 54
REMARK SMILES IDX 52 55 55 56 70 57 90 58 53 59 54 60 69 62 91 63 56 64 39 65
REMARK SMILES IDX 40 66 49 67 41 68 42 69 48 70 50 71 43 72 44 73 45 74 46 75
REMARK SMILES IDX 47 76 73 77 74 78 83 79 75 80 76 81 82 82 84 83 77 84 78 85
REMARK SMILES IDX 79 86 80 87 81 88 57 89 58 90 67 91 59 92 60 93 66 94 68 95
REMARK SMILES IDX 61 96 62 97 63 98 64 99 65 100
REMARK H PARENT 7 17 89 50 55 61
REMARK Flexibility Score: inf
ROOT
ATOM      1  C   UNL     1      -7.153   5.366  -6.696  1.00  0.00     0.188 C 
ENDROOT
BRANCH   1   2
ATOM      2  O   UNL     1      -7.570   4.866  -7.955  1.00  0.00    -0.376 OA
BRANCH   2   3
ATOM      3  C   UNL     1      -7.500   3.478  -8.239  1.00  0.00     0.202 C 
BRANCH   3   4
ATOM      4  C   UNL     1      -6.354   2.577  -7.747  1.00  0.00     0.261 C 
BRANCH   4   5
ATOM      5  O   UNL     1      -5.883   2.825  -6.417  1.00  0.00    -0.460 OA
BRANCH   5   6
ATOM      6  C   UNL     1      -4.600   3.254  -6.329  1.00  0.00     0.330 C 
ATOM      7  O   UNL     1      -3.813   3.377  -7.254  1.00  0.00    -0.247 OA
BRANCH   6   8
ATOM      8  C   UNL     1      -4.250   3.693  -4.963  1.00  0.00     0.095 C 
ATOM      9  C   UNL     1      -4.856   3.271  -3.842  1.00  0.00     0.026 C 
BRANCH   9  10
ATOM     10  C   UNL     1      -4.442   3.696  -2.543  1.00  0.00     0.028 A 
ATOM     11  C   UNL     1      -3.816   3.555  -0.272  1.00  0.00     0.051 A 
ATOM     12  C   UNL     1      -3.381   4.823  -0.605  1.00  0.00     0.079 A 
ATOM     13  C   UNL     1      -4.577   2.997  -1.356  1.00  0.00     0.033 A 
ATOM     14  S   UNL     1      -3.709   5.223  -2.230  1.00  0.00    -0.144 S 
BRANCH  11  15
ATOM     15  C   UNL     1      -3.519   2.950   1.022  1.00  0.00     0.252 C 
ATOM     16  N   UNL     1      -3.159   1.626   1.068  1.00  0.00    -0.347 N 
ATOM     17  H   UNL     1      -3.063   1.242   1.969  1.00  0.00     0.164 HD
ATOM     18  O   UNL     1      -3.537   3.597   2.067  1.00  0.00    -0.269 OA
BRANCH  16  19
ATOM     19  C   UNL     1      -2.902   0.716  -0.028  1.00  0.00     0.163 C 
BRANCH  19  20
ATOM     20  C   UNL     1      -1.561   0.074   0.110  1.00  0.00     0.024 A 
ATOM     21  C   UNL     1       2.351  -0.182   0.049  1.00  0.00     0.056 C 
ATOM     22  C   UNL     1       0.872  -0.352   0.100  1.00  0.00     0.002 A 
ATOM     23  C   UNL     1       0.139  -1.518   0.147  1.00  0.00     0.015 A 
ATOM     24  S   UNL     1      -0.137   1.027   0.084  1.00  0.00    -0.144 S 
ATOM     25  C   UNL     1      -1.264  -1.273   0.159  1.00  0.00     0.017 A 
ENDBRANCH  19  20
ENDBRANCH  16  19
ENDBRANCH  11  15
ENDBRANCH   9  10
ENDBRANCH   6   8
ENDBRANCH   5   6
ENDBRANCH   4   5
ENDBRANCH   3   4
ENDBRANCH   2   3
ENDBRANCH   1   2
BRANCH   1  26
ATOM     26  C   UNL     1      -7.805   4.827  -5.408  1.00  0.00     0.188 C 
BRANCH  26  27
ATOM     27  O   UNL     1      -8.604   3.676  -5.546  1.00  0.00    -0.376 OA
BRANCH  27  28
ATOM     28  C   UNL     1      -9.978   3.801  -5.876  1.00  0.00     0.202 C 
BRANCH  28  29
ATOM     29  C   UNL     1     -10.719   5.097  -6.272  1.00  0.00     0.261 C 
BRANCH  29  30
ATOM     30  O   UNL     1      -9.979   6.314  -6.371  1.00  0.00    -0.460 OA
BRANCH  30  31
ATOM     31  C   UNL     1     -10.085   7.160  -5.320  1.00  0.00     0.338 C 
ATOM     32  O   UNL     1     -10.698   6.967  -4.277  1.00  0.00    -0.246 OA
BRANCH  31  33
ATOM     33  C   UNL     1      -9.191   8.307  -5.548  1.00  0.00     0.060 A 
ATOM     34  C   UNL     1      -8.049   8.445  -4.747  1.00  0.00     0.016 A 
ATOM     35  C   UNL     1      -9.491   9.253  -6.529  1.00  0.00     0.016 A 
ATOM     36  C   UNL     1      -7.208   9.545  -4.918  1.00  0.00     0.010 A 
ATOM     37  C   UNL     1      -8.658  10.364  -6.684  1.00  0.00     0.010 A 
ATOM     38  C   UNL     1      -7.527  10.529  -5.863  1.00  0.00    -0.014 A 
BRANCH  38  39
ATOM     39  C   UNL     1      -6.777  11.808  -5.883  1.00  0.00     0.031 A 
ATOM     40  C   UNL     1      -7.375  13.005  -5.196  1.00  0.00     0.074 A 
ATOM     41  C   UNL     1      -5.582  11.905  -6.493  1.00  0.00     0.049 A 
ATOM     42  N   UNL     1      -6.937  14.235  -5.137  1.00  0.00    -0.248 NA
ATOM     43  C   UNL     1      -8.643  12.781  -4.483  1.00  0.00     0.031 C 
ATOM     44  C   UNL     1      -4.879  10.807  -7.154  1.00  0.00     0.029 A 
ATOM     45  N   UNL     1      -4.753  12.986  -6.662  1.00  0.00    -0.354 N 
ATOM     46  C   UNL     1      -7.876  14.934  -4.387  1.00  0.00     0.074 A 
ATOM     47  C   UNL     1      -8.925  13.998  -4.044  1.00  0.00     0.031 C 
ATOM     48  C   UNL     1      -3.727  11.274  -7.668  1.00  0.00     0.029 A 
ATOM     49  C   UNL     1      -3.630  12.709  -7.404  1.00  0.00     0.049 A 
ATOM     50  H   UNL     1      -4.945  13.876  -6.287  1.00  0.00     0.167 HD
ATOM     51  C   UNL     1      -7.861  16.236  -4.012  1.00  0.00     0.037 A 
ATOM     52  C   UNL     1      -2.650  13.526  -7.840  1.00  0.00     0.037 A 
ATOM     53  C   UNL     1      -6.818  17.163  -4.367  1.00  0.00     0.049 A 
ATOM     54  C   UNL     1      -2.696  14.991  -7.484  1.00  0.00     0.074 A 
ATOM     55  C   UNL     1      -6.704  18.500  -4.029  1.00  0.00     0.029 A 
ATOM     56  N   UNL     1      -5.715  16.855  -5.151  1.00  0.00    -0.354 N 
ATOM     57  N   UNL     1      -3.579  15.639  -6.759  1.00  0.00    -0.248 NA
ATOM     58  C   UNL     1      -1.613  15.838  -8.004  1.00  0.00     0.031 C 
ATOM     59  C   UNL     1      -5.563  19.014  -4.656  1.00  0.00     0.029 A 
ATOM     60  C   UNL     1      -4.930  17.983  -5.332  1.00  0.00     0.049 A 
ATOM     61  H   UNL     1      -5.518  15.965  -5.523  1.00  0.00     0.167 HD
ATOM     62  C   UNL     1      -3.140  16.959  -6.711  1.00  0.00     0.074 A 
ATOM     63  C   UNL     1      -1.909  17.015  -7.472  1.00  0.00     0.031 C 
ATOM     64  C   UNL     1      -3.703  18.026  -6.089  1.00  0.00     0.037 A 
BRANCH  51  65
ATOM     65  C   UNL     1      -9.026  16.737  -3.203  1.00  0.00     0.058 A 
ATOM     66  C   UNL     1      -9.238  16.329  -1.876  1.00  0.00     0.135 A 
ATOM     67  C   UNL     1      -9.939  17.648  -3.759  1.00  0.00     0.135 A 
ATOM     68  F   UNL     1      -8.408  15.446  -1.298  1.00  0.00    -0.206 F 
ATOM     69  C   UNL     1     -10.332  16.778  -1.142  1.00  0.00     0.059 A 
ATOM     70  C   UNL     1     -11.023  18.134  -3.034  1.00  0.00     0.059 A 
ATOM     71  F   UNL     1      -9.787  18.071  -5.024  1.00  0.00    -0.206 F 
ATOM     72  C   UNL     1     -11.221  17.679  -1.731  1.00  0.00     0.060 A 
BRANCH  72  73
ATOM     73  S   UNL     1     -12.642  18.241  -0.771  1.00  0.00     0.124 S 
ATOM     74  O   UNL     1     -13.470  17.040  -0.745  1.00  0.00    -0.237 OA
ATOM     75  O   UNL     1     -12.030  18.617   0.500  1.00  0.00    -0.237 OA
ATOM     76  O   UNL     1     -13.171  19.349  -1.561  1.00  0.00    -0.744 OA
ENDBRANCH  72  73
ENDBRANCH  51  65
BRANCH  52  77
ATOM     77  C   UNL     1      -1.540  12.981  -8.668  1.00  0.00     0.058 A 
ATOM     78  C   UNL     1      -0.231  12.909  -8.168  1.00  0.00     0.135 A 
ATOM     79  C   UNL     1      -1.764  12.518  -9.975  1.00  0.00     0.135 A 
ATOM     80  F   UNL     1       0.039  13.354  -6.931  1.00  0.00    -0.206 F 
ATOM     81  C   UNL     1       0.817  12.408  -8.934  1.00  0.00     0.059 A 
ATOM     82  C   UNL     1      -0.739  11.986 -10.750  1.00  0.00     0.059 A 
ATOM     83  F   UNL     1      -2.999  12.559 -10.501  1.00  0.00    -0.206 F 
ATOM     84  C   UNL     1       0.551  11.942 -10.223  1.00  0.00     0.060 A 
BRANCH  84  85
ATOM     85  S   UNL     1       1.909  11.242 -11.186  1.00  0.00     0.124 S 
ATOM     86  O   UNL     1       2.696  12.430 -11.494  1.00  0.00    -0.237 OA
ATOM     87  O   UNL     1       2.507  10.309 -10.236  1.00  0.00    -0.237 OA
ATOM     88  O   UNL     1       1.233  10.622 -12.321  1.00  0.00    -0.744 OA
ENDBRANCH  84  85
ENDBRANCH  52  77
BRANCH  64  89
ATOM     89  C   UNL     1      -2.977  19.344  -6.169  1.00  0.00     0.058 A 
ATOM     90  C   UNL     1      -2.914  20.087  -7.358  1.00  0.00     0.135 A 
ATOM     91  C   UNL     1      -2.384  19.898  -5.021  1.00  0.00     0.135 A 
ATOM     92  F   UNL     1      -3.458  19.604  -8.486  1.00  0.00    -0.206 F 
ATOM     93  C   UNL     1      -2.269  21.319  -7.413  1.00  0.00     0.059 A 
ATOM     94  C   UNL     1      -1.761  21.142  -5.046  1.00  0.00     0.059 A 
ATOM     95  F   UNL     1      -2.424  19.238  -3.853  1.00  0.00    -0.206 F 
ATOM     96  C   UNL     1      -1.698  21.841  -6.251  1.00  0.00     0.060 A 
BRANCH  96  97
ATOM     97  S   UNL     1      -0.895  23.456  -6.329  1.00  0.00     0.124 S 
ATOM     98  O   UNL     1       0.321  23.145  -7.073  1.00  0.00    -0.237 OA
ATOM     99  O   UNL     1      -1.884  24.262  -7.039  1.00  0.00    -0.237 OA
ATOM    100  O   UNL     1      -0.699  23.808  -4.926  1.00  0.00    -0.744 OA
ENDBRANCH  96  97
ENDBRANCH  64  89
ENDBRANCH  38  39
ENDBRANCH  31  33
ENDBRANCH  30  31
ENDBRANCH  29  30
ENDBRANCH  28  29
ENDBRANCH  27  28
ENDBRANCH  26  27
ENDBRANCH   1  26
TORSDOF 24
