REMARK SMILES CC(C)NC(=O)c1cccc(NC(=O)[C@@H]2[C@H](C(=O)OCCOCCOCCOC(=O)c3ccc(-c4c5nc(c(-c6c(F)cc(S(=O)(=O)[O-])cc6F)c6ccc([nH]6)c(-c6c(F)cc(S(=O)(=O)[O-])cc6F)c6nc(c(-c7c(F)cc(S(=O)(=O)[O-])cc7F)c7ccc4[nH]7)C=C6)C=C5)cc3)C2(C)C)c1
REMARK SMILES IDX 23 1 22 2 21 3 20 4 19 5 17 6 18 7 16 8 15 9 97 10 98 11
REMARK SMILES IDX 99 12 13 13 12 14 14 16 11 17 7 18 8 19 100 20 9 21 10 22
REMARK SMILES IDX 5 23 4 24 6 26 2 27 1 28 3 29 24 30 25 31 26 32 27 33 28 34
REMARK SMILES IDX 29 35 30 36 31 37 32 38 96 39 33 40 95 41 34 42 35 43 36 44
REMARK SMILES IDX 89 45 37 46 94 47 88 48 90 49 38 50 93 51 87 52 86 53 39 55
REMARK SMILES IDX 73 56 52 57 72 58 53 59 56 60 71 61 91 62 54 63 55 64 70 66
REMARK SMILES IDX 92 67 57 68 40 69 41 70 50 71 42 72 43 73 49 74 51 75 44 76
REMARK SMILES IDX 45 77 46 78 47 79 48 80 74 81 75 82 84 83 76 84 77 85 83 86
REMARK SMILES IDX 85 87 78 88 79 89 80 90 81 91 82 92 58 93 59 94 68 95 60 96
REMARK SMILES IDX 61 97 67 98 69 99 62 100 63 101 64 102 65 103 66 104
REMARK H PARENT 12 15 4 25 90 54 56 65
REMARK Flexibility Score: inf
ROOT
ATOM      1  C   UNL     1       0.499   6.906   2.356  1.00  0.00     0.188 C 
ENDROOT
BRANCH   1   2
ATOM      2  O   UNL     1      -0.792   7.444   2.494  1.00  0.00    -0.376 OA
BRANCH   2   3
ATOM      3  C   UNL     1      -1.181   8.543   1.710  1.00  0.00     0.202 C 
BRANCH   3   4
ATOM      4  C   UNL     1      -0.850   8.713   0.216  1.00  0.00     0.261 C 
BRANCH   4   5
ATOM      5  O   UNL     1       0.075   7.854  -0.456  1.00  0.00    -0.463 OA
BRANCH   5   6
ATOM      6  C   UNL     1       1.389   8.180  -0.399  1.00  0.00     0.310 C 
ATOM      7  O   UNL     1       1.901   8.939   0.421  1.00  0.00    -0.252 OA
BRANCH   6   8
ATOM      8  C   UNL     1       2.195   7.412  -1.363  1.00  0.00     0.118 C 
ATOM      9  C   UNL     1       2.172   7.610  -2.853  1.00  0.00     0.100 C 
ATOM     10  C   UNL     1       3.464   7.886  -2.095  1.00  0.00    -0.009 C 
ATOM     11  C   UNL     1       4.566   6.831  -2.076  1.00  0.00     0.013 C 
ATOM     12  C   UNL     1       4.093   9.253  -2.136  1.00  0.00     0.013 C 
BRANCH   9  13
ATOM     13  C   UNL     1       1.071   8.360  -3.539  1.00  0.00     0.228 C 
ATOM     14  N   UNL     1       0.538   9.626  -3.420  1.00  0.00    -0.326 N 
ATOM     15  H   UNL     1      -0.146   9.764  -4.114  1.00  0.00     0.169 HD
ATOM     16  O   UNL     1       0.470   7.689  -4.393  1.00  0.00    -0.274 OA
BRANCH  14  17
ATOM     17  C   UNL     1       0.651  10.783  -2.633  1.00  0.00     0.041 A 
ATOM     18  C   UNL     1      -0.208  12.959  -1.976  1.00  0.00     0.041 A 
ATOM     19  C   UNL     1       0.691  13.041  -0.913  1.00  0.00     0.014 A 
ATOM     20  C   UNL     1      -0.221  11.853  -2.852  1.00  0.00     0.040 A 
ATOM     21  C   UNL     1       1.575  12.009  -0.722  1.00  0.00     0.003 A 
ATOM     22  C   UNL     1       1.535  10.922  -1.590  1.00  0.00     0.026 A 
BRANCH  18  23
ATOM     23  C   UNL     1      -1.163  14.071  -2.076  1.00  0.00     0.251 C 
ATOM     24  N   UNL     1      -2.491  13.835  -1.852  1.00  0.00    -0.350 N 
ATOM     25  H   UNL     1      -3.055  14.639  -1.786  1.00  0.00     0.164 HD
ATOM     26  O   UNL     1      -0.754  15.212  -2.261  1.00  0.00    -0.269 OA
BRANCH  24  27
ATOM     27  C   UNL     1      -3.194  12.569  -1.695  1.00  0.00     0.076 C 
ATOM     28  C   UNL     1      -4.083  12.598  -0.458  1.00  0.00     0.030 C 
ATOM     29  C   UNL     1      -4.001  12.311  -2.962  1.00  0.00     0.030 C 
ENDBRANCH  24  27
ENDBRANCH  18  23
ENDBRANCH  14  17
ENDBRANCH   9  13
ENDBRANCH   6   8
ENDBRANCH   5   6
ENDBRANCH   4   5
ENDBRANCH   3   4
ENDBRANCH   2   3
ENDBRANCH   1   2
BRANCH   1  30
ATOM     30  C   UNL     1       0.504   5.633   1.488  1.00  0.00     0.188 C 
BRANCH  30  31
ATOM     31  O   UNL     1      -0.721   4.975   1.199  1.00  0.00    -0.376 OA
BRANCH  31  32
ATOM     32  C   UNL     1      -1.670   4.827   2.244  1.00  0.00     0.202 C 
BRANCH  32  33
ATOM     33  C   UNL     1      -1.238   4.200   3.585  1.00  0.00     0.261 C 
BRANCH  33  34
ATOM     34  O   UNL     1      -0.010   4.687   4.162  1.00  0.00    -0.460 OA
BRANCH  34  35
ATOM     35  C   UNL     1       1.065   3.857   4.083  1.00  0.00     0.338 C 
ATOM     36  O   UNL     1       1.074   2.725   3.629  1.00  0.00    -0.246 OA
BRANCH  35  37
ATOM     37  C   UNL     1       2.314   4.588   4.428  1.00  0.00     0.060 A 
ATOM     38  C   UNL     1       3.313   4.715   3.447  1.00  0.00     0.016 A 
ATOM     39  C   UNL     1       2.534   5.099   5.707  1.00  0.00     0.016 A 
ATOM     40  C   UNL     1       4.532   5.330   3.744  1.00  0.00     0.010 A 
ATOM     41  C   UNL     1       3.774   5.682   6.014  1.00  0.00     0.010 A 
ATOM     42  C   UNL     1       4.792   5.773   5.044  1.00  0.00    -0.014 A 
BRANCH  42  43
ATOM     43  C   UNL     1       6.181   6.143   5.434  1.00  0.00     0.031 A 
ATOM     44  C   UNL     1       7.022   5.119   6.154  1.00  0.00     0.074 A 
ATOM     45  C   UNL     1       6.704   7.348   5.144  1.00  0.00     0.049 A 
ATOM     46  N   UNL     1       8.227   5.231   6.650  1.00  0.00    -0.248 NA
ATOM     47  C   UNL     1       6.415   3.792   6.343  1.00  0.00     0.031 C 
ATOM     48  C   UNL     1       6.021   8.413   4.412  1.00  0.00     0.029 A 
ATOM     49  N   UNL     1       7.933   7.885   5.449  1.00  0.00    -0.354 N 
ATOM     50  C   UNL     1       8.516   3.998   7.226  1.00  0.00     0.074 A 
ATOM     51  C   UNL     1       7.351   3.162   7.037  1.00  0.00     0.031 C 
ATOM     52  C   UNL     1       6.831   9.486   4.348  1.00  0.00     0.029 A 
ATOM     53  C   UNL     1       8.075   9.197   5.062  1.00  0.00     0.049 A 
ATOM     54  H   UNL     1       8.644   7.377   5.903  1.00  0.00     0.167 HD
ATOM     55  C   UNL     1       9.649   3.597   7.853  1.00  0.00     0.037 A 
ATOM     56  C   UNL     1       9.077  10.073   5.285  1.00  0.00     0.037 A 
ATOM     57  C   UNL     1      10.809   4.431   8.038  1.00  0.00     0.049 A 
ATOM     58  C   UNL     1      10.305   9.627   6.040  1.00  0.00     0.074 A 
ATOM     59  C   UNL     1      12.016   4.103   8.631  1.00  0.00     0.029 A 
ATOM     60  N   UNL     1      10.905   5.759   7.650  1.00  0.00    -0.354 N 
ATOM     61  N   UNL     1      10.578   8.450   6.552  1.00  0.00    -0.248 NA
ATOM     62  C   UNL     1      11.363  10.627   6.244  1.00  0.00     0.031 C 
ATOM     63  C   UNL     1      12.816   5.249   8.660  1.00  0.00     0.029 A 
ATOM     64  C   UNL     1      12.137   6.274   8.022  1.00  0.00     0.049 A 
ATOM     65  H   UNL     1      10.202   6.262   7.179  1.00  0.00     0.167 HD
ATOM     66  C   UNL     1      11.847   8.562   7.115  1.00  0.00     0.074 A 
ATOM     67  C   UNL     1      12.294   9.917   6.867  1.00  0.00     0.031 C 
ATOM     68  C   UNL     1      12.577   7.626   7.774  1.00  0.00     0.037 A 
BRANCH  55  69
ATOM     69  C   UNL     1       9.675   2.204   8.424  1.00  0.00     0.058 A 
ATOM     70  C   UNL     1       9.712   1.063   7.607  1.00  0.00     0.135 A 
ATOM     71  C   UNL     1       9.696   2.011   9.815  1.00  0.00     0.135 A 
ATOM     72  F   UNL     1       9.677   1.186   6.270  1.00  0.00    -0.206 F 
ATOM     73  C   UNL     1       9.737  -0.219   8.148  1.00  0.00     0.059 A 
ATOM     74  C   UNL     1       9.754   0.740  10.378  1.00  0.00     0.059 A 
ATOM     75  F   UNL     1       9.662   3.066  10.645  1.00  0.00    -0.206 F 
ATOM     76  C   UNL     1       9.758  -0.370   9.536  1.00  0.00     0.060 A 
BRANCH  76  77
ATOM     77  S   UNL     1       9.793  -2.039  10.222  1.00  0.00     0.124 S 
ATOM     78  O   UNL     1       8.443  -2.506   9.919  1.00  0.00    -0.237 OA
ATOM     79  O   UNL     1      10.866  -2.667   9.459  1.00  0.00    -0.237 OA
ATOM     80  O   UNL     1      10.077  -1.821  11.637  1.00  0.00    -0.744 OA
ENDBRANCH  76  77
ENDBRANCH  55  69
BRANCH  56  81
ATOM     81  C   UNL     1       8.952  11.478   4.805  1.00  0.00     0.058 A 
ATOM     82  C   UNL     1       9.764  11.973   3.774  1.00  0.00     0.135 A 
ATOM     83  C   UNL     1       8.013  12.355   5.372  1.00  0.00     0.135 A 
ATOM     84  F   UNL     1      10.691  11.183   3.213  1.00  0.00    -0.206 F 
ATOM     85  C   UNL     1       9.655  13.286   3.325  1.00  0.00     0.059 A 
ATOM     86  C   UNL     1       7.864  13.663   4.921  1.00  0.00     0.059 A 
ATOM     87  F   UNL     1       7.209  11.933   6.361  1.00  0.00    -0.206 F 
ATOM     88  C   UNL     1       8.694  14.121   3.900  1.00  0.00     0.060 A 
BRANCH  88  89
ATOM     89  S   UNL     1       8.514  15.801   3.260  1.00  0.00     0.124 S 
ATOM     90  O   UNL     1       9.731  16.436   3.751  1.00  0.00    -0.237 OA
ATOM     91  O   UNL     1       8.448  15.571   1.820  1.00  0.00    -0.237 OA
ATOM     92  O   UNL     1       7.270  16.261   3.872  1.00  0.00    -0.744 OA
ENDBRANCH  88  89
ENDBRANCH  56  81
BRANCH  68  93
ATOM     93  C   UNL     1      13.953   8.016   8.250  1.00  0.00     0.058 A 
ATOM     94  C   UNL     1      14.146   8.914   9.312  1.00  0.00     0.135 A 
ATOM     95  C   UNL     1      15.096   7.443   7.667  1.00  0.00     0.135 A 
ATOM     96  F   UNL     1      13.091   9.496   9.905  1.00  0.00    -0.206 F 
ATOM     97  C   UNL     1      15.421   9.253   9.758  1.00  0.00     0.059 A 
ATOM     98  C   UNL     1      16.378   7.741   8.118  1.00  0.00     0.059 A 
ATOM     99  F   UNL     1      14.973   6.567   6.657  1.00  0.00    -0.206 F 
ATOM    100  C   UNL     1      16.532   8.659   9.156  1.00  0.00     0.060 A 
BRANCH 100 101
ATOM    101  S   UNL     1      18.178   9.089   9.760  1.00  0.00     0.124 S 
ATOM    102  O   UNL     1      18.328  10.452   9.261  1.00  0.00    -0.237 OA
ATOM    103  O   UNL     1      18.025   8.955  11.205  1.00  0.00    -0.237 OA
ATOM    104  O   UNL     1      19.042   8.094   9.132  1.00  0.00    -0.744 OA
ENDBRANCH 100 101
ENDBRANCH  68  93
ENDBRANCH  42  43
ENDBRANCH  35  37
ENDBRANCH  34  35
ENDBRANCH  33  34
ENDBRANCH  32  33
ENDBRANCH  31  32
ENDBRANCH  30  31
ENDBRANCH   1  30
TORSDOF 24
