REMARK SMILES C[C@H](C(=O)Nc1ccc(C(F)(F)F)cc1)n1nc(C(=O)OCCOCCOCCOC(=O)c2ccc(-c3c4nc(c(-c5c(F)cc(S(=O)(=O)[O-])cc5F)c5ccc([nH]5)c(-c5c(F)cc(S(=O)(=O)[O-])cc5F)c5nc(c(-c6c(F)cc(S(=O)(=O)[O-])cc6F)c6ccc3[nH]6)C=C5)C=C4)cc2)c2ccccc2c1=O
REMARK SMILES IDX 25 1 24 2 23 3 22 4 21 5 19 6 20 7 18 8 16 9 17 10 105 11
REMARK SMILES IDX 104 12 106 13 99 14 103 15 100 16 102 17 101 18 2 19 1 20
REMARK SMILES IDX 3 21 4 22 5 23 6 25 7 26 15 27 8 28 14 29 9 30 10 31 11 32
REMARK SMILES IDX 12 33 13 34 26 35 27 36 28 37 29 38 30 39 31 40 32 41 33 42
REMARK SMILES IDX 34 43 98 44 35 45 97 46 36 47 37 48 38 49 91 50 39 51 96 52
REMARK SMILES IDX 90 53 92 54 40 55 95 56 89 57 88 58 41 60 75 61 54 62 74 63
REMARK SMILES IDX 55 64 58 65 73 66 93 67 56 68 57 69 72 71 94 72 59 73 42 74
REMARK SMILES IDX 43 75 52 76 44 77 45 78 51 79 53 80 46 81 47 82 48 83 49 84
REMARK SMILES IDX 50 85 76 86 77 87 86 88 78 89 79 90 85 91 87 92 80 93 81 94
REMARK SMILES IDX 82 95 83 96 84 97 60 98 61 99 70 100 62 101 63 102 69 103
REMARK SMILES IDX 71 104 64 105 65 106 66 107 67 108 68 109
REMARK H PARENT 5 24 92 59 58 70
REMARK Flexibility Score: inf
ROOT
ATOM      1  C   UNL     1      -5.532  -3.552  -1.906  1.00  0.00     0.188 C 
ENDROOT
BRANCH   1   2
ATOM      2  O   UNL     1      -5.422  -3.193  -3.279  1.00  0.00    -0.376 OA
BRANCH   2   3
ATOM      3  C   UNL     1      -5.462  -1.801  -3.554  1.00  0.00     0.202 C 
BRANCH   3   4
ATOM      4  C   UNL     1      -4.082  -1.154  -3.470  1.00  0.00     0.261 C 
BRANCH   4   5
ATOM      5  O   UNL     1      -3.379  -1.403  -2.252  1.00  0.00    -0.458 OA
BRANCH   5   6
ATOM      6  C   UNL     1      -3.913  -0.906  -1.122  1.00  0.00     0.359 C 
ATOM      7  O   UNL     1      -4.987  -0.353  -0.997  1.00  0.00    -0.244 OA
BRANCH   6   8
ATOM      8  C   UNL     1      -2.921  -1.062   0.019  1.00  0.00     0.176 A 
ATOM      9  N   UNL     1      -0.721  -0.799   0.613  1.00  0.00    -0.216 N 
ATOM     10  N   UNL     1      -1.679  -0.978  -0.335  1.00  0.00    -0.161 NA
ATOM     11  C   UNL     1      -0.990  -0.658   1.972  1.00  0.00     0.275 A 
ATOM     12  C   UNL     1      -2.411  -0.804   2.375  1.00  0.00     0.051 A 
ATOM     13  O   UNL     1      -0.141  -0.386   2.816  1.00  0.00    -0.267 OA
ATOM     14  C   UNL     1      -3.364  -1.134   1.414  1.00  0.00     0.022 A 
ATOM     15  C   UNL     1      -2.814  -0.578   3.696  1.00  0.00     0.014 A 
ATOM     16  C   UNL     1      -4.679  -1.423   1.793  1.00  0.00     0.011 A 
ATOM     17  C   UNL     1      -4.149  -0.776   4.060  1.00  0.00     0.001 A 
ATOM     18  C   UNL     1      -5.068  -1.245   3.121  1.00  0.00     0.001 A 
BRANCH   9  19
ATOM     19  C   UNL     1       0.616  -0.592   0.058  1.00  0.00     0.197 C 
ATOM     20  C   UNL     1       1.580  -1.713   0.436  1.00  0.00     0.044 C 
BRANCH  19  21
ATOM     21  C   UNL     1       1.177   0.829   0.285  1.00  0.00     0.249 C 
ATOM     22  O   UNL     1       2.389   1.016   0.460  1.00  0.00    -0.272 OA
ATOM     23  N   UNL     1       0.409   1.955   0.087  1.00  0.00    -0.324 N 
ATOM     24  H   UNL     1       0.873   2.809   0.244  1.00  0.00     0.170 HD
BRANCH  23  25
ATOM     25  C   UNL     1      -0.930   2.072  -0.302  1.00  0.00     0.041 A 
ATOM     26  C   UNL     1      -1.256   2.221  -1.649  1.00  0.00     0.027 A 
ATOM     27  C   UNL     1      -1.925   2.213   0.668  1.00  0.00     0.027 A 
ATOM     28  C   UNL     1      -2.587   2.445  -2.027  1.00  0.00     0.015 A 
ATOM     29  C   UNL     1      -3.260   2.406   0.291  1.00  0.00     0.015 A 
ATOM     30  C   UNL     1      -3.608   2.521  -1.063  1.00  0.00     0.056 A 
BRANCH  30  31
ATOM     31  C   UNL     1      -5.047   2.770  -1.470  1.00  0.00     0.416 C 
ATOM     32  F   UNL     1      -5.382   4.086  -1.372  1.00  0.00    -0.166 F 
ATOM     33  F   UNL     1      -5.297   2.421  -2.766  1.00  0.00    -0.166 F 
ATOM     34  F   UNL     1      -5.956   2.099  -0.716  1.00  0.00    -0.166 F 
ENDBRANCH  30  31
ENDBRANCH  23  25
ENDBRANCH  19  21
ENDBRANCH   9  19
ENDBRANCH   6   8
ENDBRANCH   5   6
ENDBRANCH   4   5
ENDBRANCH   3   4
ENDBRANCH   2   3
ENDBRANCH   1   2
BRANCH   1  35
ATOM     35  C   UNL     1      -4.247  -4.163  -1.307  1.00  0.00     0.188 C 
BRANCH  35  36
ATOM     36  O   UNL     1      -3.321  -4.863  -2.122  1.00  0.00    -0.376 OA
BRANCH  36  37
ATOM     37  C   UNL     1      -3.813  -5.610  -3.220  1.00  0.00     0.202 C 
BRANCH  37  38
ATOM     38  C   UNL     1      -4.740  -6.798  -2.924  1.00  0.00     0.261 C 
BRANCH  38  39
ATOM     39  O   UNL     1      -5.754  -6.544  -1.935  1.00  0.00    -0.460 OA
BRANCH  39  40
ATOM     40  C   UNL     1      -5.530  -7.087  -0.710  1.00  0.00     0.338 C 
ATOM     41  O   UNL     1      -4.622  -7.843  -0.403  1.00  0.00    -0.246 OA
BRANCH  40  42
ATOM     42  C   UNL     1      -6.425  -6.456   0.293  1.00  0.00     0.060 A 
ATOM     43  C   UNL     1      -5.837  -5.917   1.449  1.00  0.00     0.016 A 
ATOM     44  C   UNL     1      -7.810  -6.401   0.127  1.00  0.00     0.016 A 
ATOM     45  C   UNL     1      -6.626  -5.345   2.449  1.00  0.00     0.010 A 
ATOM     46  C   UNL     1      -8.606  -5.868   1.153  1.00  0.00     0.010 A 
ATOM     47  C   UNL     1      -8.021  -5.369   2.332  1.00  0.00    -0.014 A 
BRANCH  47  48
ATOM     48  C   UNL     1      -8.861  -5.132   3.536  1.00  0.00     0.031 A 
ATOM     49  C   UNL     1      -9.155  -6.313   4.426  1.00  0.00     0.074 A 
ATOM     50  C   UNL     1      -9.357  -3.921   3.849  1.00  0.00     0.049 A 
ATOM     51  N   UNL     1      -9.920  -6.389   5.484  1.00  0.00    -0.248 NA
ATOM     52  C   UNL     1      -8.491  -7.578   4.069  1.00  0.00     0.031 C 
ATOM     53  C   UNL     1      -9.108  -2.683   3.117  1.00  0.00     0.029 A 
ATOM     54  N   UNL     1     -10.192  -3.544   4.874  1.00  0.00    -0.354 N 
ATOM     55  C   UNL     1      -9.835  -7.708   5.915  1.00  0.00     0.074 A 
ATOM     56  C   UNL     1      -8.957  -8.400   4.997  1.00  0.00     0.031 C 
ATOM     57  C   UNL     1      -9.790  -1.683   3.707  1.00  0.00     0.029 A 
ATOM     58  C   UNL     1     -10.556  -2.218   4.834  1.00  0.00     0.049 A 
ATOM     59  H   UNL     1     -10.502  -4.165   5.573  1.00  0.00     0.167 HD
ATOM     60  C   UNL     1     -10.437  -8.298   6.975  1.00  0.00     0.037 A 
ATOM     61  C   UNL     1     -11.428  -1.528   5.599  1.00  0.00     0.037 A 
ATOM     62  C   UNL     1     -11.335  -7.628   7.875  1.00  0.00     0.049 A 
ATOM     63  C   UNL     1     -12.172  -2.231   6.712  1.00  0.00     0.074 A 
ATOM     64  C   UNL     1     -11.998  -8.147   8.972  1.00  0.00     0.029 A 
ATOM     65  N   UNL     1     -11.711  -6.298   7.771  1.00  0.00    -0.354 N 
ATOM     66  N   UNL     1     -12.073  -3.475   7.117  1.00  0.00    -0.248 NA
ATOM     67  C   UNL     1     -13.153  -1.435   7.466  1.00  0.00     0.031 C 
ATOM     68  C   UNL     1     -12.816  -7.143   9.503  1.00  0.00     0.029 A 
ATOM     69  C   UNL     1     -12.619  -5.984   8.769  1.00  0.00     0.049 A 
ATOM     70  H   UNL     1     -11.381  -5.668   7.090  1.00  0.00     0.167 HD
ATOM     71  C   UNL     1     -12.952  -3.599   8.191  1.00  0.00     0.074 A 
ATOM     72  C   UNL     1     -13.571  -2.305   8.376  1.00  0.00     0.031 C 
ATOM     73  C   UNL     1     -13.220  -4.687   8.957  1.00  0.00     0.037 A 
BRANCH  60  74
ATOM     74  C   UNL     1     -10.174  -9.763   7.182  1.00  0.00     0.058 A 
ATOM     75  C   UNL     1      -8.933 -10.233   7.639  1.00  0.00     0.135 A 
ATOM     76  C   UNL     1     -11.177 -10.708   6.915  1.00  0.00     0.135 A 
ATOM     77  F   UNL     1      -7.932  -9.372   7.887  1.00  0.00    -0.206 F 
ATOM     78  C   UNL     1      -8.685 -11.593   7.793  1.00  0.00     0.059 A 
ATOM     79  C   UNL     1     -10.960 -12.070   7.087  1.00  0.00     0.059 A 
ATOM     80  F   UNL     1     -12.379 -10.310   6.469  1.00  0.00    -0.206 F 
ATOM     81  C   UNL     1      -9.704 -12.504   7.509  1.00  0.00     0.060 A 
BRANCH  81  82
ATOM     82  S   UNL     1      -9.363 -14.267   7.695  1.00  0.00     0.124 S 
ATOM     83  O   UNL     1      -8.511 -14.520   6.536  1.00  0.00    -0.237 OA
ATOM     84  O   UNL     1      -8.699 -14.321   8.993  1.00  0.00    -0.237 OA
ATOM     85  O   UNL     1     -10.688 -14.876   7.645  1.00  0.00    -0.744 OA
ENDBRANCH  81  82
ENDBRANCH  60  74
BRANCH  61  86
ATOM     86  C   UNL     1     -11.680  -0.083   5.337  1.00  0.00     0.058 A 
ATOM     87  C   UNL     1     -11.280   0.897   6.258  1.00  0.00     0.135 A 
ATOM     88  C   UNL     1     -12.355   0.343   4.183  1.00  0.00     0.135 A 
ATOM     89  F   UNL     1     -10.649   0.539   7.387  1.00  0.00    -0.206 F 
ATOM     90  C   UNL     1     -11.553   2.246   6.053  1.00  0.00     0.059 A 
ATOM     91  C   UNL     1     -12.616   1.689   3.942  1.00  0.00     0.059 A 
ATOM     92  F   UNL     1     -12.758  -0.554   3.270  1.00  0.00    -0.206 F 
ATOM     93  C   UNL     1     -12.220   2.632   4.889  1.00  0.00     0.060 A 
BRANCH  93  94
ATOM     94  S   UNL     1     -12.527   4.391   4.610  1.00  0.00     0.124 S 
ATOM     95  O   UNL     1     -13.591   4.659   5.570  1.00  0.00    -0.237 OA
ATOM     96  O   UNL     1     -11.226   4.979   4.914  1.00  0.00    -0.237 OA
ATOM     97  O   UNL     1     -12.916   4.443   3.204  1.00  0.00    -0.744 OA
ENDBRANCH  93  94
ENDBRANCH  61  86
BRANCH  73  98
ATOM     98  C   UNL     1     -14.187  -4.526  10.101  1.00  0.00     0.058 A 
ATOM     99  C   UNL     1     -15.568  -4.393   9.893  1.00  0.00     0.135 A 
ATOM    100  C   UNL     1     -13.728  -4.577  11.428  1.00  0.00     0.135 A 
ATOM    101  F   UNL     1     -16.061  -4.335   8.646  1.00  0.00    -0.206 F 
ATOM    102  C   UNL     1     -16.458  -4.296  10.959  1.00  0.00     0.059 A 
ATOM    103  C   UNL     1     -14.602  -4.509  12.509  1.00  0.00     0.059 A 
ATOM    104  F   UNL     1     -12.418  -4.717  11.685  1.00  0.00    -0.206 F 
ATOM    105  C   UNL     1     -15.966  -4.358  12.264  1.00  0.00     0.060 A 
BRANCH 105 106
ATOM    106  S   UNL     1     -17.134  -4.272  13.639  1.00  0.00     0.124 S 
ATOM    107  O   UNL     1     -17.494  -2.857  13.632  1.00  0.00    -0.237 OA
ATOM    108  O   UNL     1     -18.183  -5.195  13.217  1.00  0.00    -0.237 OA
ATOM    109  O   UNL     1     -16.344  -4.713  14.785  1.00  0.00    -0.744 OA
ENDBRANCH 105 106
ENDBRANCH  73  98
ENDBRANCH  47  48
ENDBRANCH  40  42
ENDBRANCH  39  40
ENDBRANCH  38  39
ENDBRANCH  37  38
ENDBRANCH  36  37
ENDBRANCH  35  36
ENDBRANCH   1  35
TORSDOF 24
