REMARK SMILES C[C@@H](C(=O)OCCOCCOCCOC(=O)c1ccc(-c2c3nc(c(-c4c(F)cc(S(=O)(=O)[O-])cc4F)c4ccc([nH]4)c(-c4c(F)cc(S(=O)(=O)[O-])cc4F)c4nc(c(-c5c(F)cc(S(=O)(=O)[O-])cc5F)c5ccc2[nH]5)C=C4)C=C3)cc1)c1cc(/C=C/S(C)(=O)=O)cc(C(=O)c2ccccc2)c1
REMARK SMILES IDX 9 1 8 2 7 3 6 4 5 5 3 6 4 7 2 8 1 9 83 10 84 11 102 12 85 13
REMARK SMILES IDX 93 14 92 15 86 16 87 17 88 18 89 19 90 20 91 21 94 22 95 23
REMARK SMILES IDX 96 24 97 25 101 26 98 27 100 28 99 29 10 30 11 31 12 32
REMARK SMILES IDX 13 33 14 34 15 35 16 36 17 37 18 38 82 39 19 40 81 41 20 42
REMARK SMILES IDX 21 43 22 44 75 45 23 46 80 47 74 48 76 49 24 50 79 51 73 52
REMARK SMILES IDX 72 53 25 55 59 56 38 57 58 58 39 59 42 60 57 61 77 62 40 63
REMARK SMILES IDX 41 64 56 66 78 67 43 68 26 69 27 70 36 71 28 72 29 73 35 74
REMARK SMILES IDX 37 75 30 76 31 77 32 78 33 79 34 80 60 81 61 82 70 83 62 84
REMARK SMILES IDX 63 85 69 86 71 87 64 88 65 89 66 90 67 91 68 92 44 93 45 94
REMARK SMILES IDX 54 95 46 96 47 97 53 98 55 99 48 100 49 101 50 102 51 103
REMARK SMILES IDX 52 104
REMARK H PARENT 76 54 42 65
REMARK Flexibility Score: inf
ROOT
ATOM      1  C   UNL     1       0.844   3.882   1.295  1.00  0.00     0.188 C 
ENDROOT
BRANCH   1   2
ATOM      2  O   UNL     1       1.744   4.549   2.166  1.00  0.00    -0.376 OA
BRANCH   2   3
ATOM      3  C   UNL     1       2.885   3.857   2.659  1.00  0.00     0.202 C 
BRANCH   3   4
ATOM      4  C   UNL     1       2.645   2.525   3.368  1.00  0.00     0.261 C 
BRANCH   4   5
ATOM      5  O   UNL     1       2.137   1.534   2.463  1.00  0.00    -0.463 OA
BRANCH   5   6
ATOM      6  C   UNL     1       1.593   0.446   3.064  1.00  0.00     0.313 C 
ATOM      7  O   UNL     1       1.635   0.245   4.273  1.00  0.00    -0.252 OA
BRANCH   6   8
ATOM      8  C   UNL     1       0.807  -0.442   2.103  1.00  0.00     0.126 C 
ATOM      9  C   UNL     1       1.353  -0.542   0.673  1.00  0.00     0.025 C 
BRANCH   8  10
ATOM     10  C   UNL     1      -0.697  -0.197   2.132  1.00  0.00    -0.033 A 
ATOM     11  C   UNL     1      -1.292   0.954   2.671  1.00  0.00     0.012 A 
ATOM     12  C   UNL     1      -1.539  -1.205   1.660  1.00  0.00     0.016 A 
ATOM     13  C   UNL     1      -2.688   1.111   2.731  1.00  0.00    -0.024 A 
ATOM     14  C   UNL     1      -2.926  -1.132   1.839  1.00  0.00     0.023 A 
ATOM     15  C   UNL     1      -3.506   0.041   2.337  1.00  0.00     0.020 A 
BRANCH  13  16
ATOM     16  C   UNL     1      -3.281   2.357   3.252  1.00  0.00     0.020 C 
ATOM     17  C   UNL     1      -2.864   3.572   2.855  1.00  0.00     0.106 C 
BRANCH  17  18
ATOM     18  S   UNL     1      -3.736   5.016   3.287  1.00  0.00     0.168 S 
ATOM     19  C   UNL     1      -2.668   5.772   4.475  1.00  0.00     0.163 C 
ATOM     20  O   UNL     1      -3.739   5.888   2.129  1.00  0.00    -0.225 OA
ATOM     21  O   UNL     1      -4.962   4.678   3.982  1.00  0.00    -0.225 OA
ENDBRANCH  17  18
ENDBRANCH  13  16
BRANCH  14  22
ATOM     22  C   UNL     1      -3.761  -2.334   1.550  1.00  0.00     0.193 C 
ATOM     23  O   UNL     1      -4.914  -2.212   1.157  1.00  0.00    -0.289 OA
BRANCH  22  24
ATOM     24  C   UNL     1      -3.166  -3.694   1.708  1.00  0.00     0.022 A 
ATOM     25  C   UNL     1      -3.429  -4.666   0.739  1.00  0.00     0.012 A 
ATOM     26  C   UNL     1      -2.291  -3.984   2.766  1.00  0.00     0.012 A 
ATOM     27  C   UNL     1      -2.767  -5.895   0.792  1.00  0.00     0.001 A 
ATOM     28  C   UNL     1      -1.620  -5.206   2.806  1.00  0.00     0.001 A 
ATOM     29  C   UNL     1      -1.850  -6.157   1.813  1.00  0.00     0.000 A 
ENDBRANCH  22  24
ENDBRANCH  14  22
ENDBRANCH   8  10
ENDBRANCH   6   8
ENDBRANCH   5   6
ENDBRANCH   4   5
ENDBRANCH   3   4
ENDBRANCH   2   3
ENDBRANCH   1   2
BRANCH   1  30
ATOM     30  C   UNL     1       1.353   3.074   0.090  1.00  0.00     0.188 C 
BRANCH  30  31
ATOM     31  O   UNL     1       2.579   3.392  -0.541  1.00  0.00    -0.376 OA
BRANCH  31  32
ATOM     32  C   UNL     1       2.898   4.757  -0.739  1.00  0.00     0.202 C 
BRANCH  32  33
ATOM     33  C   UNL     1       2.012   5.577  -1.680  1.00  0.00     0.261 C 
BRANCH  33  34
ATOM     34  O   UNL     1       0.604   5.482  -1.409  1.00  0.00    -0.460 OA
BRANCH  34  35
ATOM     35  C   UNL     1      -0.102   4.753  -2.313  1.00  0.00     0.338 C 
ATOM     36  O   UNL     1       0.345   4.184  -3.296  1.00  0.00    -0.246 OA
BRANCH  35  37
ATOM     37  C   UNL     1      -1.504   4.589  -1.870  1.00  0.00     0.060 A 
ATOM     38  C   UNL     1      -2.056   3.300  -1.887  1.00  0.00     0.016 A 
ATOM     39  C   UNL     1      -2.297   5.685  -1.532  1.00  0.00     0.016 A 
ATOM     40  C   UNL     1      -3.415   3.108  -1.620  1.00  0.00     0.010 A 
ATOM     41  C   UNL     1      -3.661   5.491  -1.275  1.00  0.00     0.010 A 
ATOM     42  C   UNL     1      -4.239   4.209  -1.357  1.00  0.00    -0.014 A 
BRANCH  42  43
ATOM     43  C   UNL     1      -5.720   4.063  -1.317  1.00  0.00     0.031 A 
ATOM     44  C   UNL     1      -6.524   4.444  -2.522  1.00  0.00     0.074 A 
ATOM     45  C   UNL     1      -6.363   3.599  -0.231  1.00  0.00     0.049 A 
ATOM     46  N   UNL     1      -7.822   4.479  -2.666  1.00  0.00    -0.248 NA
ATOM     47  C   UNL     1      -5.767   4.799  -3.732  1.00  0.00     0.031 C 
ATOM     48  C   UNL     1      -5.705   3.079   0.953  1.00  0.00     0.029 A 
ATOM     49  N   UNL     1      -7.700   3.526   0.077  1.00  0.00    -0.354 N 
ATOM     50  C   UNL     1      -8.042   4.817  -3.991  1.00  0.00     0.074 A 
ATOM     51  C   UNL     1      -6.744   5.041  -4.594  1.00  0.00     0.031 C 
ATOM     52  C   UNL     1      -6.619   2.853   1.911  1.00  0.00     0.029 A 
ATOM     53  C   UNL     1      -7.935   3.199   1.394  1.00  0.00     0.049 A 
ATOM     54  H   UNL     1      -8.417   3.690  -0.578  1.00  0.00     0.167 HD
ATOM     55  C   UNL     1      -9.221   4.899  -4.651  1.00  0.00     0.037 A 
ATOM     56  C   UNL     1      -9.072   3.204   2.116  1.00  0.00     0.037 A 
ATOM     57  C   UNL     1     -10.509   4.702  -4.040  1.00  0.00     0.049 A 
ATOM     58  C   UNL     1     -10.368   3.479   1.415  1.00  0.00     0.074 A 
ATOM     59  C   UNL     1     -11.759   4.761  -4.631  1.00  0.00     0.029 A 
ATOM     60  N   UNL     1     -10.717   4.427  -2.696  1.00  0.00    -0.354 N 
ATOM     61  N   UNL     1     -10.569   3.776   0.153  1.00  0.00    -0.248 NA
ATOM     62  C   UNL     1     -11.596   3.377   2.214  1.00  0.00     0.031 C 
ATOM     63  C   UNL     1     -12.724   4.569  -3.636  1.00  0.00     0.029 A 
ATOM     64  C   UNL     1     -12.076   4.343  -2.432  1.00  0.00     0.049 A 
ATOM     65  H   UNL     1     -10.005   4.309  -2.027  1.00  0.00     0.167 HD
ATOM     66  C   UNL     1     -11.945   3.841  -0.007  1.00  0.00     0.074 A 
ATOM     67  C   UNL     1     -12.530   3.571   1.292  1.00  0.00     0.031 C 
ATOM     68  C   UNL     1     -12.654   4.077  -1.137  1.00  0.00     0.037 A 
BRANCH  55  69
ATOM     69  C   UNL     1      -9.155   5.226  -6.114  1.00  0.00     0.058 A 
ATOM     70  C   UNL     1      -8.702   4.285  -7.053  1.00  0.00     0.135 A 
ATOM     71  C   UNL     1      -9.548   6.488  -6.582  1.00  0.00     0.135 A 
ATOM     72  F   UNL     1      -8.293   3.071  -6.653  1.00  0.00    -0.206 F 
ATOM     73  C   UNL     1      -8.616   4.595  -8.406  1.00  0.00     0.059 A 
ATOM     74  C   UNL     1      -9.492   6.812  -7.933  1.00  0.00     0.059 A 
ATOM     75  F   UNL     1      -9.980   7.424  -5.722  1.00  0.00    -0.206 F 
ATOM     76  C   UNL     1      -9.010   5.863  -8.835  1.00  0.00     0.060 A 
BRANCH  76  77
ATOM     77  S   UNL     1      -8.885   6.255 -10.592  1.00  0.00     0.124 S 
ATOM     78  O   UNL     1      -7.442   6.404 -10.755  1.00  0.00    -0.237 OA
ATOM     79  O   UNL     1      -9.474   5.076 -11.219  1.00  0.00    -0.237 OA
ATOM     80  O   UNL     1      -9.661   7.484 -10.723  1.00  0.00    -0.744 OA
ENDBRANCH  76  77
ENDBRANCH  55  69
BRANCH  56  81
ATOM     81  C   UNL     1      -9.032   2.945   3.580  1.00  0.00     0.058 A 
ATOM     82  C   UNL     1      -9.463   1.727   4.122  1.00  0.00     0.135 A 
ATOM     83  C   UNL     1      -8.561   3.925   4.468  1.00  0.00     0.135 A 
ATOM     84  F   UNL     1      -9.941   0.767   3.316  1.00  0.00    -0.206 F 
ATOM     85  C   UNL     1      -9.439   1.490   5.494  1.00  0.00     0.059 A 
ATOM     86  C   UNL     1      -8.505   3.703   5.843  1.00  0.00     0.059 A 
ATOM     87  F   UNL     1      -8.160   5.117   4.002  1.00  0.00    -0.206 F 
ATOM     88  C   UNL     1      -8.956   2.484   6.348  1.00  0.00     0.060 A 
BRANCH  88  89
ATOM     89  S   UNL     1      -8.897   2.151   8.123  1.00  0.00     0.124 S 
ATOM     90  O   UNL     1     -10.308   2.222   8.485  1.00  0.00    -0.237 OA
ATOM     91  O   UNL     1      -8.295   0.821   8.168  1.00  0.00    -0.237 OA
ATOM     92  O   UNL     1      -8.058   3.225   8.645  1.00  0.00    -0.744 OA
ENDBRANCH  88  89
ENDBRANCH  56  81
BRANCH  68  93
ATOM     93  C   UNL     1     -14.151   4.008  -1.034  1.00  0.00     0.058 A 
ATOM     94  C   UNL     1     -14.897   5.016  -0.406  1.00  0.00     0.135 A 
ATOM     95  C   UNL     1     -14.849   2.930  -1.603  1.00  0.00     0.135 A 
ATOM     96  F   UNL     1     -14.276   6.060   0.166  1.00  0.00    -0.206 F 
ATOM     97  C   UNL     1     -16.284   4.949  -0.329  1.00  0.00     0.059 A 
ATOM     98  C   UNL     1     -16.238   2.857  -1.561  1.00  0.00     0.059 A 
ATOM     99  F   UNL     1     -14.183   1.942  -2.220  1.00  0.00    -0.206 F 
ATOM    100  C   UNL     1     -16.946   3.866  -0.911  1.00  0.00     0.060 A 
BRANCH 100 101
ATOM    101  S   UNL     1     -18.749   3.810  -0.839  1.00  0.00     0.124 S 
ATOM    102  O   UNL     1     -18.977   3.420   0.548  1.00  0.00    -0.237 OA
ATOM    103  O   UNL     1     -19.119   5.180  -1.182  1.00  0.00    -0.237 OA
ATOM    104  O   UNL     1     -19.098   2.806  -1.840  1.00  0.00    -0.744 OA
ENDBRANCH 100 101
ENDBRANCH  68  93
ENDBRANCH  42  43
ENDBRANCH  35  37
ENDBRANCH  34  35
ENDBRANCH  33  34
ENDBRANCH  32  33
ENDBRANCH  31  32
ENDBRANCH  30  31
ENDBRANCH   1  30
TORSDOF 25
