REMARK SMILES CCN1C(=O)/C(=C/c2ccccc2O[C@H](C)C(=O)OCCOCCOCCOC(=O)c2ccc(-c3c4nc(c(-c5c(F)cc(S(=O)(=O)[O-])cc5F)c5ccc([nH]5)c(-c5c(F)cc(S(=O)(=O)[O-])cc5F)c5nc(c(-c6c(F)cc(S(=O)(=O)[O-])cc6F)c6ccc3[nH]6)C=C5)C=C4)cc2)S/C1=[NH+]\c1ccc(C)cc1O
REMARK SMILES IDX 23 1 22 2 21 3 20 4 19 5 17 6 18 7 15 8 16 9 14 10 13 11
REMARK SMILES IDX 8 12 9 13 10 14 12 15 11 16 7 17 3 18 4 19 98 20 5 21 6 22
REMARK SMILES IDX 97 23 99 24 2 26 1 27 100 28 101 29 106 30 102 31 105 32
REMARK SMILES IDX 103 33 104 34 107 35 24 37 25 38 26 39 27 40 28 41 29 42
REMARK SMILES IDX 30 43 31 44 32 45 96 46 33 47 95 48 34 49 35 50 36 51 89 52
REMARK SMILES IDX 37 53 94 54 88 55 90 56 38 57 93 58 87 59 86 60 39 62 73 63
REMARK SMILES IDX 52 64 72 65 53 66 56 67 71 68 91 69 54 70 55 71 70 73 92 74
REMARK SMILES IDX 57 75 40 76 41 77 50 78 42 79 43 80 49 81 51 82 44 83 45 84
REMARK SMILES IDX 46 85 47 86 48 87 74 88 75 89 84 90 76 91 77 92 83 93 85 94
REMARK SMILES IDX 78 95 79 96 80 97 81 98 82 99 58 100 59 101 68 102 60 103
REMARK SMILES IDX 61 104 67 105 69 106 62 107 63 108 64 109 65 110 66 111
REMARK H PARENT 99 25 107 36 90 61 56 72
REMARK Flexibility Score: inf
ROOT
ATOM      1  C   UNL     1      -1.548  -2.724   5.868  1.00  0.00     0.188 C 
ENDROOT
BRANCH   1   2
ATOM      2  O   UNL     1      -0.904  -3.873   5.330  1.00  0.00    -0.376 OA
BRANCH   2   3
ATOM      3  C   UNL     1       0.452  -4.091   5.723  1.00  0.00     0.202 C 
BRANCH   3   4
ATOM      4  C   UNL     1       1.464  -3.027   5.269  1.00  0.00     0.261 C 
BRANCH   4   5
ATOM      5  O   UNL     1       1.169  -1.722   5.802  1.00  0.00    -0.461 OA
BRANCH   5   6
ATOM      6  C   UNL     1       1.312  -0.675   4.936  1.00  0.00     0.347 C 
ATOM      7  O   UNL     1       1.849  -0.771   3.839  1.00  0.00    -0.248 OA
BRANCH   6   8
ATOM      8  C   UNL     1       0.560   0.581   5.434  1.00  0.00     0.279 C 
ATOM      9  C   UNL     1       0.377   0.672   6.946  1.00  0.00     0.066 C 
BRANCH   8  10
ATOM     10  O   UNL     1       0.906   1.825   4.826  1.00  0.00    -0.478 OA
BRANCH  10  11
ATOM     11  C   UNL     1       2.090   2.421   5.161  1.00  0.00     0.127 A 
ATOM     12  C   UNL     1       3.166   2.464   4.255  1.00  0.00     0.018 A 
ATOM     13  C   UNL     1       4.297   3.230   4.593  1.00  0.00     0.012 A 
ATOM     14  C   UNL     1       4.341   3.972   5.776  1.00  0.00     0.001 A 
ATOM     15  C   UNL     1       2.127   3.202   6.323  1.00  0.00     0.047 A 
ATOM     16  C   UNL     1       3.253   3.959   6.640  1.00  0.00     0.004 A 
BRANCH  12  17
ATOM     17  C   UNL     1       3.227   1.739   2.972  1.00  0.00     0.036 C 
ATOM     18  N   UNL     1       1.419   1.039  -0.087  1.00  0.00    -0.186 N 
ATOM     19  C   UNL     1       2.524   0.925   0.740  1.00  0.00     0.348 C 
ATOM     20  C   UNL     1       0.415   1.870   0.351  1.00  0.00     0.324 C 
ATOM     21  O   UNL     1       3.542   0.283   0.508  1.00  0.00    -0.240 OA
ATOM     22  C   UNL     1       2.329   1.734   1.976  1.00  0.00     0.110 C 
ATOM     23  S   UNL     1       0.845   2.578   1.886  1.00  0.00     0.007 SA
ATOM     24  N   UNL     1      -0.655   2.099  -0.335  1.00  0.00    -0.231 N 
ATOM     25  H   UNL     1      -0.744   1.702  -1.232  1.00  0.00     0.313 HD
BRANCH  18  26
ATOM     26  C   UNL     1       1.309   0.183  -1.268  1.00  0.00     0.244 C 
ATOM     27  C   UNL     1       0.866   0.879  -2.547  1.00  0.00     0.055 C 
ENDBRANCH  18  26
BRANCH  24  28
ATOM     28  C   UNL     1      -1.699   2.903   0.164  1.00  0.00     0.167 A 
ATOM     29  C   UNL     1      -2.941   2.312   0.403  1.00  0.00     0.056 A 
ATOM     30  C   UNL     1      -1.575   4.286   0.375  1.00  0.00     0.162 A 
ATOM     31  C   UNL     1      -4.004   3.065   0.913  1.00  0.00     0.008 A 
ATOM     32  C   UNL     1      -2.612   5.036   0.921  1.00  0.00     0.054 A 
ATOM     33  C   UNL     1      -3.837   4.424   1.208  1.00  0.00    -0.047 A 
ATOM     34  C   UNL     1      -4.982   5.219   1.761  1.00  0.00     0.044 C 
BRANCH  30  35
ATOM     35  O   UNL     1      -0.426   4.952   0.034  1.00  0.00    -0.504 OA
ATOM     36  H   UNL     1       0.296   4.483  -0.336  1.00  0.00     0.293 HD
ENDBRANCH  30  35
ENDBRANCH  24  28
ENDBRANCH  12  17
ENDBRANCH  10  11
ENDBRANCH   8  10
ENDBRANCH   6   8
ENDBRANCH   5   6
ENDBRANCH   4   5
ENDBRANCH   3   4
ENDBRANCH   2   3
ENDBRANCH   1   2
BRANCH   1  37
ATOM     37  C   UNL     1      -1.675  -2.668   7.394  1.00  0.00     0.188 C 
BRANCH  37  38
ATOM     38  O   UNL     1      -0.444  -2.805   8.099  1.00  0.00    -0.376 OA
BRANCH  38  39
ATOM     39  C   UNL     1      -0.473  -2.472   9.491  1.00  0.00     0.202 C 
BRANCH  39  40
ATOM     40  C   UNL     1      -1.589  -3.127  10.326  1.00  0.00     0.261 C 
BRANCH  40  41
ATOM     41  O   UNL     1      -2.920  -2.736   9.937  1.00  0.00    -0.460 OA
BRANCH  41  42
ATOM     42  C   UNL     1      -3.209  -1.413   9.965  1.00  0.00     0.338 C 
ATOM     43  O   UNL     1      -2.539  -0.537  10.488  1.00  0.00    -0.246 OA
BRANCH  42  44
ATOM     44  C   UNL     1      -4.332  -1.166   9.024  1.00  0.00     0.060 A 
ATOM     45  C   UNL     1      -4.305  -0.001   8.245  1.00  0.00     0.016 A 
ATOM     46  C   UNL     1      -5.357  -2.101   8.843  1.00  0.00     0.016 A 
ATOM     47  C   UNL     1      -5.322   0.253   7.321  1.00  0.00     0.010 A 
ATOM     48  C   UNL     1      -6.377  -1.845   7.921  1.00  0.00     0.010 A 
ATOM     49  C   UNL     1      -6.384  -0.651   7.181  1.00  0.00    -0.014 A 
BRANCH  49  50
ATOM     50  C   UNL     1      -7.603  -0.258   6.429  1.00  0.00     0.031 A 
ATOM     51  C   UNL     1      -8.771   0.284   7.208  1.00  0.00     0.074 A 
ATOM     52  C   UNL     1      -7.682  -0.363   5.090  1.00  0.00     0.049 A 
ATOM     53  N   UNL     1      -9.951   0.660   6.787  1.00  0.00    -0.248 NA
ATOM     54  C   UNL     1      -8.579   0.415   8.662  1.00  0.00     0.031 C 
ATOM     55  C   UNL     1      -6.616  -0.836   4.210  1.00  0.00     0.029 A 
ATOM     56  N   UNL     1      -8.722  -0.079   4.238  1.00  0.00    -0.354 N 
ATOM     57  C   UNL     1     -10.641   1.072   7.921  1.00  0.00     0.074 A 
ATOM     58  C   UNL     1      -9.762   0.864   9.051  1.00  0.00     0.031 C 
ATOM     59  C   UNL     1      -7.061  -0.818   2.940  1.00  0.00     0.029 A 
ATOM     60  C   UNL     1      -8.451  -0.360   2.920  1.00  0.00     0.049 A 
ATOM     61  H   UNL     1      -9.582   0.291   4.543  1.00  0.00     0.167 HD
ATOM     62  C   UNL     1     -11.889   1.588   8.016  1.00  0.00     0.037 A 
ATOM     63  C   UNL     1      -9.239  -0.274   1.828  1.00  0.00     0.037 A 
ATOM     64  C   UNL     1     -12.771   1.785   6.897  1.00  0.00     0.049 A 
ATOM     65  C   UNL     1     -10.657   0.222   1.965  1.00  0.00     0.074 A 
ATOM     66  C   UNL     1     -14.050   2.313   6.893  1.00  0.00     0.029 A 
ATOM     67  N   UNL     1     -12.474   1.449   5.585  1.00  0.00    -0.354 N 
ATOM     68  N   UNL     1     -11.289   0.634   3.039  1.00  0.00    -0.248 NA
ATOM     69  C   UNL     1     -11.470   0.264   0.740  1.00  0.00     0.031 C 
ATOM     70  C   UNL     1     -14.545   2.249   5.587  1.00  0.00     0.029 A 
ATOM     71  C   UNL     1     -13.555   1.731   4.767  1.00  0.00     0.049 A 
ATOM     72  H   UNL     1     -11.620   1.065   5.280  1.00  0.00     0.167 HD
ATOM     73  C   UNL     1     -12.561   1.010   2.614  1.00  0.00     0.074 A 
ATOM     74  C   UNL     1     -12.608   0.782   1.185  1.00  0.00     0.031 C 
ATOM     75  C   UNL     1     -13.594   1.505   3.343  1.00  0.00     0.037 A 
BRANCH  62  76
ATOM     76  C   UNL     1     -12.379   1.942   9.391  1.00  0.00     0.058 A 
ATOM     77  C   UNL     1     -11.861   3.038  10.101  1.00  0.00     0.135 A 
ATOM     78  C   UNL     1     -13.375   1.171  10.011  1.00  0.00     0.135 A 
ATOM     79  F   UNL     1     -10.892   3.795   9.562  1.00  0.00    -0.206 F 
ATOM     80  C   UNL     1     -12.283   3.331  11.393  1.00  0.00     0.059 A 
ATOM     81  C   UNL     1     -13.833   1.463  11.292  1.00  0.00     0.059 A 
ATOM     82  F   UNL     1     -13.902   0.111   9.378  1.00  0.00    -0.206 F 
ATOM     83  C   UNL     1     -13.265   2.533  11.982  1.00  0.00     0.060 A 
BRANCH  83  84
ATOM     84  S   UNL     1     -13.781   2.906  13.671  1.00  0.00     0.124 S 
ATOM     85  O   UNL     1     -12.631   2.434  14.436  1.00  0.00    -0.237 OA
ATOM     86  O   UNL     1     -13.963   4.354  13.630  1.00  0.00    -0.237 OA
ATOM     87  O   UNL     1     -15.005   2.127  13.832  1.00  0.00    -0.744 OA
ENDBRANCH  83  84
ENDBRANCH  62  76
BRANCH  63  88
ATOM     88  C   UNL     1      -8.706  -0.674   0.497  1.00  0.00     0.058 A 
ATOM     89  C   UNL     1      -8.449   0.281  -0.497  1.00  0.00     0.135 A 
ATOM     90  C   UNL     1      -8.444  -2.019   0.195  1.00  0.00     0.135 A 
ATOM     91  F   UNL     1      -8.700   1.578  -0.261  1.00  0.00    -0.206 F 
ATOM     92  C   UNL     1      -7.955  -0.082  -1.746  1.00  0.00     0.059 A 
ATOM     93  C   UNL     1      -7.927  -2.405  -1.037  1.00  0.00     0.059 A 
ATOM     94  F   UNL     1      -8.670  -2.971   1.114  1.00  0.00    -0.206 F 
ATOM     95  C   UNL     1      -7.690  -1.428  -2.004  1.00  0.00     0.060 A 
BRANCH  95  96
ATOM     96  S   UNL     1      -6.986  -1.882  -3.604  1.00  0.00     0.124 S 
ATOM     97  O   UNL     1      -8.129  -1.702  -4.492  1.00  0.00    -0.237 OA
ATOM     98  O   UNL     1      -5.905  -0.911  -3.748  1.00  0.00    -0.237 OA
ATOM     99  O   UNL     1      -6.555  -3.262  -3.401  1.00  0.00    -0.744 OA
ENDBRANCH  95  96
ENDBRANCH  63  88
BRANCH  75 100
ATOM    100  C   UNL     1     -14.859   1.869   2.612  1.00  0.00     0.058 A 
ATOM    101  C   UNL     1     -15.736   0.892   2.117  1.00  0.00     0.135 A 
ATOM    102  C   UNL     1     -15.233   3.216   2.467  1.00  0.00     0.135 A 
ATOM    103  F   UNL     1     -15.428  -0.410   2.226  1.00  0.00    -0.206 F 
ATOM    104  C   UNL     1     -16.930   1.236   1.488  1.00  0.00     0.059 A 
ATOM    105  C   UNL     1     -16.433   3.582   1.864  1.00  0.00     0.059 A 
ATOM    106  F   UNL     1     -14.437   4.192   2.933  1.00  0.00    -0.206 F 
ATOM    107  C   UNL     1     -17.271   2.585   1.369  1.00  0.00     0.060 A 
BRANCH 107 108
ATOM    108  S   UNL     1     -18.840   3.018   0.587  1.00  0.00     0.124 S 
ATOM    109  O   UNL     1     -18.550   2.758  -0.820  1.00  0.00    -0.237 OA
ATOM    110  O   UNL     1     -19.773   2.092   1.223  1.00  0.00    -0.237 OA
ATOM    111  O   UNL     1     -19.021   4.422   0.942  1.00  0.00    -0.744 OA
ENDBRANCH 107 108
ENDBRANCH  75 100
ENDBRANCH  49  50
ENDBRANCH  42  44
ENDBRANCH  41  42
ENDBRANCH  40  41
ENDBRANCH  39  40
ENDBRANCH  38  39
ENDBRANCH  37  38
ENDBRANCH   1  37
TORSDOF 26
