REMARK SMILES Cc1c(Cl)cc2c(c1C)O[C@H](C(F)(F)F)C(C(=O)OCCOCCOCCOC(=O)c1ccc(-c3c4nc(c(-c5c(F)cc(S(=O)(=O)[O-])cc5F)c5ccc([nH]5)c(-c5c(F)cc(S(=O)(=O)[O-])cc5F)c5nc(c(-c6c(F)cc(S(=O)(=O)[O-])cc6F)c6ccc3[nH]6)C=C5)C=C4)cc1)=C2
REMARK SMILES IDX 24 1 23 2 22 3 21 4 20 5 19 6 17 7 18 8 16 9 1 10 2 11 3 12
REMARK SMILES IDX 8 13 4 14 5 15 7 16 9 17 6 18 10 19 97 20 11 21 12 22 13 23
REMARK SMILES IDX 14 24 15 25 25 26 26 27 27 28 28 29 29 30 30 31 31 32 32 33
REMARK SMILES IDX 96 34 33 35 95 36 34 37 35 38 36 39 89 40 37 41 94 42 88 43
REMARK SMILES IDX 90 44 38 45 93 46 87 47 86 48 39 50 73 51 52 52 72 53 53 54
REMARK SMILES IDX 56 55 71 56 91 57 54 58 55 59 70 61 92 62 57 63 40 64 41 65
REMARK SMILES IDX 50 66 42 67 43 68 49 69 51 70 44 71 45 72 46 73 47 74 48 75
REMARK SMILES IDX 74 76 75 77 84 78 76 79 77 80 83 81 85 82 78 83 79 84 80 85
REMARK SMILES IDX 81 86 82 87 58 88 59 89 68 90 60 91 61 92 67 93 69 94 62 95
REMARK SMILES IDX 63 96 64 97 65 98 66 99
REMARK H PARENT 90 49 56 60
REMARK Flexibility Score: inf
ROOT
ATOM      1  C   UNL     1       0.675   4.126   7.579  1.00  0.00     0.188 C 
ENDROOT
BRANCH   1   2
ATOM      2  C   UNL     1       0.326   5.571   7.162  1.00  0.00     0.188 C 
BRANCH   2   3
ATOM      3  O   UNL     1      -0.428   6.398   8.040  1.00  0.00    -0.376 OA
BRANCH   3   4
ATOM      4  C   UNL     1      -1.584   5.884   8.688  1.00  0.00     0.202 C 
BRANCH   4   5
ATOM      5  C   UNL     1      -2.697   5.260   7.838  1.00  0.00     0.261 C 
BRANCH   5   6
ATOM      6  O   UNL     1      -2.240   4.218   6.961  1.00  0.00    -0.460 OA
BRANCH   6   7
ATOM      7  C   UNL     1      -2.454   4.437   5.643  1.00  0.00     0.338 C 
ATOM      8  O   UNL     1      -3.059   5.372   5.144  1.00  0.00    -0.246 OA
BRANCH   7   9
ATOM      9  C   UNL     1      -1.742   3.419   4.847  1.00  0.00     0.087 C 
ATOM     10  C   UNL     1       1.183   0.062   0.068  1.00  0.00     0.046 C 
ATOM     11  C   UNL     1       0.663   1.002   1.128  1.00  0.00    -0.026 A 
ATOM     12  C   UNL     1       0.901   2.386   0.971  1.00  0.00     0.045 A 
ATOM     13  C   UNL     1      -0.057   0.567   2.269  1.00  0.00    -0.004 A 
ATOM     14  Cl  UNL     1       1.820   3.008  -0.359  1.00  0.00    -0.084 Cl
ATOM     15  C   UNL     1       0.391   3.320   1.873  1.00  0.00     0.032 A 
ATOM     16  C   UNL     1      -0.550   1.530   3.185  1.00  0.00     0.131 A 
ATOM     17  C   UNL     1      -0.331  -0.885   2.579  1.00  0.00     0.049 C 
ATOM     18  C   UNL     1      -0.362   2.896   2.965  1.00  0.00     0.019 A 
ATOM     19  O   UNL     1      -1.218   1.048   4.282  1.00  0.00    -0.475 OA
ATOM     20  C   UNL     1      -1.001   3.873   3.830  1.00  0.00     0.027 C 
ATOM     21  C   UNL     1      -1.887   1.965   5.189  1.00  0.00     0.316 C 
BRANCH  21  22
ATOM     22  C   UNL     1      -3.353   1.525   5.309  1.00  0.00     0.430 C 
ATOM     23  F   UNL     1      -3.445   0.201   5.589  1.00  0.00    -0.167 F 
ATOM     24  F   UNL     1      -3.995   2.171   6.312  1.00  0.00    -0.167 F 
ATOM     25  F   UNL     1      -4.050   1.746   4.173  1.00  0.00    -0.167 F 
ENDBRANCH  21  22
ENDBRANCH   7   9
ENDBRANCH   6   7
ENDBRANCH   5   6
ENDBRANCH   4   5
ENDBRANCH   3   4
ENDBRANCH   2   3
ENDBRANCH   1   2
BRANCH   1  26
ATOM     26  O   UNL     1       0.271   3.768   8.878  1.00  0.00    -0.376 OA
BRANCH  26  27
ATOM     27  C   UNL     1       1.159   3.904   9.973  1.00  0.00     0.202 C 
BRANCH  27  28
ATOM     28  C   UNL     1       2.348   4.883  10.049  1.00  0.00     0.261 C 
BRANCH  28  29
ATOM     29  O   UNL     1       2.800   5.497   8.842  1.00  0.00    -0.460 OA
BRANCH  29  30
ATOM     30  C   UNL     1       3.805   4.871   8.186  1.00  0.00     0.338 C 
ATOM     31  O   UNL     1       4.327   3.813   8.482  1.00  0.00    -0.246 OA
BRANCH  30  32
ATOM     32  C   UNL     1       4.039   5.596   6.920  1.00  0.00     0.060 A 
ATOM     33  C   UNL     1       3.810   4.925   5.712  1.00  0.00     0.016 A 
ATOM     34  C   UNL     1       4.487   6.920   6.925  1.00  0.00     0.016 A 
ATOM     35  C   UNL     1       4.064   5.567   4.500  1.00  0.00     0.010 A 
ATOM     36  C   UNL     1       4.767   7.552   5.710  1.00  0.00     0.010 A 
ATOM     37  C   UNL     1       4.589   6.867   4.496  1.00  0.00    -0.014 A 
BRANCH  37  38
ATOM     38  C   UNL     1       5.165   7.418   3.246  1.00  0.00     0.031 A 
ATOM     39  C   UNL     1       6.632   7.202   2.990  1.00  0.00     0.074 A 
ATOM     40  C   UNL     1       4.408   8.072   2.347  1.00  0.00     0.049 A 
ATOM     41  N   UNL     1       7.377   7.635   2.008  1.00  0.00    -0.248 NA
ATOM     42  C   UNL     1       7.354   6.381   3.977  1.00  0.00     0.031 C 
ATOM     43  C   UNL     1       2.967   8.295   2.454  1.00  0.00     0.029 A 
ATOM     44  N   UNL     1       4.756   8.674   1.164  1.00  0.00    -0.354 N 
ATOM     45  C   UNL     1       8.651   7.137   2.254  1.00  0.00     0.074 A 
ATOM     46  C   UNL     1       8.586   6.393   3.492  1.00  0.00     0.031 C 
ATOM     47  C   UNL     1       2.555   8.995   1.381  1.00  0.00     0.029 A 
ATOM     48  C   UNL     1       3.707   9.298   0.532  1.00  0.00     0.049 A 
ATOM     49  H   UNL     1       5.671   8.660   0.802  1.00  0.00     0.167 HD
ATOM     50  C   UNL     1       9.773   7.280   1.512  1.00  0.00     0.037 A 
ATOM     51  C   UNL     1       3.689  10.047  -0.590  1.00  0.00     0.037 A 
ATOM     52  C   UNL     1       9.840   8.036   0.289  1.00  0.00     0.049 A 
ATOM     53  C   UNL     1       4.973  10.277  -1.347  1.00  0.00     0.074 A 
ATOM     54  C   UNL     1      10.935   8.254  -0.528  1.00  0.00     0.029 A 
ATOM     55  N   UNL     1       8.770   8.701  -0.288  1.00  0.00    -0.354 N 
ATOM     56  N   UNL     1       6.175   9.814  -1.097  1.00  0.00    -0.248 NA
ATOM     57  C   UNL     1       4.899  11.139  -2.536  1.00  0.00     0.031 C 
ATOM     58  C   UNL     1      10.536   9.088  -1.578  1.00  0.00     0.029 A 
ATOM     59  C   UNL     1       9.182   9.350  -1.440  1.00  0.00     0.049 A 
ATOM     60  H   UNL     1       7.852   8.711   0.068  1.00  0.00     0.167 HD
ATOM     61  C   UNL     1       6.995  10.313  -2.106  1.00  0.00     0.074 A 
ATOM     62  C   UNL     1       6.148  11.100  -2.978  1.00  0.00     0.031 C 
ATOM     63  C   UNL     1       8.327  10.136  -2.293  1.00  0.00     0.037 A 
BRANCH  50  64
ATOM     64  C   UNL     1      11.026   6.624   2.018  1.00  0.00     0.058 A 
ATOM     65  C   UNL     1      11.205   5.234   1.951  1.00  0.00     0.135 A 
ATOM     66  C   UNL     1      12.072   7.397   2.546  1.00  0.00     0.135 A 
ATOM     67  F   UNL     1      10.224   4.447   1.479  1.00  0.00    -0.206 F 
ATOM     68  C   UNL     1      12.373   4.630   2.403  1.00  0.00     0.059 A 
ATOM     69  C   UNL     1      13.259   6.816   2.983  1.00  0.00     0.059 A 
ATOM     70  F   UNL     1      11.946   8.730   2.642  1.00  0.00    -0.206 F 
ATOM     71  C   UNL     1      13.396   5.431   2.914  1.00  0.00     0.060 A 
BRANCH  71  72
ATOM     72  S   UNL     1      14.913   4.631   3.480  1.00  0.00     0.124 S 
ATOM     73  O   UNL     1      14.454   3.957   4.690  1.00  0.00    -0.237 OA
ATOM     74  O   UNL     1      15.242   3.761   2.356  1.00  0.00    -0.237 OA
ATOM     75  O   UNL     1      15.828   5.748   3.694  1.00  0.00    -0.744 OA
ENDBRANCH  71  72
ENDBRANCH  50  64
BRANCH  51  76
ATOM     76  C   UNL     1       2.415  10.655  -1.060  1.00  0.00     0.058 A 
ATOM     77  C   UNL     1       1.791  10.210  -2.234  1.00  0.00     0.135 A 
ATOM     78  C   UNL     1       1.801  11.699  -0.349  1.00  0.00     0.135 A 
ATOM     79  F   UNL     1       2.349   9.228  -2.959  1.00  0.00    -0.206 F 
ATOM     80  C   UNL     1       0.607  10.780  -2.692  1.00  0.00     0.059 A 
ATOM     81  C   UNL     1       0.605  12.269  -0.774  1.00  0.00     0.059 A 
ATOM     82  F   UNL     1       2.357  12.161   0.782  1.00  0.00    -0.206 F 
ATOM     83  C   UNL     1       0.018  11.807  -1.951  1.00  0.00     0.060 A 
BRANCH  83  84
ATOM     84  S   UNL     1      -1.546  12.502  -2.527  1.00  0.00     0.124 S 
ATOM     85  O   UNL     1      -1.122  13.246  -3.707  1.00  0.00    -0.237 OA
ATOM     86  O   UNL     1      -2.338  11.302  -2.779  1.00  0.00    -0.237 OA
ATOM     87  O   UNL     1      -1.990  13.312  -1.397  1.00  0.00    -0.744 OA
ENDBRANCH  83  84
ENDBRANCH  51  76
BRANCH  63  88
ATOM     88  C   UNL     1       8.953  10.794  -3.493  1.00  0.00     0.058 A 
ATOM     89  C   UNL     1       9.161  12.181  -3.546  1.00  0.00     0.135 A 
ATOM     90  C   UNL     1       9.395  10.024  -4.581  1.00  0.00     0.135 A 
ATOM     91  F   UNL     1       8.755  12.964  -2.533  1.00  0.00    -0.206 F 
ATOM     92  C   UNL     1       9.760  12.785  -4.647  1.00  0.00     0.059 A 
ATOM     93  C   UNL     1      10.021  10.603  -5.681  1.00  0.00     0.059 A 
ATOM     94  F   UNL     1       9.234   8.691  -4.576  1.00  0.00    -0.206 F 
ATOM     95  C   UNL     1      10.187  11.987  -5.710  1.00  0.00     0.060 A 
BRANCH  95  96
ATOM     96  S   UNL     1      10.979  12.782  -7.124  1.00  0.00     0.124 S 
ATOM     97  O   UNL     1       9.843  13.430  -7.772  1.00  0.00    -0.237 OA
ATOM     98  O   UNL     1      11.938  13.676  -6.483  1.00  0.00    -0.237 OA
ATOM     99  O   UNL     1      11.566  11.665  -7.858  1.00  0.00    -0.744 OA
ENDBRANCH  95  96
ENDBRANCH  63  88
ENDBRANCH  37  38
ENDBRANCH  30  32
ENDBRANCH  29  30
ENDBRANCH  28  29
ENDBRANCH  27  28
ENDBRANCH  26  27
ENDBRANCH   1  26
TORSDOF 21
