REMARK SMILES Cc1ccc(-c2cc(C(=O)OCCOCCOCCOC(=O)c3ccc(-c4c5nc(c(-c6c(F)cc(S(=O)(=O)[O-])cc6F)c6ccc([nH]6)c(-c6c(F)cc(S(=O)(=O)[O-])cc6F)c6nc(c(-c7c(F)cc(S(=O)(=O)[O-])cc7F)c7ccc4[nH]7)C=C6)C=C5)cc3)c3c(-c4cccc([N+](=O)[O-])c4)[nH]nc3n2)cc1
REMARK SMILES IDX 16 1 15 2 14 3 13 4 12 5 11 6 9 7 10 8 8 9 6 10 7 11 103 12
REMARK SMILES IDX 102 13 89 14 101 15 90 16 100 17 5 19 1 20 2 21 3 22 105 23
REMARK SMILES IDX 4 24 104 25 91 26 92 27 99 28 93 29 95 30 94 31 96 32 97 33
REMARK SMILES IDX 98 34 17 35 18 36 19 37 20 38 21 39 22 40 23 41 24 42 88 43
REMARK SMILES IDX 25 44 87 45 26 46 27 47 28 48 81 49 29 50 86 51 80 52 82 53
REMARK SMILES IDX 30 54 85 55 79 56 78 57 31 59 65 60 44 61 64 62 45 63 48 64
REMARK SMILES IDX 63 65 83 66 46 67 47 68 62 70 84 71 49 72 32 73 33 74 42 75
REMARK SMILES IDX 34 76 35 77 41 78 43 79 36 80 37 81 38 82 39 83 40 84 66 85
REMARK SMILES IDX 67 86 76 87 68 88 69 89 75 90 77 91 70 92 71 93 72 94 73 95
REMARK SMILES IDX 74 96 50 97 51 98 60 99 52 100 53 101 59 102 61 103 54 104
REMARK SMILES IDX 55 105 56 106 57 107 58 108
REMARK H PARENT 100 18 82 58 48 69
REMARK Flexibility Score: inf
ROOT
ATOM      1  C   UNL     1      -6.883  -0.068  -7.181  1.00  0.00     0.188 C 
ENDROOT
BRANCH   1   2
ATOM      2  C   UNL     1      -7.191   1.284  -6.499  1.00  0.00     0.188 C 
BRANCH   2   3
ATOM      3  O   UNL     1      -6.271   2.380  -6.280  1.00  0.00    -0.376 OA
BRANCH   3   4
ATOM      4  C   UNL     1      -4.843   2.346  -6.064  1.00  0.00     0.202 C 
BRANCH   4   5
ATOM      5  C   UNL     1      -3.858   2.245  -4.555  1.00  0.00     0.261 C 
BRANCH   5   6
ATOM      6  O   UNL     1      -4.011   1.270  -3.031  1.00  0.00    -0.460 OA
BRANCH   6   7
ATOM      7  C   UNL     1      -4.804   1.170  -1.712  1.00  0.00     0.339 C 
ATOM      8  O   UNL     1      -5.575   1.978  -1.192  1.00  0.00    -0.246 OA
BRANCH   7   9
ATOM      9  C   UNL     1      -4.622   0.074  -0.767  1.00  0.00     0.075 A 
ATOM     10  C   UNL     1      -2.775  -0.607   0.654  1.00  0.00     0.074 A 
ATOM     11  C   UNL     1      -3.269   0.004  -0.494  1.00  0.00     0.045 A 
ATOM     12  N   UNL     1      -3.471  -1.308   1.564  1.00  0.00    -0.226 NA
ATOM     13  C   UNL     1      -4.808  -1.277   1.365  1.00  0.00     0.182 A 
ATOM     14  C   UNL     1      -5.475  -0.562   0.258  1.00  0.00     0.061 A 
ATOM     15  N   UNL     1      -5.641  -1.888   2.193  1.00  0.00    -0.154 NA
ATOM     16  C   UNL     1      -6.851  -0.719   0.614  1.00  0.00     0.076 A 
ATOM     17  N   UNL     1      -6.824  -1.548   1.727  1.00  0.00    -0.275 N 
ATOM     18  H   UNL     1      -7.654  -1.867   2.149  1.00  0.00     0.190 HD
BRANCH  10  19
ATOM     19  C   UNL     1      -1.340  -0.510   0.833  1.00  0.00     0.000 A 
ATOM     20  C   UNL     1       2.832  -0.157  -0.009  1.00  0.00     0.044 C 
ATOM     21  C   UNL     1       1.390  -0.271   0.371  1.00  0.00    -0.051 A 
ATOM     22  C   UNL     1       0.786  -1.536   0.393  1.00  0.00     0.004 A 
ATOM     23  C   UNL     1       0.640   0.870   0.671  1.00  0.00     0.004 A 
ATOM     24  C   UNL     1      -0.574  -1.656   0.631  1.00  0.00     0.010 A 
ATOM     25  C   UNL     1      -0.722   0.751   0.910  1.00  0.00     0.010 A 
ENDBRANCH  10  19
BRANCH  16  26
ATOM     26  C   UNL     1      -8.276  -0.366   0.327  1.00  0.00     0.007 A 
ATOM     27  C   UNL     1      -8.852   0.784   0.908  1.00  0.00     0.011 A 
ATOM     28  C   UNL     1      -9.191  -1.364  -0.112  1.00  0.00     0.096 A 
ATOM     29  C   UNL     1     -10.254   0.983   0.960  1.00  0.00     0.008 A 
ATOM     30  C   UNL     1     -10.594  -1.147  -0.074  1.00  0.00     0.270 A 
ATOM     31  C   UNL     1     -11.131   0.030   0.450  1.00  0.00     0.085 A 
BRANCH  30  32
ATOM     32  N   UNL     1     -11.528  -2.162  -0.581  1.00  0.00     0.062 N 
ATOM     33  O   UNL     1     -11.237  -3.347  -0.373  1.00  0.00    -0.258 OA
ATOM     34  O   UNL     1     -12.591  -1.758  -1.077  1.00  0.00    -0.258 OA
ENDBRANCH  30  32
ENDBRANCH  16  26
ENDBRANCH   7   9
ENDBRANCH   6   7
ENDBRANCH   5   6
ENDBRANCH   4   5
ENDBRANCH   3   4
ENDBRANCH   2   3
ENDBRANCH   1   2
BRANCH   1  35
ATOM     35  O   UNL     1      -5.502  -0.380  -7.272  1.00  0.00    -0.376 OA
BRANCH  35  36
ATOM     36  C   UNL     1      -5.193  -1.677  -7.783  1.00  0.00     0.202 C 
BRANCH  36  37
ATOM     37  C   UNL     1      -5.793  -2.928  -7.072  1.00  0.00     0.261 C 
BRANCH  37  38
ATOM     38  O   UNL     1      -5.082  -3.417  -5.891  1.00  0.00    -0.460 OA
BRANCH  38  39
ATOM     39  C   UNL     1      -5.696  -3.401  -4.652  1.00  0.00     0.338 C 
ATOM     40  O   UNL     1      -5.787  -4.414  -3.949  1.00  0.00    -0.246 OA
BRANCH  39  41
ATOM     41  C   UNL     1      -5.894  -2.031  -4.123  1.00  0.00     0.060 A 
ATOM     42  C   UNL     1      -6.794  -1.477  -3.212  1.00  0.00     0.016 A 
ATOM     43  C   UNL     1      -5.006  -1.158  -4.614  1.00  0.00     0.016 A 
ATOM     44  C   UNL     1      -6.928  -0.017  -3.006  1.00  0.00     0.010 A 
ATOM     45  C   UNL     1      -5.329   0.189  -4.556  1.00  0.00     0.010 A 
ATOM     46  C   UNL     1      -6.236   0.951  -3.736  1.00  0.00    -0.014 A 
BRANCH  46  47
ATOM     47  C   UNL     1      -6.175   2.712  -3.445  1.00  0.00     0.031 A 
ATOM     48  C   UNL     1      -4.946   3.752  -2.613  1.00  0.00     0.074 A 
ATOM     49  C   UNL     1      -7.219   3.483  -3.840  1.00  0.00     0.049 A 
ATOM     50  N   UNL     1      -5.157   4.969  -2.149  1.00  0.00    -0.248 NA
ATOM     51  C   UNL     1      -3.471   3.480  -2.281  1.00  0.00     0.031 C 
ATOM     52  C   UNL     1      -7.302   4.946  -3.863  1.00  0.00     0.029 A 
ATOM     53  N   UNL     1      -8.510   3.095  -4.207  1.00  0.00    -0.354 N 
ATOM     54  C   UNL     1      -3.942   5.582  -1.773  1.00  0.00     0.074 A 
ATOM     55  C   UNL     1      -2.934   4.613  -1.882  1.00  0.00     0.031 C 
ATOM     56  C   UNL     1      -8.592   5.312  -3.837  1.00  0.00     0.029 A 
ATOM     57  C   UNL     1      -9.374   4.103  -3.718  1.00  0.00     0.049 A 
ATOM     58  H   UNL     1      -8.767   2.285  -4.705  1.00  0.00     0.167 HD
ATOM     59  C   UNL     1      -3.804   6.904  -1.474  1.00  0.00     0.037 A 
ATOM     60  C   UNL     1     -10.284   3.828  -2.741  1.00  0.00     0.037 A 
ATOM     61  C   UNL     1      -5.109   7.479  -1.302  1.00  0.00     0.049 A 
ATOM     62  C   UNL     1     -10.056   4.628  -1.446  1.00  0.00     0.074 A 
ATOM     63  C   UNL     1      -5.959   8.185  -2.130  1.00  0.00     0.029 A 
ATOM     64  N   UNL     1      -5.875   6.993  -0.256  1.00  0.00    -0.354 N 
ATOM     65  N   UNL     1      -9.099   5.500  -1.250  1.00  0.00    -0.248 NA
ATOM     66  C   UNL     1     -10.896   4.503  -0.253  1.00  0.00     0.031 C 
ATOM     67  C   UNL     1      -7.273   8.044  -1.613  1.00  0.00     0.029 A 
ATOM     68  C   UNL     1      -7.206   7.286  -0.458  1.00  0.00     0.049 A 
ATOM     69  H   UNL     1      -5.519   6.506   0.522  1.00  0.00     0.167 HD
ATOM     70  C   UNL     1      -9.128   5.981   0.045  1.00  0.00     0.074 A 
ATOM     71  C   UNL     1     -10.307   5.355   0.609  1.00  0.00     0.031 C 
ATOM     72  C   UNL     1      -8.175   6.844   0.533  1.00  0.00     0.037 A 
BRANCH  59  73
ATOM     73  C   UNL     1      -2.481   7.657  -1.660  1.00  0.00     0.058 A 
ATOM     74  C   UNL     1      -2.483   8.933  -2.260  1.00  0.00     0.135 A 
ATOM     75  C   UNL     1      -1.184   7.142  -1.421  1.00  0.00     0.135 A 
ATOM     76  F   UNL     1      -3.621   9.618  -2.425  1.00  0.00    -0.206 F 
ATOM     77  C   UNL     1      -1.324   9.558  -2.739  1.00  0.00     0.059 A 
ATOM     78  C   UNL     1      -0.016   7.707  -1.960  1.00  0.00     0.059 A 
ATOM     79  F   UNL     1      -0.993   6.085  -0.617  1.00  0.00    -0.206 F 
ATOM     80  C   UNL     1      -0.099   8.914  -2.635  1.00  0.00     0.060 A 
BRANCH  80  81
ATOM     81  S   UNL     1       1.359   9.667  -3.392  1.00  0.00     0.124 S 
ATOM     82  O   UNL     1       0.858  10.086  -4.698  1.00  0.00    -0.237 OA
ATOM     83  O   UNL     1       1.663  10.742  -2.454  1.00  0.00    -0.237 OA
ATOM     84  O   UNL     1       2.325   8.572  -3.428  1.00  0.00    -0.744 OA
ENDBRANCH  80  81
ENDBRANCH  59  73
BRANCH  60  85
ATOM     85  C   UNL     1     -10.778   2.415  -2.872  1.00  0.00     0.058 A 
ATOM     86  C   UNL     1     -11.678   2.031  -3.887  1.00  0.00     0.135 A 
ATOM     87  C   UNL     1      -9.975   1.398  -2.377  1.00  0.00     0.135 A 
ATOM     88  F   UNL     1     -12.458   2.960  -4.459  1.00  0.00    -0.206 F 
ATOM     89  C   UNL     1     -11.715   0.728  -4.425  1.00  0.00     0.059 A 
ATOM     90  C   UNL     1     -10.012   0.096  -2.891  1.00  0.00     0.059 A 
ATOM     91  F   UNL     1      -8.998   1.729  -1.526  1.00  0.00    -0.206 F 
ATOM     92  C   UNL     1     -10.844  -0.234  -3.941  1.00  0.00     0.060 A 
BRANCH  92  93
ATOM     93  S   UNL     1     -10.619  -1.830  -4.779  1.00  0.00     0.124 S 
ATOM     94  O   UNL     1     -11.798  -2.574  -4.335  1.00  0.00    -0.237 OA
ATOM     95  O   UNL     1     -10.600  -1.441  -6.191  1.00  0.00    -0.237 OA
ATOM     96  O   UNL     1      -9.357  -2.325  -4.276  1.00  0.00    -0.744 OA
ENDBRANCH  92  93
ENDBRANCH  60  85
BRANCH  72  97
ATOM     97  C   UNL     1      -7.995   7.419   1.945  1.00  0.00     0.058 A 
ATOM     98  C   UNL     1      -8.474   6.851   3.134  1.00  0.00     0.135 A 
ATOM     99  C   UNL     1      -7.169   8.570   2.134  1.00  0.00     0.135 A 
ATOM    100  F   UNL     1      -9.188   5.718   3.126  1.00  0.00    -0.206 F 
ATOM    101  C   UNL     1      -8.206   7.406   4.398  1.00  0.00     0.059 A 
ATOM    102  C   UNL     1      -6.833   9.093   3.380  1.00  0.00     0.059 A 
ATOM    103  F   UNL     1      -6.646   9.244   1.099  1.00  0.00    -0.206 F 
ATOM    104  C   UNL     1      -7.387   8.528   4.511  1.00  0.00     0.060 A 
BRANCH 104 105
ATOM    105  S   UNL     1      -7.021   9.257   6.120  1.00  0.00     0.124 S 
ATOM    106  O   UNL     1      -8.060  10.278   6.218  1.00  0.00    -0.237 OA
ATOM    107  O   UNL     1      -7.161   8.126   7.032  1.00  0.00    -0.237 OA
ATOM    108  O   UNL     1      -5.659   9.757   5.958  1.00  0.00    -0.744 OA
ENDBRANCH 104 105
ENDBRANCH  72  97
ENDBRANCH  46  47
ENDBRANCH  39  41
ENDBRANCH  38  39
ENDBRANCH  37  38
ENDBRANCH  36  37
ENDBRANCH  35  36
ENDBRANCH   1  35
TORSDOF 23
