REMARK SMILES O=C(OCCOCCOCCOC(=O)c1cc(-c2ccoc2)n[nH]1)c1ccc(-c2c3nc(c(-c4c(F)cc(S(=O)(=O)[O-])cc4F)c4ccc([nH]4)c(-c4c(F)cc(S(=O)(=O)[O-])cc4F)c4nc(c(-c5c(F)cc(S(=O)(=O)[O-])cc5F)c5ccc2[nH]5)C=C4)C=C3)cc1
REMARK SMILES IDX 7 1 6 2 5 3 4 4 3 5 2 6 1 7 25 8 26 9 90 10 27 11 89 12
REMARK SMILES IDX 28 13 29 14 30 15 83 16 31 17 88 18 82 19 84 20 32 21 87 22
REMARK SMILES IDX 81 23 80 24 33 26 67 27 46 28 66 29 47 30 50 31 65 32 85 33
REMARK SMILES IDX 48 34 49 35 64 37 86 38 51 39 34 40 35 41 44 42 36 43 37 44
REMARK SMILES IDX 43 45 45 46 38 47 39 48 40 49 41 50 42 51 68 52 69 53 78 54
REMARK SMILES IDX 70 55 71 56 77 57 79 58 72 59 73 60 74 61 75 62 76 63 52 64
REMARK SMILES IDX 53 65 62 66 54 67 55 68 61 69 63 70 56 71 57 72 58 73 59 74
REMARK SMILES IDX 60 75 8 76 9 77 10 78 11 79 12 80 13 81 14 82 15 83 16 84
REMARK SMILES IDX 24 85 17 86 23 87 18 89 19 90 22 91 20 92 21 93
REMARK H PARENT 84 25 50 36 24 88
REMARK Flexibility Score: inf
ROOT
ATOM      1  C   UNL     1       2.312   0.554  -2.155  1.00  0.00     0.188 C 
ENDROOT
BRANCH   1   2
ATOM      2  O   UNL     1       3.590   0.679  -1.511  1.00  0.00    -0.376 OA
BRANCH   2   3
ATOM      3  C   UNL     1       4.398  -0.500  -1.610  1.00  0.00     0.202 C 
BRANCH   3   4
ATOM      4  C   UNL     1       4.218  -1.482  -0.447  1.00  0.00     0.261 C 
BRANCH   4   5
ATOM      5  O   UNL     1       2.848  -1.547  -0.022  1.00  0.00    -0.460 OA
BRANCH   5   6
ATOM      6  C   UNL     1       2.242  -0.814   0.947  1.00  0.00     0.338 C 
ATOM      7  O   UNL     1       1.025  -0.924   1.089  1.00  0.00    -0.246 OA
BRANCH   6   8
ATOM      8  C   UNL     1       2.983   0.065   1.904  1.00  0.00     0.060 A 
ATOM      9  C   UNL     1       4.154   0.769   1.614  1.00  0.00     0.016 A 
ATOM     10  C   UNL     1       2.424   0.218   3.184  1.00  0.00     0.016 A 
ATOM     11  C   UNL     1       4.842   1.456   2.613  1.00  0.00     0.010 A 
ATOM     12  C   UNL     1       3.072   0.970   4.171  1.00  0.00     0.010 A 
ATOM     13  C   UNL     1       4.323   1.536   3.907  1.00  0.00    -0.014 A 
BRANCH  13  14
ATOM     14  C   UNL     1       5.171   2.102   4.983  1.00  0.00     0.031 A 
ATOM     15  C   UNL     1       5.777   1.173   5.998  1.00  0.00     0.074 A 
ATOM     16  C   UNL     1       5.496   3.407   4.974  1.00  0.00     0.049 A 
ATOM     17  N   UNL     1       6.591   1.443   6.984  1.00  0.00    -0.248 NA
ATOM     18  C   UNL     1       5.431  -0.254   5.880  1.00  0.00     0.031 C 
ATOM     19  C   UNL     1       5.010   4.388   4.005  1.00  0.00     0.029 A 
ATOM     20  N   UNL     1       6.336   4.127   5.782  1.00  0.00    -0.354 N 
ATOM     21  C   UNL     1       6.840   0.229   7.612  1.00  0.00     0.074 A 
ATOM     22  C   UNL     1       6.078  -0.779   6.908  1.00  0.00     0.031 C 
ATOM     23  C   UNL     1       5.585   5.576   4.252  1.00  0.00     0.029 A 
ATOM     24  C   UNL     1       6.450   5.447   5.418  1.00  0.00     0.049 A 
ATOM     25  H   UNL     1       6.812   3.736   6.550  1.00  0.00     0.167 HD
ATOM     26  C   UNL     1       7.639  -0.026   8.675  1.00  0.00     0.037 A 
ATOM     27  C   UNL     1       7.165   6.443   5.973  1.00  0.00     0.037 A 
ATOM     28  C   UNL     1       8.398   0.979   9.367  1.00  0.00     0.049 A 
ATOM     29  C   UNL     1       8.007   6.148   7.178  1.00  0.00     0.074 A 
ATOM     30  C   UNL     1       9.208   0.839  10.479  1.00  0.00     0.029 A 
ATOM     31  N   UNL     1       8.438   2.319   9.006  1.00  0.00    -0.354 N 
ATOM     32  N   UNL     1       8.195   5.002   7.788  1.00  0.00    -0.248 NA
ATOM     33  C   UNL     1       8.726   7.280   7.775  1.00  0.00     0.031 C 
ATOM     34  C   UNL     1       9.722   2.101  10.804  1.00  0.00     0.029 A 
ATOM     35  C   UNL     1       9.254   3.019   9.877  1.00  0.00     0.049 A 
ATOM     36  H   UNL     1       7.957   2.712   8.243  1.00  0.00     0.167 HD
ATOM     37  C   UNL     1       9.051   5.274   8.847  1.00  0.00     0.074 A 
ATOM     38  C   UNL     1       9.360   6.690   8.780  1.00  0.00     0.031 C 
ATOM     39  C   UNL     1       9.534   4.431   9.792  1.00  0.00     0.037 A 
BRANCH  26  40
ATOM     40  C   UNL     1       7.683  -1.445   9.161  1.00  0.00     0.058 A 
ATOM     41  C   UNL     1       8.392  -2.440   8.468  1.00  0.00     0.135 A 
ATOM     42  C   UNL     1       6.963  -1.826  10.304  1.00  0.00     0.135 A 
ATOM     43  F   UNL     1       9.072  -2.132   7.352  1.00  0.00    -0.206 F 
ATOM     44  C   UNL     1       8.355  -3.771   8.871  1.00  0.00     0.059 A 
ATOM     45  C   UNL     1       6.927  -3.148  10.736  1.00  0.00     0.059 A 
ATOM     46  F   UNL     1       6.262  -0.914  10.995  1.00  0.00    -0.206 F 
ATOM     47  C   UNL     1       7.608  -4.117   9.999  1.00  0.00     0.060 A 
BRANCH  47  48
ATOM     48  S   UNL     1       7.522  -5.854  10.484  1.00  0.00     0.124 S 
ATOM     49  O   UNL     1       6.560  -6.377   9.518  1.00  0.00    -0.237 OA
ATOM     50  O   UNL     1       8.900  -6.301  10.308  1.00  0.00    -0.237 OA
ATOM     51  O   UNL     1       7.057  -5.797  11.866  1.00  0.00    -0.744 OA
ENDBRANCH  47  48
ENDBRANCH  26  40
BRANCH  27  52
ATOM     52  C   UNL     1       7.086   7.811   5.407  1.00  0.00     0.058 A 
ATOM     53  C   UNL     1       8.111   8.331   4.606  1.00  0.00     0.135 A 
ATOM     54  C   UNL     1       5.959   8.613   5.637  1.00  0.00     0.135 A 
ATOM     55  F   UNL     1       9.213   7.602   4.369  1.00  0.00    -0.206 F 
ATOM     56  C   UNL     1       8.020   9.601   4.042  1.00  0.00     0.059 A 
ATOM     57  C   UNL     1       5.839   9.879   5.076  1.00  0.00     0.059 A 
ATOM     58  F   UNL     1       4.957   8.156   6.403  1.00  0.00    -0.206 F 
ATOM     59  C   UNL     1       6.875  10.365   4.279  1.00  0.00     0.060 A 
BRANCH  59  60
ATOM     60  S   UNL     1       6.699  11.975   3.479  1.00  0.00     0.124 S 
ATOM     61  O   UNL     1       7.344  12.856   4.446  1.00  0.00    -0.237 OA
ATOM     62  O   UNL     1       7.409  11.785   2.217  1.00  0.00    -0.237 OA
ATOM     63  O   UNL     1       5.251  12.119   3.353  1.00  0.00    -0.744 OA
ENDBRANCH  59  60
ENDBRANCH  27  52
BRANCH  39  64
ATOM     64  C   UNL     1      10.447   5.023  10.820  1.00  0.00     0.058 A 
ATOM     65  C   UNL     1       9.945   5.768  11.898  1.00  0.00     0.135 A 
ATOM     66  C   UNL     1      11.833   4.819  10.742  1.00  0.00     0.135 A 
ATOM     67  F   UNL     1       8.627   5.994  12.007  1.00  0.00    -0.206 F 
ATOM     68  C   UNL     1      10.792   6.308  12.858  1.00  0.00     0.059 A 
ATOM     69  C   UNL     1      12.696   5.337  11.701  1.00  0.00     0.059 A 
ATOM     70  F   UNL     1      12.356   4.108   9.731  1.00  0.00    -0.206 F 
ATOM     71  C   UNL     1      12.167   6.090  12.749  1.00  0.00     0.060 A 
BRANCH  71  72
ATOM     72  S   UNL     1      13.261   6.773  14.011  1.00  0.00     0.124 S 
ATOM     73  O   UNL     1      13.384   8.159  13.572  1.00  0.00    -0.237 OA
ATOM     74  O   UNL     1      12.501   6.562  15.239  1.00  0.00    -0.237 OA
ATOM     75  O   UNL     1      14.468   5.962  13.883  1.00  0.00    -0.744 OA
ENDBRANCH  71  72
ENDBRANCH  39  64
ENDBRANCH  13  14
ENDBRANCH   6   8
ENDBRANCH   5   6
ENDBRANCH   4   5
ENDBRANCH   3   4
ENDBRANCH   2   3
ENDBRANCH   1   2
BRANCH   1  76
ATOM     76  C   UNL     1       1.847   1.912  -2.690  1.00  0.00     0.188 C 
BRANCH  76  77
ATOM     77  O   UNL     1       2.488   2.311  -3.907  1.00  0.00    -0.376 OA
BRANCH  77  78
ATOM     78  C   UNL     1       3.899   2.516  -3.846  1.00  0.00     0.202 C 
BRANCH  78  79
ATOM     79  C   UNL     1       4.329   3.853  -3.247  1.00  0.00     0.261 C 
BRANCH  79  80
ATOM     80  O   UNL     1       3.813   4.066  -1.923  1.00  0.00    -0.459 OA
BRANCH  80  81
ATOM     81  C   UNL     1       3.266   5.301  -1.730  1.00  0.00     0.356 C 
ATOM     82  O   UNL     1       3.130   6.154  -2.594  1.00  0.00    -0.244 OA
BRANCH  81  83
ATOM     83  C   UNL     1       2.935   5.498  -0.351  1.00  0.00     0.144 A 
ATOM     84  C   UNL     1       2.903   6.695   0.335  1.00  0.00     0.066 A 
ATOM     85  N   UNL     1       2.570   4.554   0.567  1.00  0.00    -0.271 N 
ATOM     86  C   UNL     1       2.506   6.374   1.646  1.00  0.00     0.096 A 
ATOM     87  N   UNL     1       2.272   5.062   1.780  1.00  0.00    -0.175 NA
ATOM     88  H   UNL     1       2.528   3.592   0.361  1.00  0.00     0.190 HD
BRANCH  86  89
ATOM     89  C   UNL     1       2.386   7.355   2.718  1.00  0.00     0.040 A 
ATOM     90  C   UNL     1       2.446   8.765   2.558  1.00  0.00     0.052 A 
ATOM     91  C   UNL     1       2.230   7.132   4.066  1.00  0.00     0.205 A 
ATOM     92  C   UNL     1       2.328   9.300   3.820  1.00  0.00     0.195 A 
ATOM     93  O   UNL     1       2.183   8.313   4.741  1.00  0.00    -0.472 OA
ENDBRANCH  86  89
ENDBRANCH  81  83
ENDBRANCH  80  81
ENDBRANCH  79  80
ENDBRANCH  78  79
ENDBRANCH  77  78
ENDBRANCH  76  77
ENDBRANCH   1  76
TORSDOF 21
