REMARK SMILES Cc1ccc(NC(=O)C[NH+]2CCN(c3ccc(C(=O)OCCOCCOCCOC(=O)c4ccc(-c5c6nc(c(-c7c(F)cc(S(=O)(=O)[O-])cc7F)c7ccc([nH]7)c(-c7c(F)cc(S(=O)(=O)[O-])cc7F)c7nc(c(-c8c(F)cc(S(=O)(=O)[O-])cc8F)c8ccc5[nH]8)C=C7)C=C6)cc4)cc3NS(C)(=O)=O)CC2)cc1
REMARK SMILES IDX 24 1 23 2 22 3 21 4 20 5 18 6 19 7 17 8 14 9 15 10 99 11
REMARK SMILES IDX 16 12 98 13 13 14 10 15 11 16 106 17 12 19 105 20 9 21 7 22
REMARK SMILES IDX 6 23 8 25 5 26 1 27 2 28 3 29 108 30 4 31 107 32 100 33
REMARK SMILES IDX 101 35 102 36 103 37 104 38 25 39 26 40 27 41 28 42 29 43
REMARK SMILES IDX 30 44 31 45 32 46 33 47 97 48 34 49 96 50 35 51 36 52 37 53
REMARK SMILES IDX 90 54 38 55 95 56 89 57 91 58 39 59 94 60 88 61 87 62 40 64
REMARK SMILES IDX 74 65 53 66 73 67 54 68 57 69 72 70 92 71 55 72 56 73 71 75
REMARK SMILES IDX 93 76 58 77 41 78 42 79 51 80 43 81 44 82 50 83 52 84 45 85
REMARK SMILES IDX 46 86 47 87 48 88 49 89 75 90 76 91 85 92 77 93 78 94 84 95
REMARK SMILES IDX 86 96 79 97 80 98 81 99 82 100 83 101 59 102 60 103 69 104
REMARK SMILES IDX 61 105 62 106 68 107 70 108 63 109 64 110 65 111 66 112
REMARK SMILES IDX 67 113
REMARK H PARENT 10 18 6 24 100 34 91 63 57 74
REMARK Flexibility Score: inf
ROOT
ATOM      1  C   UNL     1       7.887  -1.576  -3.493  1.00  0.00     0.188 C 
ENDROOT
BRANCH   1   2
ATOM      2  O   UNL     1       8.654  -2.767  -3.658  1.00  0.00    -0.376 OA
BRANCH   2   3
ATOM      3  C   UNL     1       8.171  -3.741  -2.680  1.00  0.00     0.202 C 
BRANCH   3   4
ATOM      4  C   UNL     1       6.773  -4.411  -3.165  1.00  0.00     0.261 C 
BRANCH   4   5
ATOM      5  O   UNL     1       5.317  -4.486  -2.481  1.00  0.00    -0.460 OA
BRANCH   5   6
ATOM      6  C   UNL     1       4.646  -4.609  -1.280  1.00  0.00     0.338 C 
ATOM      7  O   UNL     1       4.936  -5.054  -0.189  1.00  0.00    -0.246 OA
BRANCH   6   8
ATOM      8  C   UNL     1       3.367  -3.961  -1.071  1.00  0.00     0.062 A 
ATOM      9  C   UNL     1       0.819  -3.354  -0.350  1.00  0.00     0.062 A 
ATOM     10  C   UNL     1       1.107  -4.036  -1.568  1.00  0.00     0.029 A 
ATOM     11  C   UNL     1       1.814  -3.014   0.596  1.00  0.00     0.073 A 
ATOM     12  C   UNL     1       2.385  -4.336  -1.944  1.00  0.00     0.018 A 
ATOM     13  C   UNL     1       3.103  -3.305   0.200  1.00  0.00     0.044 A 
BRANCH   9  14
ATOM     14  N   UNL     1      -0.519  -2.941  -0.186  1.00  0.00    -0.359 N 
ATOM     15  N   UNL     1      -3.225  -2.737  -1.189  1.00  0.00    -0.324 N 
ATOM     16  C   UNL     1      -2.166  -1.998  -1.896  1.00  0.00     0.284 C 
ATOM     17  C   UNL     1      -2.651  -4.072  -0.883  1.00  0.00     0.284 C 
ATOM     18  H   UNL     1      -4.062  -2.795  -1.769  1.00  0.00     0.348 HD
ATOM     19  C   UNL     1      -0.818  -1.884  -1.177  1.00  0.00     0.178 C 
ATOM     20  C   UNL     1      -1.448  -4.053   0.079  1.00  0.00     0.178 C 
BRANCH  15  21
ATOM     21  C   UNL     1      -3.642  -2.062   0.072  1.00  0.00     0.364 C 
BRANCH  21  22
ATOM     22  C   UNL     1      -4.417  -0.759  -0.175  1.00  0.00     0.279 C 
ATOM     23  N   UNL     1      -3.856   0.487  -0.061  1.00  0.00    -0.321 N 
ATOM     24  H   UNL     1      -4.479   1.224  -0.259  1.00  0.00     0.170 HD
ATOM     25  O   UNL     1      -5.592  -0.798  -0.569  1.00  0.00    -0.268 OA
BRANCH  23  26
ATOM     26  C   UNL     1      -2.566   0.914   0.284  1.00  0.00     0.041 A 
ATOM     27  C   UNL     1       1.673   1.469   0.100  1.00  0.00     0.044 C 
ATOM     28  C   UNL     1       0.188   1.446   0.332  1.00  0.00    -0.051 A 
ATOM     29  C   UNL     1      -0.392   0.564   1.246  1.00  0.00     0.005 A 
ATOM     30  C   UNL     1      -0.658   2.232  -0.446  1.00  0.00     0.005 A 
ATOM     31  C   UNL     1      -1.766   0.304   1.238  1.00  0.00     0.026 A 
ATOM     32  C   UNL     1      -2.033   1.977  -0.457  1.00  0.00     0.026 A 
ENDBRANCH  23  26
ENDBRANCH  21  22
ENDBRANCH  15  21
ENDBRANCH   9  14
BRANCH  11  33
ATOM     33  N   UNL     1       1.407  -2.264   1.778  1.00  0.00    -0.282 N 
ATOM     34  H   UNL     1       0.546  -1.791   1.710  1.00  0.00     0.180 HD
BRANCH  33  35
ATOM     35  S   UNL     1       2.224  -2.101   3.248  1.00  0.00     0.229 S 
ATOM     36  C   UNL     1       2.316  -0.324   3.470  1.00  0.00     0.183 C 
ATOM     37  O   UNL     1       1.353  -2.576   4.259  1.00  0.00    -0.207 OA
ATOM     38  O   UNL     1       3.616  -2.566   3.135  1.00  0.00    -0.207 OA
ENDBRANCH  33  35
ENDBRANCH  11  33
ENDBRANCH   6   8
ENDBRANCH   5   6
ENDBRANCH   4   5
ENDBRANCH   3   4
ENDBRANCH   2   3
ENDBRANCH   1   2
BRANCH   1  39
ATOM     39  C   UNL     1       8.033  -0.483  -4.530  1.00  0.00     0.188 C 
BRANCH  39  40
ATOM     40  O   UNL     1       9.104   0.435  -4.392  1.00  0.00    -0.376 OA
BRANCH  40  41
ATOM     41  C   UNL     1       9.638   0.657  -3.090  1.00  0.00     0.202 C 
BRANCH  41  42
ATOM     42  C   UNL     1       8.746   1.228  -1.945  1.00  0.00     0.261 C 
BRANCH  42  43
ATOM     43  O   UNL     1       7.357   1.445  -2.277  1.00  0.00    -0.460 OA
BRANCH  43  44
ATOM     44  C   UNL     1       6.398   1.438  -1.280  1.00  0.00     0.338 C 
ATOM     45  O   UNL     1       5.460   2.227  -1.276  1.00  0.00    -0.246 OA
BRANCH  44  46
ATOM     46  C   UNL     1       6.240   0.083  -0.684  1.00  0.00     0.060 A 
ATOM     47  C   UNL     1       6.559  -0.379   0.576  1.00  0.00     0.016 A 
ATOM     48  C   UNL     1       5.698  -0.851  -1.497  1.00  0.00     0.016 A 
ATOM     49  C   UNL     1       6.676  -1.788   0.874  1.00  0.00     0.010 A 
ATOM     50  C   UNL     1       5.970  -2.209  -1.219  1.00  0.00     0.010 A 
ATOM     51  C   UNL     1       6.611  -2.795  -0.095  1.00  0.00    -0.014 A 
BRANCH  51  52
ATOM     52  C   UNL     1       7.396  -4.293   0.114  1.00  0.00     0.031 A 
ATOM     53  C   UNL     1       7.019  -5.868  -0.221  1.00  0.00     0.074 A 
ATOM     54  C   UNL     1       8.525  -4.227   0.849  1.00  0.00     0.049 A 
ATOM     55  N   UNL     1       6.451  -6.744   0.582  1.00  0.00    -0.248 NA
ATOM     56  C   UNL     1       7.129  -6.525  -1.547  1.00  0.00     0.031 C 
ATOM     57  C   UNL     1       9.322  -5.327   1.368  1.00  0.00     0.029 A 
ATOM     58  N   UNL     1       9.008  -3.120   1.521  1.00  0.00    -0.354 N 
ATOM     59  C   UNL     1       6.033  -7.843  -0.209  1.00  0.00     0.074 A 
ATOM     60  C   UNL     1       6.137  -7.422  -1.569  1.00  0.00     0.031 C 
ATOM     61  C   UNL     1       9.924  -4.894   2.492  1.00  0.00     0.029 A 
ATOM     62  C   UNL     1       9.504  -3.521   2.752  1.00  0.00     0.049 A 
ATOM     63  H   UNL     1       9.001  -2.196   1.180  1.00  0.00     0.167 HD
ATOM     64  C   UNL     1       6.076  -9.164   0.161  1.00  0.00     0.037 A 
ATOM     65  C   UNL     1       8.866  -3.074   3.877  1.00  0.00     0.037 A 
ATOM     66  C   UNL     1       6.803  -9.212   1.409  1.00  0.00     0.049 A 
ATOM     67  C   UNL     1       8.044  -4.197   4.530  1.00  0.00     0.074 A 
ATOM     68  C   UNL     1       8.171  -9.221   1.641  1.00  0.00     0.029 A 
ATOM     69  N   UNL     1       6.217  -8.630   2.518  1.00  0.00    -0.354 N 
ATOM     70  N   UNL     1       7.794  -5.365   3.978  1.00  0.00    -0.248 NA
ATOM     71  C   UNL     1       7.526  -4.129   5.892  1.00  0.00     0.031 C 
ATOM     72  C   UNL     1       8.408  -8.460   2.823  1.00  0.00     0.029 A 
ATOM     73  C   UNL     1       7.184  -8.093   3.357  1.00  0.00     0.049 A 
ATOM     74  H   UNL     1       5.248  -8.600   2.689  1.00  0.00     0.167 HD
ATOM     75  C   UNL     1       7.133  -6.188   4.867  1.00  0.00     0.074 A 
ATOM     76  C   UNL     1       7.020  -5.365   6.059  1.00  0.00     0.031 C 
ATOM     77  C   UNL     1       6.744  -7.479   4.602  1.00  0.00     0.037 A 
BRANCH  64  78
ATOM     78  C   UNL     1       5.922 -10.298  -0.876  1.00  0.00     0.058 A 
ATOM     79  C   UNL     1       6.830 -11.371  -0.974  1.00  0.00     0.135 A 
ATOM     80  C   UNL     1       4.922 -10.291  -1.885  1.00  0.00     0.135 A 
ATOM     81  F   UNL     1       7.775 -11.556  -0.042  1.00  0.00    -0.206 F 
ATOM     82  C   UNL     1       6.834 -12.279  -2.051  1.00  0.00     0.059 A 
ATOM     83  C   UNL     1       4.937 -11.153  -2.999  1.00  0.00     0.059 A 
ATOM     84  F   UNL     1       3.929  -9.386  -1.847  1.00  0.00    -0.206 F 
ATOM     85  C   UNL     1       5.908 -12.142  -3.082  1.00  0.00     0.060 A 
BRANCH  85  86
ATOM     86  S   UNL     1       6.014 -13.230  -4.531  1.00  0.00     0.124 S 
ATOM     87  O   UNL     1       7.446 -13.245  -4.818  1.00  0.00    -0.237 OA
ATOM     88  O   UNL     1       5.459 -14.477  -4.018  1.00  0.00    -0.237 OA
ATOM     89  O   UNL     1       5.198 -12.546  -5.531  1.00  0.00    -0.744 OA
ENDBRANCH  85  86
ENDBRANCH  64  78
BRANCH  65  90
ATOM     90  C   UNL     1       8.744  -1.557   3.932  1.00  0.00     0.058 A 
ATOM     91  C   UNL     1       9.914  -0.830   3.582  1.00  0.00     0.135 A 
ATOM     92  C   UNL     1       7.577  -0.779   4.021  1.00  0.00     0.135 A 
ATOM     93  F   UNL     1      11.106  -1.450   3.574  1.00  0.00    -0.206 F 
ATOM     94  C   UNL     1       9.899   0.484   3.115  1.00  0.00     0.059 A 
ATOM     95  C   UNL     1       7.548   0.579   3.606  1.00  0.00     0.059 A 
ATOM     96  F   UNL     1       6.409  -1.341   4.363  1.00  0.00    -0.206 F 
ATOM     97  C   UNL     1       8.698   1.170   3.068  1.00  0.00     0.060 A 
BRANCH  97  98
ATOM     98  S   UNL     1       8.619   2.661   2.013  1.00  0.00     0.124 S 
ATOM     99  O   UNL     1       8.998   3.718   2.938  1.00  0.00    -0.237 OA
ATOM    100  O   UNL     1       9.588   2.348   0.963  1.00  0.00    -0.237 OA
ATOM    101  O   UNL     1       7.233   2.669   1.563  1.00  0.00    -0.744 OA
ENDBRANCH  97  98
ENDBRANCH  65  90
BRANCH  77 102
ATOM    102  C   UNL     1       5.892  -8.389   5.486  1.00  0.00     0.058 A 
ATOM    103  C   UNL     1       4.888  -7.946   6.356  1.00  0.00     0.135 A 
ATOM    104  C   UNL     1       5.947  -9.802   5.297  1.00  0.00     0.135 A 
ATOM    105  F   UNL     1       4.671  -6.641   6.565  1.00  0.00    -0.206 F 
ATOM    106  C   UNL     1       4.030  -8.833   7.016  1.00  0.00     0.059 A 
ATOM    107  C   UNL     1       5.038 -10.688   5.859  1.00  0.00     0.059 A 
ATOM    108  F   UNL     1       6.885 -10.378   4.527  1.00  0.00    -0.206 F 
ATOM    109  C   UNL     1       4.101 -10.198   6.749  1.00  0.00     0.060 A 
BRANCH 109 110
ATOM    110  S   UNL     1       2.975 -11.355   7.544  1.00  0.00     0.124 S 
ATOM    111  O   UNL     1       3.792 -11.834   8.655  1.00  0.00    -0.237 OA
ATOM    112  O   UNL     1       1.841 -10.514   7.914  1.00  0.00    -0.237 OA
ATOM    113  O   UNL     1       2.706 -12.329   6.491  1.00  0.00    -0.744 OA
ENDBRANCH 109 110
ENDBRANCH  77 102
ENDBRANCH  51  52
ENDBRANCH  44  46
ENDBRANCH  43  44
ENDBRANCH  42  43
ENDBRANCH  41  42
ENDBRANCH  40  41
ENDBRANCH  39  40
ENDBRANCH   1  39
TORSDOF 26
