REMARK SMILES CCCc1c(C(=O)OCCOCCOCCOC(=O)c2ccc(-c3c4nc(c(-c5c(F)cc(S(=O)(=O)[O-])cc5F)c5ccc([nH]5)c(-c5c(F)cc(S(=O)(=O)[O-])cc5F)c5nc(c(-c6c(F)cc(S(=O)(=O)[O-])cc6F)c6ccc3[nH]6)C=C5)C=C4)cc2)nnn1-c1ccccc1[N+](=O)[O-]
REMARK SMILES IDX 13 1 12 2 11 3 10 4 9 5 8 6 6 7 7 8 5 9 4 10 88 11 86 12
REMARK SMILES IDX 87 13 3 14 2 15 1 16 89 17 90 18 94 19 91 20 93 21 92 22
REMARK SMILES IDX 95 23 96 24 97 25 14 26 15 27 16 28 17 29 18 30 19 31 20 32
REMARK SMILES IDX 21 33 85 34 22 35 84 36 23 37 24 38 25 39 78 40 26 41 83 42
REMARK SMILES IDX 77 43 79 44 27 45 82 46 76 47 75 48 28 50 62 51 41 52 61 53
REMARK SMILES IDX 42 54 45 55 60 56 80 57 43 58 44 59 59 61 81 62 46 63 29 64
REMARK SMILES IDX 30 65 39 66 31 67 32 68 38 69 40 70 33 71 34 72 35 73 36 74
REMARK SMILES IDX 37 75 63 76 64 77 73 78 65 79 66 80 72 81 74 82 67 83 68 84
REMARK SMILES IDX 69 85 70 86 71 87 47 88 48 89 57 90 49 91 50 92 56 93 58 94
REMARK SMILES IDX 51 95 52 96 53 97 54 98 55 99
REMARK H PARENT 79 49 45 60
REMARK Flexibility Score: inf
ROOT
ATOM      1  C   UNL     1       0.312  -0.804   6.362  1.00  0.00     0.188 C 
ENDROOT
BRANCH   1   2
ATOM      2  C   UNL     1      -1.036  -0.303   6.920  1.00  0.00     0.188 C 
BRANCH   2   3
ATOM      3  O   UNL     1      -1.975  -1.213   7.462  1.00  0.00    -0.376 OA
BRANCH   3   4
ATOM      4  C   UNL     1      -2.447  -2.311   6.699  1.00  0.00     0.202 C 
BRANCH   4   5
ATOM      5  C   UNL     1      -2.699  -2.243   5.178  1.00  0.00     0.261 C 
BRANCH   5   6
ATOM      6  O   UNL     1      -1.708  -1.565   4.392  1.00  0.00    -0.458 OA
BRANCH   6   7
ATOM      7  C   UNL     1      -2.114  -0.392   3.817  1.00  0.00     0.360 C 
ATOM      8  O   UNL     1      -3.270  -0.012   3.796  1.00  0.00    -0.244 OA
BRANCH   7   9
ATOM      9  C   UNL     1      -1.006   0.441   3.351  1.00  0.00     0.194 A 
ATOM     10  C   UNL     1       0.192   0.139   2.707  1.00  0.00     0.080 A 
ATOM     11  N   UNL     1       0.712   1.395   2.440  1.00  0.00    -0.210 N 
ATOM     12  N   UNL     1      -1.022   1.790   3.639  1.00  0.00    -0.122 NA
ATOM     13  N   UNL     1       0.087   2.333   3.171  1.00  0.00    -0.061 NA
BRANCH  10  14
ATOM     14  C   UNL     1       0.894  -1.148   2.401  1.00  0.00     0.059 C 
BRANCH  14  15
ATOM     15  C   UNL     1       0.544  -1.762   1.046  1.00  0.00     0.003 C 
ATOM     16  C   UNL     1       1.658  -1.616   0.016  1.00  0.00     0.004 C 
ENDBRANCH  14  15
ENDBRANCH  10  14
BRANCH  11  17
ATOM     17  C   UNL     1       1.596   1.801   1.430  1.00  0.00     0.144 A 
ATOM     18  C   UNL     1       2.885   2.202   1.804  1.00  0.00     0.036 A 
ATOM     19  C   UNL     1       1.202   1.868   0.083  1.00  0.00     0.294 A 
ATOM     20  C   UNL     1       3.798   2.595   0.822  1.00  0.00     0.003 A 
ATOM     21  C   UNL     1       2.127   2.264  -0.897  1.00  0.00     0.088 A 
ATOM     22  C   UNL     1       3.425   2.614  -0.524  1.00  0.00     0.007 A 
BRANCH  19  23
ATOM     23  N   UNL     1      -0.152   1.541  -0.372  1.00  0.00     0.065 N 
ATOM     24  O   UNL     1      -0.256   1.006  -1.486  1.00  0.00    -0.258 OA
ATOM     25  O   UNL     1      -1.106   1.826   0.356  1.00  0.00    -0.258 OA
ENDBRANCH  19  23
ENDBRANCH  11  17
ENDBRANCH   7   9
ENDBRANCH   6   7
ENDBRANCH   5   6
ENDBRANCH   4   5
ENDBRANCH   3   4
ENDBRANCH   2   3
ENDBRANCH   1   2
BRANCH   1  26
ATOM     26  O   UNL     1       0.382  -2.144   5.924  1.00  0.00    -0.376 OA
BRANCH  26  27
ATOM     27  C   UNL     1       0.769  -3.228   6.754  1.00  0.00     0.202 C 
BRANCH  27  28
ATOM     28  C   UNL     1       0.872  -3.202   8.277  1.00  0.00     0.261 C 
BRANCH  28  29
ATOM     29  O   UNL     1       0.615  -1.964   8.890  1.00  0.00    -0.460 OA
BRANCH  29  30
ATOM     30  C   UNL     1       1.719  -1.196   9.007  1.00  0.00     0.338 C 
ATOM     31  O   UNL     1       2.779  -1.343   8.430  1.00  0.00    -0.246 OA
BRANCH  30  32
ATOM     32  C   UNL     1       1.464  -0.188  10.035  1.00  0.00     0.060 A 
ATOM     33  C   UNL     1       2.454   0.781  10.188  1.00  0.00     0.016 A 
ATOM     34  C   UNL     1       0.530  -0.493  11.035  1.00  0.00     0.016 A 
ATOM     35  C   UNL     1       2.697   1.236  11.458  1.00  0.00     0.010 A 
ATOM     36  C   UNL     1       0.795  -0.064  12.306  1.00  0.00     0.010 A 
ATOM     37  C   UNL     1       1.935   0.709  12.506  1.00  0.00    -0.014 A 
BRANCH  37  38
ATOM     38  C   UNL     1       2.315   1.061  13.851  1.00  0.00     0.031 A 
ATOM     39  C   UNL     1       1.878   2.425  14.190  1.00  0.00     0.074 A 
ATOM     40  C   UNL     1       2.904   0.181  14.680  1.00  0.00     0.049 A 
ATOM     41  N   UNL     1       2.611   3.482  14.290  1.00  0.00    -0.248 NA
ATOM     42  C   UNL     1       0.430   2.694  14.170  1.00  0.00     0.031 C 
ATOM     43  C   UNL     1       3.091  -1.259  14.466  1.00  0.00     0.029 A 
ATOM     44  N   UNL     1       3.370   0.368  15.943  1.00  0.00    -0.354 N 
ATOM     45  C   UNL     1       1.722   4.492  14.635  1.00  0.00     0.074 A 
ATOM     46  C   UNL     1       0.415   4.023  14.270  1.00  0.00     0.031 C 
ATOM     47  C   UNL     1       3.417  -1.843  15.641  1.00  0.00     0.029 A 
ATOM     48  C   UNL     1       3.592  -0.809  16.647  1.00  0.00     0.049 A 
ATOM     49  H   UNL     1       3.535   1.260  16.326  1.00  0.00     0.167 HD
ATOM     50  C   UNL     1       2.094   5.450  15.526  1.00  0.00     0.037 A 
ATOM     51  C   UNL     1       3.842  -0.911  17.976  1.00  0.00     0.037 A 
ATOM     52  C   UNL     1       3.528   5.459  15.688  1.00  0.00     0.049 A 
ATOM     53  C   UNL     1       4.331   0.413  18.436  1.00  0.00     0.074 A 
ATOM     54  C   UNL     1       4.613   5.841  14.931  1.00  0.00     0.029 A 
ATOM     55  N   UNL     1       3.989   4.625  16.677  1.00  0.00    -0.354 N 
ATOM     56  N   UNL     1       5.469   0.930  18.059  1.00  0.00    -0.248 NA
ATOM     57  C   UNL     1       3.391   1.357  19.034  1.00  0.00     0.031 C 
ATOM     58  C   UNL     1       5.712   5.056  15.387  1.00  0.00     0.029 A 
ATOM     59  C   UNL     1       5.278   4.236  16.428  1.00  0.00     0.049 A 
ATOM     60  H   UNL     1       3.463   4.345  17.460  1.00  0.00     0.167 HD
ATOM     61  C   UNL     1       5.225   2.289  17.979  1.00  0.00     0.074 A 
ATOM     62  C   UNL     1       4.008   2.508  18.748  1.00  0.00     0.031 C 
ATOM     63  C   UNL     1       5.847   3.050  17.034  1.00  0.00     0.037 A 
BRANCH  50  64
ATOM     64  C   UNL     1       1.183   6.000  16.607  1.00  0.00     0.058 A 
ATOM     65  C   UNL     1       1.674   7.032  17.434  1.00  0.00     0.135 A 
ATOM     66  C   UNL     1       0.000   5.373  17.065  1.00  0.00     0.135 A 
ATOM     67  F   UNL     1       2.785   7.707  17.097  1.00  0.00    -0.206 F 
ATOM     68  C   UNL     1       1.091   7.349  18.662  1.00  0.00     0.059 A 
ATOM     69  C   UNL     1      -0.624   5.708  18.258  1.00  0.00     0.059 A 
ATOM     70  F   UNL     1      -0.566   4.336  16.441  1.00  0.00    -0.206 F 
ATOM     71  C   UNL     1      -0.048   6.664  19.073  1.00  0.00     0.060 A 
BRANCH  71  72
ATOM     72  S   UNL     1      -0.742   6.981  20.702  1.00  0.00     0.124 S 
ATOM     73  O   UNL     1       0.289   6.423  21.569  1.00  0.00    -0.237 OA
ATOM     74  O   UNL     1      -0.862   8.435  20.700  1.00  0.00    -0.237 OA
ATOM     75  O   UNL     1      -2.007   6.253  20.674  1.00  0.00    -0.744 OA
ENDBRANCH  71  72
ENDBRANCH  50  64
BRANCH  51  76
ATOM     76  C   UNL     1       3.450  -1.985  18.921  1.00  0.00     0.058 A 
ATOM     77  C   UNL     1       4.045  -2.090  20.191  1.00  0.00     0.135 A 
ATOM     78  C   UNL     1       2.285  -2.750  18.714  1.00  0.00     0.135 A 
ATOM     79  F   UNL     1       5.149  -1.385  20.479  1.00  0.00    -0.206 F 
ATOM     80  C   UNL     1       3.486  -2.861  21.215  1.00  0.00     0.059 A 
ATOM     81  C   UNL     1       1.714  -3.533  19.716  1.00  0.00     0.059 A 
ATOM     82  F   UNL     1       1.613  -2.684  17.554  1.00  0.00    -0.206 F 
ATOM     83  C   UNL     1       2.304  -3.562  20.974  1.00  0.00     0.060 A 
BRANCH  83  84
ATOM     84  S   UNL     1       1.479  -4.405  22.345  1.00  0.00     0.124 S 
ATOM     85  O   UNL     1       2.385  -5.518  22.603  1.00  0.00    -0.237 OA
ATOM     86  O   UNL     1       1.438  -3.365  23.367  1.00  0.00    -0.237 OA
ATOM     87  O   UNL     1       0.182  -4.774  21.784  1.00  0.00    -0.744 OA
ENDBRANCH  83  84
ENDBRANCH  51  76
BRANCH  63  88
ATOM     88  C   UNL     1       7.144   2.533  16.485  1.00  0.00     0.058 A 
ATOM     89  C   UNL     1       7.274   1.408  15.653  1.00  0.00     0.135 A 
ATOM     90  C   UNL     1       8.304   3.271  16.760  1.00  0.00     0.135 A 
ATOM     91  F   UNL     1       6.198   0.700  15.279  1.00  0.00    -0.206 F 
ATOM     92  C   UNL     1       8.514   1.014  15.149  1.00  0.00     0.059 A 
ATOM     93  C   UNL     1       9.544   2.915  16.244  1.00  0.00     0.059 A 
ATOM     94  F   UNL     1       8.231   4.384  17.510  1.00  0.00    -0.206 F 
ATOM     95  C   UNL     1       9.645   1.775  15.450  1.00  0.00     0.060 A 
BRANCH  95  96
ATOM     96  S   UNL     1      11.239   1.308  14.744  1.00  0.00     0.124 S 
ATOM     97  O   UNL     1      11.578   0.115  15.513  1.00  0.00    -0.237 OA
ATOM     98  O   UNL     1      10.912   1.086  13.339  1.00  0.00    -0.237 OA
ATOM     99  O   UNL     1      12.081   2.475  15.000  1.00  0.00    -0.744 OA
ENDBRANCH  95  96
ENDBRANCH  63  88
ENDBRANCH  37  38
ENDBRANCH  30  32
ENDBRANCH  29  30
ENDBRANCH  28  29
ENDBRANCH  27  28
ENDBRANCH  26  27
ENDBRANCH   1  26
TORSDOF 24
