REMARK SMILES CCc1cccc2c3c([nH]c12)[C@](CC)(CC(=O)OCCOCCOCCOC(=O)c1ccc(-c2c4nc(c(-c5c(F)cc(S(=O)(=O)[O-])cc5F)c5ccc([nH]5)c(-c5c(F)cc(S(=O)(=O)[O-])cc5F)c5nc(c(-c6c(F)cc(S(=O)(=O)[O-])cc6F)c6ccc2[nH]6)C=C5)C=C4)cc1)OCC3
REMARK SMILES IDX 23 1 22 2 21 3 20 4 19 5 18 6 16 7 17 8 15 9 12 10 3 11 4 12
REMARK SMILES IDX 11 13 5 14 7 15 10 16 6 17 8 18 9 19 98 21 97 22 96 23 2 24
REMARK SMILES IDX 1 25 13 26 14 27 24 28 25 29 26 30 27 31 28 32 29 33 30 34
REMARK SMILES IDX 31 35 95 36 32 37 94 38 33 39 34 40 35 41 88 42 36 43 93 44
REMARK SMILES IDX 87 45 89 46 37 47 92 48 86 49 85 50 38 52 72 53 51 54 71 55
REMARK SMILES IDX 52 56 55 57 70 58 90 59 53 60 54 61 69 63 91 64 56 65 39 66
REMARK SMILES IDX 40 67 49 68 41 69 42 70 48 71 50 72 43 73 44 74 45 75 46 76
REMARK SMILES IDX 47 77 73 78 74 79 83 80 75 81 76 82 82 83 84 84 77 85 78 86
REMARK SMILES IDX 79 87 80 88 81 89 57 90 58 91 67 92 59 93 60 94 66 95 68 96
REMARK SMILES IDX 61 97 62 98 63 99 64 100 65 101
REMARK H PARENT 10 20 89 51 55 62
REMARK Flexibility Score: inf
ROOT
ATOM      1  C   UNL     1       2.883  -4.121  -4.289  1.00  0.00     0.188 C 
ENDROOT
BRANCH   1   2
ATOM      2  C   UNL     1       4.065  -4.703  -3.485  1.00  0.00     0.188 C 
BRANCH   2   3
ATOM      3  O   UNL     1       4.832  -5.740  -4.083  1.00  0.00    -0.376 OA
BRANCH   3   4
ATOM      4  C   UNL     1       4.135  -6.887  -4.557  1.00  0.00     0.202 C 
BRANCH   4   5
ATOM      5  C   UNL     1       3.144  -7.534  -3.574  1.00  0.00     0.261 C 
BRANCH   5   6
ATOM      6  O   UNL     1       2.009  -6.655  -3.425  1.00  0.00    -0.463 OA
BRANCH   6   7
ATOM      7  C   UNL     1       1.109  -6.884  -2.435  1.00  0.00     0.309 C 
ATOM      8  O   UNL     1       0.990  -7.959  -1.866  1.00  0.00    -0.252 OA
BRANCH   7   9
ATOM      9  C   UNL     1       0.467  -5.572  -1.973  1.00  0.00     0.164 C 
BRANCH   9  10
ATOM     10  C   UNL     1      -0.869  -4.983  -2.480  1.00  0.00     0.118 C 
ATOM     11  C   UNL     1      -0.473   0.126  -2.813  1.00  0.00    -0.024 A 
ATOM     12  C   UNL     1      -0.045   0.940  -3.888  1.00  0.00     0.006 A 
ATOM     13  C   UNL     1      -0.598  -1.262  -3.099  1.00  0.00     0.049 A 
ATOM     14  C   UNL     1       0.172   0.438  -5.166  1.00  0.00     0.001 A 
ATOM     15  C   UNL     1      -0.391  -1.781  -4.385  1.00  0.00     0.003 A 
ATOM     16  N   UNL     1      -0.879  -2.358  -2.290  1.00  0.00    -0.356 N 
ATOM     17  C   UNL     1      -0.035  -0.913  -5.433  1.00  0.00     0.010 A 
ATOM     18  C   UNL     1      -0.619  -3.180  -4.320  1.00  0.00    -0.014 A 
ATOM     19  C   UNL     1      -0.740  -3.540  -2.996  1.00  0.00     0.052 A 
ATOM     20  H   UNL     1      -1.143  -2.301  -1.343  1.00  0.00     0.166 HD
ATOM     21  C   UNL     1      -0.746  -4.182  -5.403  1.00  0.00     0.066 C 
ATOM     22  C   UNL     1      -0.749  -5.607  -4.836  1.00  0.00     0.166 C 
ATOM     23  O   UNL     1      -1.426  -5.742  -3.572  1.00  0.00    -0.368 OA
BRANCH  11  24
ATOM     24  C   UNL     1      -0.761   0.814  -1.495  1.00  0.00     0.034 C 
ATOM     25  C   UNL     1       0.152   0.414  -0.355  1.00  0.00     0.009 C 
ENDBRANCH  11  24
BRANCH  10  26
ATOM     26  C   UNL     1      -1.899  -4.965  -1.308  1.00  0.00     0.039 C 
ATOM     27  C   UNL     1      -2.324  -6.327  -0.776  1.00  0.00     0.007 C 
ENDBRANCH  10  26
ENDBRANCH   9  10
ENDBRANCH   7   9
ENDBRANCH   6   7
ENDBRANCH   5   6
ENDBRANCH   4   5
ENDBRANCH   3   4
ENDBRANCH   2   3
ENDBRANCH   1   2
BRANCH   1  28
ATOM     28  O   UNL     1       2.949  -4.139  -5.705  1.00  0.00    -0.376 OA
BRANCH  28  29
ATOM     29  C   UNL     1       3.997  -3.365  -6.279  1.00  0.00     0.202 C 
BRANCH  29  30
ATOM     30  C   UNL     1       4.089  -1.909  -5.788  1.00  0.00     0.261 C 
BRANCH  30  31
ATOM     31  O   UNL     1       4.659  -1.876  -4.460  1.00  0.00    -0.460 OA
BRANCH  31  32
ATOM     32  C   UNL     1       4.254  -0.848  -3.671  1.00  0.00     0.338 C 
ATOM     33  O   UNL     1       3.871   0.246  -4.056  1.00  0.00    -0.246 OA
BRANCH  32  34
ATOM     34  C   UNL     1       3.978  -1.415  -2.325  1.00  0.00     0.060 A 
ATOM     35  C   UNL     1       4.944  -1.877  -1.436  1.00  0.00     0.016 A 
ATOM     36  C   UNL     1       2.632  -1.628  -2.033  1.00  0.00     0.016 A 
ATOM     37  C   UNL     1       4.539  -2.559  -0.268  1.00  0.00     0.010 A 
ATOM     38  C   UNL     1       2.238  -2.360  -0.914  1.00  0.00     0.010 A 
ATOM     39  C   UNL     1       3.182  -2.829  -0.011  1.00  0.00    -0.014 A 
BRANCH  39  40
ATOM     40  C   UNL     1       2.697  -3.240   1.319  1.00  0.00     0.031 A 
ATOM     41  C   UNL     1       2.832  -2.173   2.327  1.00  0.00     0.074 A 
ATOM     42  C   UNL     1       2.019  -4.330   1.741  1.00  0.00     0.049 A 
ATOM     43  N   UNL     1       3.841  -2.031   3.116  1.00  0.00    -0.248 NA
ATOM     44  C   UNL     1       1.831  -1.111   2.417  1.00  0.00     0.031 C 
ATOM     45  C   UNL     1       1.641  -5.518   1.002  1.00  0.00     0.029 A 
ATOM     46  N   UNL     1       1.488  -4.578   2.983  1.00  0.00    -0.354 N 
ATOM     47  C   UNL     1       3.494  -1.002   3.968  1.00  0.00     0.074 A 
ATOM     48  C   UNL     1       2.372  -0.332   3.356  1.00  0.00     0.031 C 
ATOM     49  C   UNL     1       0.754  -6.261   1.713  1.00  0.00     0.029 A 
ATOM     50  C   UNL     1       0.675  -5.704   3.053  1.00  0.00     0.049 A 
ATOM     51  H   UNL     1       1.669  -4.005   3.763  1.00  0.00     0.167 HD
ATOM     52  C   UNL     1       3.987  -0.941   5.233  1.00  0.00     0.037 A 
ATOM     53  C   UNL     1       0.171  -6.309   4.158  1.00  0.00     0.037 A 
ATOM     54  C   UNL     1       5.003  -1.942   5.468  1.00  0.00     0.049 A 
ATOM     55  C   UNL     1       1.140  -6.054   5.246  1.00  0.00     0.074 A 
ATOM     56  C   UNL     1       6.199  -2.283   4.865  1.00  0.00     0.029 A 
ATOM     57  N   UNL     1       4.648  -3.034   6.225  1.00  0.00    -0.354 N 
ATOM     58  N   UNL     1       2.342  -6.560   5.279  1.00  0.00    -0.248 NA
ATOM     59  C   UNL     1       0.901  -4.952   6.164  1.00  0.00     0.031 C 
ATOM     60  C   UNL     1       6.267  -3.708   4.928  1.00  0.00     0.029 A 
ATOM     61  C   UNL     1       5.129  -4.158   5.597  1.00  0.00     0.049 A 
ATOM     62  H   UNL     1       4.139  -3.014   7.068  1.00  0.00     0.167 HD
ATOM     63  C   UNL     1       3.115  -5.581   5.876  1.00  0.00     0.074 A 
ATOM     64  C   UNL     1       2.159  -4.694   6.527  1.00  0.00     0.031 C 
ATOM     65  C   UNL     1       4.434  -5.431   5.556  1.00  0.00     0.037 A 
BRANCH  52  66
ATOM     66  C   UNL     1       3.318  -0.199   6.348  1.00  0.00     0.058 A 
ATOM     67  C   UNL     1       4.076   0.206   7.460  1.00  0.00     0.135 A 
ATOM     68  C   UNL     1       1.919  -0.043   6.457  1.00  0.00     0.135 A 
ATOM     69  F   UNL     1       5.409   0.053   7.466  1.00  0.00    -0.206 F 
ATOM     70  C   UNL     1       3.484   0.723   8.609  1.00  0.00     0.059 A 
ATOM     71  C   UNL     1       1.311   0.530   7.566  1.00  0.00     0.059 A 
ATOM     72  F   UNL     1       1.081  -0.525   5.528  1.00  0.00    -0.206 F 
ATOM     73  C   UNL     1       2.100   0.880   8.652  1.00  0.00     0.060 A 
BRANCH  73  74
ATOM     74  S   UNL     1       1.330   1.488  10.161  1.00  0.00     0.124 S 
ATOM     75  O   UNL     1       1.440   0.320  11.028  1.00  0.00    -0.237 OA
ATOM     76  O   UNL     1       2.181   2.623  10.503  1.00  0.00    -0.237 OA
ATOM     77  O   UNL     1      -0.021   1.833   9.729  1.00  0.00    -0.744 OA
ENDBRANCH  73  74
ENDBRANCH  52  66
BRANCH  53  78
ATOM     78  C   UNL     1      -1.165  -6.911   4.402  1.00  0.00     0.058 A 
ATOM     79  C   UNL     1      -1.414  -7.682   5.555  1.00  0.00     0.135 A 
ATOM     80  C   UNL     1      -2.298  -6.486   3.683  1.00  0.00     0.135 A 
ATOM     81  F   UNL     1      -0.393  -8.122   6.307  1.00  0.00    -0.206 F 
ATOM     82  C   UNL     1      -2.707  -7.952   6.012  1.00  0.00     0.059 A 
ATOM     83  C   UNL     1      -3.602  -6.746   4.119  1.00  0.00     0.059 A 
ATOM     84  F   UNL     1      -2.162  -5.718   2.590  1.00  0.00    -0.206 F 
ATOM     85  C   UNL     1      -3.797  -7.452   5.303  1.00  0.00     0.060 A 
BRANCH  85  86
ATOM     86  S   UNL     1      -5.455  -7.621   6.014  1.00  0.00     0.124 S 
ATOM     87  O   UNL     1      -5.682  -9.059   5.918  1.00  0.00    -0.237 OA
ATOM     88  O   UNL     1      -5.265  -7.095   7.362  1.00  0.00    -0.237 OA
ATOM     89  O   UNL     1      -6.284  -6.797   5.139  1.00  0.00    -0.744 OA
ENDBRANCH  85  86
ENDBRANCH  53  78
BRANCH  65  90
ATOM     90  C   UNL     1       5.139  -6.585   4.883  1.00  0.00     0.058 A 
ATOM     91  C   UNL     1       4.822  -7.084   3.607  1.00  0.00     0.135 A 
ATOM     92  C   UNL     1       6.274  -7.124   5.509  1.00  0.00     0.135 A 
ATOM     93  F   UNL     1       3.812  -6.567   2.897  1.00  0.00    -0.206 F 
ATOM     94  C   UNL     1       5.578  -8.087   2.995  1.00  0.00     0.059 A 
ATOM     95  C   UNL     1       7.062  -8.103   4.905  1.00  0.00     0.059 A 
ATOM     96  F   UNL     1       6.662  -6.662   6.710  1.00  0.00    -0.206 F 
ATOM     97  C   UNL     1       6.704  -8.585   3.648  1.00  0.00     0.060 A 
BRANCH  97  98
ATOM     98  S   UNL     1       7.745  -9.796   2.803  1.00  0.00     0.124 S 
ATOM     99  O   UNL     1       6.918 -10.997   2.843  1.00  0.00    -0.237 OA
ATOM    100  O   UNL     1       7.925  -9.194   1.485  1.00  0.00    -0.237 OA
ATOM    101  O   UNL     1       8.952  -9.842   3.625  1.00  0.00    -0.744 OA
ENDBRANCH  97  98
ENDBRANCH  65  90
ENDBRANCH  39  40
ENDBRANCH  32  34
ENDBRANCH  31  32
ENDBRANCH  30  31
ENDBRANCH  29  30
ENDBRANCH  28  29
ENDBRANCH   1  28
TORSDOF 23
