REMARK SMILES C[NH2+][C@]1(C(=O)OCCOCCOCCOC(=O)c2ccc(-c3c4nc(c(-c5c(F)cc(S(=O)(=O)[O-])cc5F)c5ccc([nH]5)c(-c5c(F)cc(S(=O)(=O)[O-])cc5F)c5nc(c(-c6c(F)cc(S(=O)(=O)[O-])cc6F)c6ccc3[nH]6)C=C5)C=C4)cc2)CCC[C@@H]([N@H+]2CC[C@@H](C)C2)C1
REMARK SMILES IDX 11 1 10 2 9 3 8 4 7 5 6 6 4 7 5 8 3 9 84 10 94 11 85 12
REMARK SMILES IDX 87 13 86 14 2 15 1 16 88 19 89 20 93 21 90 23 91 24 92 25
REMARK SMILES IDX 12 26 13 27 14 28 15 29 16 30 17 31 18 32 19 33 83 34 20 35
REMARK SMILES IDX 82 36 21 37 22 38 23 39 76 40 24 41 81 42 75 43 77 44 25 45
REMARK SMILES IDX 80 46 74 47 73 48 26 50 60 51 39 52 59 53 40 54 43 55 58 56
REMARK SMILES IDX 78 57 41 58 42 59 57 61 79 62 44 63 27 64 28 65 37 66 29 67
REMARK SMILES IDX 30 68 36 69 38 70 31 71 32 72 33 73 34 74 35 75 61 76 62 77
REMARK SMILES IDX 71 78 63 79 64 80 70 81 72 82 65 83 66 84 67 85 68 86 69 87
REMARK SMILES IDX 45 88 46 89 55 90 47 91 48 92 54 93 56 94 49 95 50 96 51 97
REMARK SMILES IDX 52 98 53 99
REMARK H PARENT 2 17 2 18 88 22 77 49 43 60
REMARK Flexibility Score: inf
ROOT
ATOM      1  C   UNL     1       1.460  -3.767  -0.815  1.00  0.00     0.188 C 
ENDROOT
BRANCH   1   2
ATOM      2  C   UNL     1       2.363  -2.736  -1.517  1.00  0.00     0.188 C 
BRANCH   2   3
ATOM      3  O   UNL     1       3.479  -2.170  -0.850  1.00  0.00    -0.376 OA
BRANCH   3   4
ATOM      4  C   UNL     1       3.453  -1.924   0.544  1.00  0.00     0.202 C 
BRANCH   4   5
ATOM      5  C   UNL     1       2.440  -0.921   1.091  1.00  0.00     0.261 C 
BRANCH   5   6
ATOM      6  O   UNL     1       1.080  -1.389   1.059  1.00  0.00    -0.459 OA
BRANCH   6   7
ATOM      7  C   UNL     1       0.317  -0.868   0.062  1.00  0.00     0.368 C 
ATOM      8  O   UNL     1       0.747  -0.108  -0.804  1.00  0.00    -0.245 OA
BRANCH   7   9
ATOM      9  C   UNL     1      -1.203  -1.206   0.176  1.00  0.00     0.199 C 
ATOM     10  C   UNL     1      -1.598  -2.430   1.027  1.00  0.00     0.081 C 
ATOM     11  C   UNL     1      -1.667   0.036   0.931  1.00  0.00     0.146 C 
ATOM     12  C   UNL     1      -3.094  -2.467   1.369  1.00  0.00     0.013 C 
ATOM     13  C   UNL     1      -3.149   0.101   1.276  1.00  0.00     0.190 C 
ATOM     14  C   UNL     1      -3.594  -1.175   2.021  1.00  0.00     0.065 C 
BRANCH   9  15
ATOM     15  N   UNL     1      -1.787  -1.120  -1.190  1.00  0.00    -0.334 N 
ATOM     16  C   UNL     1      -2.193  -2.339  -1.853  1.00  0.00     0.331 C 
ATOM     17  H   UNL     1      -2.613  -0.524  -1.126  1.00  0.00     0.347 HD
ATOM     18  H   UNL     1      -1.020  -0.771  -1.765  1.00  0.00     0.347 HD
ENDBRANCH   9  15
BRANCH  13  19
ATOM     19  N   UNL     1      -3.462   1.345   2.020  1.00  0.00    -0.332 N 
ATOM     20  C   UNL     1      -2.904   1.432   3.375  1.00  0.00     0.262 C 
ATOM     21  C   UNL     1      -3.081   2.578   1.301  1.00  0.00     0.265 C 
ATOM     22  H   UNL     1      -4.477   1.280   2.099  1.00  0.00     0.348 HD
ATOM     23  C   UNL     1      -2.262   2.807   3.521  1.00  0.00     0.070 C 
ATOM     24  C   UNL     1      -1.972   3.269   2.101  1.00  0.00     0.047 C 
ATOM     25  C   UNL     1      -0.535   2.950   1.679  1.00  0.00     0.014 C 
ENDBRANCH  13  19
ENDBRANCH   7   9
ENDBRANCH   6   7
ENDBRANCH   5   6
ENDBRANCH   4   5
ENDBRANCH   3   4
ENDBRANCH   2   3
ENDBRANCH   1   2
BRANCH   1  26
ATOM     26  O   UNL     1       1.979  -4.646   0.164  1.00  0.00    -0.376 OA
BRANCH  26  27
ATOM     27  C   UNL     1       3.186  -5.328  -0.131  1.00  0.00     0.202 C 
BRANCH  27  28
ATOM     28  C   UNL     1       3.213  -6.252  -1.353  1.00  0.00     0.261 C 
BRANCH  28  29
ATOM     29  O   UNL     1       2.847  -5.605  -2.586  1.00  0.00    -0.460 OA
BRANCH  29  30
ATOM     30  C   UNL     1       1.712  -6.057  -3.168  1.00  0.00     0.338 C 
ATOM     31  O   UNL     1       1.002  -6.982  -2.776  1.00  0.00    -0.246 OA
BRANCH  30  32
ATOM     32  C   UNL     1       1.299  -5.157  -4.258  1.00  0.00     0.060 A 
ATOM     33  C   UNL     1       0.073  -4.486  -4.137  1.00  0.00     0.016 A 
ATOM     34  C   UNL     1       2.051  -5.040  -5.427  1.00  0.00     0.016 A 
ATOM     35  C   UNL     1      -0.415  -3.710  -5.186  1.00  0.00     0.010 A 
ATOM     36  C   UNL     1       1.543  -4.288  -6.494  1.00  0.00     0.010 A 
ATOM     37  C   UNL     1       0.295  -3.643  -6.389  1.00  0.00    -0.014 A 
BRANCH  37  38
ATOM     38  C   UNL     1      -0.360  -3.079  -7.595  1.00  0.00     0.031 A 
ATOM     39  C   UNL     1      -0.983  -4.032  -8.580  1.00  0.00     0.074 A 
ATOM     40  C   UNL     1      -0.440  -1.752  -7.800  1.00  0.00     0.049 A 
ATOM     41  N   UNL     1      -1.492  -3.795  -9.759  1.00  0.00    -0.248 NA
ATOM     42  C   UNL     1      -1.038  -5.446  -8.172  1.00  0.00     0.031 C 
ATOM     43  C   UNL     1       0.040  -0.723  -6.881  1.00  0.00     0.029 A 
ATOM     44  N   UNL     1      -0.951  -1.046  -8.862  1.00  0.00    -0.354 N 
ATOM     45  C   UNL     1      -1.905  -5.029 -10.247  1.00  0.00     0.074 A 
ATOM     46  C   UNL     1      -1.579  -6.015  -9.239  1.00  0.00     0.031 C 
ATOM     47  C   UNL     1      -0.180   0.486  -7.429  1.00  0.00     0.029 A 
ATOM     48  C   UNL     1      -0.771   0.313  -8.755  1.00  0.00     0.049 A 
ATOM     49  H   UNL     1      -1.402  -1.471  -9.626  1.00  0.00     0.167 HD
ATOM     50  C   UNL     1      -2.502  -5.315 -11.429  1.00  0.00     0.037 A 
ATOM     51  C   UNL     1      -1.017   1.298  -9.644  1.00  0.00     0.037 A 
ATOM     52  C   UNL     1      -2.830  -4.330 -12.424  1.00  0.00     0.049 A 
ATOM     53  C   UNL     1      -1.603   0.949 -10.990  1.00  0.00     0.074 A 
ATOM     54  C   UNL     1      -3.418  -4.519 -13.662  1.00  0.00     0.029 A 
ATOM     55  N   UNL     1      -2.599  -2.968 -12.295  1.00  0.00    -0.354 N 
ATOM     56  N   UNL     1      -1.953  -0.226 -11.459  1.00  0.00    -0.248 NA
ATOM     57  C   UNL     1      -1.819   2.058 -11.931  1.00  0.00     0.031 C 
ATOM     58  C   UNL     1      -3.505  -3.276 -14.299  1.00  0.00     0.029 A 
ATOM     59  C   UNL     1      -3.017  -2.306 -13.437  1.00  0.00     0.049 A 
ATOM     60  H   UNL     1      -2.198  -2.535 -11.507  1.00  0.00     0.167 HD
ATOM     61  C   UNL     1      -2.452   0.007 -12.738  1.00  0.00     0.074 A 
ATOM     62  C   UNL     1      -2.368   1.435 -12.965  1.00  0.00     0.031 C 
ATOM     63  C   UNL     1      -2.936  -0.881 -13.643  1.00  0.00     0.037 A 
BRANCH  50  64
ATOM     64  C   UNL     1      -2.792  -6.760 -11.724  1.00  0.00     0.058 A 
ATOM     65  C   UNL     1      -3.816  -7.461 -11.068  1.00  0.00     0.135 A 
ATOM     66  C   UNL     1      -2.037  -7.450 -12.686  1.00  0.00     0.135 A 
ATOM     67  F   UNL     1      -4.553  -6.855 -10.123  1.00  0.00    -0.206 F 
ATOM     68  C   UNL     1      -4.062  -8.805 -11.335  1.00  0.00     0.059 A 
ATOM     69  C   UNL     1      -2.284  -8.786 -12.988  1.00  0.00     0.059 A 
ATOM     70  F   UNL     1      -1.043  -6.828 -13.339  1.00  0.00    -0.206 F 
ATOM     71  C   UNL     1      -3.288  -9.459 -12.294  1.00  0.00     0.060 A 
BRANCH  71  72
ATOM     72  S   UNL     1      -3.612 -11.204 -12.623  1.00  0.00     0.124 S 
ATOM     73  O   UNL     1      -3.060 -11.833 -11.427  1.00  0.00    -0.237 OA
ATOM     74  O   UNL     1      -5.066 -11.236 -12.741  1.00  0.00    -0.237 OA
ATOM     75  O   UNL     1      -2.880 -11.459 -13.860  1.00  0.00    -0.744 OA
ENDBRANCH  71  72
ENDBRANCH  50  64
BRANCH  51  76
ATOM     76  C   UNL     1      -0.670   2.707  -9.311  1.00  0.00     0.058 A 
ATOM     77  C   UNL     1      -1.664   3.677  -9.117  1.00  0.00     0.135 A 
ATOM     78  C   UNL     1       0.669   3.112  -9.189  1.00  0.00     0.135 A 
ATOM     79  F   UNL     1      -2.958   3.344  -9.241  1.00  0.00    -0.206 F 
ATOM     80  C   UNL     1      -1.345   5.000  -8.826  1.00  0.00     0.059 A 
ATOM     81  C   UNL     1       1.013   4.423  -8.872  1.00  0.00     0.059 A 
ATOM     82  F   UNL     1       1.660   2.223  -9.361  1.00  0.00    -0.206 F 
ATOM     83  C   UNL     1      -0.003   5.363  -8.702  1.00  0.00     0.060 A 
BRANCH  83  84
ATOM     84  S   UNL     1       0.401   7.071  -8.276  1.00  0.00     0.124 S 
ATOM     85  O   UNL     1       0.121   7.761  -9.530  1.00  0.00    -0.237 OA
ATOM     86  O   UNL     1      -0.523   7.341  -7.179  1.00  0.00    -0.237 OA
ATOM     87  O   UNL     1       1.809   6.999  -7.896  1.00  0.00    -0.744 OA
ENDBRANCH  83  84
ENDBRANCH  51  76
BRANCH  63  88
ATOM     88  C   UNL     1      -3.450  -0.337 -14.948  1.00  0.00     0.058 A 
ATOM     89  C   UNL     1      -2.583   0.129 -15.948  1.00  0.00     0.135 A 
ATOM     90  C   UNL     1      -4.827  -0.342 -15.225  1.00  0.00     0.135 A 
ATOM     91  F   UNL     1      -1.258   0.160 -15.733  1.00  0.00    -0.206 F 
ATOM     92  C   UNL     1      -3.064   0.590 -17.170  1.00  0.00     0.059 A 
ATOM     93  C   UNL     1      -5.328   0.089 -16.450  1.00  0.00     0.059 A 
ATOM     94  F   UNL     1      -5.699  -0.789 -14.308  1.00  0.00    -0.206 F 
ATOM     95  C   UNL     1      -4.439   0.564 -17.412  1.00  0.00     0.060 A 
BRANCH  95  96
ATOM     96  S   UNL     1      -5.048   1.128 -19.016  1.00  0.00     0.124 S 
ATOM     97  O   UNL     1      -4.904   2.575 -18.893  1.00  0.00    -0.237 OA
ATOM     98  O   UNL     1      -4.131   0.476 -19.946  1.00  0.00    -0.237 OA
ATOM     99  O   UNL     1      -6.421   0.634 -19.051  1.00  0.00    -0.744 OA
ENDBRANCH  95  96
ENDBRANCH  63  88
ENDBRANCH  37  38
ENDBRANCH  30  32
ENDBRANCH  29  30
ENDBRANCH  28  29
ENDBRANCH  27  28
ENDBRANCH  26  27
ENDBRANCH   1  26
TORSDOF 22
