REMARK SMILES CC(C)COc1cccc(C(=O)Nc2ccc(O)c(C(=O)OCCOCCOCCOC(=O)c3ccc(-c4c5nc(c(-c6c(F)cc(S(=O)(=O)[O-])cc6F)c6ccc([nH]6)c(-c6c(F)cc(S(=O)(=O)[O-])cc6F)c6nc(c(-c7c(F)cc(S(=O)(=O)[O-])cc7F)c7ccc4[nH]7)C=C6)C=C5)cc3)c2)c1
REMARK SMILES IDX 26 1 25 2 24 3 23 4 22 5 20 6 21 7 19 8 14 9 15 10 100 11
REMARK SMILES IDX 16 12 17 13 13 14 11 15 12 16 10 18 6 19 7 20 101 21 8 22
REMARK SMILES IDX 9 23 5 24 4 25 2 26 1 27 3 28 18 29 27 31 28 32 29 33 30 34
REMARK SMILES IDX 31 35 32 36 33 37 34 38 35 39 99 40 36 41 98 42 37 43 38 44
REMARK SMILES IDX 39 45 92 46 40 47 97 48 91 49 93 50 41 51 96 52 90 53 89 54
REMARK SMILES IDX 42 56 76 57 55 58 75 59 56 60 59 61 74 62 94 63 57 64 58 65
REMARK SMILES IDX 73 67 95 68 60 69 43 70 44 71 53 72 45 73 46 74 52 75 54 76
REMARK SMILES IDX 47 77 48 78 49 79 50 80 51 81 77 82 78 83 87 84 79 85 80 86
REMARK SMILES IDX 86 87 88 88 81 89 82 90 83 91 84 92 85 93 61 94 62 95 71 96
REMARK SMILES IDX 63 97 64 98 70 99 72 100 65 101 66 102 67 103 68 104 69 105
REMARK H PARENT 13 17 18 30 93 55 59 66
REMARK Flexibility Score: inf
ROOT
ATOM      1  C   UNL     1       0.982  -5.189  -3.093  1.00  0.00     0.188 C 
ENDROOT
BRANCH   1   2
ATOM      2  O   UNL     1      -0.183  -5.507  -3.832  1.00  0.00    -0.376 OA
BRANCH   2   3
ATOM      3  C   UNL     1      -1.099  -4.498  -4.232  1.00  0.00     0.202 C 
BRANCH   3   4
ATOM      4  C   UNL     1      -1.470  -3.323  -3.320  1.00  0.00     0.261 C 
BRANCH   4   5
ATOM      5  O   UNL     1      -0.344  -2.563  -2.873  1.00  0.00    -0.460 OA
BRANCH   5   6
ATOM      6  C   UNL     1      -0.049  -2.688  -1.560  1.00  0.00     0.342 C 
ATOM      7  O   UNL     1      -0.665  -3.338  -0.721  1.00  0.00    -0.246 OA
BRANCH   6   8
ATOM      8  C   UNL     1       1.263  -2.084  -1.247  1.00  0.00     0.103 A 
ATOM      9  C   UNL     1       2.706  -0.165  -1.382  1.00  0.00     0.042 A 
ATOM     10  C   UNL     1       3.507  -0.702  -0.365  1.00  0.00     0.030 A 
ATOM     11  C   UNL     1       1.693  -0.944  -1.932  1.00  0.00     0.045 A 
ATOM     12  C   UNL     1       3.187  -1.941   0.205  1.00  0.00     0.049 A 
ATOM     13  C   UNL     1       2.034  -2.602  -0.200  1.00  0.00     0.130 A 
BRANCH   9  14
ATOM     14  N   UNL     1       2.858   1.196  -1.716  1.00  0.00    -0.322 N 
ATOM     15  C   UNL     1       1.943   2.140  -2.182  1.00  0.00     0.255 C 
ATOM     16  O   UNL     1       2.373   3.215  -2.606  1.00  0.00    -0.269 OA
ATOM     17  H   UNL     1       3.773   1.542  -1.601  1.00  0.00     0.170 HD
BRANCH  15  18
ATOM     18  C   UNL     1       0.453   1.972  -2.090  1.00  0.00     0.043 A 
ATOM     19  C   UNL     1      -1.487   0.842  -1.106  1.00  0.00     0.120 A 
ATOM     20  C   UNL     1      -2.326   1.536  -1.968  1.00  0.00     0.046 A 
ATOM     21  C   UNL     1      -0.128   1.114  -1.158  1.00  0.00     0.060 A 
ATOM     22  C   UNL     1      -1.792   2.504  -2.832  1.00  0.00     0.005 A 
ATOM     23  C   UNL     1      -0.406   2.713  -2.902  1.00  0.00     0.014 A 
BRANCH  19  24
ATOM     24  O   UNL     1      -1.972  -0.239  -0.430  1.00  0.00    -0.493 OA
BRANCH  24  25
ATOM     25  C   UNL     1      -1.800  -0.348   1.000  1.00  0.00     0.232 C 
BRANCH  25  26
ATOM     26  C   UNL     1      -0.365  -0.531   1.544  1.00  0.00     0.020 C 
ATOM     27  C   UNL     1       0.243   0.778   2.064  1.00  0.00     0.011 C 
ATOM     28  C   UNL     1      -0.276  -1.571   2.663  1.00  0.00     0.011 C 
ENDBRANCH  25  26
ENDBRANCH  24  25
ENDBRANCH  19  24
ENDBRANCH  15  18
ENDBRANCH   9  14
BRANCH  13  29
ATOM     29  O   UNL     1       1.693  -3.735   0.487  1.00  0.00    -0.507 OA
ATOM     30  H   UNL     1       2.241  -4.044   1.181  1.00  0.00     0.293 HD
ENDBRANCH  13  29
ENDBRANCH   6   8
ENDBRANCH   5   6
ENDBRANCH   4   5
ENDBRANCH   3   4
ENDBRANCH   2   3
ENDBRANCH   1   2
BRANCH   1  31
ATOM     31  C   UNL     1       2.006  -4.183  -3.656  1.00  0.00     0.188 C 
BRANCH  31  32
ATOM     32  O   UNL     1       1.776  -3.563  -4.894  1.00  0.00    -0.376 OA
BRANCH  32  33
ATOM     33  C   UNL     1       1.851  -4.359  -6.062  1.00  0.00     0.202 C 
BRANCH  33  34
ATOM     34  C   UNL     1       2.671  -5.666  -6.173  1.00  0.00     0.261 C 
BRANCH  34  35
ATOM     35  O   UNL     1       2.905  -6.432  -4.978  1.00  0.00    -0.460 OA
BRANCH  35  36
ATOM     36  C   UNL     1       4.171  -6.370  -4.478  1.00  0.00     0.338 C 
ATOM     37  O   UNL     1       5.115  -5.776  -4.972  1.00  0.00    -0.246 OA
BRANCH  36  38
ATOM     38  C   UNL     1       4.209  -6.924  -3.100  1.00  0.00     0.060 A 
ATOM     39  C   UNL     1       4.537  -6.065  -2.038  1.00  0.00     0.016 A 
ATOM     40  C   UNL     1       3.985  -8.278  -2.856  1.00  0.00     0.016 A 
ATOM     41  C   UNL     1       4.690  -6.564  -0.742  1.00  0.00     0.010 A 
ATOM     42  C   UNL     1       4.167  -8.782  -1.558  1.00  0.00     0.010 A 
ATOM     43  C   UNL     1       4.564  -7.937  -0.503  1.00  0.00    -0.014 A 
BRANCH  43  44
ATOM     44  C   UNL     1       5.054  -8.504   0.784  1.00  0.00     0.031 A 
ATOM     45  C   UNL     1       6.425  -9.136   0.816  1.00  0.00     0.074 A 
ATOM     46  C   UNL     1       4.332  -8.425   1.918  1.00  0.00     0.049 A 
ATOM     47  N   UNL     1       7.061  -9.701   1.811  1.00  0.00    -0.248 NA
ATOM     48  C   UNL     1       7.180  -9.127  -0.448  1.00  0.00     0.031 C 
ATOM     49  C   UNL     1       3.015  -7.804   2.042  1.00  0.00     0.029 A 
ATOM     50  N   UNL     1       4.610  -8.879   3.186  1.00  0.00    -0.354 N 
ATOM     51  C   UNL     1       8.283 -10.118   1.294  1.00  0.00     0.074 A 
ATOM     52  C   UNL     1       8.285  -9.775  -0.112  1.00  0.00     0.031 C 
ATOM     53  C   UNL     1       2.594  -7.926   3.314  1.00  0.00     0.029 A 
ATOM     54  C   UNL     1       3.598  -8.654   4.090  1.00  0.00     0.049 A 
ATOM     55  H   UNL     1       5.456  -9.323   3.425  1.00  0.00     0.167 HD
ATOM     56  C   UNL     1       9.317 -10.720   1.930  1.00  0.00     0.037 A 
ATOM     57  C   UNL     1       3.488  -9.007   5.387  1.00  0.00     0.037 A 
ATOM     58  C   UNL     1       9.318 -11.064   3.329  1.00  0.00     0.049 A 
ATOM     59  C   UNL     1       4.627  -9.735   6.060  1.00  0.00     0.074 A 
ATOM     60  C   UNL     1      10.325 -11.663   4.067  1.00  0.00     0.029 A 
ATOM     61  N   UNL     1       8.262 -10.848   4.202  1.00  0.00    -0.354 N 
ATOM     62  N   UNL     1       5.785 -10.102   5.564  1.00  0.00    -0.248 NA
ATOM     63  C   UNL     1       4.446 -10.088   7.476  1.00  0.00     0.031 C 
ATOM     64  C   UNL     1       9.857 -11.861   5.370  1.00  0.00     0.029 A 
ATOM     65  C   UNL     1       8.582 -11.325   5.463  1.00  0.00     0.049 A 
ATOM     66  H   UNL     1       7.409 -10.419   3.961  1.00  0.00     0.167 HD
ATOM     67  C   UNL     1       6.481 -10.697   6.614  1.00  0.00     0.074 A 
ATOM     68  C   UNL     1       5.620 -10.624   7.776  1.00  0.00     0.031 C 
ATOM     69  C   UNL     1       7.720 -11.250   6.617  1.00  0.00     0.037 A 
BRANCH  56  70
ATOM     70  C   UNL     1      10.532 -11.070   1.111  1.00  0.00     0.058 A 
ATOM     71  C   UNL     1      11.400 -10.085   0.612  1.00  0.00     0.135 A 
ATOM     72  C   UNL     1      10.855 -12.414   0.857  1.00  0.00     0.135 A 
ATOM     73  F   UNL     1      11.132  -8.784   0.808  1.00  0.00    -0.206 F 
ATOM     74  C   UNL     1      12.528 -10.418  -0.132  1.00  0.00     0.059 A 
ATOM     75  C   UNL     1      11.995 -12.771   0.143  1.00  0.00     0.059 A 
ATOM     76  F   UNL     1      10.061 -13.397   1.308  1.00  0.00    -0.206 F 
ATOM     77  C   UNL     1      12.819 -11.764  -0.359  1.00  0.00     0.060 A 
BRANCH  77  78
ATOM     78  S   UNL     1      14.295 -12.179  -1.313  1.00  0.00     0.124 S 
ATOM     79  O   UNL     1      13.904 -11.755  -2.654  1.00  0.00    -0.237 OA
ATOM     80  O   UNL     1      15.321 -11.368  -0.665  1.00  0.00    -0.237 OA
ATOM     81  O   UNL     1      14.428 -13.620  -1.126  1.00  0.00    -0.744 OA
ENDBRANCH  77  78
ENDBRANCH  56  70
BRANCH  57  82
ATOM     82  C   UNL     1       2.249  -8.681   6.150  1.00  0.00     0.058 A 
ATOM     83  C   UNL     1       2.264  -7.756   7.205  1.00  0.00     0.135 A 
ATOM     84  C   UNL     1       1.029  -9.309   5.853  1.00  0.00     0.135 A 
ATOM     85  F   UNL     1       3.409  -7.142   7.542  1.00  0.00    -0.206 F 
ATOM     86  C   UNL     1       1.121  -7.478   7.949  1.00  0.00     0.059 A 
ATOM     87  C   UNL     1      -0.134  -9.024   6.562  1.00  0.00     0.059 A 
ATOM     88  F   UNL     1       0.956 -10.200   4.851  1.00  0.00    -0.206 F 
ATOM     89  C   UNL     1      -0.075  -8.114   7.617  1.00  0.00     0.060 A 
BRANCH  89  90
ATOM     90  S   UNL     1      -1.563  -7.708   8.557  1.00  0.00     0.124 S 
ATOM     91  O   UNL     1      -1.288  -8.351   9.837  1.00  0.00    -0.237 OA
ATOM     92  O   UNL     1      -1.536  -6.249   8.557  1.00  0.00    -0.237 OA
ATOM     93  O   UNL     1      -2.635  -8.307   7.767  1.00  0.00    -0.744 OA
ENDBRANCH  89  90
ENDBRANCH  57  82
BRANCH  69  94
ATOM     94  C   UNL     1       8.240 -11.784   7.929  1.00  0.00     0.058 A 
ATOM     95  C   UNL     1       7.695 -12.927   8.537  1.00  0.00     0.135 A 
ATOM     96  C   UNL     1       9.312 -11.150   8.580  1.00  0.00     0.135 A 
ATOM     97  F   UNL     1       6.670 -13.576   7.961  1.00  0.00    -0.206 F 
ATOM     98  C   UNL     1       8.157 -13.390   9.766  1.00  0.00     0.059 A 
ATOM     99  C   UNL     1       9.814 -11.616   9.792  1.00  0.00     0.059 A 
ATOM    100  F   UNL     1       9.886 -10.065   8.038  1.00  0.00    -0.206 F 
ATOM    101  C   UNL     1       9.214 -12.724  10.389  1.00  0.00     0.060 A 
BRANCH 101 102
ATOM    102  S   UNL     1       9.796 -13.325  11.989  1.00  0.00     0.124 S 
ATOM    103  O   UNL     1       8.715 -12.903  12.872  1.00  0.00    -0.237 OA
ATOM    104  O   UNL     1       9.905 -14.763  11.762  1.00  0.00    -0.237 OA
ATOM    105  O   UNL     1      11.066 -12.628  12.173  1.00  0.00    -0.744 OA
ENDBRANCH 101 102
ENDBRANCH  69  94
ENDBRANCH  43  44
ENDBRANCH  36  38
ENDBRANCH  35  36
ENDBRANCH  34  35
ENDBRANCH  33  34
ENDBRANCH  32  33
ENDBRANCH  31  32
ENDBRANCH   1  31
TORSDOF 26
