REMARK SMILES Cc1ccc(C)c(-c2cc(C(=O)OCCOCCOCCOC(=O)c3ccc(-c4c5nc(c(-c6c(F)cc(S(=O)(=O)[O-])cc6F)c6ccc([nH]6)c(-c6c(F)cc(S(=O)(=O)[O-])cc6F)c6nc(c(-c7c(F)cc(S(=O)(=O)[O-])cc7F)c7ccc4[nH]7)C=C6)C=C5)cc3)c3cc(C)ccc3n2)c1
REMARK SMILES IDX 18 1 17 2 16 3 15 4 14 5 13 6 11 7 12 8 10 9 8 10 9 11 98 12
REMARK SMILES IDX 97 13 91 14 96 15 92 16 95 17 93 18 94 19 7 20 1 21 2 22
REMARK SMILES IDX 3 23 99 24 4 25 5 26 6 27 19 28 20 29 21 30 22 31 23 32
REMARK SMILES IDX 24 33 25 34 26 35 90 36 27 37 89 38 28 39 29 40 30 41 83 42
REMARK SMILES IDX 31 43 88 44 82 45 84 46 32 47 87 48 81 49 80 50 33 52 67 53
REMARK SMILES IDX 46 54 66 55 47 56 50 57 65 58 85 59 48 60 49 61 64 63 86 64
REMARK SMILES IDX 51 65 34 66 35 67 44 68 36 69 37 70 43 71 45 72 38 73 39 74
REMARK SMILES IDX 40 75 41 76 42 77 68 78 69 79 78 80 70 81 71 82 77 83 79 84
REMARK SMILES IDX 72 85 73 86 74 87 75 88 76 89 52 90 53 91 62 92 54 93 55 94
REMARK SMILES IDX 61 95 63 96 56 97 57 98 58 99 59 100 60 101
REMARK H PARENT 84 51 50 62
REMARK Flexibility Score: inf
ROOT
ATOM      1  C   UNL     1       2.147   7.291  -2.940  1.00  0.00     0.188 C 
ENDROOT
BRANCH   1   2
ATOM      2  C   UNL     1       1.642   5.948  -3.498  1.00  0.00     0.188 C 
BRANCH   2   3
ATOM      3  O   UNL     1       1.107   6.011  -4.822  1.00  0.00    -0.376 OA
BRANCH   3   4
ATOM      4  C   UNL     1      -0.210   6.564  -4.947  1.00  0.00     0.202 C 
BRANCH   4   5
ATOM      5  C   UNL     1      -1.386   5.609  -4.630  1.00  0.00     0.261 C 
BRANCH   5   6
ATOM      6  O   UNL     1      -1.335   5.031  -3.296  1.00  0.00    -0.460 OA
BRANCH   6   7
ATOM      7  C   UNL     1      -2.493   4.436  -2.870  1.00  0.00     0.338 C 
ATOM      8  O   UNL     1      -3.484   4.221  -3.543  1.00  0.00    -0.246 OA
BRANCH   7   9
ATOM      9  C   UNL     1      -2.336   3.874  -1.502  1.00  0.00     0.071 A 
ATOM     10  C   UNL     1      -1.475   1.997  -0.343  1.00  0.00     0.072 A 
ATOM     11  C   UNL     1      -1.559   2.719  -1.510  1.00  0.00     0.045 A 
ATOM     12  N   UNL     1      -2.109   2.337   0.791  1.00  0.00    -0.248 NA
ATOM     13  C   UNL     1      -2.824   3.449   0.819  1.00  0.00     0.072 A 
ATOM     14  C   UNL     1      -2.978   4.317  -0.280  1.00  0.00     0.015 A 
ATOM     15  C   UNL     1      -3.399   3.704   2.048  1.00  0.00     0.029 A 
ATOM     16  C   UNL     1      -3.695   5.522   0.015  1.00  0.00     0.014 A 
ATOM     17  C   UNL     1      -4.030   4.901   2.321  1.00  0.00     0.005 A 
ATOM     18  C   UNL     1      -4.116   5.861   1.327  1.00  0.00    -0.050 A 
ATOM     19  C   UNL     1      -4.540   7.242   1.743  1.00  0.00     0.044 C 
BRANCH  10  20
ATOM     20  C   UNL     1      -0.708   0.771  -0.231  1.00  0.00     0.003 A 
ATOM     21  C   UNL     1       2.975  -0.151   0.027  1.00  0.00     0.044 C 
ATOM     22  C   UNL     1       1.484  -0.273  -0.026  1.00  0.00    -0.050 A 
ATOM     23  C   UNL     1       0.859  -1.519   0.060  1.00  0.00     0.004 A 
ATOM     24  C   UNL     1       0.693   0.865  -0.174  1.00  0.00     0.014 A 
ATOM     25  C   UNL     1      -0.535  -1.624   0.021  1.00  0.00     0.004 A 
ATOM     26  C   UNL     1      -1.336  -0.484  -0.116  1.00  0.00    -0.042 A 
ATOM     27  C   UNL     1      -2.836  -0.647  -0.116  1.00  0.00     0.045 C 
ENDBRANCH  10  20
ENDBRANCH   7   9
ENDBRANCH   6   7
ENDBRANCH   5   6
ENDBRANCH   4   5
ENDBRANCH   3   4
ENDBRANCH   2   3
ENDBRANCH   1   2
BRANCH   1  28
ATOM     28  O   UNL     1       1.046   8.129  -2.637  1.00  0.00    -0.376 OA
BRANCH  28  29
ATOM     29  C   UNL     1       1.329   9.488  -2.377  1.00  0.00     0.202 C 
BRANCH  29  30
ATOM     30  C   UNL     1       2.126   9.789  -1.104  1.00  0.00     0.261 C 
BRANCH  30  31
ATOM     31  O   UNL     1       2.014   8.969   0.091  1.00  0.00    -0.460 OA
BRANCH  31  32
ATOM     32  C   UNL     1       0.999   8.215   0.588  1.00  0.00     0.338 C 
ATOM     33  O   UNL     1       1.177   7.372   1.428  1.00  0.00    -0.246 OA
BRANCH  32  34
ATOM     34  C   UNL     1      -0.323   8.400  -0.029  1.00  0.00     0.060 A 
ATOM     35  C   UNL     1      -0.810   7.300  -0.709  1.00  0.00     0.016 A 
ATOM     36  C   UNL     1      -0.975   9.639  -0.096  1.00  0.00     0.016 A 
ATOM     37  C   UNL     1      -1.808   7.524  -1.633  1.00  0.00     0.010 A 
ATOM     38  C   UNL     1      -2.015   9.826  -1.021  1.00  0.00     0.010 A 
ATOM     39  C   UNL     1      -2.378   8.771  -1.852  1.00  0.00    -0.014 A 
BRANCH  39  40
ATOM     40  C   UNL     1      -3.400   8.764  -2.910  1.00  0.00     0.031 A 
ATOM     41  C   UNL     1      -4.689   8.117  -2.541  1.00  0.00     0.074 A 
ATOM     42  C   UNL     1      -3.199   9.203  -4.167  1.00  0.00     0.049 A 
ATOM     43  N   UNL     1      -5.304   7.120  -3.104  1.00  0.00    -0.248 NA
ATOM     44  C   UNL     1      -5.289   8.574  -1.282  1.00  0.00     0.031 C 
ATOM     45  C   UNL     1      -2.045   9.938  -4.674  1.00  0.00     0.029 A 
ATOM     46  N   UNL     1      -4.050   9.172  -5.240  1.00  0.00    -0.354 N 
ATOM     47  C   UNL     1      -6.462   6.942  -2.356  1.00  0.00     0.074 A 
ATOM     48  C   UNL     1      -6.311   7.733  -1.163  1.00  0.00     0.031 C 
ATOM     49  C   UNL     1      -2.374  10.496  -5.858  1.00  0.00     0.029 A 
ATOM     50  C   UNL     1      -3.740  10.130  -6.197  1.00  0.00     0.049 A 
ATOM     51  H   UNL     1      -4.800   8.539  -5.324  1.00  0.00     0.167 HD
ATOM     52  C   UNL     1      -7.624   6.417  -2.826  1.00  0.00     0.037 A 
ATOM     53  C   UNL     1      -4.594  10.716  -7.077  1.00  0.00     0.037 A 
ATOM     54  C   UNL     1      -7.481   5.547  -3.945  1.00  0.00     0.049 A 
ATOM     55  C   UNL     1      -5.763   9.814  -7.256  1.00  0.00     0.074 A 
ATOM     56  C   UNL     1      -6.805   4.366  -4.182  1.00  0.00     0.029 A 
ATOM     57  N   UNL     1      -7.875   5.995  -5.180  1.00  0.00    -0.354 N 
ATOM     58  N   UNL     1      -5.718   8.664  -7.872  1.00  0.00    -0.248 NA
ATOM     59  C   UNL     1      -6.900   9.998  -6.364  1.00  0.00     0.031 C 
ATOM     60  C   UNL     1      -6.402   4.436  -5.547  1.00  0.00     0.029 A 
ATOM     61  C   UNL     1      -6.876   5.646  -6.051  1.00  0.00     0.049 A 
ATOM     62  H   UNL     1      -8.709   6.472  -5.397  1.00  0.00     0.167 HD
ATOM     63  C   UNL     1      -6.569   7.839  -7.151  1.00  0.00     0.074 A 
ATOM     64  C   UNL     1      -7.319   8.734  -6.275  1.00  0.00     0.031 C 
ATOM     65  C   UNL     1      -6.420   6.483  -7.136  1.00  0.00     0.037 A 
BRANCH  52  66
ATOM     66  C   UNL     1      -8.914   7.059  -2.402  1.00  0.00     0.058 A 
ATOM     67  C   UNL     1     -10.132   6.371  -2.381  1.00  0.00     0.135 A 
ATOM     68  C   UNL     1      -8.980   8.453  -2.156  1.00  0.00     0.135 A 
ATOM     69  F   UNL     1     -10.186   5.070  -2.703  1.00  0.00    -0.206 F 
ATOM     70  C   UNL     1     -11.330   7.023  -2.073  1.00  0.00     0.059 A 
ATOM     71  C   UNL     1     -10.130   9.098  -1.753  1.00  0.00     0.059 A 
ATOM     72  F   UNL     1      -7.923   9.254  -2.363  1.00  0.00    -0.206 F 
ATOM     73  C   UNL     1     -11.312   8.381  -1.744  1.00  0.00     0.060 A 
BRANCH  73  74
ATOM     74  S   UNL     1     -12.839   9.255  -1.371  1.00  0.00     0.124 S 
ATOM     75  O   UNL     1     -13.369   9.482  -2.711  1.00  0.00    -0.237 OA
ATOM     76  O   UNL     1     -13.559   8.288  -0.550  1.00  0.00    -0.237 OA
ATOM     77  O   UNL     1     -12.374  10.444  -0.662  1.00  0.00    -0.744 OA
ENDBRANCH  73  74
ENDBRANCH  52  66
BRANCH  53  78
ATOM     78  C   UNL     1      -4.610  12.166  -7.441  1.00  0.00     0.058 A 
ATOM     79  C   UNL     1      -5.406  12.671  -8.485  1.00  0.00     0.135 A 
ATOM     80  C   UNL     1      -4.002  13.142  -6.619  1.00  0.00     0.135 A 
ATOM     81  F   UNL     1      -6.078  11.831  -9.289  1.00  0.00    -0.206 F 
ATOM     82  C   UNL     1      -5.586  14.049  -8.695  1.00  0.00     0.059 A 
ATOM     83  C   UNL     1      -4.135  14.509  -6.828  1.00  0.00     0.059 A 
ATOM     84  F   UNL     1      -3.326  12.809  -5.511  1.00  0.00    -0.206 F 
ATOM     85  C   UNL     1      -4.946  14.960  -7.855  1.00  0.00     0.060 A 
BRANCH  85  86
ATOM     86  S   UNL     1      -5.262  16.733  -8.014  1.00  0.00     0.124 S 
ATOM     87  O   UNL     1      -4.638  17.038  -9.296  1.00  0.00    -0.237 OA
ATOM     88  O   UNL     1      -6.719  16.790  -7.978  1.00  0.00    -0.237 OA
ATOM     89  O   UNL     1      -4.592  17.302  -6.846  1.00  0.00    -0.744 OA
ENDBRANCH  85  86
ENDBRANCH  53  78
BRANCH  65  90
ATOM     90  C   UNL     1      -5.511   5.831  -8.139  1.00  0.00     0.058 A 
ATOM     91  C   UNL     1      -4.121   6.027  -8.186  1.00  0.00     0.135 A 
ATOM     92  C   UNL     1      -6.049   4.814  -8.947  1.00  0.00     0.135 A 
ATOM     93  F   UNL     1      -3.519   6.911  -7.375  1.00  0.00    -0.206 F 
ATOM     94  C   UNL     1      -3.304   5.258  -9.019  1.00  0.00     0.059 A 
ATOM     95  C   UNL     1      -5.250   4.017  -9.760  1.00  0.00     0.059 A 
ATOM     96  F   UNL     1      -7.365   4.544  -8.902  1.00  0.00    -0.206 F 
ATOM     97  C   UNL     1      -3.877   4.249  -9.795  1.00  0.00     0.060 A 
BRANCH  97  98
ATOM     98  S   UNL     1      -2.805   3.183 -10.784  1.00  0.00     0.124 S 
ATOM     99  O   UNL     1      -2.392   4.078 -11.859  1.00  0.00    -0.237 OA
ATOM    100  O   UNL     1      -1.762   2.810  -9.833  1.00  0.00    -0.237 OA
ATOM    101  O   UNL     1      -3.687   2.089 -11.188  1.00  0.00    -0.744 OA
ENDBRANCH  97  98
ENDBRANCH  65  90
ENDBRANCH  39  40
ENDBRANCH  32  34
ENDBRANCH  31  32
ENDBRANCH  30  31
ENDBRANCH  29  30
ENDBRANCH  28  29
ENDBRANCH   1  28
TORSDOF 21
