REMARK SMILES CC[N@@H+](C)Cc1cc2c(cc1Cl)C=C(C(=O)OCCOCCOCCOC(=O)c1ccc(-c3c4nc(c(-c5c(F)cc(S(=O)(=O)[O-])cc5F)c5ccc([nH]5)c(-c5c(F)cc(S(=O)(=O)[O-])cc5F)c5nc(c(-c6c(F)cc(S(=O)(=O)[O-])cc6F)c6ccc3[nH]6)C=C5)C=C4)cc1)[C@@H](C(F)(F)F)O2
REMARK SMILES IDX 21 1 20 2 19 3 18 4 17 5 15 6 16 7 14 8 6 9 7 10 11 11 8 12
REMARK SMILES IDX 10 13 12 14 9 15 100 16 13 17 95 18 5 19 3 20 4 21 2 23 1 24
REMARK SMILES IDX 96 25 97 26 98 27 99 28 22 29 23 30 24 31 25 32 26 33 27 34
REMARK SMILES IDX 28 35 29 36 30 37 94 38 31 39 93 40 32 41 33 42 34 43 87 44
REMARK SMILES IDX 35 45 92 46 86 47 88 48 36 49 91 50 85 51 84 52 37 54 71 55
REMARK SMILES IDX 50 56 70 57 51 58 54 59 69 60 89 61 52 62 53 63 68 65 90 66
REMARK SMILES IDX 55 67 38 68 39 69 48 70 40 71 41 72 47 73 49 74 42 75 43 76
REMARK SMILES IDX 44 77 45 78 46 79 72 80 73 81 82 82 74 83 75 84 81 85 83 86
REMARK SMILES IDX 76 87 77 88 78 89 79 90 80 91 56 92 57 93 66 94 58 95 59 96
REMARK SMILES IDX 65 97 67 98 60 99 61 100 62 101 63 102 64 103
REMARK H PARENT 3 22 88 53 54 64
REMARK Flexibility Score: inf
ROOT
ATOM      1  C   UNL     1       6.870  -0.855  -8.396  1.00  0.00     0.188 C 
ENDROOT
BRANCH   1   2
ATOM      2  O   UNL     1       6.976  -0.108  -9.596  1.00  0.00    -0.376 OA
BRANCH   2   3
ATOM      3  C   UNL     1       5.796   0.064 -10.360  1.00  0.00     0.202 C 
BRANCH   3   4
ATOM      4  C   UNL     1       4.688   0.929  -9.741  1.00  0.00     0.261 C 
BRANCH   4   5
ATOM      5  O   UNL     1       4.429   0.690  -8.350  1.00  0.00    -0.460 OA
BRANCH   5   6
ATOM      6  C   UNL     1       3.587  -0.319  -8.046  1.00  0.00     0.338 C 
ATOM      7  O   UNL     1       3.018  -1.053  -8.834  1.00  0.00    -0.246 OA
BRANCH   6   8
ATOM      8  C   UNL     1       3.562  -0.475  -6.575  1.00  0.00     0.087 C 
ATOM      9  C   UNL     1       3.155  -2.203  -1.884  1.00  0.00     0.029 A 
ATOM     10  C   UNL     1       3.262  -0.924  -2.459  1.00  0.00     0.058 A 
ATOM     11  C   UNL     1       3.447  -3.312  -2.694  1.00  0.00     0.050 A 
ATOM     12  C   UNL     1       3.477  -0.765  -3.827  1.00  0.00     0.128 A 
ATOM     13  C   UNL     1       3.681  -3.151  -4.065  1.00  0.00     0.033 A 
ATOM     14  Cl  UNL     1       3.507  -4.922  -2.071  1.00  0.00    -0.084 Cl
ATOM     15  C   UNL     1       3.635  -1.881  -4.644  1.00  0.00     0.019 A 
ATOM     16  O   UNL     1       3.482   0.521  -4.280  1.00  0.00    -0.475 OA
ATOM     17  C   UNL     1       3.685  -1.716  -6.087  1.00  0.00     0.027 C 
ATOM     18  C   UNL     1       3.456   0.759  -5.713  1.00  0.00     0.316 C 
BRANCH   9  19
ATOM     19  C   UNL     1       2.637  -2.321  -0.462  1.00  0.00     0.300 C 
BRANCH  19  20
ATOM     20  N   UNL     1       1.164  -2.288  -0.301  1.00  0.00    -0.334 N 
ATOM     21  C   UNL     1       0.513  -3.430  -0.949  1.00  0.00     0.333 C 
ATOM     22  H   UNL     1       1.042  -2.350   0.710  1.00  0.00     0.348 HD
BRANCH  20  23
ATOM     23  C   UNL     1       0.502  -1.038  -0.693  1.00  0.00     0.258 C 
ATOM     24  C   UNL     1       0.873   0.145   0.193  1.00  0.00     0.071 C 
ENDBRANCH  20  23
ENDBRANCH  19  20
ENDBRANCH   9  19
BRANCH  18  25
ATOM     25  C   UNL     1       2.214   1.601  -6.036  1.00  0.00     0.430 C 
ATOM     26  F   UNL     1       2.141   2.694  -5.236  1.00  0.00    -0.167 F 
ATOM     27  F   UNL     1       2.231   2.060  -7.310  1.00  0.00    -0.167 F 
ATOM     28  F   UNL     1       1.067   0.905  -5.870  1.00  0.00    -0.167 F 
ENDBRANCH  18  25
ENDBRANCH   6   8
ENDBRANCH   5   6
ENDBRANCH   4   5
ENDBRANCH   3   4
ENDBRANCH   2   3
ENDBRANCH   1   2
BRANCH   1  29
ATOM     29  C   UNL     1       7.124  -0.001  -7.136  1.00  0.00     0.188 C 
BRANCH  29  30
ATOM     30  O   UNL     1       7.612   1.330  -7.272  1.00  0.00    -0.376 OA
BRANCH  30  31
ATOM     31  C   UNL     1       8.683   1.582  -8.175  1.00  0.00     0.202 C 
BRANCH  31  32
ATOM     32  C   UNL     1      10.006   0.830  -7.976  1.00  0.00     0.261 C 
BRANCH  32  33
ATOM     33  O   UNL     1       9.878  -0.601  -7.930  1.00  0.00    -0.460 OA
BRANCH  33  34
ATOM     34  C   UNL     1      10.151  -1.175  -6.730  1.00  0.00     0.338 C 
ATOM     35  O   UNL     1      10.519  -0.613  -5.713  1.00  0.00    -0.246 OA
BRANCH  34  36
ATOM     36  C   UNL     1       9.734  -2.594  -6.761  1.00  0.00     0.060 A 
ATOM     37  C   UNL     1      10.218  -3.471  -7.733  1.00  0.00     0.016 A 
ATOM     38  C   UNL     1       8.845  -3.047  -5.776  1.00  0.00     0.016 A 
ATOM     39  C   UNL     1       9.831  -4.815  -7.697  1.00  0.00     0.010 A 
ATOM     40  C   UNL     1       8.446  -4.385  -5.753  1.00  0.00     0.010 A 
ATOM     41  C   UNL     1       8.955  -5.283  -6.700  1.00  0.00    -0.014 A 
BRANCH  41  42
ATOM     42  C   UNL     1       8.713  -6.739  -6.552  1.00  0.00     0.031 A 
ATOM     43  C   UNL     1       7.479  -7.399  -7.088  1.00  0.00     0.074 A 
ATOM     44  C   UNL     1       9.645  -7.469  -5.909  1.00  0.00     0.049 A 
ATOM     45  N   UNL     1       7.182  -8.672  -7.124  1.00  0.00    -0.248 NA
ATOM     46  C   UNL     1       6.443  -6.521  -7.649  1.00  0.00     0.031 C 
ATOM     47  C   UNL     1      10.866  -6.926  -5.310  1.00  0.00     0.029 A 
ATOM     48  N   UNL     1       9.719  -8.815  -5.658  1.00  0.00    -0.354 N 
ATOM     49  C   UNL     1       5.941  -8.759  -7.740  1.00  0.00     0.074 A 
ATOM     50  C   UNL     1       5.516  -7.400  -8.014  1.00  0.00     0.031 C 
ATOM     51  C   UNL     1      11.581  -7.933  -4.785  1.00  0.00     0.029 A 
ATOM     52  C   UNL     1      10.864  -9.187  -4.997  1.00  0.00     0.049 A 
ATOM     53  H   UNL     1       9.019  -9.453  -5.926  1.00  0.00     0.167 HD
ATOM     54  C   UNL     1       5.237  -9.871  -8.064  1.00  0.00     0.037 A 
ATOM     55  C   UNL     1      11.298 -10.403  -4.615  1.00  0.00     0.037 A 
ATOM     56  C   UNL     1       5.661 -11.218  -7.767  1.00  0.00     0.049 A 
ATOM     57  C   UNL     1      10.480 -11.617  -4.951  1.00  0.00     0.074 A 
ATOM     58  C   UNL     1       5.034 -12.409  -8.095  1.00  0.00     0.029 A 
ATOM     59  N   UNL     1       6.807 -11.557  -7.061  1.00  0.00    -0.354 N 
ATOM     60  N   UNL     1       9.348 -11.688  -5.609  1.00  0.00    -0.248 NA
ATOM     61  C   UNL     1      11.000 -12.915  -4.501  1.00  0.00     0.031 C 
ATOM     62  C   UNL     1       5.775 -13.463  -7.548  1.00  0.00     0.029 A 
ATOM     63  C   UNL     1       6.890 -12.934  -6.918  1.00  0.00     0.049 A 
ATOM     64  H   UNL     1       7.465 -10.913  -6.712  1.00  0.00     0.167 HD
ATOM     65  C   UNL     1       9.028 -13.039  -5.668  1.00  0.00     0.074 A 
ATOM     66  C   UNL     1      10.094 -13.751  -4.992  1.00  0.00     0.031 C 
ATOM     67  C   UNL     1       7.948 -13.634  -6.233  1.00  0.00     0.037 A 
BRANCH  54  68
ATOM     68  C   UNL     1       3.936  -9.692  -8.798  1.00  0.00     0.058 A 
ATOM     69  C   UNL     1       3.911  -9.311 -10.149  1.00  0.00     0.135 A 
ATOM     70  C   UNL     1       2.711  -9.984  -8.178  1.00  0.00     0.135 A 
ATOM     71  F   UNL     1       5.053  -9.012 -10.788  1.00  0.00    -0.206 F 
ATOM     72  C   UNL     1       2.717  -9.212 -10.855  1.00  0.00     0.059 A 
ATOM     73  C   UNL     1       1.505  -9.913  -8.871  1.00  0.00     0.059 A 
ATOM     74  F   UNL     1       2.678 -10.356  -6.888  1.00  0.00    -0.206 F 
ATOM     75  C   UNL     1       1.518  -9.518 -10.208  1.00  0.00     0.060 A 
BRANCH  75  76
ATOM     76  S   UNL     1      -0.019  -9.402 -11.149  1.00  0.00     0.124 S 
ATOM     77  O   UNL     1      -0.148  -7.957 -11.318  1.00  0.00    -0.237 OA
ATOM     78  O   UNL     1       0.299 -10.154 -12.358  1.00  0.00    -0.237 OA
ATOM     79  O   UNL     1      -1.005 -10.020 -10.269  1.00  0.00    -0.744 OA
ENDBRANCH  75  76
ENDBRANCH  54  68
BRANCH  55  80
ATOM     80  C   UNL     1      12.600 -10.525  -3.911  1.00  0.00     0.058 A 
ATOM     81  C   UNL     1      13.720 -11.060  -4.563  1.00  0.00     0.135 A 
ATOM     82  C   UNL     1      12.761 -10.069  -2.594  1.00  0.00     0.135 A 
ATOM     83  F   UNL     1      13.613 -11.511  -5.822  1.00  0.00    -0.206 F 
ATOM     84  C   UNL     1      14.956 -11.143  -3.932  1.00  0.00     0.059 A 
ATOM     85  C   UNL     1      13.992 -10.121  -1.949  1.00  0.00     0.059 A 
ATOM     86  F   UNL     1      11.721  -9.533  -1.936  1.00  0.00    -0.206 F 
ATOM     87  C   UNL     1      15.083 -10.665  -2.626  1.00  0.00     0.060 A 
BRANCH  87  88
ATOM     88  S   UNL     1      16.709 -10.722  -1.841  1.00  0.00     0.124 S 
ATOM     89  O   UNL     1      16.870 -12.151  -1.601  1.00  0.00    -0.237 OA
ATOM     90  O   UNL     1      17.565 -10.146  -2.873  1.00  0.00    -0.237 OA
ATOM     91  O   UNL     1      16.535  -9.896  -0.649  1.00  0.00    -0.744 OA
ENDBRANCH  87  88
ENDBRANCH  55  80
BRANCH  67  92
ATOM     92  C   UNL     1       7.859 -15.133  -6.147  1.00  0.00     0.058 A 
ATOM     93  C   UNL     1       7.539 -15.780  -4.943  1.00  0.00     0.135 A 
ATOM     94  C   UNL     1       8.039 -15.929  -7.290  1.00  0.00     0.135 A 
ATOM     95  F   UNL     1       7.367 -15.067  -3.818  1.00  0.00    -0.206 F 
ATOM     96  C   UNL     1       7.414 -17.164  -4.872  1.00  0.00     0.059 A 
ATOM     97  C   UNL     1       7.895 -17.312  -7.247  1.00  0.00     0.059 A 
ATOM     98  F   UNL     1       8.341 -15.360  -8.468  1.00  0.00    -0.206 F 
ATOM     99  C   UNL     1       7.589 -17.922  -6.031  1.00  0.00     0.060 A 
BRANCH  99 100
ATOM    100  S   UNL     1       7.380 -19.713  -5.931  1.00  0.00     0.124 S 
ATOM    101  O   UNL     1       8.579 -20.109  -5.200  1.00  0.00    -0.237 OA
ATOM    102  O   UNL     1       6.123 -19.839  -5.201  1.00  0.00    -0.237 OA
ATOM    103  O   UNL     1       7.331 -20.129  -7.330  1.00  0.00    -0.744 OA
ENDBRANCH  99 100
ENDBRANCH  67  92
ENDBRANCH  41  42
ENDBRANCH  34  36
ENDBRANCH  33  34
ENDBRANCH  32  33
ENDBRANCH  31  32
ENDBRANCH  30  31
ENDBRANCH  29  30
ENDBRANCH   1  29
TORSDOF 24
