REMARK SMILES C[C@@H]1c2ccccc2C(C)(C)C[C@H]2c3cccc(C(=O)OCCOCCOCCOC(=O)c4ccc(-c5c6nc(c(-c7c(F)cc(S(=O)(=O)[O-])cc7F)c7ccc([nH]7)c(-c7c(F)cc(S(=O)(=O)[O-])cc7F)c7nc(c(-c8c(F)cc(S(=O)(=O)[O-])cc8F)c8ccc5[nH]8)C=C7)C=C6)cc4)c3C(=O)N12
REMARK SMILES IDX 25 1 24 2 23 3 22 4 21 5 19 6 20 7 18 8 102 9 13 10 100 11
REMARK SMILES IDX 14 12 99 13 101 14 15 15 16 16 17 17 2 18 1 19 3 20 4 21
REMARK SMILES IDX 8 22 5 23 7 24 6 25 9 26 10 27 11 28 12 30 26 32 27 33 28 34
REMARK SMILES IDX 29 35 30 36 31 37 32 38 33 39 34 40 98 41 35 42 97 43 36 44
REMARK SMILES IDX 37 45 38 46 91 47 39 48 96 49 90 50 92 51 40 52 95 53 89 54
REMARK SMILES IDX 88 55 41 57 75 58 54 59 74 60 55 61 58 62 73 63 93 64 56 65
REMARK SMILES IDX 57 66 72 68 94 69 59 70 42 71 43 72 52 73 44 74 45 75 51 76
REMARK SMILES IDX 53 77 46 78 47 79 48 80 49 81 50 82 76 83 77 84 86 85 78 86
REMARK SMILES IDX 79 87 85 88 87 89 80 90 81 91 82 92 83 93 84 94 60 95 61 96
REMARK SMILES IDX 70 97 62 98 63 99 69 100 71 101 64 102 65 103 66 104 67 105
REMARK SMILES IDX 68 106
REMARK H PARENT 92 56 58 67
REMARK Flexibility Score: 80.00
ROOT
ATOM      1  C   UNL     1       4.660   5.536  -3.971  1.00  0.00     0.188 C 
ENDROOT
BRANCH   1   2
ATOM      2  O   UNL     1       4.921   4.500  -4.897  1.00  0.00    -0.376 OA
BRANCH   2   3
ATOM      3  C   UNL     1       5.243   3.226  -4.365  1.00  0.00     0.202 C 
BRANCH   3   4
ATOM      4  C   UNL     1       4.166   2.516  -3.534  1.00  0.00     0.261 C 
BRANCH   4   5
ATOM      5  O   UNL     1       3.518   3.316  -2.538  1.00  0.00    -0.460 OA
BRANCH   5   6
ATOM      6  C   UNL     1       4.183   3.509  -1.377  1.00  0.00     0.339 C 
ATOM      7  O   UNL     1       5.323   3.186  -1.111  1.00  0.00    -0.246 OA
BRANCH   6   8
ATOM      8  C   UNL     1       3.345   4.388  -0.556  1.00  0.00     0.073 A 
ATOM      9  N   UNL     1       0.447   2.652   0.845  1.00  0.00    -0.325 N 
ATOM     10  C   UNL     1       0.315   3.981   1.464  1.00  0.00     0.118 C 
ATOM     11  C   UNL     1       1.595   2.580   0.065  1.00  0.00     0.256 C 
ATOM     12  C   UNL     1       1.392   4.774   0.793  1.00  0.00    -0.012 A 
ATOM     13  C   UNL     1       2.189   3.926   0.033  1.00  0.00     0.059 A 
ATOM     14  O   UNL     1       2.057   1.611  -0.508  1.00  0.00    -0.269 OA
ATOM     15  C   UNL     1       1.690   6.124   0.936  1.00  0.00     0.007 A 
ATOM     16  C   UNL     1       2.855   6.607   0.342  1.00  0.00     0.001 A 
ATOM     17  C   UNL     1       3.695   5.739  -0.377  1.00  0.00     0.016 A 
BRANCH   9  18
ATOM     18  C   UNL     1      -0.463   1.502   1.148  1.00  0.00     0.113 C 
ATOM     19  C   UNL     1      -0.803   0.695  -0.120  1.00  0.00     0.036 C 
BRANCH  18  20
ATOM     20  C   UNL     1      -1.702   1.972   1.942  1.00  0.00    -0.022 A 
ATOM     21  C   UNL     1      -3.001   1.768   1.431  1.00  0.00     0.006 A 
ATOM     22  C   UNL     1      -1.554   2.814   3.075  1.00  0.00    -0.037 A 
ATOM     23  C   UNL     1      -4.067   2.574   1.823  1.00  0.00     0.000 A 
ATOM     24  C   UNL     1      -2.616   3.700   3.361  1.00  0.00     0.004 A 
ATOM     25  C   UNL     1      -3.847   3.604   2.719  1.00  0.00     0.000 A 
BRANCH  22  26
ATOM     26  C   UNL     1      -0.208   2.981   3.806  1.00  0.00    -0.008 CG0
ATOM     27  C   UNL     1      -0.404   3.473   5.266  1.00  0.00     0.016 C 
ATOM     28  C   UNL     1       0.629   1.680   3.975  1.00  0.00     0.016 C 
ATOM     29  G   UNL     1       0.593   4.015   2.991  1.00  0.00     0.000 G0
ENDBRANCH  22  26
ENDBRANCH  18  20
ENDBRANCH   9  18
BRANCH  10  30
ATOM     30  C   UNL     1       0.593   4.015   2.991  1.00  0.00     0.041 CG0
ATOM     31  G   UNL     1      -0.208   2.981   3.806  1.00  0.00     0.000 G0
ENDBRANCH  10  30
ENDBRANCH   6   8
ENDBRANCH   5   6
ENDBRANCH   4   5
ENDBRANCH   3   4
ENDBRANCH   2   3
ENDBRANCH   1   2
BRANCH   1  32
ATOM     32  C   UNL     1       3.184   5.993  -3.962  1.00  0.00     0.188 C 
BRANCH  32  33
ATOM     33  O   UNL     1       2.295   5.584  -4.997  1.00  0.00    -0.376 OA
BRANCH  33  34
ATOM     34  C   UNL     1       2.769   5.493  -6.331  1.00  0.00     0.202 C 
BRANCH  34  35
ATOM     35  C   UNL     1       3.335   6.755  -6.996  1.00  0.00     0.261 C 
BRANCH  35  36
ATOM     36  O   UNL     1       4.373   7.424  -6.260  1.00  0.00    -0.460 OA
BRANCH  36  37
ATOM     37  C   UNL     1       4.039   8.622  -5.716  1.00  0.00     0.338 C 
ATOM     38  O   UNL     1       2.968   9.197  -5.803  1.00  0.00    -0.246 OA
BRANCH  37  39
ATOM     39  C   UNL     1       5.127   9.074  -4.819  1.00  0.00     0.060 A 
ATOM     40  C   UNL     1       6.430   9.245  -5.290  1.00  0.00     0.016 A 
ATOM     41  C   UNL     1       4.822   9.344  -3.477  1.00  0.00     0.016 A 
ATOM     42  C   UNL     1       7.422   9.709  -4.418  1.00  0.00     0.010 A 
ATOM     43  C   UNL     1       5.819   9.791  -2.604  1.00  0.00     0.010 A 
ATOM     44  C   UNL     1       7.123   9.997  -3.073  1.00  0.00    -0.014 A 
BRANCH  44  45
ATOM     45  C   UNL     1       8.134  10.669  -2.216  1.00  0.00     0.031 A 
ATOM     46  C   UNL     1       8.935   9.925  -1.190  1.00  0.00     0.074 A 
ATOM     47  C   UNL     1       8.319  11.994  -2.379  1.00  0.00     0.049 A 
ATOM     48  N   UNL     1       9.926  10.359  -0.452  1.00  0.00    -0.248 NA
ATOM     49  C   UNL     1       8.575   8.521  -0.950  1.00  0.00     0.031 C 
ATOM     50  C   UNL     1       7.567  12.833  -3.313  1.00  0.00     0.029 A 
ATOM     51  N   UNL     1       9.197  12.862  -1.780  1.00  0.00    -0.354 N 
ATOM     52  C   UNL     1      10.333   9.278   0.319  1.00  0.00     0.074 A 
ATOM     53  C   UNL     1       9.441   8.181  -0.002  1.00  0.00     0.031 C 
ATOM     54  C   UNL     1       8.037  14.088  -3.249  1.00  0.00     0.029 A 
ATOM     55  C   UNL     1       9.109  14.147  -2.259  1.00  0.00     0.049 A 
ATOM     56  H   UNL     1       9.829  12.590  -1.076  1.00  0.00     0.167 HD
ATOM     57  C   UNL     1      11.366   9.206   1.195  1.00  0.00     0.037 A 
ATOM     58  C   UNL     1       9.818  15.250  -1.949  1.00  0.00     0.037 A 
ATOM     59  C   UNL     1      12.235  10.312   1.523  1.00  0.00     0.049 A 
ATOM     60  C   UNL     1      10.937  15.154  -0.951  1.00  0.00     0.074 A 
ATOM     61  C   UNL     1      13.339  10.319   2.361  1.00  0.00     0.029 A 
ATOM     62  N   UNL     1      12.093  11.609   1.048  1.00  0.00    -0.354 N 
ATOM     63  N   UNL     1      11.369  14.101  -0.298  1.00  0.00    -0.248 NA
ATOM     64  C   UNL     1      11.672  16.391  -0.654  1.00  0.00     0.031 C 
ATOM     65  C   UNL     1      13.827  11.628   2.438  1.00  0.00     0.029 A 
ATOM     66  C   UNL     1      13.065  12.430   1.603  1.00  0.00     0.049 A 
ATOM     67  H   UNL     1      11.403  11.904   0.411  1.00  0.00     0.167 HD
ATOM     68  C   UNL     1      12.436  14.545   0.475  1.00  0.00     0.074 A 
ATOM     69  C   UNL     1      12.595  15.957   0.195  1.00  0.00     0.031 C 
ATOM     70  C   UNL     1      13.212  13.841   1.336  1.00  0.00     0.037 A 
BRANCH  57  71
ATOM     71  C   UNL     1      11.632   7.883   1.864  1.00  0.00     0.058 A 
ATOM     72  C   UNL     1      12.151   6.792   1.147  1.00  0.00     0.135 A 
ATOM     73  C   UNL     1      11.441   7.722   3.246  1.00  0.00     0.135 A 
ATOM     74  F   UNL     1      12.351   6.887  -0.177  1.00  0.00    -0.206 F 
ATOM     75  C   UNL     1      12.448   5.584   1.771  1.00  0.00     0.059 A 
ATOM     76  C   UNL     1      11.756   6.532   3.897  1.00  0.00     0.059 A 
ATOM     77  F   UNL     1      10.954   8.733   3.983  1.00  0.00    -0.206 F 
ATOM     78  C   UNL     1      12.249   5.464   3.148  1.00  0.00     0.060 A 
BRANCH  78  79
ATOM     79  S   UNL     1      12.650   3.892   3.941  1.00  0.00     0.124 S 
ATOM     80  O   UNL     1      11.609   3.021   3.405  1.00  0.00    -0.237 OA
ATOM     81  O   UNL     1      14.002   3.636   3.457  1.00  0.00    -0.237 OA
ATOM     82  O   UNL     1      12.542   4.191   5.366  1.00  0.00    -0.744 OA
ENDBRANCH  78  79
ENDBRANCH  57  71
BRANCH  58  83
ATOM     83  C   UNL     1       9.509  16.528  -2.641  1.00  0.00     0.058 A 
ATOM     84  C   UNL     1      10.377  17.051  -3.609  1.00  0.00     0.135 A 
ATOM     85  C   UNL     1       8.311  17.217  -2.393  1.00  0.00     0.135 A 
ATOM     86  F   UNL     1      11.537  16.431  -3.875  1.00  0.00    -0.206 F 
ATOM     87  C   UNL     1      10.069  18.210  -4.312  1.00  0.00     0.059 A 
ATOM     88  C   UNL     1       7.968  18.364  -3.101  1.00  0.00     0.059 A 
ATOM     89  F   UNL     1       7.440  16.747  -1.487  1.00  0.00    -0.206 F 
ATOM     90  C   UNL     1       8.856  18.853  -4.059  1.00  0.00     0.060 A 
BRANCH  90  91
ATOM     91  S   UNL     1       8.432  20.310  -5.038  1.00  0.00     0.124 S 
ATOM     92  O   UNL     1       9.393  21.288  -4.542  1.00  0.00    -0.237 OA
ATOM     93  O   UNL     1       8.650  19.833  -6.400  1.00  0.00    -0.237 OA
ATOM     94  O   UNL     1       7.038  20.559  -4.684  1.00  0.00    -0.744 OA
ENDBRANCH  90  91
ENDBRANCH  58  83
BRANCH  70  95
ATOM     95  C   UNL     1      14.311  14.583   2.051  1.00  0.00     0.058 A 
ATOM     96  C   UNL     1      14.031  15.500   3.076  1.00  0.00     0.135 A 
ATOM     97  C   UNL     1      15.660  14.328   1.753  1.00  0.00     0.135 A 
ATOM     98  F   UNL     1      12.760  15.789   3.396  1.00  0.00    -0.206 F 
ATOM     99  C   UNL     1      15.049  16.149   3.770  1.00  0.00     0.059 A 
ATOM    100  C   UNL     1      16.694  14.944   2.453  1.00  0.00     0.059 A 
ATOM    101  F   UNL     1      15.986  13.455   0.786  1.00  0.00    -0.206 F 
ATOM    102  C   UNL     1      16.378  15.860   3.455  1.00  0.00     0.060 A 
BRANCH 102 103
ATOM    103  S   UNL     1      17.684  16.678   4.397  1.00  0.00     0.124 S 
ATOM    104  O   UNL     1      17.573  18.053   3.922  1.00  0.00    -0.237 OA
ATOM    105  O   UNL     1      17.263  16.447   5.775  1.00  0.00    -0.237 OA
ATOM    106  O   UNL     1      18.894  15.969   3.989  1.00  0.00    -0.744 OA
ENDBRANCH 102 103
ENDBRANCH  70  95
ENDBRANCH  44  45
ENDBRANCH  37  39
ENDBRANCH  36  37
ENDBRANCH  35  36
ENDBRANCH  34  35
ENDBRANCH  33  34
ENDBRANCH  32  33
ENDBRANCH   1  32
TORSDOF 20
