REMARK SMILES O=C(OCCOCCOCCOC(=O)[C@@H]1CC[C@H](CNC(=O)c2cccn2C2CC2)O1)c1ccc(-c2c3nc(c(-c4c(F)cc(S(=O)(=O)[O-])cc4F)c4ccc([nH]4)c(-c4c(F)cc(S(=O)(=O)[O-])cc4F)c4nc(c(-c5c(F)cc(S(=O)(=O)[O-])cc5F)c5ccc2[nH]5)C=C4)C=C3)cc1
REMARK SMILES IDX 8 1 7 2 6 3 5 4 4 5 3 6 2 7 1 8 32 9 33 10 97 11 34 12 96 13
REMARK SMILES IDX 35 14 36 15 37 16 90 17 38 18 95 19 89 20 91 21 39 22 94 23
REMARK SMILES IDX 88 24 87 25 40 27 74 28 53 29 73 30 54 31 57 32 72 33 92 34
REMARK SMILES IDX 55 35 56 36 71 38 93 39 58 40 41 41 42 42 51 43 43 44 44 45
REMARK SMILES IDX 50 46 52 47 45 48 46 49 47 50 48 51 49 52 75 53 76 54 85 55
REMARK SMILES IDX 77 56 78 57 84 58 86 59 79 60 80 61 81 62 82 63 83 64 59 65
REMARK SMILES IDX 60 66 69 67 61 68 62 69 68 70 70 71 63 72 64 73 65 74 66 75
REMARK SMILES IDX 67 76 9 77 10 78 11 79 12 80 13 81 14 82 15 83 16 84 31 85
REMARK SMILES IDX 17 86 18 87 19 88 20 89 21 90 22 92 23 93 24 94 27 95 25 96
REMARK SMILES IDX 26 97 28 98 29 99 30 100
REMARK H PARENT 91 26 57 37 20 91
REMARK Flexibility Score: inf
ROOT
ATOM      1  C   UNL     1       2.410   0.297  -2.211  1.00  0.00     0.188 C 
ENDROOT
BRANCH   1   2
ATOM      2  C   UNL     1       3.561   0.838  -1.336  1.00  0.00     0.188 C 
BRANCH   2   3
ATOM      3  O   UNL     1       4.761   0.086  -1.547  1.00  0.00    -0.376 OA
BRANCH   3   4
ATOM      4  C   UNL     1       5.292  -0.540  -0.390  1.00  0.00     0.202 C 
BRANCH   4   5
ATOM      5  C   UNL     1       4.519  -1.799   0.056  1.00  0.00     0.261 C 
BRANCH   5   6
ATOM      6  O   UNL     1       3.080  -1.668  -0.020  1.00  0.00    -0.460 OA
BRANCH   6   7
ATOM      7  C   UNL     1       2.137  -1.242   0.846  1.00  0.00     0.338 C 
ATOM      8  O   UNL     1       0.970  -1.171   0.469  1.00  0.00    -0.246 OA
BRANCH   7   9
ATOM      9  C   UNL     1       2.459  -0.834   2.231  1.00  0.00     0.060 A 
ATOM     10  C   UNL     1       3.708  -0.357   2.619  1.00  0.00     0.016 A 
ATOM     11  C   UNL     1       1.418  -0.855   3.174  1.00  0.00     0.016 A 
ATOM     12  C   UNL     1       3.962   0.017   3.920  1.00  0.00     0.010 A 
ATOM     13  C   UNL     1       1.653  -0.458   4.488  1.00  0.00     0.010 A 
ATOM     14  C   UNL     1       2.935  -0.037   4.851  1.00  0.00    -0.014 A 
BRANCH  14  15
ATOM     15  C   UNL     1       3.264   0.444   6.199  1.00  0.00     0.031 A 
ATOM     16  C   UNL     1       3.282   1.968   6.285  1.00  0.00     0.074 A 
ATOM     17  C   UNL     1       3.591  -0.528   7.096  1.00  0.00     0.049 A 
ATOM     18  N   UNL     1       3.984   2.750   7.048  1.00  0.00    -0.248 NA
ATOM     19  C   UNL     1       2.486   2.747   5.296  1.00  0.00     0.031 C 
ATOM     20  C   UNL     1       3.592  -1.970   6.778  1.00  0.00     0.029 A 
ATOM     21  N   UNL     1       3.989  -0.532   8.414  1.00  0.00    -0.354 N 
ATOM     22  C   UNL     1       3.515   4.061   6.825  1.00  0.00     0.074 A 
ATOM     23  C   UNL     1       2.738   4.015   5.623  1.00  0.00     0.031 C 
ATOM     24  C   UNL     1       4.013  -2.690   7.833  1.00  0.00     0.029 A 
ATOM     25  C   UNL     1       4.300  -1.809   8.946  1.00  0.00     0.049 A 
ATOM     26  H   UNL     1       4.052   0.292   8.949  1.00  0.00     0.167 HD
ATOM     27  C   UNL     1       3.626   5.062   7.745  1.00  0.00     0.037 A 
ATOM     28  C   UNL     1       4.779  -2.138  10.185  1.00  0.00     0.037 A 
ATOM     29  C   UNL     1       4.307   4.595   8.909  1.00  0.00     0.049 A 
ATOM     30  C   UNL     1       4.745  -0.888  10.971  1.00  0.00     0.074 A 
ATOM     31  C   UNL     1       5.611   4.288   9.187  1.00  0.00     0.029 A 
ATOM     32  N   UNL     1       3.514   4.125   9.931  1.00  0.00    -0.354 N 
ATOM     33  N   UNL     1       3.662  -0.287  11.370  1.00  0.00    -0.248 NA
ATOM     34  C   UNL     1       6.008  -0.195  11.259  1.00  0.00     0.031 C 
ATOM     35  C   UNL     1       5.532   3.294  10.187  1.00  0.00     0.029 A 
ATOM     36  C   UNL     1       4.193   3.102  10.546  1.00  0.00     0.049 A 
ATOM     37  H   UNL     1       2.623   4.462  10.177  1.00  0.00     0.167 HD
ATOM     38  C   UNL     1       4.101   0.985  11.652  1.00  0.00     0.074 A 
ATOM     39  C   UNL     1       5.529   0.892  11.857  1.00  0.00     0.031 C 
ATOM     40  C   UNL     1       3.412   2.054  11.177  1.00  0.00     0.037 A 
BRANCH  27  41
ATOM     41  C   UNL     1       2.905   6.382   7.870  1.00  0.00     0.058 A 
ATOM     42  C   UNL     1       3.448   7.340   8.761  1.00  0.00     0.135 A 
ATOM     43  C   UNL     1       1.567   6.577   7.494  1.00  0.00     0.135 A 
ATOM     44  F   UNL     1       4.743   7.286   9.120  1.00  0.00    -0.206 F 
ATOM     45  C   UNL     1       2.667   8.305   9.387  1.00  0.00     0.059 A 
ATOM     46  C   UNL     1       0.777   7.572   8.072  1.00  0.00     0.059 A 
ATOM     47  F   UNL     1       0.957   5.755   6.631  1.00  0.00    -0.206 F 
ATOM     48  C   UNL     1       1.317   8.377   9.072  1.00  0.00     0.060 A 
BRANCH  48  49
ATOM     49  S   UNL     1       0.258   9.480  10.031  1.00  0.00     0.124 S 
ATOM     50  O   UNL     1       0.005   8.676  11.221  1.00  0.00    -0.237 OA
ATOM     51  O   UNL     1       1.113  10.648  10.227  1.00  0.00    -0.237 OA
ATOM     52  O   UNL     1      -0.883   9.693   9.147  1.00  0.00    -0.744 OA
ENDBRANCH  48  49
ENDBRANCH  27  41
BRANCH  28  53
ATOM     53  C   UNL     1       5.397  -3.358  10.842  1.00  0.00     0.058 A 
ATOM     54  C   UNL     1       5.586  -4.617  10.251  1.00  0.00     0.135 A 
ATOM     55  C   UNL     1       5.992  -3.236  12.129  1.00  0.00     0.135 A 
ATOM     56  F   UNL     1       4.975  -4.963   9.115  1.00  0.00    -0.206 F 
ATOM     57  C   UNL     1       6.433  -5.595  10.798  1.00  0.00     0.059 A 
ATOM     58  C   UNL     1       6.873  -4.169  12.671  1.00  0.00     0.059 A 
ATOM     59  F   UNL     1       5.773  -2.166  12.908  1.00  0.00    -0.206 F 
ATOM     60  C   UNL     1       7.120  -5.337  11.977  1.00  0.00     0.060 A 
BRANCH  60  61
ATOM     61  S   UNL     1       8.427  -6.442  12.545  1.00  0.00     0.124 S 
ATOM     62  O   UNL     1       7.707  -7.317  13.463  1.00  0.00    -0.237 OA
ATOM     63  O   UNL     1       8.887  -7.061  11.305  1.00  0.00    -0.237 OA
ATOM     64  O   UNL     1       9.380  -5.522  13.161  1.00  0.00    -0.744 OA
ENDBRANCH  60  61
ENDBRANCH  28  53
BRANCH  40  65
ATOM     65  C   UNL     1       1.929   1.798  10.960  1.00  0.00     0.058 A 
ATOM     66  C   UNL     1       1.082   1.516  12.042  1.00  0.00     0.135 A 
ATOM     67  C   UNL     1       1.335   1.731   9.689  1.00  0.00     0.135 A 
ATOM     68  F   UNL     1       1.562   1.560  13.295  1.00  0.00    -0.206 F 
ATOM     69  C   UNL     1      -0.268   1.185  11.867  1.00  0.00     0.059 A 
ATOM     70  C   UNL     1      -0.008   1.414   9.481  1.00  0.00     0.059 A 
ATOM     71  F   UNL     1       2.060   1.969   8.599  1.00  0.00    -0.206 F 
ATOM     72  C   UNL     1      -0.806   1.135  10.581  1.00  0.00     0.060 A 
BRANCH  72  73
ATOM     73  S   UNL     1      -2.543   0.689  10.360  1.00  0.00     0.124 S 
ATOM     74  O   UNL     1      -2.612  -0.624  10.993  1.00  0.00    -0.237 OA
ATOM     75  O   UNL     1      -3.228   1.767  11.065  1.00  0.00    -0.237 OA
ATOM     76  O   UNL     1      -2.718   0.684   8.909  1.00  0.00    -0.744 OA
ENDBRANCH  72  73
ENDBRANCH  40  65
ENDBRANCH  14  15
ENDBRANCH   7   9
ENDBRANCH   6   7
ENDBRANCH   5   6
ENDBRANCH   4   5
ENDBRANCH   3   4
ENDBRANCH   2   3
ENDBRANCH   1   2
BRANCH   1  77
ATOM     77  O   UNL     1       2.550   0.393  -3.633  1.00  0.00    -0.376 OA
BRANCH  77  78
ATOM     78  C   UNL     1       3.808  -0.009  -4.169  1.00  0.00     0.202 C 
BRANCH  78  79
ATOM     79  C   UNL     1       4.681   1.211  -4.512  1.00  0.00     0.261 C 
BRANCH  79  80
ATOM     80  O   UNL     1       4.250   2.398  -3.823  1.00  0.00    -0.461 OA
BRANCH  80  81
ATOM     81  C   UNL     1       3.124   2.978  -4.337  1.00  0.00     0.335 C 
ATOM     82  O   UNL     1       2.714   2.803  -5.480  1.00  0.00    -0.249 OA
BRANCH  81  83
ATOM     83  C   UNL     1       2.431   3.848  -3.270  1.00  0.00     0.228 C 
ATOM     84  C   UNL     1       1.084   4.401  -3.736  1.00  0.00     0.047 C 
ATOM     85  O   UNL     1       3.239   4.971  -2.879  1.00  0.00    -0.361 OA
ATOM     86  C   UNL     1       1.158   5.871  -3.395  1.00  0.00     0.037 C 
ATOM     87  C   UNL     1       2.647   6.158  -3.439  1.00  0.00     0.138 C 
BRANCH  87  88
ATOM     88  C   UNL     1       3.229   6.354  -4.846  1.00  0.00     0.148 C 
BRANCH  88  89
ATOM     89  N   UNL     1       2.723   7.513  -5.554  1.00  0.00    -0.348 N 
ATOM     90  C   UNL     1       3.397   8.614  -5.992  1.00  0.00     0.268 C 
ATOM     91  H   UNL     1       1.757   7.504  -5.745  1.00  0.00     0.163 HD
ATOM     92  O   UNL     1       2.775   9.410  -6.721  1.00  0.00    -0.268 OA
BRANCH  90  93
ATOM     93  C   UNL     1       4.781   8.780  -5.653  1.00  0.00     0.107 A 
ATOM     94  C   UNL     1       5.835   7.950  -6.037  1.00  0.00     0.033 A 
ATOM     95  N   UNL     1       5.354   9.824  -4.956  1.00  0.00    -0.340 N 
ATOM     96  C   UNL     1       7.041   8.489  -5.542  1.00  0.00     0.020 A 
ATOM     97  C   UNL     1       6.717   9.660  -4.902  1.00  0.00     0.086 A 
BRANCH  95  98
ATOM     98  C   UNL     1       4.732  10.927  -4.243  1.00  0.00     0.087 C 
ATOM     99  C   UNL     1       3.379  11.544  -4.519  1.00  0.00     0.027 C 
ATOM    100  C   UNL     1       3.558  10.695  -3.308  1.00  0.00     0.027 C 
ENDBRANCH  95  98
ENDBRANCH  90  93
ENDBRANCH  88  89
ENDBRANCH  87  88
ENDBRANCH  81  83
ENDBRANCH  80  81
ENDBRANCH  79  80
ENDBRANCH  78  79
ENDBRANCH  77  78
ENDBRANCH   1  77
TORSDOF 24
