REMARK SMILES O=CN[C@@H](CCS[C@@H]1CCO[C@]2(CCOC2)C1)C(=O)OCCOCCOCCOC(=O)c1ccc(-c2c3nc(c(-c4c(F)cc(S(=O)(=O)[O-])cc4F)c4ccc([nH]4)c(-c4c(F)cc(S(=O)(=O)[O-])cc4F)c4nc(c(-c5c(F)cc(S(=O)(=O)[O-])cc5F)c5ccc2[nH]5)C=C4)C=C3)cc1
REMARK SMILES IDX 24 1 23 2 22 3 21 4 20 5 18 6 19 7 4 8 3 9 1 10 2 11 5 13
REMARK SMILES IDX 6 14 7 15 8 16 9 17 17 18 10 19 12 20 11 21 13 22 16 23
REMARK SMILES IDX 14 24 15 25 25 26 26 27 27 28 28 29 29 30 30 31 31 32 32 33
REMARK SMILES IDX 33 34 97 35 34 36 96 37 35 38 36 39 37 40 90 41 38 42 95 43
REMARK SMILES IDX 89 44 91 45 39 46 94 47 88 48 87 49 40 51 74 52 53 53 73 54
REMARK SMILES IDX 54 55 57 56 72 57 92 58 55 59 56 60 71 62 93 63 58 64 41 65
REMARK SMILES IDX 42 66 51 67 43 68 44 69 50 70 52 71 45 72 46 73 47 74 48 75
REMARK SMILES IDX 49 76 75 77 76 78 85 79 77 80 78 81 84 82 86 83 79 84 80 85
REMARK SMILES IDX 81 86 82 87 83 88 59 89 60 90 69 91 61 92 62 93 68 94 70 95
REMARK SMILES IDX 63 96 64 97 65 98 66 99 67 100
REMARK H PARENT 3 12 91 50 57 61
REMARK Flexibility Score: inf
ROOT
ATOM      1  C   UNL     1       3.793   3.694   1.081  1.00  0.00     0.188 C 
ENDROOT
BRANCH   1   2
ATOM      2  O   UNL     1       4.121   4.636   0.032  1.00  0.00    -0.376 OA
BRANCH   2   3
ATOM      3  C   UNL     1       5.412   4.814  -0.725  1.00  0.00     0.202 C 
BRANCH   3   4
ATOM      4  C   UNL     1       6.028   3.839  -2.518  1.00  0.00     0.261 C 
BRANCH   4   5
ATOM      5  O   UNL     1       6.190   2.153  -2.817  1.00  0.00    -0.462 OA
BRANCH   5   6
ATOM      6  C   UNL     1       6.262   0.903  -2.231  1.00  0.00     0.328 C 
ATOM      7  O   UNL     1       7.361   0.410  -1.976  1.00  0.00    -0.250 OA
BRANCH   6   8
ATOM      8  C   UNL     1       4.952   0.024  -2.076  1.00  0.00     0.192 C 
BRANCH   8   9
ATOM      9  N   UNL     1       3.780   0.304  -1.210  1.00  0.00    -0.345 N 
ATOM     10  O   UNL     1       1.969  -0.310   0.001  1.00  0.00    -0.279 OA
ATOM     11  C   UNL     1       3.106  -0.550  -0.388  1.00  0.00     0.337 C 
ATOM     12  H   UNL     1       3.444   1.230  -1.232  1.00  0.00     0.164 HD
ENDBRANCH   8   9
BRANCH   8  13
ATOM     13  C   UNL     1       4.459  -0.135  -3.508  1.00  0.00     0.048 C 
BRANCH  13  14
ATOM     14  C   UNL     1       4.053   1.195  -4.144  1.00  0.00     0.072 C 
BRANCH  14  15
ATOM     15  S   UNL     1       3.134   2.345  -3.068  1.00  0.00    -0.158 SA
BRANCH  15  16
ATOM     16  C   UNL     1       4.326   3.165  -1.693  1.00  0.00     0.052 C 
ATOM     17  C   UNL     1       4.094   4.952  -2.430  1.00  0.00     0.043 C 
ATOM     18  C   UNL     1       6.062   2.871  -0.675  1.00  0.00     0.052 C 
ATOM     19  C   UNL     1       5.654   5.999  -2.684  1.00  0.00     0.162 C 
ATOM     20  C   UNL     1       7.548   4.097  -1.040  1.00  0.00     0.095 C 
ATOM     21  O   UNL     1       7.108   5.650  -1.769  1.00  0.00    -0.372 OA
ATOM     22  C   UNL     1       8.732   3.574  -1.891  1.00  0.00     0.066 C 
ATOM     23  C   UNL     1       8.386   4.474   0.221  1.00  0.00     0.195 C 
ATOM     24  C   UNL     1       9.611   2.858  -0.905  1.00  0.00     0.163 C 
ATOM     25  O   UNL     1       9.467   3.543   0.338  1.00  0.00    -0.378 OA
ENDBRANCH  15  16
ENDBRANCH  14  15
ENDBRANCH  13  14
ENDBRANCH   8  13
ENDBRANCH   6   8
ENDBRANCH   5   6
ENDBRANCH   4   5
ENDBRANCH   3   4
ENDBRANCH   2   3
ENDBRANCH   1   2
BRANCH   1  26
ATOM     26  C   UNL     1       2.309   3.246   0.902  1.00  0.00     0.188 C 
BRANCH  26  27
ATOM     27  O   UNL     1       1.387   4.218   0.434  1.00  0.00    -0.376 OA
BRANCH  27  28
ATOM     28  C   UNL     1       1.507   5.513   0.996  1.00  0.00     0.202 C 
BRANCH  28  29
ATOM     29  C   UNL     1       1.279   5.634   2.509  1.00  0.00     0.261 C 
BRANCH  29  30
ATOM     30  O   UNL     1       2.059   4.729   3.321  1.00  0.00    -0.460 OA
BRANCH  30  31
ATOM     31  C   UNL     1       1.367   3.689   3.861  1.00  0.00     0.338 C 
ATOM     32  O   UNL     1       0.168   3.490   3.777  1.00  0.00    -0.246 OA
BRANCH  31  33
ATOM     33  C   UNL     1       2.298   2.687   4.434  1.00  0.00     0.060 A 
ATOM     34  C   UNL     1       2.307   1.383   3.906  1.00  0.00     0.016 A 
ATOM     35  C   UNL     1       3.047   2.988   5.571  1.00  0.00     0.016 A 
ATOM     36  C   UNL     1       3.018   0.369   4.542  1.00  0.00     0.010 A 
ATOM     37  C   UNL     1       3.729   1.960   6.232  1.00  0.00     0.010 A 
ATOM     38  C   UNL     1       3.670   0.639   5.749  1.00  0.00    -0.014 A 
BRANCH  38  39
ATOM     39  C   UNL     1       4.039  -0.503   6.620  1.00  0.00     0.031 A 
ATOM     40  C   UNL     1       3.071  -0.908   7.704  1.00  0.00     0.074 A 
ATOM     41  C   UNL     1       5.162  -1.209   6.408  1.00  0.00     0.049 A 
ATOM     42  N   UNL     1       3.168  -1.860   8.593  1.00  0.00    -0.248 NA
ATOM     43  C   UNL     1       1.824  -0.129   7.793  1.00  0.00     0.031 C 
ATOM     44  C   UNL     1       6.137  -0.948   5.351  1.00  0.00     0.029 A 
ATOM     45  N   UNL     1       5.670  -2.294   7.075  1.00  0.00    -0.354 N 
ATOM     46  C   UNL     1       2.004  -1.789   9.351  1.00  0.00     0.074 A 
ATOM     47  C   UNL     1       1.231  -0.680   8.840  1.00  0.00     0.031 C 
ATOM     48  C   UNL     1       7.134  -1.845   5.447  1.00  0.00     0.029 A 
ATOM     49  C   UNL     1       6.883  -2.721   6.590  1.00  0.00     0.049 A 
ATOM     50  H   UNL     1       5.210  -2.726   7.831  1.00  0.00     0.167 HD
ATOM     51  C   UNL     1       1.611  -2.583  10.376  1.00  0.00     0.037 A 
ATOM     52  C   UNL     1       7.700  -3.697   7.033  1.00  0.00     0.037 A 
ATOM     53  C   UNL     1       2.391  -3.685  10.876  1.00  0.00     0.049 A 
ATOM     54  C   UNL     1       7.273  -4.528   8.216  1.00  0.00     0.074 A 
ATOM     55  C   UNL     1       2.091  -4.555  11.909  1.00  0.00     0.029 A 
ATOM     56  N   UNL     1       3.631  -4.066  10.380  1.00  0.00    -0.354 N 
ATOM     57  N   UNL     1       6.171  -4.450   8.928  1.00  0.00    -0.248 NA
ATOM     58  C   UNL     1       8.193  -5.587   8.650  1.00  0.00     0.031 C 
ATOM     59  C   UNL     1       3.174  -5.425  12.076  1.00  0.00     0.029 A 
ATOM     60  C   UNL     1       4.119  -5.144  11.100  1.00  0.00     0.049 A 
ATOM     61  H   UNL     1       4.095  -3.634   9.627  1.00  0.00     0.167 HD
ATOM     62  C   UNL     1       6.250  -5.473   9.868  1.00  0.00     0.074 A 
ATOM     63  C   UNL     1       7.502  -6.161   9.624  1.00  0.00     0.031 C 
ATOM     64  C   UNL     1       5.368  -5.818  10.841  1.00  0.00     0.037 A 
BRANCH  51  65
ATOM     65  C   UNL     1       0.301  -2.262  11.047  1.00  0.00     0.058 A 
ATOM     66  C   UNL     1      -0.934  -2.450  10.404  1.00  0.00     0.135 A 
ATOM     67  C   UNL     1       0.281  -1.777  12.365  1.00  0.00     0.135 A 
ATOM     68  F   UNL     1      -0.977  -2.890   9.136  1.00  0.00    -0.206 F 
ATOM     69  C   UNL     1      -2.138  -2.144  11.033  1.00  0.00     0.059 A 
ATOM     70  C   UNL     1      -0.912  -1.495  13.025  1.00  0.00     0.059 A 
ATOM     71  F   UNL     1       1.430  -1.572  13.027  1.00  0.00    -0.206 F 
ATOM     72  C   UNL     1      -2.116  -1.669  12.346  1.00  0.00     0.060 A 
BRANCH  72  73
ATOM     73  S   UNL     1      -3.685  -1.287  13.153  1.00  0.00     0.124 S 
ATOM     74  O   UNL     1      -4.098  -0.084  12.436  1.00  0.00    -0.237 OA
ATOM     75  O   UNL     1      -4.472  -2.486  12.885  1.00  0.00    -0.237 OA
ATOM     76  O   UNL     1      -3.311  -1.086  14.549  1.00  0.00    -0.744 OA
ENDBRANCH  72  73
ENDBRANCH  51  65
BRANCH  52  77
ATOM     77  C   UNL     1       9.005  -3.940   6.357  1.00  0.00     0.058 A 
ATOM     78  C   UNL     1       9.246  -5.121   5.640  1.00  0.00     0.135 A 
ATOM     79  C   UNL     1      10.039  -2.991   6.416  1.00  0.00     0.135 A 
ATOM     80  F   UNL     1       8.295  -6.064   5.561  1.00  0.00    -0.206 F 
ATOM     81  C   UNL     1      10.469  -5.361   5.019  1.00  0.00     0.059 A 
ATOM     82  C   UNL     1      11.258  -3.195   5.779  1.00  0.00     0.059 A 
ATOM     83  F   UNL     1       9.858  -1.840   7.082  1.00  0.00    -0.206 F 
ATOM     84  C   UNL     1      11.467  -4.389   5.090  1.00  0.00     0.060 A 
BRANCH  84  85
ATOM     85  S   UNL     1      13.031  -4.691   4.239  1.00  0.00     0.124 S 
ATOM     86  O   UNL     1      13.621  -5.735   5.068  1.00  0.00    -0.237 OA
ATOM     87  O   UNL     1      12.581  -5.105   2.914  1.00  0.00    -0.237 OA
ATOM     88  O   UNL     1      13.698  -3.393   4.289  1.00  0.00    -0.744 OA
ENDBRANCH  84  85
ENDBRANCH  52  77
BRANCH  64  89
ATOM     89  C   UNL     1       5.700  -7.026  11.677  1.00  0.00     0.058 A 
ATOM     90  C   UNL     1       6.760  -7.030  12.598  1.00  0.00     0.135 A 
ATOM     91  C   UNL     1       4.931  -8.197  11.563  1.00  0.00     0.135 A 
ATOM     92  F   UNL     1       7.528  -5.939  12.749  1.00  0.00    -0.206 F 
ATOM     93  C   UNL     1       7.079  -8.166  13.336  1.00  0.00     0.059 A 
ATOM     94  C   UNL     1       5.208  -9.332  12.318  1.00  0.00     0.059 A 
ATOM     95  F   UNL     1       3.894  -8.246  10.712  1.00  0.00    -0.206 F 
ATOM     96  C   UNL     1       6.300  -9.314  13.184  1.00  0.00     0.060 A 
BRANCH  96  97
ATOM     97  S   UNL     1       6.731 -10.786  14.136  1.00  0.00     0.124 S 
ATOM     98  O   UNL     1       7.936 -11.237  13.447  1.00  0.00    -0.237 OA
ATOM     99  O   UNL     1       6.933 -10.244  15.476  1.00  0.00    -0.237 OA
ATOM    100  O   UNL     1       5.561 -11.646  13.983  1.00  0.00    -0.744 OA
ENDBRANCH  96  97
ENDBRANCH  64  89
ENDBRANCH  38  39
ENDBRANCH  31  33
ENDBRANCH  30  31
ENDBRANCH  29  30
ENDBRANCH  28  29
ENDBRANCH  27  28
ENDBRANCH  26  27
ENDBRANCH   1  26
TORSDOF 25
