REMARK SMILES Cc1ccc(CNC(=O)NC[C@@H]2CC[C@@H](C(=O)OCCOCCOCCOCCOC(=O)c3ccc(-c4c5nc(c(-c6c(F)cc(S(=O)(=O)[O-])cc6F)c6ccc([nH]6)c(-c6c(F)cc(S(=O)(=O)[O-])cc6F)c6nc(c(-c7c(F)cc(S(=O)(=O)[O-])cc7F)c7ccc4[nH]7)C=C6)C=C5)cc3)O2)cn1
REMARK SMILES IDX 23 1 22 2 21 3 20 4 19 5 18 6 16 7 17 8 15 9 12 10 13 11
REMARK SMILES IDX 99 12 14 13 11 14 10 15 7 16 8 17 9 19 6 21 5 22 1 23 2 24
REMARK SMILES IDX 3 25 101 26 4 27 100 28 24 29 25 30 26 31 27 32 28 33 29 34
REMARK SMILES IDX 30 35 31 36 32 37 33 38 34 39 98 40 35 41 97 42 36 43 37 44
REMARK SMILES IDX 38 45 91 46 39 47 96 48 90 49 92 50 40 51 95 52 89 53 88 54
REMARK SMILES IDX 41 56 75 57 54 58 74 59 55 60 58 61 73 62 93 63 56 64 57 65
REMARK SMILES IDX 72 67 94 68 59 69 42 70 43 71 52 72 44 73 45 74 51 75 53 76
REMARK SMILES IDX 46 77 47 78 48 79 49 80 50 81 76 82 77 83 86 84 78 85 79 86
REMARK SMILES IDX 85 87 87 88 80 89 81 90 82 91 83 92 84 93 60 94 61 95 70 96
REMARK SMILES IDX 62 97 63 98 69 99 71 100 64 101 65 102 66 103 67 104 68 105
REMARK H PARENT 7 18 10 20 92 55 58 66
REMARK Flexibility Score: inf
ROOT
ATOM      1  C   UNL     1      -5.971   3.830  -6.393  1.00  0.00     0.188 C 
ENDROOT
BRANCH   1   2
ATOM      2  C   UNL     1      -6.905   2.950  -7.261  1.00  0.00     0.188 C 
BRANCH   2   3
ATOM      3  O   UNL     1      -8.158   3.530  -7.574  1.00  0.00    -0.376 OA
BRANCH   3   4
ATOM      4  C   UNL     1      -9.343   3.017  -6.994  1.00  0.00     0.202 C 
BRANCH   4   5
ATOM      5  C   UNL     1      -9.466   2.995  -5.466  1.00  0.00     0.261 C 
BRANCH   5   6
ATOM      6  O   UNL     1      -8.284   2.576  -4.784  1.00  0.00    -0.461 OA
BRANCH   6   7
ATOM      7  C   UNL     1      -8.005   1.247  -4.753  1.00  0.00     0.335 C 
ATOM      8  O   UNL     1      -8.719   0.365  -5.213  1.00  0.00    -0.249 OA
BRANCH   7   9
ATOM      9  C   UNL     1      -6.578   1.039  -4.236  1.00  0.00     0.228 C 
ATOM     10  C   UNL     1      -5.642   1.378  -2.116  1.00  0.00     0.138 C 
ATOM     11  C   UNL     1      -5.295  -0.027  -2.578  1.00  0.00     0.037 C 
ATOM     12  O   UNL     1      -6.155   2.026  -3.289  1.00  0.00    -0.361 OA
ATOM     13  C   UNL     1      -6.367  -0.315  -3.599  1.00  0.00     0.047 C 
BRANCH  10  14
ATOM     14  C   UNL     1      -4.467   2.203  -1.562  1.00  0.00     0.149 C 
BRANCH  14  15
ATOM     15  N   UNL     1      -4.683   2.613  -0.183  1.00  0.00    -0.336 N 
ATOM     16  N   UNL     1      -3.762   0.945   1.212  1.00  0.00    -0.334 N 
ATOM     17  C   UNL     1      -4.397   2.103   1.016  1.00  0.00     0.315 C 
ATOM     18  H   UNL     1      -3.612   0.755   2.166  1.00  0.00     0.165 HD
ATOM     19  O   UNL     1      -4.732   2.739   2.016  1.00  0.00    -0.249 OA
ATOM     20  H   UNL     1      -5.152   3.476  -0.120  1.00  0.00     0.165 HD
BRANCH  16  21
ATOM     21  C   UNL     1      -3.246  -0.091   0.356  1.00  0.00     0.155 C 
BRANCH  21  22
ATOM     22  C   UNL     1      -1.750  -0.110   0.263  1.00  0.00    -0.010 A 
ATOM     23  C   UNL     1       2.495  -0.065  -0.054  1.00  0.00     0.066 C 
ATOM     24  C   UNL     1       1.000  -0.116   0.023  1.00  0.00     0.037 A 
ATOM     25  C   UNL     1       0.326  -1.330   0.059  1.00  0.00     0.024 A 
ATOM     26  N   UNL     1       0.357   1.073   0.069  1.00  0.00    -0.261 NA
ATOM     27  C   UNL     1      -1.062  -1.323   0.171  1.00  0.00     0.009 A 
ATOM     28  C   UNL     1      -0.992   1.052   0.183  1.00  0.00     0.116 A 
ENDBRANCH  21  22
ENDBRANCH  16  21
ENDBRANCH  14  15
ENDBRANCH  10  14
ENDBRANCH   7   9
ENDBRANCH   6   7
ENDBRANCH   5   6
ENDBRANCH   4   5
ENDBRANCH   3   4
ENDBRANCH   2   3
ENDBRANCH   1   2
BRANCH   1  29
ATOM     29  O   UNL     1      -6.419   5.058  -5.840  1.00  0.00    -0.377 OA
BRANCH  29  30
ATOM     30  C   UNL     1      -7.318   5.882  -6.569  1.00  0.00     0.188 C 
BRANCH  30  31
ATOM     31  C   UNL     1      -7.175   6.016  -8.102  1.00  0.00     0.188 C 
BRANCH  31  32
ATOM     32  O   UNL     1      -6.104   5.267  -8.656  1.00  0.00    -0.376 OA
BRANCH  32  33
ATOM     33  C   UNL     1      -4.964   5.984  -9.092  1.00  0.00     0.202 C 
BRANCH  33  34
ATOM     34  C   UNL     1      -4.183   6.788  -8.042  1.00  0.00     0.261 C 
BRANCH  34  35
ATOM     35  O   UNL     1      -4.943   7.699  -7.236  1.00  0.00    -0.460 OA
BRANCH  35  36
ATOM     36  C   UNL     1      -5.505   8.759  -7.856  1.00  0.00     0.338 C 
ATOM     37  O   UNL     1      -5.437   9.034  -9.044  1.00  0.00    -0.246 OA
BRANCH  36  38
ATOM     38  C   UNL     1      -6.392   9.427  -6.882  1.00  0.00     0.060 A 
ATOM     39  C   UNL     1      -7.768   9.497  -7.142  1.00  0.00     0.016 A 
ATOM     40  C   UNL     1      -5.867   9.964  -5.704  1.00  0.00     0.016 A 
ATOM     41  C   UNL     1      -8.619  10.131  -6.236  1.00  0.00     0.010 A 
ATOM     42  C   UNL     1      -6.717  10.621  -4.811  1.00  0.00     0.010 A 
ATOM     43  C   UNL     1      -8.091  10.736  -5.089  1.00  0.00    -0.014 A 
BRANCH  43  44
ATOM     44  C   UNL     1      -8.937  11.656  -4.290  1.00  0.00     0.031 A 
ATOM     45  C   UNL     1      -8.814  13.135  -4.545  1.00  0.00     0.074 A 
ATOM     46  C   UNL     1      -9.811  11.193  -3.378  1.00  0.00     0.049 A 
ATOM     47  N   UNL     1      -9.419  14.133  -3.957  1.00  0.00    -0.248 NA
ATOM     48  C   UNL     1      -7.879  13.541  -5.609  1.00  0.00     0.031 C 
ATOM     49  C   UNL     1     -10.049   9.784  -3.072  1.00  0.00     0.029 A 
ATOM     50  N   UNL     1     -10.659  11.868  -2.535  1.00  0.00    -0.354 N 
ATOM     51  C   UNL     1      -8.930  15.283  -4.567  1.00  0.00     0.074 A 
ATOM     52  C   UNL     1      -7.960  14.861  -5.553  1.00  0.00     0.031 C 
ATOM     53  C   UNL     1     -10.978   9.699  -2.104  1.00  0.00     0.029 A 
ATOM     54  C   UNL     1     -11.374  11.046  -1.696  1.00  0.00     0.049 A 
ATOM     55  H   UNL     1     -10.746  12.849  -2.531  1.00  0.00     0.167 HD
ATOM     56  C   UNL     1      -9.265  16.573  -4.330  1.00  0.00     0.037 A 
ATOM     57  C   UNL     1     -12.232  11.351  -0.701  1.00  0.00     0.037 A 
ATOM     58  C   UNL     1     -10.235  16.983  -3.348  1.00  0.00     0.049 A 
ATOM     59  C   UNL     1     -12.534  12.801  -0.408  1.00  0.00     0.074 A 
ATOM     60  C   UNL     1     -10.667  18.264  -3.052  1.00  0.00     0.029 A 
ATOM     61  N   UNL     1     -10.911  16.125  -2.494  1.00  0.00    -0.354 N 
ATOM     62  N   UNL     1     -12.094  13.878  -1.017  1.00  0.00    -0.248 NA
ATOM     63  C   UNL     1     -13.453  13.077   0.706  1.00  0.00     0.031 C 
ATOM     64  C   UNL     1     -11.556  18.186  -1.975  1.00  0.00     0.029 A 
ATOM     65  C   UNL     1     -11.732  16.851  -1.647  1.00  0.00     0.049 A 
ATOM     66  H   UNL     1     -10.822  15.145  -2.490  1.00  0.00     0.167 HD
ATOM     67  C   UNL     1     -12.710  14.954  -0.382  1.00  0.00     0.074 A 
ATOM     68  C   UNL     1     -13.562  14.397   0.647  1.00  0.00     0.031 C 
ATOM     69  C   UNL     1     -12.584  16.282  -0.631  1.00  0.00     0.037 A 
BRANCH  56  70
ATOM     70  C   UNL     1      -8.553  17.639  -5.117  1.00  0.00     0.058 A 
ATOM     71  C   UNL     1      -8.783  17.832  -6.489  1.00  0.00     0.135 A 
ATOM     72  C   UNL     1      -7.656  18.510  -4.476  1.00  0.00     0.135 A 
ATOM     73  F   UNL     1      -9.613  17.015  -7.158  1.00  0.00    -0.206 F 
ATOM     74  C   UNL     1      -8.135  18.837  -7.200  1.00  0.00     0.059 A 
ATOM     75  C   UNL     1      -7.022  19.541  -5.160  1.00  0.00     0.059 A 
ATOM     76  F   UNL     1      -7.394  18.366  -3.167  1.00  0.00    -0.206 F 
ATOM     77  C   UNL     1      -7.260  19.691  -6.525  1.00  0.00     0.060 A 
BRANCH  77  78
ATOM     78  S   UNL     1      -6.446  21.004  -7.458  1.00  0.00     0.124 S 
ATOM     79  O   UNL     1      -5.513  20.241  -8.283  1.00  0.00    -0.237 OA
ATOM     80  O   UNL     1      -7.563  21.618  -8.169  1.00  0.00    -0.237 OA
ATOM     81  O   UNL     1      -5.834  21.830  -6.423  1.00  0.00    -0.744 OA
ENDBRANCH  77  78
ENDBRANCH  56  70
BRANCH  57  82
ATOM     82  C   UNL     1     -12.869  10.271   0.102  1.00  0.00     0.058 A 
ATOM     83  C   UNL     1     -14.252  10.042   0.043  1.00  0.00     0.135 A 
ATOM     84  C   UNL     1     -12.112   9.461   0.965  1.00  0.00     0.135 A 
ATOM     85  F   UNL     1     -15.023  10.797  -0.754  1.00  0.00    -0.206 F 
ATOM     86  C   UNL     1     -14.866   9.067   0.823  1.00  0.00     0.059 A 
ATOM     87  C   UNL     1     -12.698   8.458   1.732  1.00  0.00     0.059 A 
ATOM     88  F   UNL     1     -10.784   9.632   1.056  1.00  0.00    -0.206 F 
ATOM     89  C   UNL     1     -14.079   8.277   1.663  1.00  0.00     0.060 A 
BRANCH  89  90
ATOM     90  S   UNL     1     -14.883   6.989   2.641  1.00  0.00     0.124 S 
ATOM     91  O   UNL     1     -15.611   7.779   3.627  1.00  0.00    -0.237 OA
ATOM     92  O   UNL     1     -15.698   6.310   1.638  1.00  0.00    -0.237 OA
ATOM     93  O   UNL     1     -13.763   6.210   3.159  1.00  0.00    -0.744 OA
ENDBRANCH  89  90
ENDBRANCH  57  82
BRANCH  69  94
ATOM     94  C   UNL     1     -13.421  17.229   0.190  1.00  0.00     0.058 A 
ATOM     95  C   UNL     1     -13.168  17.456   1.552  1.00  0.00     0.135 A 
ATOM     96  C   UNL     1     -14.462  17.957  -0.411  1.00  0.00     0.135 A 
ATOM     97  F   UNL     1     -12.188  16.786   2.179  1.00  0.00    -0.206 F 
ATOM     98  C   UNL     1     -13.938  18.346   2.296  1.00  0.00     0.059 A 
ATOM     99  C   UNL     1     -15.221  18.878   0.305  1.00  0.00     0.059 A 
ATOM    100  F   UNL     1     -14.739  17.791  -1.714  1.00  0.00    -0.206 F 
ATOM    101  C   UNL     1     -14.961  19.054   1.663  1.00  0.00     0.060 A 
BRANCH 101 102
ATOM    102  S   UNL     1     -15.935  20.223   2.634  1.00  0.00     0.124 S 
ATOM    103  O   UNL     1     -16.734  19.324   3.461  1.00  0.00    -0.237 OA
ATOM    104  O   UNL     1     -14.904  20.981   3.335  1.00  0.00    -0.237 OA
ATOM    105  O   UNL     1     -16.677  20.971   1.624  1.00  0.00    -0.744 OA
ENDBRANCH 101 102
ENDBRANCH  69  94
ENDBRANCH  43  44
ENDBRANCH  36  38
ENDBRANCH  35  36
ENDBRANCH  34  35
ENDBRANCH  33  34
ENDBRANCH  32  33
ENDBRANCH  31  32
ENDBRANCH  30  31
ENDBRANCH  29  30
ENDBRANCH   1  29
TORSDOF 27
