REMARK SMILES O=C(CCC(=O)N1CCC[C@@]2(CCC(=O)N(Cc3ccncc3)C2)C1)OCCOCCOCCOCCOC(=O)c1ccc(-c2c3nc(c(-c4c(F)cc(S(=O)(=O)[O-])cc4F)c4ccc([nH]4)c(-c4c(F)cc(S(=O)(=O)[O-])cc4F)c4nc(c(-c5c(F)cc(S(=O)(=O)[O-])cc5F)c5ccc2[nH]5)C=C4)C=C3)cc1
REMARK SMILES IDX 31 1 30 2 29 3 28 4 27 5 26 6 2 7 1 8 3 9 4 10 5 11 6 12
REMARK SMILES IDX 7 13 8 14 25 15 9 16 11 17 10 18 12 19 24 20 13 21 16 22
REMARK SMILES IDX 14 23 15 24 17 25 18 26 19 27 23 28 20 29 22 30 21 31 32 32
REMARK SMILES IDX 33 33 34 34 35 35 36 36 37 37 38 38 39 39 40 40 41 41 42 42
REMARK SMILES IDX 106 43 43 44 105 45 44 46 45 47 46 48 99 49 47 50 104 51
REMARK SMILES IDX 98 52 100 53 48 54 103 55 97 56 96 57 49 59 83 60 62 61
REMARK SMILES IDX 82 62 63 63 66 64 81 65 101 66 64 67 65 68 80 70 102 71
REMARK SMILES IDX 67 72 50 73 51 74 60 75 52 76 53 77 59 78 61 79 54 80 55 81
REMARK SMILES IDX 56 82 57 83 58 84 84 85 85 86 94 87 86 88 87 89 93 90 95 91
REMARK SMILES IDX 88 92 89 93 90 94 91 95 92 96 68 97 69 98 78 99 70 100
REMARK SMILES IDX 71 101 77 102 79 103 72 104 73 105 74 106 75 107 76 108
REMARK H PARENT 100 58 66 69
REMARK Flexibility Score: inf
ROOT
ATOM      1  C   UNL     1       2.269  -0.530  -2.824  1.00  0.00     0.188 C 
ENDROOT
BRANCH   1   2
ATOM      2  C   UNL     1       2.901   0.876  -2.926  1.00  0.00     0.188 C 
BRANCH   2   3
ATOM      3  O   UNL     1       4.317   0.933  -2.915  1.00  0.00    -0.376 OA
BRANCH   3   4
ATOM      4  C   UNL     1       5.047   0.854  -1.705  1.00  0.00     0.202 C 
BRANCH   4   5
ATOM      5  C   UNL     1       4.523   0.065  -0.515  1.00  0.00     0.261 C 
BRANCH   5   6
ATOM      6  O   UNL     1       3.145   0.312  -0.169  1.00  0.00    -0.463 OA
BRANCH   6   7
ATOM      7  C   UNL     1       2.635   1.470   0.283  1.00  0.00     0.306 C 
ATOM      8  O   UNL     1       1.419   1.654   0.276  1.00  0.00    -0.252 OA
BRANCH   7   9
ATOM      9  C   UNL     1       3.572   2.467   0.883  1.00  0.00     0.132 C 
BRANCH   9  10
ATOM     10  C   UNL     1       3.904   2.159   2.335  1.00  0.00     0.112 C 
BRANCH  10  11
ATOM     11  C   UNL     1       4.735   0.897   2.511  1.00  0.00     0.223 C 
ATOM     12  O   UNL     1       5.965   0.999   2.499  1.00  0.00    -0.275 OA
BRANCH  11  13
ATOM     13  N   UNL     1       4.094  -0.346   2.562  1.00  0.00    -0.342 N 
ATOM     14  C   UNL     1       4.969  -1.518   2.674  1.00  0.00     0.119 C 
ATOM     15  C   UNL     1       2.659  -0.497   2.798  1.00  0.00     0.128 C 
ATOM     16  C   UNL     1       4.283  -2.877   2.683  1.00  0.00     0.022 C 
ATOM     17  C   UNL     1       1.974  -1.855   2.442  1.00  0.00     0.006 C 
ATOM     18  C   UNL     1       2.994  -2.873   1.886  1.00  0.00     0.012 C 
ATOM     19  C   UNL     1       1.334  -2.287   3.782  1.00  0.00     0.020 C 
ATOM     20  C   UNL     1       0.834  -1.713   1.380  1.00  0.00     0.128 C 
ATOM     21  C   UNL     1       0.407  -3.463   3.680  1.00  0.00     0.101 C 
ATOM     22  N   UNL     1      -0.203  -2.764   1.440  1.00  0.00    -0.338 N 
ATOM     23  C   UNL     1      -0.666  -3.244   2.656  1.00  0.00     0.222 C 
ATOM     24  O   UNL     1      -1.807  -3.638   2.877  1.00  0.00    -0.275 OA
BRANCH  22  25
ATOM     25  C   UNL     1      -0.744  -3.337   0.203  1.00  0.00     0.155 C 
BRANCH  25  26
ATOM     26  C   UNL     1      -2.249  -3.331   0.073  1.00  0.00    -0.026 A 
ATOM     27  C   UNL     1      -2.940  -2.172  -0.277  1.00  0.00     0.025 A 
ATOM     28  C   UNL     1      -2.997  -4.481   0.366  1.00  0.00     0.025 A 
ATOM     29  C   UNL     1      -4.328  -2.212  -0.313  1.00  0.00     0.111 A 
ATOM     30  C   UNL     1      -4.381  -4.415   0.320  1.00  0.00     0.111 A 
ATOM     31  N   UNL     1      -5.067  -3.308  -0.031  1.00  0.00    -0.265 NA
ENDBRANCH  25  26
ENDBRANCH  22  25
ENDBRANCH  11  13
ENDBRANCH  10  11
ENDBRANCH   9  10
ENDBRANCH   7   9
ENDBRANCH   6   7
ENDBRANCH   5   6
ENDBRANCH   4   5
ENDBRANCH   3   4
ENDBRANCH   2   3
ENDBRANCH   1   2
BRANCH   1  32
ATOM     32  O   UNL     1       3.094  -1.504  -2.207  1.00  0.00    -0.377 OA
BRANCH  32  33
ATOM     33  C   UNL     1       3.920  -2.300  -3.050  1.00  0.00     0.188 C 
BRANCH  33  34
ATOM     34  C   UNL     1       4.805  -1.603  -4.099  1.00  0.00     0.188 C 
BRANCH  34  35
ATOM     35  O   UNL     1       4.161  -0.699  -4.967  1.00  0.00    -0.376 OA
BRANCH  35  36
ATOM     36  C   UNL     1       3.335  -1.061  -6.045  1.00  0.00     0.202 C 
BRANCH  36  37
ATOM     37  C   UNL     1       2.730  -2.450  -6.299  1.00  0.00     0.261 C 
BRANCH  37  38
ATOM     38  O   UNL     1       3.249  -3.575  -5.596  1.00  0.00    -0.460 OA
BRANCH  38  39
ATOM     39  C   UNL     1       4.445  -4.060  -6.004  1.00  0.00     0.338 C 
ATOM     40  O   UNL     1       5.126  -3.642  -6.913  1.00  0.00    -0.246 OA
BRANCH  39  41
ATOM     41  C   UNL     1       4.880  -5.059  -4.994  1.00  0.00     0.060 A 
ATOM     42  C   UNL     1       6.118  -4.889  -4.360  1.00  0.00     0.016 A 
ATOM     43  C   UNL     1       4.076  -6.160  -4.686  1.00  0.00     0.016 A 
ATOM     44  C   UNL     1       6.585  -5.848  -3.464  1.00  0.00     0.010 A 
ATOM     45  C   UNL     1       4.559  -7.140  -3.814  1.00  0.00     0.010 A 
ATOM     46  C   UNL     1       5.837  -7.010  -3.241  1.00  0.00    -0.014 A 
BRANCH  46  47
ATOM     47  C   UNL     1       6.502  -8.186  -2.632  1.00  0.00     0.031 A 
ATOM     48  C   UNL     1       7.069  -9.229  -3.560  1.00  0.00     0.074 A 
ATOM     49  C   UNL     1       6.645  -8.305  -1.300  1.00  0.00     0.049 A 
ATOM     50  N   UNL     1       7.649 -10.365  -3.279  1.00  0.00    -0.248 NA
ATOM     51  C   UNL     1       6.963  -8.950  -5.004  1.00  0.00     0.031 C 
ATOM     52  C   UNL     1       6.188  -7.334  -0.308  1.00  0.00     0.029 A 
ATOM     53  N   UNL     1       7.215  -9.306  -0.554  1.00  0.00    -0.354 N 
ATOM     54  C   UNL     1       7.976 -10.935  -4.505  1.00  0.00     0.074 A 
ATOM     55  C   UNL     1       7.498 -10.040  -5.534  1.00  0.00     0.031 C 
ATOM     56  C   UNL     1       6.476  -7.799   0.921  1.00  0.00     0.029 A 
ATOM     57  C   UNL     1       7.109  -9.112   0.802  1.00  0.00     0.049 A 
ATOM     58  H   UNL     1       7.658 -10.089  -0.953  1.00  0.00     0.167 HD
ATOM     59  C   UNL     1       8.628 -12.095  -4.750  1.00  0.00     0.037 A 
ATOM     60  C   UNL     1       7.457  -9.919   1.825  1.00  0.00     0.037 A 
ATOM     61  C   UNL     1       9.100 -12.983  -3.721  1.00  0.00     0.049 A 
ATOM     62  C   UNL     1       8.110 -11.247   1.522  1.00  0.00     0.074 A 
ATOM     63  C   UNL     1       9.771 -14.184  -3.862  1.00  0.00     0.029 A 
ATOM     64  N   UNL     1       8.948 -12.767  -2.359  1.00  0.00    -0.354 N 
ATOM     65  N   UNL     1       8.422 -11.770   0.359  1.00  0.00    -0.248 NA
ATOM     66  C   UNL     1       8.462 -12.091   2.672  1.00  0.00     0.031 C 
ATOM     67  C   UNL     1       9.977 -14.721  -2.587  1.00  0.00     0.029 A 
ATOM     68  C   UNL     1       9.492 -13.824  -1.649  1.00  0.00     0.049 A 
ATOM     69  H   UNL     1       8.518 -11.978  -1.957  1.00  0.00     0.167 HD
ATOM     70  C   UNL     1       9.034 -12.989   0.641  1.00  0.00     0.074 A 
ATOM     71  C   UNL     1       9.069 -13.111   2.084  1.00  0.00     0.031 C 
ATOM     72  C   UNL     1       9.521 -13.925  -0.212  1.00  0.00     0.037 A 
BRANCH  59  73
ATOM     73  C   UNL     1       8.856 -12.484  -6.185  1.00  0.00     0.058 A 
ATOM     74  C   UNL     1       9.781 -11.807  -6.997  1.00  0.00     0.135 A 
ATOM     75  C   UNL     1       8.185 -13.586  -6.739  1.00  0.00     0.135 A 
ATOM     76  F   UNL     1      10.431 -10.729  -6.528  1.00  0.00    -0.206 F 
ATOM     77  C   UNL     1      10.027 -12.205  -8.306  1.00  0.00     0.059 A 
ATOM     78  C   UNL     1       8.436 -14.020  -8.037  1.00  0.00     0.059 A 
ATOM     79  F   UNL     1       7.282 -14.262  -6.011  1.00  0.00    -0.206 F 
ATOM     80  C   UNL     1       9.357 -13.319  -8.815  1.00  0.00     0.060 A 
BRANCH  80  81
ATOM     81  S   UNL     1       9.724 -13.849 -10.501  1.00  0.00     0.124 S 
ATOM     82  O   UNL     1       9.131 -12.768 -11.282  1.00  0.00    -0.237 OA
ATOM     83  O   UNL     1      11.182 -13.902 -10.497  1.00  0.00    -0.237 OA
ATOM     84  O   UNL     1       9.052 -15.140 -10.607  1.00  0.00    -0.744 OA
ENDBRANCH  80  81
ENDBRANCH  59  73
BRANCH  60  85
ATOM     85  C   UNL     1       7.171  -9.521   3.231  1.00  0.00     0.058 A 
ATOM     86  C   UNL     1       8.205  -9.278   4.148  1.00  0.00     0.135 A 
ATOM     87  C   UNL     1       5.850  -9.418   3.699  1.00  0.00     0.135 A 
ATOM     88  F   UNL     1       9.485  -9.373   3.755  1.00  0.00    -0.206 F 
ATOM     89  C   UNL     1       7.944  -8.979   5.482  1.00  0.00     0.059 A 
ATOM     90  C   UNL     1       5.563  -9.089   5.019  1.00  0.00     0.059 A 
ATOM     91  F   UNL     1       4.821  -9.629   2.863  1.00  0.00    -0.206 F 
ATOM     92  C   UNL     1       6.618  -8.888   5.908  1.00  0.00     0.060 A 
BRANCH  92  93
ATOM     93  S   UNL     1       6.288  -8.475   7.634  1.00  0.00     0.124 S 
ATOM     94  O   UNL     1       6.671  -9.709   8.310  1.00  0.00    -0.237 OA
ATOM     95  O   UNL     1       7.166  -7.329   7.846  1.00  0.00    -0.237 OA
ATOM     96  O   UNL     1       4.860  -8.168   7.637  1.00  0.00    -0.744 OA
ENDBRANCH  92  93
ENDBRANCH  60  85
BRANCH  72  97
ATOM     97  C   UNL     1      10.168 -15.144   0.394  1.00  0.00     0.058 A 
ATOM     98  C   UNL     1       9.421 -16.118   1.075  1.00  0.00     0.135 A 
ATOM     99  C   UNL     1      11.552 -15.352   0.266  1.00  0.00     0.135 A 
ATOM    100  F   UNL     1       8.095 -15.969   1.228  1.00  0.00    -0.206 F 
ATOM    101  C   UNL     1      10.029 -17.230   1.649  1.00  0.00     0.059 A 
ATOM    102  C   UNL     1      12.175 -16.476   0.800  1.00  0.00     0.059 A 
ATOM    103  F   UNL     1      12.313 -14.462  -0.391  1.00  0.00    -0.206 F 
ATOM    104  C   UNL     1      11.407 -17.399   1.508  1.00  0.00     0.060 A 
BRANCH 104 105
ATOM    105  S   UNL     1      12.182 -18.847   2.256  1.00  0.00     0.124 S 
ATOM    106  O   UNL     1      12.127 -18.509   3.675  1.00  0.00    -0.237 OA
ATOM    107  O   UNL     1      11.301 -19.929   1.827  1.00  0.00    -0.237 OA
ATOM    108  O   UNL     1      13.517 -18.862   1.666  1.00  0.00    -0.744 OA
ENDBRANCH 104 105
ENDBRANCH  72  97
ENDBRANCH  46  47
ENDBRANCH  39  41
ENDBRANCH  38  39
ENDBRANCH  37  38
ENDBRANCH  36  37
ENDBRANCH  35  36
ENDBRANCH  34  35
ENDBRANCH  33  34
ENDBRANCH  32  33
ENDBRANCH   1  32
TORSDOF 28
