REMARK SMILES C[C@@]1(C(=O)OCCOCCOCCOCCOC(=O)c2ccc(-c3c4nc(c(-c5c(F)cc(S(=O)(=O)[O-])cc5F)c5ccc([nH]5)c(-c5c(F)cc(S(=O)(=O)[O-])cc5F)c5nc(c(-c6c(F)cc(S(=O)(=O)[O-])cc6F)c6ccc3[nH]6)C=C5)C=C4)cc2)[C@@H]2C=C[C@@]3(CN(c4ccccc4)C(=O)[C@H]13)O2
REMARK SMILES IDX 12 1 11 2 10 3 9 4 8 5 7 6 6 7 5 8 3 9 4 10 2 11 1 12 86 13
REMARK SMILES IDX 100 14 87 15 101 16 89 17 98 18 88 19 90 20 91 21 99 22
REMARK SMILES IDX 92 23 93 24 97 25 94 26 96 27 95 28 13 29 14 30 15 31 16 32
REMARK SMILES IDX 17 33 18 34 19 35 20 36 21 37 85 38 22 39 84 40 23 41 24 42
REMARK SMILES IDX 25 43 78 44 26 45 83 46 77 47 79 48 27 49 82 50 76 51 75 52
REMARK SMILES IDX 28 54 62 55 41 56 61 57 42 58 45 59 60 60 80 61 43 62 44 63
REMARK SMILES IDX 59 65 81 66 46 67 29 68 30 69 39 70 31 71 32 72 38 73 40 74
REMARK SMILES IDX 33 75 34 76 35 77 36 78 37 79 63 80 64 81 73 82 65 83 66 84
REMARK SMILES IDX 72 85 74 86 67 87 68 88 69 89 70 90 71 91 47 92 48 93 57 94
REMARK SMILES IDX 49 95 50 96 56 97 58 98 51 99 52 100 53 101 54 102 55 103
REMARK H PARENT 79 53 45 64
REMARK Flexibility Score: inf
ROOT
ATOM      1  C   UNL     1       3.376   2.857  -3.462  1.00  0.00     0.188 C 
ENDROOT
BRANCH   1   2
ATOM      2  O   UNL     1       2.907   2.027  -2.394  1.00  0.00    -0.377 OA
BRANCH   2   3
ATOM      3  C   UNL     1       3.064   0.627  -2.530  1.00  0.00     0.188 C 
BRANCH   3   4
ATOM      4  C   UNL     1       2.107  -0.120  -3.464  1.00  0.00     0.188 C 
BRANCH   4   5
ATOM      5  O   UNL     1       1.980   0.409  -4.770  1.00  0.00    -0.376 OA
BRANCH   5   6
ATOM      6  C   UNL     1       0.856   1.229  -5.098  1.00  0.00     0.202 C 
BRANCH   6   7
ATOM      7  C   UNL     1      -0.345   1.402  -4.154  1.00  0.00     0.261 C 
BRANCH   7   8
ATOM      8  O   UNL     1       0.023   1.717  -2.805  1.00  0.00    -0.463 OA
BRANCH   8   9
ATOM      9  C   UNL     1      -0.748   1.199  -1.823  1.00  0.00     0.315 C 
ATOM     10  O   UNL     1      -1.669   0.409  -2.006  1.00  0.00    -0.251 OA
BRANCH   9  11
ATOM     11  C   UNL     1      -0.263   1.569  -0.440  1.00  0.00     0.110 C 
ATOM     12  C   UNL     1       0.520   0.366   0.152  1.00  0.00     0.028 C 
ATOM     13  C   UNL     1      -1.471   1.828   0.508  1.00  0.00     0.160 C 
ATOM     14  C   UNL     1       0.511   2.891  -0.252  1.00  0.00     0.137 C 
ATOM     15  C   UNL     1      -2.381   2.873  -0.057  1.00  0.00     0.004 C 
ATOM     16  O   UNL     1      -0.805   2.618   1.577  1.00  0.00    -0.360 OA
ATOM     17  C   UNL     1      -0.396   3.677   0.712  1.00  0.00     0.118 C 
ATOM     18  C   UNL     1       0.834   4.072  -1.147  1.00  0.00     0.234 C 
ATOM     19  C   UNL     1      -1.720   4.026   0.065  1.00  0.00     0.009 C 
ATOM     20  C   UNL     1       0.516   4.830   1.084  1.00  0.00     0.166 C 
ATOM     21  N   UNL     1       1.079   5.136  -0.231  1.00  0.00    -0.309 N 
ATOM     22  O   UNL     1       0.920   4.103  -2.359  1.00  0.00    -0.274 OA
BRANCH  21  23
ATOM     23  C   UNL     1       1.585   6.403  -0.568  1.00  0.00     0.044 A 
ATOM     24  C   UNL     1       2.385   7.106   0.340  1.00  0.00     0.026 A 
ATOM     25  C   UNL     1       1.309   6.971  -1.814  1.00  0.00     0.026 A 
ATOM     26  C   UNL     1       2.928   8.345  -0.013  1.00  0.00     0.002 A 
ATOM     27  C   UNL     1       1.799   8.235  -2.137  1.00  0.00     0.002 A 
ATOM     28  C   UNL     1       2.625   8.914  -1.247  1.00  0.00     0.000 A 
ENDBRANCH  21  23
ENDBRANCH   9  11
ENDBRANCH   8   9
ENDBRANCH   7   8
ENDBRANCH   6   7
ENDBRANCH   5   6
ENDBRANCH   4   5
ENDBRANCH   3   4
ENDBRANCH   2   3
ENDBRANCH   1   2
BRANCH   1  29
ATOM     29  C   UNL     1       4.581   2.370  -4.280  1.00  0.00     0.188 C 
BRANCH  29  30
ATOM     30  O   UNL     1       5.755   1.944  -3.584  1.00  0.00    -0.376 OA
BRANCH  30  31
ATOM     31  C   UNL     1       6.019   2.494  -2.300  1.00  0.00     0.202 C 
BRANCH  31  32
ATOM     32  C   UNL     1       6.670   3.876  -2.286  1.00  0.00     0.261 C 
BRANCH  32  33
ATOM     33  O   UNL     1       5.839   4.898  -2.854  1.00  0.00    -0.460 OA
BRANCH  33  34
ATOM     34  C   UNL     1       6.145   5.250  -4.123  1.00  0.00     0.338 C 
ATOM     35  O   UNL     1       7.034   4.788  -4.829  1.00  0.00    -0.246 OA
BRANCH  34  36
ATOM     36  C   UNL     1       5.175   6.241  -4.609  1.00  0.00     0.060 A 
ATOM     37  C   UNL     1       4.468   5.978  -5.788  1.00  0.00     0.016 A 
ATOM     38  C   UNL     1       5.037   7.465  -3.955  1.00  0.00     0.016 A 
ATOM     39  C   UNL     1       3.629   6.952  -6.331  1.00  0.00     0.010 A 
ATOM     40  C   UNL     1       4.214   8.444  -4.511  1.00  0.00     0.010 A 
ATOM     41  C   UNL     1       3.515   8.200  -5.708  1.00  0.00    -0.014 A 
BRANCH  41  42
ATOM     42  C   UNL     1       2.753   9.303  -6.342  1.00  0.00     0.031 A 
ATOM     43  C   UNL     1       3.509  10.449  -6.956  1.00  0.00     0.074 A 
ATOM     44  C   UNL     1       1.408   9.302  -6.330  1.00  0.00     0.049 A 
ATOM     45  N   UNL     1       3.058  11.574  -7.443  1.00  0.00    -0.248 NA
ATOM     46  C   UNL     1       4.973  10.308  -7.022  1.00  0.00     0.031 C 
ATOM     47  C   UNL     1       0.566   8.233  -5.793  1.00  0.00     0.029 A 
ATOM     48  N   UNL     1       0.512  10.251  -6.756  1.00  0.00    -0.354 N 
ATOM     49  C   UNL     1       4.178  12.280  -7.864  1.00  0.00     0.074 A 
ATOM     50  C   UNL     1       5.334  11.472  -7.542  1.00  0.00     0.031 C 
ATOM     51  C   UNL     1      -0.723   8.601  -5.887  1.00  0.00     0.029 A 
ATOM     52  C   UNL     1      -0.796   9.942  -6.464  1.00  0.00     0.049 A 
ATOM     53  H   UNL     1       0.780  11.074  -7.225  1.00  0.00     0.167 HD
ATOM     54  C   UNL     1       4.235  13.488  -8.474  1.00  0.00     0.037 A 
ATOM     55  C   UNL     1      -1.919  10.672  -6.613  1.00  0.00     0.037 A 
ATOM     56  C   UNL     1       3.076  14.280  -8.794  1.00  0.00     0.049 A 
ATOM     57  C   UNL     1      -1.825  12.046  -7.224  1.00  0.00     0.074 A 
ATOM     58  C   UNL     1       3.021  15.499  -9.448  1.00  0.00     0.029 A 
ATOM     59  N   UNL     1       1.769  13.940  -8.473  1.00  0.00    -0.354 N 
ATOM     60  N   UNL     1      -0.764  12.686  -7.657  1.00  0.00    -0.248 NA
ATOM     61  C   UNL     1      -3.080  12.797  -7.371  1.00  0.00     0.031 C 
ATOM     62  C   UNL     1       1.688  15.924  -9.467  1.00  0.00     0.029 A 
ATOM     63  C   UNL     1       0.905  14.943  -8.880  1.00  0.00     0.049 A 
ATOM     64  H   UNL     1       1.497  13.108  -8.022  1.00  0.00     0.167 HD
ATOM     65  C   UNL     1      -1.227  13.903  -8.150  1.00  0.00     0.074 A 
ATOM     66  C   UNL     1      -2.665  13.902  -7.976  1.00  0.00     0.031 C 
ATOM     67  C   UNL     1      -0.526  14.928  -8.697  1.00  0.00     0.037 A 
BRANCH  54  68
ATOM     68  C   UNL     1       5.593  14.038  -8.816  1.00  0.00     0.058 A 
ATOM     69  C   UNL     1       6.386  13.480  -9.832  1.00  0.00     0.135 A 
ATOM     70  C   UNL     1       6.091  15.168  -8.146  1.00  0.00     0.135 A 
ATOM     71  F   UNL     1       5.968  12.390 -10.494  1.00  0.00    -0.206 F 
ATOM     72  C   UNL     1       7.632  14.008 -10.155  1.00  0.00     0.059 A 
ATOM     73  C   UNL     1       7.321  15.730  -8.473  1.00  0.00     0.059 A 
ATOM     74  F   UNL     1       5.377  15.740  -7.163  1.00  0.00    -0.206 F 
ATOM     75  C   UNL     1       8.090  15.136  -9.471  1.00  0.00     0.060 A 
BRANCH  75  76
ATOM     76  S   UNL     1       9.702  15.816  -9.915  1.00  0.00     0.124 S 
ATOM     77  O   UNL     1      10.604  14.794  -9.392  1.00  0.00    -0.237 OA
ATOM     78  O   UNL     1       9.615  15.901 -11.369  1.00  0.00    -0.237 OA
ATOM     79  O   UNL     1       9.736  17.097  -9.216  1.00  0.00    -0.744 OA
ENDBRANCH  75  76
ENDBRANCH  54  68
BRANCH  55  80
ATOM     80  C   UNL     1      -3.227  10.126  -6.160  1.00  0.00     0.058 A 
ATOM     81  C   UNL     1      -4.227   9.780  -7.081  1.00  0.00     0.135 A 
ATOM     82  C   UNL     1      -3.503   9.936  -4.796  1.00  0.00     0.135 A 
ATOM     83  F   UNL     1      -4.017   9.955  -8.395  1.00  0.00    -0.206 F 
ATOM     84  C   UNL     1      -5.457   9.280  -6.668  1.00  0.00     0.059 A 
ATOM     85  C   UNL     1      -4.715   9.411  -4.360  1.00  0.00     0.059 A 
ATOM     86  F   UNL     1      -2.577  10.242  -3.873  1.00  0.00    -0.206 F 
ATOM     87  C   UNL     1      -5.690   9.094  -5.304  1.00  0.00     0.060 A 
BRANCH  87  88
ATOM     88  S   UNL     1      -7.272   8.395  -4.784  1.00  0.00     0.124 S 
ATOM     89  O   UNL     1      -8.185   9.499  -5.055  1.00  0.00    -0.237 OA
ATOM     90  O   UNL     1      -7.395   7.234  -5.661  1.00  0.00    -0.237 OA
ATOM     91  O   UNL     1      -7.056   8.085  -3.374  1.00  0.00    -0.744 OA
ENDBRANCH  87  88
ENDBRANCH  55  80
BRANCH  67  92
ATOM     92  C   UNL     1      -1.303  16.128  -9.167  1.00  0.00     0.058 A 
ATOM     93  C   UNL     1      -1.893  17.025  -8.262  1.00  0.00     0.135 A 
ATOM     94  C   UNL     1      -1.411  16.416 -10.538  1.00  0.00     0.135 A 
ATOM     95  F   UNL     1      -1.826  16.795  -6.941  1.00  0.00    -0.206 F 
ATOM     96  C   UNL     1      -2.581  18.152  -8.700  1.00  0.00     0.059 A 
ATOM     97  C   UNL     1      -2.067  17.555 -10.996  1.00  0.00     0.059 A 
ATOM     98  F   UNL     1      -0.857  15.598 -11.447  1.00  0.00    -0.206 F 
ATOM     99  C   UNL     1      -2.659  18.411 -10.070  1.00  0.00     0.060 A 
BRANCH  99 100
ATOM    100  S   UNL     1      -3.522  19.898 -10.620  1.00  0.00     0.124 S 
ATOM    101  O   UNL     1      -4.913  19.547 -10.354  1.00  0.00    -0.237 OA
ATOM    102  O   UNL     1      -2.951  20.927  -9.756  1.00  0.00    -0.237 OA
ATOM    103  O   UNL     1      -3.160  20.001 -12.030  1.00  0.00    -0.744 OA
ENDBRANCH  99 100
ENDBRANCH  67  92
ENDBRANCH  41  42
ENDBRANCH  34  36
ENDBRANCH  33  34
ENDBRANCH  32  33
ENDBRANCH  31  32
ENDBRANCH  30  31
ENDBRANCH  29  30
ENDBRANCH   1  29
TORSDOF 24
