REMARK SMILES O=C(COc1cccc(/C=C2/SC(=S)N(NC(=O)c3ccccc3F)C2=O)c1)OCCOCCOCCOCCOC(=O)c1ccc(-c2c3nc(c(-c4c(F)cc(S(=O)(=O)[O-])cc4F)c4ccc([nH]4)c(-c4c(F)cc(S(=O)(=O)[O-])cc4F)c4nc(c(-c5c(F)cc(S(=O)(=O)[O-])cc5F)c5ccc2[nH]5)C=C4)C=C3)cc1
REMARK SMILES IDX 34 1 33 2 32 3 31 4 30 5 29 6 2 7 1 8 3 9 4 10 5 11 6 12
REMARK SMILES IDX 28 13 7 14 9 15 8 16 10 17 11 18 12 19 26 20 13 21 15 22
REMARK SMILES IDX 27 23 14 24 16 25 17 26 18 28 19 29 20 30 24 31 21 32 23 33
REMARK SMILES IDX 25 34 22 35 35 36 36 37 37 38 38 39 39 40 40 41 41 42 42 43
REMARK SMILES IDX 43 44 44 45 45 46 109 47 46 48 108 49 47 50 48 51 49 52
REMARK SMILES IDX 102 53 50 54 107 55 101 56 103 57 51 58 106 59 100 60 99 61
REMARK SMILES IDX 52 63 86 64 65 65 85 66 66 67 69 68 84 69 104 70 67 71 68 72
REMARK SMILES IDX 83 74 105 75 70 76 53 77 54 78 63 79 55 80 56 81 62 82 64 83
REMARK SMILES IDX 57 84 58 85 59 86 60 87 61 88 87 89 88 90 97 91 89 92 90 93
REMARK SMILES IDX 96 94 98 95 91 96 92 97 93 98 94 99 95 100 71 101 72 102
REMARK SMILES IDX 81 103 73 104 74 105 80 106 82 107 75 108 76 109 77 110
REMARK SMILES IDX 78 111 79 112
REMARK H PARENT 16 27 103 62 69 73
REMARK Flexibility Score: inf
ROOT
ATOM      1  C   UNL     1       2.384   1.947  -1.764  1.00  0.00     0.188 C 
ENDROOT
BRANCH   1   2
ATOM      2  C   UNL     1       2.625   2.508  -0.343  1.00  0.00     0.188 C 
BRANCH   2   3
ATOM      3  O   UNL     1       3.684   2.060   0.505  1.00  0.00    -0.376 OA
BRANCH   3   4
ATOM      4  C   UNL     1       4.400   0.873   0.215  1.00  0.00     0.202 C 
BRANCH   4   5
ATOM      5  C   UNL     1       3.609  -0.426   0.134  1.00  0.00     0.261 C 
BRANCH   5   6
ATOM      6  O   UNL     1       2.182  -0.287   0.073  1.00  0.00    -0.461 OA
BRANCH   6   7
ATOM      7  C   UNL     1       1.401   0.068   1.109  1.00  0.00     0.344 C 
ATOM      8  O   UNL     1       0.194   0.244   0.928  1.00  0.00    -0.248 OA
BRANCH   7   9
ATOM      9  C   UNL     1       2.018   0.286   2.489  1.00  0.00     0.351 C 
BRANCH   9  10
ATOM     10  O   UNL     1       2.971  -0.568   3.083  1.00  0.00    -0.482 OA
BRANCH  10  11
ATOM     11  C   UNL     1       2.596  -1.860   3.322  1.00  0.00     0.120 A 
ATOM     12  C   UNL     1       3.263  -2.486   4.371  1.00  0.00     0.046 A 
ATOM     13  C   UNL     1       1.727  -2.605   2.528  1.00  0.00     0.054 A 
ATOM     14  C   UNL     1       3.054  -3.842   4.625  1.00  0.00     0.004 A 
ATOM     15  C   UNL     1       1.611  -3.987   2.688  1.00  0.00    -0.021 A 
ATOM     16  C   UNL     1       2.240  -4.596   3.775  1.00  0.00     0.008 A 
BRANCH  15  17
ATOM     17  C   UNL     1       0.899  -4.790   1.682  1.00  0.00     0.029 C 
ATOM     18  C   UNL     1       1.225  -4.871   0.378  1.00  0.00     0.082 C 
ATOM     19  S   UNL     1       0.427  -5.929  -0.730  1.00  0.00    -0.052 SA
ATOM     20  C   UNL     1       2.324  -4.160  -0.346  1.00  0.00     0.285 C 
ATOM     21  C   UNL     1       1.595  -5.614  -2.014  1.00  0.00     0.168 C 
ATOM     22  N   UNL     1       2.599  -4.793  -1.537  1.00  0.00    -0.198 N 
ATOM     23  O   UNL     1       2.826  -3.116   0.036  1.00  0.00    -0.266 OA
ATOM     24  S   UNL     1       1.405  -6.147  -3.578  1.00  0.00    -0.050 S 
BRANCH  22  25
ATOM     25  N   UNL     1       3.644  -4.389  -2.397  1.00  0.00    -0.254 N 
ATOM     26  C   UNL     1       4.941  -3.999  -2.120  1.00  0.00     0.273 C 
ATOM     27  H   UNL     1       3.410  -4.385  -3.353  1.00  0.00     0.192 HD
ATOM     28  O   UNL     1       5.682  -3.743  -3.074  1.00  0.00    -0.267 OA
BRANCH  26  29
ATOM     29  C   UNL     1       5.490  -3.752  -0.769  1.00  0.00     0.077 A 
ATOM     30  C   UNL     1       6.287  -2.603  -0.605  1.00  0.00     0.017 A 
ATOM     31  C   UNL     1       5.256  -4.562   0.338  1.00  0.00     0.136 A 
ATOM     32  C   UNL     1       6.735  -2.217   0.661  1.00  0.00     0.001 A 
ATOM     33  C   UNL     1       5.676  -4.165   1.609  1.00  0.00     0.040 A 
ATOM     34  F   UNL     1       4.578  -5.713   0.226  1.00  0.00    -0.206 F 
ATOM     35  C   UNL     1       6.397  -2.982   1.775  1.00  0.00     0.003 A 
ENDBRANCH  26  29
ENDBRANCH  22  25
ENDBRANCH  15  17
ENDBRANCH  10  11
ENDBRANCH   9  10
ENDBRANCH   7   9
ENDBRANCH   6   7
ENDBRANCH   5   6
ENDBRANCH   4   5
ENDBRANCH   3   4
ENDBRANCH   2   3
ENDBRANCH   1   2
BRANCH   1  36
ATOM     36  O   UNL     1       3.457   1.192  -2.312  1.00  0.00    -0.377 OA
BRANCH  36  37
ATOM     37  C   UNL     1       4.287   1.901  -3.225  1.00  0.00     0.188 C 
BRANCH  37  38
ATOM     38  C   UNL     1       5.062   3.070  -2.596  1.00  0.00     0.188 C 
BRANCH  38  39
ATOM     39  O   UNL     1       4.188   4.035  -2.025  1.00  0.00    -0.376 OA
BRANCH  39  40
ATOM     40  C   UNL     1       4.026   5.277  -2.688  1.00  0.00     0.202 C 
BRANCH  40  41
ATOM     41  C   UNL     1       3.179   5.241  -3.966  1.00  0.00     0.261 C 
BRANCH  41  42
ATOM     42  O   UNL     1       3.627   4.343  -4.991  1.00  0.00    -0.460 OA
BRANCH  42  43
ATOM     43  C   UNL     1       4.874   4.508  -5.485  1.00  0.00     0.338 C 
ATOM     44  O   UNL     1       5.661   5.395  -5.205  1.00  0.00    -0.246 OA
BRANCH  43  45
ATOM     45  C   UNL     1       5.202   3.281  -6.246  1.00  0.00     0.060 A 
ATOM     46  C   UNL     1       6.374   2.576  -5.936  1.00  0.00     0.016 A 
ATOM     47  C   UNL     1       4.317   2.789  -7.209  1.00  0.00     0.016 A 
ATOM     48  C   UNL     1       6.668   1.381  -6.597  1.00  0.00     0.010 A 
ATOM     49  C   UNL     1       4.627   1.612  -7.890  1.00  0.00     0.010 A 
ATOM     50  C   UNL     1       5.813   0.915  -7.603  1.00  0.00    -0.014 A 
BRANCH  50  51
ATOM     51  C   UNL     1       6.237  -0.177  -8.510  1.00  0.00     0.031 A 
ATOM     52  C   UNL     1       6.897   0.211  -9.805  1.00  0.00     0.074 A 
ATOM     53  C   UNL     1       5.990  -1.468  -8.222  1.00  0.00     0.049 A 
ATOM     54  N   UNL     1       7.214  -0.531 -10.830  1.00  0.00    -0.248 NA
ATOM     55  C   UNL     1       7.238   1.637  -9.966  1.00  0.00     0.031 C 
ATOM     56  C   UNL     1       5.398  -1.964  -6.981  1.00  0.00     0.029 A 
ATOM     57  N   UNL     1       6.184  -2.599  -8.978  1.00  0.00    -0.354 N 
ATOM     58  C   UNL     1       7.766   0.335 -11.766  1.00  0.00     0.074 A 
ATOM     59  C   UNL     1       7.742   1.660 -11.191  1.00  0.00     0.031 C 
ATOM     60  C   UNL     1       5.239  -3.297  -7.076  1.00  0.00     0.029 A 
ATOM     61  C   UNL     1       5.678  -3.740  -8.398  1.00  0.00     0.049 A 
ATOM     62  H   UNL     1       6.641  -2.594  -9.850  1.00  0.00     0.167 HD
ATOM     63  C   UNL     1       8.243   0.047 -12.998  1.00  0.00     0.037 A 
ATOM     64  C   UNL     1       5.546  -4.985  -8.901  1.00  0.00     0.037 A 
ATOM     65  C   UNL     1       8.271  -1.278 -13.555  1.00  0.00     0.049 A 
ATOM     66  C   UNL     1       6.026  -5.264 -10.307  1.00  0.00     0.074 A 
ATOM     67  C   UNL     1       8.789  -1.684 -14.771  1.00  0.00     0.029 A 
ATOM     68  N   UNL     1       7.744  -2.404 -12.944  1.00  0.00    -0.354 N 
ATOM     69  N   UNL     1       6.602  -4.450 -11.162  1.00  0.00    -0.248 NA
ATOM     70  C   UNL     1       5.832  -6.628 -10.822  1.00  0.00     0.031 C 
ATOM     71  C   UNL     1       8.519  -3.047 -14.923  1.00  0.00     0.029 A 
ATOM     72  C   UNL     1       7.883  -3.500 -13.777  1.00  0.00     0.049 A 
ATOM     73  H   UNL     1       7.332  -2.423 -12.050  1.00  0.00     0.167 HD
ATOM     74  C   UNL     1       6.855  -5.208 -12.302  1.00  0.00     0.074 A 
ATOM     75  C   UNL     1       6.387  -6.549 -12.024  1.00  0.00     0.031 C 
ATOM     76  C   UNL     1       7.420  -4.830 -13.476  1.00  0.00     0.037 A 
BRANCH  63  77
ATOM     77  C   UNL     1       8.743   1.179 -13.847  1.00  0.00     0.058 A 
ATOM     78  C   UNL     1       9.973   1.806 -13.600  1.00  0.00     0.135 A 
ATOM     79  C   UNL     1       8.014   1.583 -14.977  1.00  0.00     0.135 A 
ATOM     80  F   UNL     1      10.697   1.474 -12.519  1.00  0.00    -0.206 F 
ATOM     81  C   UNL     1      10.466   2.792 -14.447  1.00  0.00     0.059 A 
ATOM     82  C   UNL     1       8.498   2.551 -15.851  1.00  0.00     0.059 A 
ATOM     83  F   UNL     1       6.824   1.024 -15.250  1.00  0.00    -0.206 F 
ATOM     84  C   UNL     1       9.726   3.151 -15.576  1.00  0.00     0.060 A 
BRANCH  84  85
ATOM     85  S   UNL     1      10.410   4.389 -16.697  1.00  0.00     0.124 S 
ATOM     86  O   UNL     1      10.280   5.606 -15.902  1.00  0.00    -0.237 OA
ATOM     87  O   UNL     1      11.772   3.907 -16.898  1.00  0.00    -0.237 OA
ATOM     88  O   UNL     1       9.540   4.309 -17.866  1.00  0.00    -0.744 OA
ENDBRANCH  84  85
ENDBRANCH  63  77
BRANCH  64  89
ATOM     89  C   UNL     1       4.879  -6.059  -8.111  1.00  0.00     0.058 A 
ATOM     90  C   UNL     1       5.588  -7.185  -7.670  1.00  0.00     0.135 A 
ATOM     91  C   UNL     1       3.501  -6.013  -7.843  1.00  0.00     0.135 A 
ATOM     92  F   UNL     1       6.903  -7.289  -7.918  1.00  0.00    -0.206 F 
ATOM     93  C   UNL     1       4.953  -8.242  -7.024  1.00  0.00     0.059 A 
ATOM     94  C   UNL     1       2.846  -7.047  -7.177  1.00  0.00     0.059 A 
ATOM     95  F   UNL     1       2.774  -4.955  -8.236  1.00  0.00    -0.206 F 
ATOM     96  C   UNL     1       3.579  -8.166  -6.785  1.00  0.00     0.060 A 
BRANCH  96  97
ATOM     97  S   UNL     1       2.771  -9.565  -5.975  1.00  0.00     0.124 S 
ATOM     98  O   UNL     1       2.973 -10.629  -6.953  1.00  0.00    -0.237 OA
ATOM     99  O   UNL     1       3.540  -9.683  -4.739  1.00  0.00    -0.237 OA
ATOM    100  O   UNL     1       1.391  -9.123  -5.814  1.00  0.00    -0.744 OA
ENDBRANCH  96  97
ENDBRANCH  64  89
BRANCH  76 101
ATOM    101  C   UNL     1       7.587  -5.876 -14.544  1.00  0.00     0.058 A 
ATOM    102  C   UNL     1       6.494  -6.352 -15.282  1.00  0.00     0.135 A 
ATOM    103  C   UNL     1       8.867  -6.338 -14.893  1.00  0.00     0.135 A 
ATOM    104  F   UNL     1       5.249  -5.946 -14.986  1.00  0.00    -0.206 F 
ATOM    105  C   UNL     1       6.662  -7.259 -16.324  1.00  0.00     0.059 A 
ATOM    106  C   UNL     1       9.061  -7.223 -15.949  1.00  0.00     0.059 A 
ATOM    107  F   UNL     1       9.948  -5.904 -14.226  1.00  0.00    -0.206 F 
ATOM    108  C   UNL     1       7.950  -7.683 -16.655  1.00  0.00     0.060 A 
BRANCH 108 109
ATOM    109  S   UNL     1       8.158  -8.811 -18.048  1.00  0.00     0.124 S 
ATOM    110  O   UNL     1       7.643 -10.060 -17.496  1.00  0.00    -0.237 OA
ATOM    111  O   UNL     1       7.336  -8.188 -19.081  1.00  0.00    -0.237 OA
ATOM    112  O   UNL     1       9.597  -8.783 -18.299  1.00  0.00    -0.744 OA
ENDBRANCH 108 109
ENDBRANCH  76 101
ENDBRANCH  50  51
ENDBRANCH  43  45
ENDBRANCH  42  43
ENDBRANCH  41  42
ENDBRANCH  40  41
ENDBRANCH  39  40
ENDBRANCH  38  39
ENDBRANCH  37  38
ENDBRANCH  36  37
ENDBRANCH   1  36
TORSDOF 28
