REMARK SMILES C/C(=N\NC(N)=S)c1nnn(-c2ccc(C(=O)OCCOCCOCCOCCOC(=O)c3ccc(-c4c5nc(c(-c6c(F)cc(S(=O)(=O)[O-])cc6F)c6ccc([nH]6)c(-c6c(F)cc(S(=O)(=O)[O-])cc6F)c6nc(c(-c7c(F)cc(S(=O)(=O)[O-])cc7F)c7ccc4[nH]7)C=C6)C=C5)cc3)cc2)c1C
REMARK SMILES IDX 23 1 22 2 21 3 20 4 19 5 18 6 16 7 17 8 15 9 12 10 13 11
REMARK SMILES IDX 100 12 14 13 99 14 11 15 8 16 9 17 101 18 10 19 102 20 2 21
REMARK SMILES IDX 1 22 3 23 4 24 5 26 7 27 6 28 24 31 25 32 26 33 27 34 28 35
REMARK SMILES IDX 29 36 30 37 31 38 32 39 33 40 34 41 98 42 35 43 97 44 36 45
REMARK SMILES IDX 37 46 38 47 91 48 39 49 96 50 90 51 92 52 40 53 95 54 89 55
REMARK SMILES IDX 88 56 41 58 75 59 54 60 74 61 55 62 58 63 73 64 93 65 56 66
REMARK SMILES IDX 57 67 72 69 94 70 59 71 42 72 43 73 52 74 44 75 45 76 51 77
REMARK SMILES IDX 53 78 46 79 47 80 48 81 49 82 50 83 76 84 77 85 86 86 78 87
REMARK SMILES IDX 79 88 85 89 87 90 80 91 81 92 82 93 83 94 84 95 60 96 61 97
REMARK SMILES IDX 70 98 62 99 63 100 69 101 71 102 64 103 65 104 66 105 67 106
REMARK SMILES IDX 68 107
REMARK H PARENT 4 25 6 29 6 30 92 57 58 68
REMARK Flexibility Score: inf
ROOT
ATOM      1  C   UNL     1       7.428  -6.869  -4.641  1.00  0.00     0.188 C 
ENDROOT
BRANCH   1   2
ATOM      2  C   UNL     1       7.391  -6.139  -6.005  1.00  0.00     0.188 C 
BRANCH   2   3
ATOM      3  O   UNL     1       8.551  -5.598  -6.636  1.00  0.00    -0.376 OA
BRANCH   3   4
ATOM      4  C   UNL     1       9.708  -5.247  -5.896  1.00  0.00     0.202 C 
BRANCH   4   5
ATOM      5  C   UNL     1       9.617  -4.121  -4.861  1.00  0.00     0.261 C 
BRANCH   5   6
ATOM      6  O   UNL     1       8.404  -4.100  -4.112  1.00  0.00    -0.460 OA
BRANCH   6   7
ATOM      7  C   UNL     1       7.424  -3.328  -4.628  1.00  0.00     0.338 C 
ATOM      8  O   UNL     1       7.498  -2.576  -5.591  1.00  0.00    -0.246 OA
BRANCH   7   9
ATOM      9  C   UNL     1       6.161  -3.614  -3.918  1.00  0.00     0.060 A 
ATOM     10  C   UNL     1       3.747  -3.860  -2.609  1.00  0.00     0.067 A 
ATOM     11  C   UNL     1       3.741  -3.724  -3.999  1.00  0.00     0.029 A 
ATOM     12  C   UNL     1       4.938  -4.040  -1.893  1.00  0.00     0.029 A 
ATOM     13  C   UNL     1       4.962  -3.570  -4.649  1.00  0.00     0.018 A 
ATOM     14  C   UNL     1       6.153  -3.921  -2.554  1.00  0.00     0.018 A 
BRANCH  10  15
ATOM     15  N   UNL     1       2.592  -3.476  -1.902  1.00  0.00    -0.217 N 
ATOM     16  C   UNL     1       1.169  -2.256  -0.802  1.00  0.00     0.132 A 
ATOM     17  N   UNL     1       0.480  -3.204  -1.510  1.00  0.00    -0.128 NA
ATOM     18  C   UNL     1       2.516  -2.367  -1.074  1.00  0.00     0.071 A 
ATOM     19  N   UNL     1       1.351  -3.884  -2.245  1.00  0.00    -0.061 NA
ATOM     20  C   UNL     1       3.654  -1.464  -0.765  1.00  0.00     0.069 C 
BRANCH  16  21
ATOM     21  C   UNL     1       0.520  -1.194  -0.066  1.00  0.00     0.087 C 
ATOM     22  C   UNL     1       0.311   0.109  -0.794  1.00  0.00     0.071 C 
ATOM     23  N   UNL     1       0.188  -1.483   1.158  1.00  0.00    -0.176 NA
BRANCH  23  24
ATOM     24  N   UNL     1      -0.429  -0.551   1.936  1.00  0.00    -0.254 N 
ATOM     25  H   UNL     1      -1.388  -0.685   2.117  1.00  0.00     0.193 HD
BRANCH  24  26
ATOM     26  C   UNL     1       0.163   0.564   2.495  1.00  0.00     0.184 C 
ATOM     27  S   UNL     1       1.698   1.166   2.267  1.00  0.00    -0.040 S 
BRANCH  26  28
ATOM     28  N   UNL     1      -0.683   1.235   3.332  1.00  0.00    -0.375 N 
ATOM     29  H   UNL     1      -1.596   0.898   3.482  1.00  0.00     0.159 HD
ATOM     30  H   UNL     1      -0.381   2.055   3.784  1.00  0.00     0.159 HD
ENDBRANCH  26  28
ENDBRANCH  24  26
ENDBRANCH  23  24
ENDBRANCH  16  21
ENDBRANCH  10  15
ENDBRANCH   7   9
ENDBRANCH   6   7
ENDBRANCH   5   6
ENDBRANCH   4   5
ENDBRANCH   3   4
ENDBRANCH   2   3
ENDBRANCH   1   2
BRANCH   1  31
ATOM     31  O   UNL     1       8.720  -7.047  -4.084  1.00  0.00    -0.377 OA
BRANCH  31  32
ATOM     32  C   UNL     1       9.278  -8.343  -4.290  1.00  0.00     0.188 C 
BRANCH  32  33
ATOM     33  C   UNL     1       9.381  -8.819  -5.758  1.00  0.00     0.188 C 
BRANCH  33  34
ATOM     34  O   UNL     1       8.149  -8.737  -6.475  1.00  0.00    -0.376 OA
BRANCH  34  35
ATOM     35  C   UNL     1       7.488  -9.935  -6.855  1.00  0.00     0.202 C 
BRANCH  35  36
ATOM     36  C   UNL     1       6.634 -10.535  -5.741  1.00  0.00     0.261 C 
BRANCH  36  37
ATOM     37  O   UNL     1       7.362 -10.755  -4.547  1.00  0.00    -0.460 OA
BRANCH  37  38
ATOM     38  C   UNL     1       8.423 -11.575  -4.645  1.00  0.00     0.338 C 
ATOM     39  O   UNL     1       8.856 -12.113  -5.659  1.00  0.00    -0.246 OA
BRANCH  38  40
ATOM     40  C   UNL     1       8.969 -11.793  -3.308  1.00  0.00     0.060 A 
ATOM     41  C   UNL     1      10.090 -12.620  -3.233  1.00  0.00     0.016 A 
ATOM     42  C   UNL     1       8.163 -11.497  -2.201  1.00  0.00     0.016 A 
ATOM     43  C   UNL     1      10.216 -13.415  -2.123  1.00  0.00     0.010 A 
ATOM     44  C   UNL     1       8.269 -12.308  -1.108  1.00  0.00     0.010 A 
ATOM     45  C   UNL     1       9.221 -13.326  -1.149  1.00  0.00    -0.014 A 
BRANCH  45  46
ATOM     46  C   UNL     1       9.100 -14.416  -0.214  1.00  0.00     0.031 A 
ATOM     47  C   UNL     1       9.931 -14.268   0.993  1.00  0.00     0.074 A 
ATOM     48  C   UNL     1       8.167 -15.364  -0.423  1.00  0.00     0.049 A 
ATOM     49  N   UNL     1      10.871 -15.040   1.421  1.00  0.00    -0.248 NA
ATOM     50  C   UNL     1       9.789 -13.008   1.744  1.00  0.00     0.031 C 
ATOM     51  C   UNL     1       7.104 -15.368  -1.438  1.00  0.00     0.029 A 
ATOM     52  N   UNL     1       7.884 -16.463   0.319  1.00  0.00    -0.354 N 
ATOM     53  C   UNL     1      11.277 -14.474   2.623  1.00  0.00     0.074 A 
ATOM     54  C   UNL     1      10.742 -13.140   2.662  1.00  0.00     0.031 C 
ATOM     55  C   UNL     1       6.173 -16.286  -1.098  1.00  0.00     0.029 A 
ATOM     56  C   UNL     1       6.624 -16.994   0.087  1.00  0.00     0.049 A 
ATOM     57  H   UNL     1       8.517 -16.850   0.966  1.00  0.00     0.167 HD
ATOM     58  C   UNL     1      11.777 -15.229   3.634  1.00  0.00     0.037 A 
ATOM     59  C   UNL     1       5.968 -17.863   0.895  1.00  0.00     0.037 A 
ATOM     60  C   UNL     1      12.255 -16.503   3.170  1.00  0.00     0.049 A 
ATOM     61  C   UNL     1       6.984 -18.476   1.795  1.00  0.00     0.074 A 
ATOM     62  C   UNL     1      13.213 -16.895   2.256  1.00  0.00     0.029 A 
ATOM     63  N   UNL     1      11.464 -17.605   3.388  1.00  0.00    -0.354 N 
ATOM     64  N   UNL     1       7.948 -19.262   1.393  1.00  0.00    -0.248 NA
ATOM     65  C   UNL     1       7.191 -17.871   3.104  1.00  0.00     0.031 C 
ATOM     66  C   UNL     1      12.694 -18.072   1.646  1.00  0.00     0.029 A 
ATOM     67  C   UNL     1      11.459 -18.351   2.235  1.00  0.00     0.049 A 
ATOM     68  H   UNL     1      10.987 -17.821   4.222  1.00  0.00     0.167 HD
ATOM     69  C   UNL     1       9.037 -18.946   2.196  1.00  0.00     0.074 A 
ATOM     70  C   UNL     1       8.479 -18.167   3.296  1.00  0.00     0.031 C 
ATOM     71  C   UNL     1      10.319 -19.104   1.750  1.00  0.00     0.037 A 
BRANCH  58  72
ATOM     72  C   UNL     1      11.486 -14.924   5.077  1.00  0.00     0.058 A 
ATOM     73  C   UNL     1      12.258 -15.522   6.087  1.00  0.00     0.135 A 
ATOM     74  C   UNL     1      10.315 -14.255   5.510  1.00  0.00     0.135 A 
ATOM     75  F   UNL     1      13.368 -16.209   5.778  1.00  0.00    -0.206 F 
ATOM     76  C   UNL     1      11.873 -15.491   7.427  1.00  0.00     0.059 A 
ATOM     77  C   UNL     1       9.950 -14.153   6.843  1.00  0.00     0.059 A 
ATOM     78  F   UNL     1       9.418 -13.755   4.649  1.00  0.00    -0.206 F 
ATOM     79  C   UNL     1      10.711 -14.813   7.791  1.00  0.00     0.060 A 
BRANCH  79  80
ATOM     80  S   UNL     1      10.143 -14.867   9.498  1.00  0.00     0.124 S 
ATOM     81  O   UNL     1       9.646 -16.235   9.589  1.00  0.00    -0.237 OA
ATOM     82  O   UNL     1      11.368 -14.579  10.237  1.00  0.00    -0.237 OA
ATOM     83  O   UNL     1       9.128 -13.819   9.546  1.00  0.00    -0.744 OA
ENDBRANCH  79  80
ENDBRANCH  58  72
BRANCH  59  84
ATOM     84  C   UNL     1       4.505 -17.898   1.167  1.00  0.00     0.058 A 
ATOM     85  C   UNL     1       3.913 -18.991   1.823  1.00  0.00     0.135 A 
ATOM     86  C   UNL     1       3.688 -16.757   1.010  1.00  0.00     0.135 A 
ATOM     87  F   UNL     1       4.624 -20.106   2.050  1.00  0.00    -0.206 F 
ATOM     88  C   UNL     1       2.604 -18.945   2.318  1.00  0.00     0.059 A 
ATOM     89  C   UNL     1       2.377 -16.696   1.473  1.00  0.00     0.059 A 
ATOM     90  F   UNL     1       4.168 -15.624   0.477  1.00  0.00    -0.206 F 
ATOM     91  C   UNL     1       1.847 -17.786   2.148  1.00  0.00     0.060 A 
BRANCH  91  92
ATOM     92  S   UNL     1       0.214 -17.663   2.913  1.00  0.00     0.124 S 
ATOM     93  O   UNL     1      -0.559 -18.619   2.127  1.00  0.00    -0.237 OA
ATOM     94  O   UNL     1       0.492 -18.047   4.292  1.00  0.00    -0.237 OA
ATOM     95  O   UNL     1      -0.147 -16.261   2.720  1.00  0.00    -0.744 OA
ENDBRANCH  91  92
ENDBRANCH  59  84
BRANCH  71  96
ATOM     96  C   UNL     1      10.535 -19.906   0.490  1.00  0.00     0.058 A 
ATOM     97  C   UNL     1      10.113 -19.483  -0.783  1.00  0.00     0.135 A 
ATOM     98  C   UNL     1      11.354 -21.043   0.545  1.00  0.00     0.135 A 
ATOM     99  F   UNL     1       9.419 -18.348  -0.934  1.00  0.00    -0.206 F 
ATOM    100  C   UNL     1      10.462 -20.174  -1.944  1.00  0.00     0.059 A 
ATOM    101  C   UNL     1      11.742 -21.731  -0.604  1.00  0.00     0.059 A 
ATOM    102  F   UNL     1      11.846 -21.460   1.724  1.00  0.00    -0.206 F 
ATOM    103  C   UNL     1      11.285 -21.294  -1.846  1.00  0.00     0.060 A 
BRANCH 103 104
ATOM    104  S   UNL     1      11.838 -22.109  -3.361  1.00  0.00     0.124 S 
ATOM    105  O   UNL     1      10.636 -22.818  -3.785  1.00  0.00    -0.237 OA
ATOM    106  O   UNL     1      12.239 -20.983  -4.200  1.00  0.00    -0.237 OA
ATOM    107  O   UNL     1      12.938 -22.957  -2.909  1.00  0.00    -0.744 OA
ENDBRANCH 103 104
ENDBRANCH  71  96
ENDBRANCH  45  46
ENDBRANCH  38  40
ENDBRANCH  37  38
ENDBRANCH  36  37
ENDBRANCH  35  36
ENDBRANCH  34  35
ENDBRANCH  33  34
ENDBRANCH  32  33
ENDBRANCH  31  32
ENDBRANCH   1  31
TORSDOF 28
