REMARK SMILES CSc1nc(C2CC2)nc(C)c1C(=O)OCCOCCOCCOCCOC(=O)c1ccc(-c2c3nc(c(-c4c(F)cc(S(=O)(=O)[O-])cc4F)c4ccc([nH]4)c(-c4c(F)cc(S(=O)(=O)[O-])cc4F)c4nc(c(-c5c(F)cc(S(=O)(=O)[O-])cc5F)c5ccc2[nH]5)C=C4)C=C3)cc1
REMARK SMILES IDX 22 1 21 2 20 3 19 4 18 5 17 6 16 7 15 8 13 9 14 10 12 11
REMARK SMILES IDX 3 12 4 13 5 14 10 15 9 16 11 17 2 18 1 19 6 20 7 21 8 22
REMARK SMILES IDX 23 23 24 24 25 25 26 26 27 27 28 28 29 29 30 30 31 31 95 32
REMARK SMILES IDX 32 33 94 34 33 35 34 36 35 37 88 38 36 39 93 40 87 41 89 42
REMARK SMILES IDX 37 43 92 44 86 45 85 46 38 48 72 49 51 50 71 51 52 52 55 53
REMARK SMILES IDX 70 54 90 55 53 56 54 57 69 59 91 60 56 61 39 62 40 63 49 64
REMARK SMILES IDX 41 65 42 66 48 67 50 68 43 69 44 70 45 71 46 72 47 73 73 74
REMARK SMILES IDX 74 75 83 76 75 77 76 78 82 79 84 80 77 81 78 82 79 83 80 84
REMARK SMILES IDX 81 85 57 86 58 87 67 88 59 89 60 90 66 91 68 92 61 93 62 94
REMARK SMILES IDX 63 95 64 96 65 97
REMARK H PARENT 89 47 55 58
REMARK Flexibility Score: inf
ROOT
ATOM      1  C   UNL     1       2.012   7.040  -2.463  1.00  0.00     0.188 C 
ENDROOT
BRANCH   1   2
ATOM      2  O   UNL     1       1.789   6.280  -1.277  1.00  0.00    -0.377 OA
BRANCH   2   3
ATOM      3  C   UNL     1       1.820   4.867  -1.343  1.00  0.00     0.188 C 
BRANCH   3   4
ATOM      4  C   UNL     1       0.725   4.198  -2.193  1.00  0.00     0.188 C 
BRANCH   4   5
ATOM      5  O   UNL     1      -0.081   5.107  -2.941  1.00  0.00    -0.376 OA
BRANCH   5   6
ATOM      6  C   UNL     1      -1.422   5.262  -2.482  1.00  0.00     0.202 C 
BRANCH   6   7
ATOM      7  C   UNL     1      -1.556   6.077  -1.195  1.00  0.00     0.261 C 
BRANCH   7   8
ATOM      8  O   UNL     1      -0.795   5.507  -0.118  1.00  0.00    -0.460 OA
BRANCH   8   9
ATOM      9  C   UNL     1      -1.364   4.554   0.641  1.00  0.00     0.342 C 
ATOM     10  O   UNL     1      -2.502   4.132   0.543  1.00  0.00    -0.246 OA
BRANCH   9  11
ATOM     11  C   UNL     1      -0.336   4.034   1.561  1.00  0.00     0.113 A 
ATOM     12  C   UNL     1      -0.022   2.684   1.611  1.00  0.00     0.114 A 
ATOM     13  N   UNL     1       0.867   2.174   2.495  1.00  0.00    -0.225 NA
ATOM     14  C   UNL     1       1.480   3.015   3.342  1.00  0.00     0.133 A 
ATOM     15  C   UNL     1       0.406   4.853   2.401  1.00  0.00     0.057 A 
ATOM     16  N   UNL     1       1.297   4.345   3.290  1.00  0.00    -0.237 NA
ATOM     17  C   UNL     1       0.278   6.349   2.436  1.00  0.00     0.068 C 
BRANCH  12  18
ATOM     18  S   UNL     1      -0.700   1.469   0.476  1.00  0.00    -0.109 SA
ATOM     19  C   UNL     1       0.681   0.294   0.395  1.00  0.00     0.092 C 
ENDBRANCH  12  18
BRANCH  14  20
ATOM     20  C   UNL     1       2.359   2.463   4.439  1.00  0.00     0.058 C 
ATOM     21  C   UNL     1       2.644   0.981   4.544  1.00  0.00     0.012 C 
ATOM     22  C   UNL     1       3.738   1.925   4.139  1.00  0.00     0.012 C 
ENDBRANCH  14  20
ENDBRANCH   9  11
ENDBRANCH   8   9
ENDBRANCH   7   8
ENDBRANCH   6   7
ENDBRANCH   5   6
ENDBRANCH   4   5
ENDBRANCH   3   4
ENDBRANCH   2   3
ENDBRANCH   1   2
BRANCH   1  23
ATOM     23  C   UNL     1       2.400   6.381  -3.805  1.00  0.00     0.188 C 
BRANCH  23  24
ATOM     24  O   UNL     1       3.179   5.195  -3.691  1.00  0.00    -0.376 OA
BRANCH  24  25
ATOM     25  C   UNL     1       4.551   5.304  -4.044  1.00  0.00     0.202 C 
BRANCH  25  26
ATOM     26  C   UNL     1       5.407   5.994  -2.977  1.00  0.00     0.261 C 
BRANCH  26  27
ATOM     27  O   UNL     1       5.108   7.383  -2.776  1.00  0.00    -0.460 OA
BRANCH  27  28
ATOM     28  C   UNL     1       5.254   8.201  -3.842  1.00  0.00     0.338 C 
ATOM     29  O   UNL     1       5.660   7.904  -4.950  1.00  0.00    -0.246 OA
BRANCH  28  30
ATOM     30  C   UNL     1       4.662   9.504  -3.489  1.00  0.00     0.060 A 
ATOM     31  C   UNL     1       3.639  10.021  -4.292  1.00  0.00     0.016 A 
ATOM     32  C   UNL     1       5.121  10.205  -2.372  1.00  0.00     0.016 A 
ATOM     33  C   UNL     1       3.095  11.271  -3.997  1.00  0.00     0.010 A 
ATOM     34  C   UNL     1       4.587  11.461  -2.088  1.00  0.00     0.010 A 
ATOM     35  C   UNL     1       3.596  12.012  -2.917  1.00  0.00    -0.014 A 
BRANCH  35  36
ATOM     36  C   UNL     1       3.225  13.438  -2.765  1.00  0.00     0.031 A 
ATOM     37  C   UNL     1       4.133  14.477  -3.362  1.00  0.00     0.074 A 
ATOM     38  C   UNL     1       2.110  13.800  -2.106  1.00  0.00     0.049 A 
ATOM     39  N   UNL     1       4.038  15.779  -3.327  1.00  0.00    -0.248 NA
ATOM     40  C   UNL     1       5.308  13.976  -4.096  1.00  0.00     0.031 C 
ATOM     41  C   UNL     1       1.147  12.882  -1.501  1.00  0.00     0.029 A 
ATOM     42  N   UNL     1       1.611  15.047  -1.827  1.00  0.00    -0.354 N 
ATOM     43  C   UNL     1       5.137  16.255  -4.031  1.00  0.00     0.074 A 
ATOM     44  C   UNL     1       5.902  15.104  -4.457  1.00  0.00     0.031 C 
ATOM     45  C   UNL     1       0.177  13.600  -0.907  1.00  0.00     0.029 A 
ATOM     46  C   UNL     1       0.464  15.025  -1.070  1.00  0.00     0.049 A 
ATOM     47  H   UNL     1       2.034  15.880  -2.139  1.00  0.00     0.167 HD
ATOM     48  C   UNL     1       5.474  17.536  -4.307  1.00  0.00     0.037 A 
ATOM     49  C   UNL     1      -0.258  16.040  -0.556  1.00  0.00     0.037 A 
ATOM     50  C   UNL     1       4.716  18.679  -3.873  1.00  0.00     0.049 A 
ATOM     51  C   UNL     1       0.168  17.461  -0.827  1.00  0.00     0.074 A 
ATOM     52  C   UNL     1       4.963  20.018  -4.116  1.00  0.00     0.029 A 
ATOM     53  N   UNL     1       3.567  18.617  -3.099  1.00  0.00    -0.354 N 
ATOM     54  N   UNL     1       1.188  17.898  -1.528  1.00  0.00    -0.248 NA
ATOM     55  C   UNL     1      -0.657  18.528  -0.241  1.00  0.00     0.031 C 
ATOM     56  C   UNL     1       3.987  20.769  -3.452  1.00  0.00     0.029 A 
ATOM     57  C   UNL     1       3.106  19.895  -2.835  1.00  0.00     0.049 A 
ATOM     58  H   UNL     1       3.143  17.787  -2.783  1.00  0.00     0.167 HD
ATOM     59  C   UNL     1       1.111  19.287  -1.490  1.00  0.00     0.074 A 
ATOM     60  C   UNL     1      -0.059  19.618  -0.704  1.00  0.00     0.031 C 
ATOM     61  C   UNL     1       1.932  20.205  -2.057  1.00  0.00     0.037 A 
BRANCH  48  62
ATOM     62  C   UNL     1       6.729  17.766  -5.098  1.00  0.00     0.058 A 
ATOM     63  C   UNL     1       6.794  17.483  -6.472  1.00  0.00     0.135 A 
ATOM     64  C   UNL     1       7.873  18.297  -4.482  1.00  0.00     0.135 A 
ATOM     65  F   UNL     1       5.735  16.953  -7.104  1.00  0.00    -0.206 F 
ATOM     66  C   UNL     1       7.957  17.697  -7.203  1.00  0.00     0.059 A 
ATOM     67  C   UNL     1       9.040  18.542  -5.199  1.00  0.00     0.059 A 
ATOM     68  F   UNL     1       7.865  18.578  -3.170  1.00  0.00    -0.206 F 
ATOM     69  C   UNL     1       9.076  18.226  -6.556  1.00  0.00     0.060 A 
BRANCH  69  70
ATOM     70  S   UNL     1      10.578  18.505  -7.519  1.00  0.00     0.124 S 
ATOM     71  O   UNL     1      11.067  17.141  -7.695  1.00  0.00    -0.237 OA
ATOM     72  O   UNL     1      10.063  19.153  -8.721  1.00  0.00    -0.237 OA
ATOM     73  O   UNL     1      11.386  19.354  -6.650  1.00  0.00    -0.744 OA
ENDBRANCH  69  70
ENDBRANCH  48  62
BRANCH  49  74
ATOM     74  C   UNL     1      -1.456  15.755   0.276  1.00  0.00     0.058 A 
ATOM     75  C   UNL     1      -2.748  16.032  -0.194  1.00  0.00     0.135 A 
ATOM     76  C   UNL     1      -1.333  15.207   1.563  1.00  0.00     0.135 A 
ATOM     77  F   UNL     1      -2.917  16.567  -1.413  1.00  0.00    -0.206 F 
ATOM     78  C   UNL     1      -3.875  15.789   0.585  1.00  0.00     0.059 A 
ATOM     79  C   UNL     1      -2.445  14.934   2.352  1.00  0.00     0.059 A 
ATOM     80  F   UNL     1      -0.119  14.916   2.056  1.00  0.00    -0.206 F 
ATOM     81  C   UNL     1      -3.713  15.238   1.857  1.00  0.00     0.060 A 
BRANCH  81  82
ATOM     82  S   UNL     1      -5.184  14.882   2.843  1.00  0.00     0.124 S 
ATOM     83  O   UNL     1      -5.578  16.217   3.276  1.00  0.00    -0.237 OA
ATOM     84  O   UNL     1      -6.060  14.241   1.867  1.00  0.00    -0.237 OA
ATOM     85  O   UNL     1      -4.678  14.001   3.891  1.00  0.00    -0.744 OA
ENDBRANCH  81  82
ENDBRANCH  49  74
BRANCH  61  86
ATOM     86  C   UNL     1       1.580  21.657  -1.882  1.00  0.00     0.058 A 
ATOM     87  C   UNL     1       1.778  22.322  -0.662  1.00  0.00     0.135 A 
ATOM     88  C   UNL     1       1.099  22.406  -2.968  1.00  0.00     0.135 A 
ATOM     89  F   UNL     1       2.232  21.650   0.408  1.00  0.00    -0.206 F 
ATOM     90  C   UNL     1       1.494  23.676  -0.520  1.00  0.00     0.059 A 
ATOM     91  C   UNL     1       0.832  23.767  -2.855  1.00  0.00     0.059 A 
ATOM     92  F   UNL     1       0.904  21.820  -4.160  1.00  0.00    -0.206 F 
ATOM     93  C   UNL     1       1.022  24.391  -1.623  1.00  0.00     0.060 A 
BRANCH  93  94
ATOM     94  S   UNL     1       0.694  26.157  -1.438  1.00  0.00     0.124 S 
ATOM     95  O   UNL     1      -0.563  26.145  -0.698  1.00  0.00    -0.237 OA
ATOM     96  O   UNL     1       1.863  26.617  -0.694  1.00  0.00    -0.237 OA
ATOM     97  O   UNL     1       0.609  26.632  -2.815  1.00  0.00    -0.744 OA
ENDBRANCH  93  94
ENDBRANCH  61  86
ENDBRANCH  35  36
ENDBRANCH  28  30
ENDBRANCH  27  28
ENDBRANCH  26  27
ENDBRANCH  25  26
ENDBRANCH  24  25
ENDBRANCH  23  24
ENDBRANCH   1  23
TORSDOF 25
