REMARK SMILES Cc1ccc(F)cc1NS(=O)(=O)c1ccc(C(=O)OCCOCCOCCOCCOC(=O)c2ccc(-c3c4nc(c(-c5c(F)cc(S(=O)(=O)[O-])cc5F)c5ccc([nH]5)c(-c5c(F)cc(S(=O)(=O)[O-])cc5F)c5nc(c(-c6c(F)cc(S(=O)(=O)[O-])cc6F)c6ccc3[nH]6)C=C5)C=C4)cc2)cc1
REMARK SMILES IDX 25 1 24 2 23 3 22 4 21 5 20 6 19 7 17 8 18 9 16 10 13 11
REMARK SMILES IDX 14 12 101 13 15 14 100 15 10 16 11 17 12 18 9 19 8 21 1 22
REMARK SMILES IDX 2 23 3 24 4 25 7 26 5 27 6 28 26 29 27 30 28 31 29 32 30 33
REMARK SMILES IDX 31 34 32 35 33 36 34 37 35 38 99 39 36 40 98 41 37 42 38 43
REMARK SMILES IDX 39 44 92 45 40 46 97 47 91 48 93 49 41 50 96 51 90 52 89 53
REMARK SMILES IDX 42 55 76 56 55 57 75 58 56 59 59 60 74 61 94 62 57 63 58 64
REMARK SMILES IDX 73 66 95 67 60 68 43 69 44 70 53 71 45 72 46 73 52 74 54 75
REMARK SMILES IDX 47 76 48 77 49 78 50 79 51 80 77 81 78 82 87 83 79 84 80 85
REMARK SMILES IDX 86 86 88 87 81 88 82 89 83 90 84 91 85 92 61 93 62 94 71 95
REMARK SMILES IDX 63 96 64 97 70 98 72 99 65 100 66 101 67 102 68 103 69 104
REMARK H PARENT 9 20 93 54 59 65
REMARK Flexibility Score: inf
ROOT
ATOM      1  O   UNL     1      -6.104  -3.994   2.318  1.00  0.00    -0.377 OA
ENDROOT
BRANCH   1   2
ATOM      2  C   UNL     1      -5.314  -2.826   2.168  1.00  0.00     0.188 C 
BRANCH   2   3
ATOM      3  C   UNL     1      -5.896  -1.702   1.292  1.00  0.00     0.188 C 
BRANCH   3   4
ATOM      4  O   UNL     1      -7.305  -1.759   1.160  1.00  0.00    -0.376 OA
BRANCH   4   5
ATOM      5  C   UNL     1      -7.878  -2.260  -0.036  1.00  0.00     0.202 C 
BRANCH   5   6
ATOM      6  C   UNL     1      -7.432  -3.606  -0.636  1.00  0.00     0.261 C 
BRANCH   6   7
ATOM      7  O   UNL     1      -6.028  -3.890  -0.589  1.00  0.00    -0.460 OA
BRANCH   7   8
ATOM      8  C   UNL     1      -5.248  -3.300  -1.518  1.00  0.00     0.338 C 
ATOM      9  O   UNL     1      -5.625  -2.552  -2.404  1.00  0.00    -0.246 OA
BRANCH   8  10
ATOM     10  C   UNL     1      -3.814  -3.538  -1.187  1.00  0.00     0.060 A 
ATOM     11  C   UNL     1      -1.105  -3.771  -0.488  1.00  0.00     0.087 A 
ATOM     12  C   UNL     1      -1.525  -2.708  -1.288  1.00  0.00     0.023 A 
ATOM     13  C   UNL     1      -2.029  -4.744  -0.075  1.00  0.00     0.023 A 
ATOM     14  C   UNL     1      -2.882  -2.577  -1.605  1.00  0.00     0.017 A 
ATOM     15  C   UNL     1      -3.378  -4.636  -0.435  1.00  0.00     0.017 A 
BRANCH  11  16
ATOM     16  S   UNL     1       0.558  -3.911   0.135  1.00  0.00     0.261 S 
ATOM     17  O   UNL     1       1.278  -4.714  -0.835  1.00  0.00    -0.201 OA
ATOM     18  O   UNL     1       0.471  -4.313   1.521  1.00  0.00    -0.201 OA
BRANCH  16  19
ATOM     19  N   UNL     1       1.332  -2.431   0.084  1.00  0.00    -0.279 N 
ATOM     20  H   UNL     1       2.264  -2.459  -0.232  1.00  0.00     0.180 HD
BRANCH  19  21
ATOM     21  C   UNL     1       0.850  -1.135   0.428  1.00  0.00     0.055 A 
ATOM     22  C   UNL     1       3.127  -0.101  -0.200  1.00  0.00     0.046 C 
ATOM     23  C   UNL     1       1.646  -0.022   0.073  1.00  0.00    -0.027 A 
ATOM     24  C   UNL     1       1.060   1.256   0.023  1.00  0.00     0.008 A 
ATOM     25  C   UNL     1      -0.267   1.437   0.395  1.00  0.00     0.039 A 
ATOM     26  C   UNL     1      -0.413  -0.914   0.975  1.00  0.00     0.066 A 
ATOM     27  C   UNL     1      -0.973   0.360   0.912  1.00  0.00     0.125 A 
ATOM     28  F   UNL     1      -2.240   0.541   1.307  1.00  0.00    -0.207 F 
ENDBRANCH  19  21
ENDBRANCH  16  19
ENDBRANCH  11  16
ENDBRANCH   8  10
ENDBRANCH   7   8
ENDBRANCH   6   7
ENDBRANCH   5   6
ENDBRANCH   4   5
ENDBRANCH   3   4
ENDBRANCH   2   3
ENDBRANCH   1   2
BRANCH   1  29
ATOM     29  C   UNL     1      -7.372  -3.918   2.972  1.00  0.00     0.188 C 
BRANCH  29  30
ATOM     30  C   UNL     1      -7.878  -2.644   3.694  1.00  0.00     0.188 C 
BRANCH  30  31
ATOM     31  O   UNL     1      -6.864  -1.728   4.073  1.00  0.00    -0.376 OA
BRANCH  31  32
ATOM     32  C   UNL     1      -6.551  -1.635   5.451  1.00  0.00     0.202 C 
BRANCH  32  33
ATOM     33  C   UNL     1      -5.911  -2.878   6.086  1.00  0.00     0.261 C 
BRANCH  33  34
ATOM     34  O   UNL     1      -6.652  -4.102   5.960  1.00  0.00    -0.460 OA
BRANCH  34  35
ATOM     35  C   UNL     1      -7.849  -4.172   6.582  1.00  0.00     0.338 C 
ATOM     36  O   UNL     1      -8.377  -3.302   7.256  1.00  0.00    -0.246 OA
BRANCH  35  37
ATOM     37  C   UNL     1      -8.506  -5.422   6.149  1.00  0.00     0.060 A 
ATOM     38  C   UNL     1      -9.731  -5.354   5.471  1.00  0.00     0.016 A 
ATOM     39  C   UNL     1      -7.904  -6.658   6.399  1.00  0.00     0.016 A 
ATOM     40  C   UNL     1     -10.373  -6.528   5.070  1.00  0.00     0.010 A 
ATOM     41  C   UNL     1      -8.557  -7.831   6.013  1.00  0.00     0.010 A 
ATOM     42  C   UNL     1      -9.810  -7.774   5.377  1.00  0.00    -0.014 A 
BRANCH  42  43
ATOM     43  C   UNL     1     -10.611  -9.013   5.212  1.00  0.00     0.031 A 
ATOM     44  C   UNL     1     -11.292  -9.588   6.425  1.00  0.00     0.074 A 
ATOM     45  C   UNL     1     -10.742  -9.614   4.015  1.00  0.00     0.049 A 
ATOM     46  N   UNL     1     -11.988 -10.688   6.546  1.00  0.00    -0.248 NA
ATOM     47  C   UNL     1     -11.162  -8.817   7.673  1.00  0.00     0.031 C 
ATOM     48  C   UNL     1     -10.165  -9.135   2.760  1.00  0.00     0.029 A 
ATOM     49  N   UNL     1     -11.396 -10.770   3.665  1.00  0.00    -0.354 N 
ATOM     50  C   UNL     1     -12.372 -10.746   7.881  1.00  0.00     0.074 A 
ATOM     51  C   UNL     1     -11.803  -9.589   8.537  1.00  0.00     0.031 C 
ATOM     52  C   UNL     1     -10.479  -9.999   1.779  1.00  0.00     0.029 A 
ATOM     53  C   UNL     1     -11.247 -11.110   2.341  1.00  0.00     0.049 A 
ATOM     54  H   UNL     1     -11.921 -11.305   4.303  1.00  0.00     0.167 HD
ATOM     55  C   UNL     1     -13.136 -11.675   8.503  1.00  0.00     0.037 A 
ATOM     56  C   UNL     1     -11.661 -12.204   1.669  1.00  0.00     0.037 A 
ATOM     57  C   UNL     1     -13.694 -12.828   7.845  1.00  0.00     0.049 A 
ATOM     58  C   UNL     1     -12.447 -13.266   2.399  1.00  0.00     0.074 A 
ATOM     59  C   UNL     1     -14.497 -13.819   8.382  1.00  0.00     0.029 A 
ATOM     60  N   UNL     1     -13.499 -13.151   6.510  1.00  0.00    -0.354 N 
ATOM     61  N   UNL     1     -12.827 -13.297   3.655  1.00  0.00    -0.248 NA
ATOM     62  C   UNL     1     -12.863 -14.441   1.619  1.00  0.00     0.031 C 
ATOM     63  C   UNL     1     -14.736 -14.773   7.388  1.00  0.00     0.029 A 
ATOM     64  C   UNL     1     -14.140 -14.343   6.213  1.00  0.00     0.049 A 
ATOM     65  H   UNL     1     -12.981 -12.613   5.868  1.00  0.00     0.167 HD
ATOM     66  C   UNL     1     -13.552 -14.476   3.807  1.00  0.00     0.074 A 
ATOM     67  C   UNL     1     -13.567 -15.124   2.511  1.00  0.00     0.031 C 
ATOM     68  C   UNL     1     -14.153 -14.976   4.916  1.00  0.00     0.037 A 
BRANCH  55  69
ATOM     69  C   UNL     1     -13.384 -11.501   9.977  1.00  0.00     0.058 A 
ATOM     70  C   UNL     1     -14.196 -10.470  10.477  1.00  0.00     0.135 A 
ATOM     71  C   UNL     1     -12.820 -12.395  10.902  1.00  0.00     0.135 A 
ATOM     72  F   UNL     1     -14.745  -9.575   9.641  1.00  0.00    -0.206 F 
ATOM     73  C   UNL     1     -14.417 -10.315  11.842  1.00  0.00     0.059 A 
ATOM     74  C   UNL     1     -13.053 -12.278  12.269  1.00  0.00     0.059 A 
ATOM     75  F   UNL     1     -12.032 -13.396  10.481  1.00  0.00    -0.206 F 
ATOM     76  C   UNL     1     -13.841 -11.225  12.730  1.00  0.00     0.060 A 
BRANCH  76  77
ATOM     77  S   UNL     1     -14.142 -11.011  14.497  1.00  0.00     0.124 S 
ATOM     78  O   UNL     1     -13.357  -9.814  14.784  1.00  0.00    -0.237 OA
ATOM     79  O   UNL     1     -15.591 -10.846  14.549  1.00  0.00    -0.237 OA
ATOM     80  O   UNL     1     -13.633 -12.248  15.082  1.00  0.00    -0.744 OA
ENDBRANCH  76  77
ENDBRANCH  55  69
BRANCH  56  81
ATOM     81  C   UNL     1     -11.332 -12.361   0.226  1.00  0.00     0.058 A 
ATOM     82  C   UNL     1     -12.332 -12.320  -0.758  1.00  0.00     0.135 A 
ATOM     83  C   UNL     1     -10.008 -12.562  -0.200  1.00  0.00     0.135 A 
ATOM     84  F   UNL     1     -13.614 -12.147  -0.403  1.00  0.00    -0.206 F 
ATOM     85  C   UNL     1     -12.036 -12.483  -2.108  1.00  0.00     0.059 A 
ATOM     86  C   UNL     1      -9.684 -12.698  -1.547  1.00  0.00     0.059 A 
ATOM     87  F   UNL     1      -9.012 -12.606   0.698  1.00  0.00    -0.206 F 
ATOM     88  C   UNL     1     -10.707 -12.665  -2.493  1.00  0.00     0.060 A 
BRANCH  88  89
ATOM     89  S   UNL     1     -10.329 -12.817  -4.253  1.00  0.00     0.124 S 
ATOM     90  O   UNL     1     -10.876 -14.134  -4.559  1.00  0.00    -0.237 OA
ATOM     91  O   UNL     1     -11.048 -11.679  -4.817  1.00  0.00    -0.237 OA
ATOM     92  O   UNL     1      -8.874 -12.712  -4.295  1.00  0.00    -0.744 OA
ENDBRANCH  88  89
ENDBRANCH  56  81
BRANCH  68  93
ATOM     93  C   UNL     1     -14.917 -16.267   4.778  1.00  0.00     0.058 A 
ATOM     94  C   UNL     1     -14.269 -17.497   4.585  1.00  0.00     0.135 A 
ATOM     95  C   UNL     1     -16.317 -16.279   4.900  1.00  0.00     0.135 A 
ATOM     96  F   UNL     1     -12.934 -17.545   4.457  1.00  0.00    -0.206 F 
ATOM     97  C   UNL     1     -14.983 -18.689   4.493  1.00  0.00     0.059 A 
ATOM     98  C   UNL     1     -17.048 -17.462   4.844  1.00  0.00     0.059 A 
ATOM     99  F   UNL     1     -16.989 -15.133   5.098  1.00  0.00    -0.206 F 
ATOM    100  C   UNL     1     -16.372 -18.661   4.628  1.00  0.00     0.060 A 
BRANCH 100 101
ATOM    101  S   UNL     1     -17.282 -20.219   4.540  1.00  0.00     0.124 S 
ATOM    102  O   UNL     1     -17.175 -20.542   3.121  1.00  0.00    -0.237 OA
ATOM    103  O   UNL     1     -16.521 -21.075   5.444  1.00  0.00    -0.237 OA
ATOM    104  O   UNL     1     -18.619 -19.860   5.002  1.00  0.00    -0.744 OA
ENDBRANCH 100 101
ENDBRANCH  68  93
ENDBRANCH  42  43
ENDBRANCH  35  37
ENDBRANCH  34  35
ENDBRANCH  33  34
ENDBRANCH  32  33
ENDBRANCH  31  32
ENDBRANCH  30  31
ENDBRANCH  29  30
ENDBRANCH   1  29
TORSDOF 26
