REMARK SMILES COc1cc(C)cc2c1[C@@H](C)[C@@H](CC(=O)N[C@@H](Cc1c[nH]c3ccccc13)C(=O)OCCOCCOCCOCCOC(=O)c1ccc(-c3c4nc(c(-c5c(F)cc(S(=O)(=O)[O-])cc5F)c5ccc([nH]5)c(-c5c(F)cc(S(=O)(=O)[O-])cc5F)c5nc(c(-c6c(F)cc(S(=O)(=O)[O-])cc6F)c6ccc3[nH]6)C=C5)C=C4)cc1)C(=O)O2
REMARK SMILES IDX 35 1 34 2 33 3 32 4 31 5 30 6 28 7 29 8 17 9 16 10 14 11
REMARK SMILES IDX 15 12 13 14 12 15 3 16 4 17 9 18 5 19 8 20 10 21 6 22 7 23
REMARK SMILES IDX 113 24 11 25 111 26 112 27 2 28 1 29 18 30 19 31 20 32 27 33
REMARK SMILES IDX 21 34 22 35 26 36 23 38 25 39 24 40 36 41 37 42 38 43 39 44
REMARK SMILES IDX 40 45 41 46 42 47 43 48 44 49 45 50 46 51 110 52 47 53
REMARK SMILES IDX 109 54 48 55 49 56 50 57 103 58 51 59 108 60 102 61 104 62
REMARK SMILES IDX 52 63 107 64 101 65 100 66 53 68 87 69 66 70 86 71 67 72
REMARK SMILES IDX 70 73 85 74 105 75 68 76 69 77 84 79 106 80 71 81 54 82
REMARK SMILES IDX 55 83 64 84 56 85 57 86 63 87 65 88 58 89 59 90 60 91 61 92
REMARK SMILES IDX 62 93 88 94 89 95 98 96 90 97 91 98 97 99 99 100 92 101
REMARK SMILES IDX 93 102 94 103 95 104 96 105 72 106 73 107 82 108 74 109
REMARK SMILES IDX 75 110 81 111 83 112 76 113 77 114 78 115 79 116 80 117
REMARK H PARENT 16 13 21 37 104 67 70 78
REMARK Flexibility Score: inf
ROOT
ATOM      1  C   UNL     1      -1.318  -2.341  -7.071  1.00  0.00     0.188 C 
ENDROOT
BRANCH   1   2
ATOM      2  C   UNL     1      -0.086  -3.250  -7.038  1.00  0.00     0.188 C 
BRANCH   2   3
ATOM      3  O   UNL     1       0.389  -3.812  -8.250  1.00  0.00    -0.376 OA
BRANCH   3   4
ATOM      4  C   UNL     1      -0.348  -4.867  -8.872  1.00  0.00     0.202 C 
BRANCH   4   5
ATOM      5  C   UNL     1      -1.125  -5.875  -8.018  1.00  0.00     0.261 C 
BRANCH   5   6
ATOM      6  O   UNL     1      -2.150  -5.249  -7.224  1.00  0.00    -0.462 OA
BRANCH   6   7
ATOM      7  C   UNL     1      -2.280  -5.748  -5.978  1.00  0.00     0.329 C 
ATOM      8  O   UNL     1      -1.702  -6.760  -5.585  1.00  0.00    -0.250 OA
BRANCH   7   9
ATOM      9  C   UNL     1      -3.166  -4.931  -5.031  1.00  0.00     0.196 C 
BRANCH   9  10
ATOM     10  N   UNL     1      -3.547  -3.533  -5.179  1.00  0.00    -0.342 N 
ATOM     11  C   UNL     1      -3.597  -2.575  -4.195  1.00  0.00     0.221 C 
ATOM     12  O   UNL     1      -4.473  -1.711  -4.214  1.00  0.00    -0.275 OA
ATOM     13  H   UNL     1      -3.796  -3.241  -6.086  1.00  0.00     0.164 HD
BRANCH  11  14
ATOM     14  C   UNL     1      -2.418  -2.449  -3.232  1.00  0.00     0.116 C 
BRANCH  14  15
ATOM     15  C   UNL     1      -2.478  -3.158  -1.862  1.00  0.00     0.116 C 
ATOM     16  C   UNL     1       1.009  -1.927  -0.954  1.00  0.00     0.126 A 
ATOM     17  C   UNL     1       2.241  -2.060  -1.616  1.00  0.00     0.050 A 
ATOM     18  C   UNL     1      -0.074  -2.742  -1.300  1.00  0.00     0.041 A 
ATOM     19  C   UNL     1       2.417  -3.006  -2.637  1.00  0.00    -0.044 A 
ATOM     20  C   UNL     1       0.183  -3.785  -2.201  1.00  0.00     0.138 A 
ATOM     21  C   UNL     1      -1.501  -2.592  -0.788  1.00  0.00     0.038 C 
ATOM     22  C   UNL     1       3.725  -3.110  -3.364  1.00  0.00     0.044 C 
ATOM     23  C   UNL     1       1.386  -3.908  -2.894  1.00  0.00     0.051 A 
ATOM     24  O   UNL     1      -0.771  -4.800  -2.416  1.00  0.00    -0.426 OA
ATOM     25  C   UNL     1      -1.936  -1.182  -0.374  1.00  0.00     0.014 C 
ATOM     26  C   UNL     1      -2.070  -4.603  -1.966  1.00  0.00     0.315 C 
ATOM     27  O   UNL     1      -2.839  -5.534  -1.761  1.00  0.00    -0.251 OA
BRANCH  16  28
ATOM     28  O   UNL     1       0.869  -1.103   0.130  1.00  0.00    -0.496 OA
ATOM     29  C   UNL     1       1.322   0.228  -0.085  1.00  0.00     0.278 C 
ENDBRANCH  16  28
ENDBRANCH  14  15
ENDBRANCH  11  14
ENDBRANCH   9  10
BRANCH   9  30
ATOM     30  C   UNL     1      -4.367  -5.770  -4.622  1.00  0.00     0.074 C 
BRANCH  30  31
ATOM     31  C   UNL     1      -5.612  -5.863  -5.470  1.00  0.00    -0.020 A 
ATOM     32  C   UNL     1      -6.271  -7.056  -5.726  1.00  0.00     0.087 A 
ATOM     33  C   UNL     1      -6.617  -4.903  -5.854  1.00  0.00     0.003 A 
ATOM     34  N   UNL     1      -7.498  -6.805  -5.168  1.00  0.00    -0.361 N 
ATOM     35  C   UNL     1      -7.836  -5.547  -5.598  1.00  0.00     0.046 A 
ATOM     36  C   UNL     1      -6.692  -3.579  -6.331  1.00  0.00     0.010 A 
ATOM     37  H   UNL     1      -8.024  -7.399  -4.584  1.00  0.00     0.166 HD
ATOM     38  C   UNL     1      -9.091  -4.955  -5.749  1.00  0.00     0.026 A 
ATOM     39  C   UNL     1      -7.945  -2.987  -6.560  1.00  0.00     0.001 A 
ATOM     40  C   UNL     1      -9.123  -3.662  -6.261  1.00  0.00     0.002 A 
ENDBRANCH  30  31
ENDBRANCH   9  30
ENDBRANCH   7   9
ENDBRANCH   6   7
ENDBRANCH   5   6
ENDBRANCH   4   5
ENDBRANCH   3   4
ENDBRANCH   2   3
ENDBRANCH   1   2
BRANCH   1  41
ATOM     41  O   UNL     1      -2.415  -2.773  -7.848  1.00  0.00    -0.377 OA
BRANCH  41  42
ATOM     42  C   UNL     1      -2.520  -2.387  -9.213  1.00  0.00     0.188 C 
BRANCH  42  43
ATOM     43  C   UNL     1      -1.401  -1.572  -9.889  1.00  0.00     0.188 C 
BRANCH  43  44
ATOM     44  O   UNL     1      -0.867  -0.515  -9.108  1.00  0.00    -0.376 OA
BRANCH  44  45
ATOM     45  C   UNL     1      -1.469   0.769  -9.179  1.00  0.00     0.202 C 
BRANCH  45  46
ATOM     46  C   UNL     1      -2.937   0.893  -8.744  1.00  0.00     0.261 C 
BRANCH  46  47
ATOM     47  O   UNL     1      -3.921   0.258  -9.578  1.00  0.00    -0.460 OA
BRANCH  47  48
ATOM     48  C   UNL     1      -3.877   0.419 -10.916  1.00  0.00     0.338 C 
ATOM     49  O   UNL     1      -3.140   1.157 -11.551  1.00  0.00    -0.246 OA
BRANCH  48  50
ATOM     50  C   UNL     1      -4.739  -0.627 -11.506  1.00  0.00     0.060 A 
ATOM     51  C   UNL     1      -6.064  -0.771 -11.088  1.00  0.00     0.016 A 
ATOM     52  C   UNL     1      -4.196  -1.503 -12.456  1.00  0.00     0.016 A 
ATOM     53  C   UNL     1      -6.857  -1.775 -11.646  1.00  0.00     0.010 A 
ATOM     54  C   UNL     1      -4.988  -2.516 -13.003  1.00  0.00     0.010 A 
ATOM     55  C   UNL     1      -6.332  -2.643 -12.619  1.00  0.00    -0.014 A 
BRANCH  55  56
ATOM     56  C   UNL     1      -7.239  -3.550 -13.364  1.00  0.00     0.031 A 
ATOM     57  C   UNL     1      -7.343  -5.013 -13.048  1.00  0.00     0.074 A 
ATOM     58  C   UNL     1      -7.971  -3.017 -14.361  1.00  0.00     0.049 A 
ATOM     59  N   UNL     1      -8.122  -5.912 -13.593  1.00  0.00    -0.248 NA
ATOM     60  C   UNL     1      -6.460  -5.540 -11.997  1.00  0.00     0.031 C 
ATOM     61  C   UNL     1      -7.920  -1.612 -14.778  1.00  0.00     0.029 A 
ATOM     62  N   UNL     1      -8.893  -3.580 -15.204  1.00  0.00    -0.354 N 
ATOM     63  C   UNL     1      -7.843  -7.108 -12.944  1.00  0.00     0.074 A 
ATOM     64  C   UNL     1      -6.791  -6.827 -11.988  1.00  0.00     0.031 C 
ATOM     65  C   UNL     1      -8.777  -1.425 -15.793  1.00  0.00     0.029 A 
ATOM     66  C   UNL     1      -9.422  -2.694 -16.112  1.00  0.00     0.049 A 
ATOM     67  H   UNL     1      -9.152  -4.529 -15.163  1.00  0.00     0.167 HD
ATOM     68  C   UNL     1      -8.425  -8.318 -13.125  1.00  0.00     0.037 A 
ATOM     69  C   UNL     1     -10.322  -2.881 -17.096  1.00  0.00     0.037 A 
ATOM     70  C   UNL     1      -9.476  -8.584 -14.079  1.00  0.00     0.049 A 
ATOM     71  C   UNL     1     -10.933  -4.242 -17.283  1.00  0.00     0.074 A 
ATOM     72  C   UNL     1     -10.168  -9.767 -14.284  1.00  0.00     0.029 A 
ATOM     73  N   UNL     1      -9.979  -7.669 -14.991  1.00  0.00    -0.354 N 
ATOM     74  N   UNL     1     -10.717  -5.341 -16.602  1.00  0.00    -0.248 NA
ATOM     75  C   UNL     1     -11.917  -4.386 -18.364  1.00  0.00     0.031 C 
ATOM     76  C   UNL     1     -11.051  -9.582 -15.353  1.00  0.00     0.029 A 
ATOM     77  C   UNL     1     -10.948  -8.270 -15.782  1.00  0.00     0.049 A 
ATOM     78  H   UNL     1      -9.691  -6.730 -15.066  1.00  0.00     0.167 HD
ATOM     79  C   UNL     1     -11.546  -6.304 -17.165  1.00  0.00     0.074 A 
ATOM     80  C   UNL     1     -12.290  -5.650 -18.221  1.00  0.00     0.031 C 
ATOM     81  C   UNL     1     -11.675  -7.614 -16.840  1.00  0.00     0.037 A 
BRANCH  68  82
ATOM     82  C   UNL     1      -7.973  -9.469 -12.267  1.00  0.00     0.058 A 
ATOM     83  C   UNL     1      -8.363  -9.572 -10.923  1.00  0.00     0.135 A 
ATOM     84  C   UNL     1      -7.273 -10.549 -12.831  1.00  0.00     0.135 A 
ATOM     85  F   UNL     1      -9.028  -8.566 -10.333  1.00  0.00    -0.206 F 
ATOM     86  C   UNL     1      -8.084 -10.709 -10.171  1.00  0.00     0.059 A 
ATOM     87  C   UNL     1      -7.002 -11.705 -12.103  1.00  0.00     0.059 A 
ATOM     88  F   UNL     1      -6.878 -10.502 -14.113  1.00  0.00    -0.206 F 
ATOM     89  C   UNL     1      -7.416 -11.776 -10.774  1.00  0.00     0.060 A 
BRANCH  89  90
ATOM     90  S   UNL     1      -7.134 -13.272  -9.802  1.00  0.00     0.124 S 
ATOM     91  O   UNL     1      -6.155 -12.806  -8.825  1.00  0.00    -0.237 OA
ATOM     92  O   UNL     1      -8.466 -13.555  -9.277  1.00  0.00    -0.237 OA
ATOM     93  O   UNL     1      -6.633 -14.229 -10.783  1.00  0.00    -0.744 OA
ENDBRANCH  89  90
ENDBRANCH  68  82
BRANCH  69  94
ATOM     94  C   UNL     1     -10.700  -1.749 -17.981  1.00  0.00     0.058 A 
ATOM     95  C   UNL     1     -11.982  -1.185 -17.928  1.00  0.00     0.135 A 
ATOM     96  C   UNL     1      -9.785  -1.214 -18.902  1.00  0.00     0.135 A 
ATOM     97  F   UNL     1     -12.891  -1.664 -17.065  1.00  0.00    -0.206 F 
ATOM     98  C   UNL     1     -12.356  -0.150 -18.778  1.00  0.00     0.059 A 
ATOM     99  C   UNL     1     -10.127  -0.160 -19.742  1.00  0.00     0.059 A 
ATOM    100  F   UNL     1      -8.539  -1.706 -18.976  1.00  0.00    -0.206 F 
ATOM    101  C   UNL     1     -11.421   0.354 -19.683  1.00  0.00     0.060 A 
BRANCH 101 102
ATOM    102  S   UNL     1     -11.913   1.709 -20.771  1.00  0.00     0.124 S 
ATOM    103  O   UNL     1     -12.813   1.029 -21.695  1.00  0.00    -0.237 OA
ATOM    104  O   UNL     1     -12.539   2.639 -19.836  1.00  0.00    -0.237 OA
ATOM    105  O   UNL     1     -10.646   2.160 -21.339  1.00  0.00    -0.744 OA
ENDBRANCH 101 102
ENDBRANCH  69  94
BRANCH  81 106
ATOM    106  C   UNL     1     -12.657  -8.429 -17.638  1.00  0.00     0.058 A 
ATOM    107  C   UNL     1     -12.401  -8.782 -18.973  1.00  0.00     0.135 A 
ATOM    108  C   UNL     1     -13.849  -8.890 -17.056  1.00  0.00     0.135 A 
ATOM    109  F   UNL     1     -11.279  -8.361 -19.579  1.00  0.00    -0.206 F 
ATOM    110  C   UNL     1     -13.305  -9.538 -19.712  1.00  0.00     0.059 A 
ATOM    111  C   UNL     1     -14.754  -9.672 -17.768  1.00  0.00     0.059 A 
ATOM    112  F   UNL     1     -14.140  -8.590 -15.781  1.00  0.00    -0.206 F 
ATOM    113  C   UNL     1     -14.479  -9.979 -19.100  1.00  0.00     0.060 A 
BRANCH 113 114
ATOM    114  S   UNL     1     -15.634 -10.973 -20.068  1.00  0.00     0.124 S 
ATOM    115  O   UNL     1     -16.186  -9.978 -20.982  1.00  0.00    -0.237 OA
ATOM    116  O   UNL     1     -14.756 -11.970 -20.673  1.00  0.00    -0.237 OA
ATOM    117  O   UNL     1     -16.563 -11.489 -19.067  1.00  0.00    -0.744 OA
ENDBRANCH 113 114
ENDBRANCH  81 106
ENDBRANCH  55  56
ENDBRANCH  48  50
ENDBRANCH  47  48
ENDBRANCH  46  47
ENDBRANCH  45  46
ENDBRANCH  44  45
ENDBRANCH  43  44
ENDBRANCH  42  43
ENDBRANCH  41  42
ENDBRANCH   1  41
TORSDOF 29
