REMARK SMILES C[C@@H](C(=O)OCCOCCOCCOCCOC(=O)c1ccc(-c2c3nc(c(-c4c(F)cc(S(=O)(=O)[O-])cc4F)c4ccc([nH]4)c(-c4c(F)cc(S(=O)(=O)[O-])cc4F)c4nc(c(-c5c(F)cc(S(=O)(=O)[O-])cc5F)c5ccc2[nH]5)C=C4)C=C3)cc1)[N@@H+]1CCc2n[nH]c(C(c3ccccc3)c3ccccc3)c2C1
REMARK SMILES IDX 11 1 10 2 9 3 8 4 7 5 6 6 5 7 3 8 4 9 2 10 1 11 86 12 87 13
REMARK SMILES IDX 107 14 88 16 106 17 89 18 92 19 90 20 91 21 93 23 94 24
REMARK SMILES IDX 95 25 99 26 96 27 98 28 97 29 100 30 101 31 105 32 102 33
REMARK SMILES IDX 104 34 103 35 12 36 13 37 14 38 15 39 16 40 17 41 18 42
REMARK SMILES IDX 19 43 20 44 21 45 85 46 22 47 84 48 23 49 24 50 25 51 78 52
REMARK SMILES IDX 26 53 83 54 77 55 79 56 27 57 82 58 76 59 75 60 28 62 62 63
REMARK SMILES IDX 41 64 61 65 42 66 45 67 60 68 80 69 43 70 44 71 59 73 81 74
REMARK SMILES IDX 46 75 29 76 30 77 39 78 31 79 32 80 38 81 40 82 33 83 34 84
REMARK SMILES IDX 35 85 36 86 37 87 63 88 64 89 73 90 65 91 66 92 72 93 74 94
REMARK SMILES IDX 67 95 68 96 69 97 70 98 71 99 47 100 48 101 57 102 49 103
REMARK SMILES IDX 50 104 56 105 58 106 51 107 52 108 53 109 54 110 55 111
REMARK H PARENT 86 15 91 22 79 61 45 72
REMARK Flexibility Score: inf
ROOT
ATOM      1  O   UNL     1       1.996   4.415   1.335  1.00  0.00    -0.377 OA
ENDROOT
BRANCH   1   2
ATOM      2  C   UNL     1       0.667   4.291   1.848  1.00  0.00     0.188 C 
BRANCH   2   3
ATOM      3  C   UNL     1       0.551   4.159   3.378  1.00  0.00     0.188 C 
BRANCH   3   4
ATOM      4  O   UNL     1       0.579   2.827   3.906  1.00  0.00    -0.376 OA
BRANCH   4   5
ATOM      5  C   UNL     1       1.845   2.295   4.334  1.00  0.00     0.202 C 
BRANCH   5   6
ATOM      6  C   UNL     1       1.683   0.857   4.991  1.00  0.00     0.261 C 
BRANCH   6   7
ATOM      7  O   UNL     1       1.443  -0.196   3.989  1.00  0.00    -0.459 OA
BRANCH   7   8
ATOM      8  C   UNL     1       0.594  -1.262   4.183  1.00  0.00     0.364 C 
ATOM      9  O   UNL     1       0.354  -1.723   5.296  1.00  0.00    -0.245 OA
BRANCH   8  10
ATOM     10  C   UNL     1      -0.239  -1.705   2.839  1.00  0.00     0.292 C 
ATOM     11  C   UNL     1       0.479  -2.481   1.728  1.00  0.00     0.088 C 
BRANCH  10  12
ATOM     12  N   UNL     1      -1.120  -0.588   2.347  1.00  0.00    -0.319 N 
ATOM     13  C   UNL     1      -1.656  -0.591   0.949  1.00  0.00     0.269 C 
ATOM     14  C   UNL     1      -0.426   0.665   2.580  1.00  0.00     0.303 C 
ATOM     15  H   UNL     1      -1.973  -0.732   2.888  1.00  0.00     0.349 HD
ATOM     16  C   UNL     1      -1.276   0.647   0.034  1.00  0.00     0.120 C 
ATOM     17  C   UNL     1       0.700   0.798   1.584  1.00  0.00     0.052 A 
ATOM     18  C   UNL     1       0.151   0.984   0.286  1.00  0.00     0.077 A 
ATOM     19  C   UNL     1       2.069   0.601   1.280  1.00  0.00     0.056 A 
ATOM     20  N   UNL     1       1.033   1.501  -0.555  1.00  0.00    -0.180 NA
ATOM     21  N   UNL     1       2.115   1.556   0.252  1.00  0.00    -0.281 N 
ATOM     22  H   UNL     1       2.853   2.196   0.133  1.00  0.00     0.190 HD
BRANCH  19  23
ATOM     23  C   UNL     1       3.472  -0.125   1.589  1.00  0.00     0.098 C 
BRANCH  23  24
ATOM     24  C   UNL     1       3.849  -0.846   2.925  1.00  0.00    -0.035 A 
ATOM     25  C   UNL     1       4.766  -0.259   3.822  1.00  0.00     0.005 A 
ATOM     26  C   UNL     1       3.435  -2.144   3.285  1.00  0.00     0.005 A 
ATOM     27  C   UNL     1       5.173  -0.903   5.012  1.00  0.00     0.000 A 
ATOM     28  C   UNL     1       3.816  -2.789   4.475  1.00  0.00     0.000 A 
ATOM     29  C   UNL     1       4.682  -2.159   5.349  1.00  0.00     0.000 A 
ENDBRANCH  23  24
BRANCH  23  30
ATOM     30  C   UNL     1       3.945  -0.896   0.296  1.00  0.00    -0.035 A 
ATOM     31  C   UNL     1       4.062  -2.291   0.175  1.00  0.00     0.005 A 
ATOM     32  C   UNL     1       4.207  -0.161  -0.879  1.00  0.00     0.005 A 
ATOM     33  C   UNL     1       4.294  -2.911  -1.062  1.00  0.00     0.000 A 
ATOM     34  C   UNL     1       4.383  -0.771  -2.123  1.00  0.00     0.000 A 
ATOM     35  C   UNL     1       4.411  -2.152  -2.218  1.00  0.00     0.000 A 
ENDBRANCH  23  30
ENDBRANCH  19  23
ENDBRANCH  10  12
ENDBRANCH   8  10
ENDBRANCH   7   8
ENDBRANCH   6   7
ENDBRANCH   5   6
ENDBRANCH   4   5
ENDBRANCH   3   4
ENDBRANCH   2   3
ENDBRANCH   1   2
BRANCH   1  36
ATOM     36  C   UNL     1       2.646   5.652   1.616  1.00  0.00     0.188 C 
BRANCH  36  37
ATOM     37  C   UNL     1       2.119   6.933   0.930  1.00  0.00     0.188 C 
BRANCH  37  38
ATOM     38  O   UNL     1       0.833   6.821   0.337  1.00  0.00    -0.376 OA
BRANCH  38  39
ATOM     39  C   UNL     1       0.807   6.989  -1.083  1.00  0.00     0.202 C 
BRANCH  39  40
ATOM     40  C   UNL     1       1.351   5.790  -1.873  1.00  0.00     0.261 C 
BRANCH  40  41
ATOM     41  O   UNL     1       2.745   5.514  -1.657  1.00  0.00    -0.460 OA
BRANCH  41  42
ATOM     42  C   UNL     1       3.615   6.446  -2.111  1.00  0.00     0.338 C 
ATOM     43  O   UNL     1       3.366   7.497  -2.651  1.00  0.00    -0.246 OA
BRANCH  42  44
ATOM     44  C   UNL     1       4.959   6.004  -1.705  1.00  0.00     0.060 A 
ATOM     45  C   UNL     1       5.582   6.634  -0.622  1.00  0.00     0.016 A 
ATOM     46  C   UNL     1       5.609   5.005  -2.432  1.00  0.00     0.016 A 
ATOM     47  C   UNL     1       6.880   6.276  -0.272  1.00  0.00     0.010 A 
ATOM     48  C   UNL     1       6.922   4.671  -2.102  1.00  0.00     0.010 A 
ATOM     49  C   UNL     1       7.571   5.333  -1.045  1.00  0.00    -0.014 A 
BRANCH  49  50
ATOM     50  C   UNL     1       9.042   5.256  -0.915  1.00  0.00     0.031 A 
ATOM     51  C   UNL     1       9.860   6.228  -1.721  1.00  0.00     0.074 A 
ATOM     52  C   UNL     1       9.630   4.381  -0.083  1.00  0.00     0.049 A 
ATOM     53  N   UNL     1      11.155   6.384  -1.767  1.00  0.00    -0.248 NA
ATOM     54  C   UNL     1       9.110   7.159  -2.584  1.00  0.00     0.031 C 
ATOM     55  C   UNL     1       8.932   3.427   0.777  1.00  0.00     0.029 A 
ATOM     56  N   UNL     1      10.959   4.156   0.170  1.00  0.00    -0.354 N 
ATOM     57  C   UNL     1      11.375   7.433  -2.652  1.00  0.00     0.074 A 
ATOM     58  C   UNL     1      10.084   7.864  -3.137  1.00  0.00     0.031 C 
ATOM     59  C   UNL     1       9.844   2.707   1.456  1.00  0.00     0.029 A 
ATOM     60  C   UNL     1      11.186   3.134   1.060  1.00  0.00     0.049 A 
ATOM     61  H   UNL     1      11.682   4.678  -0.246  1.00  0.00     0.167 HD
ATOM     62  C   UNL     1      12.550   7.989  -3.026  1.00  0.00     0.037 A 
ATOM     63  C   UNL     1      12.348   2.600   1.486  1.00  0.00     0.037 A 
ATOM     64  C   UNL     1      13.832   7.532  -2.567  1.00  0.00     0.049 A 
ATOM     65  C   UNL     1      13.648   3.177   0.982  1.00  0.00     0.074 A 
ATOM     66  C   UNL     1      15.085   8.020  -2.887  1.00  0.00     0.029 A 
ATOM     67  N   UNL     1      14.024   6.463  -1.703  1.00  0.00    -0.354 N 
ATOM     68  N   UNL     1      13.843   4.192   0.173  1.00  0.00    -0.248 NA
ATOM     69  C   UNL     1      14.886   2.536   1.449  1.00  0.00     0.031 C 
ATOM     70  C   UNL     1      16.038   7.213  -2.256  1.00  0.00     0.029 A 
ATOM     71  C   UNL     1      15.376   6.258  -1.500  1.00  0.00     0.049 A 
ATOM     72  H   UNL     1      13.303   5.931  -1.294  1.00  0.00     0.167 HD
ATOM     73  C   UNL     1      15.224   4.330   0.059  1.00  0.00     0.074 A 
ATOM     74  C   UNL     1      15.814   3.299   0.887  1.00  0.00     0.031 C 
ATOM     75  C   UNL     1      15.940   5.230  -0.661  1.00  0.00     0.037 A 
BRANCH  62  76
ATOM     76  C   UNL     1      12.494   9.121  -4.010  1.00  0.00     0.058 A 
ATOM     77  C   UNL     1      12.041  10.398  -3.640  1.00  0.00     0.135 A 
ATOM     78  C   UNL     1      12.904   8.928  -5.338  1.00  0.00     0.135 A 
ATOM     79  F   UNL     1      11.611  10.627  -2.389  1.00  0.00    -0.206 F 
ATOM     80  C   UNL     1      11.980  11.440  -4.559  1.00  0.00     0.059 A 
ATOM     81  C   UNL     1      12.874   9.962  -6.268  1.00  0.00     0.059 A 
ATOM     82  F   UNL     1      13.332   7.723  -5.744  1.00  0.00    -0.206 F 
ATOM     83  C   UNL     1      12.398  11.212  -5.871  1.00  0.00     0.060 A 
BRANCH  83  84
ATOM     84  S   UNL     1      12.318  12.575  -7.052  1.00  0.00     0.124 S 
ATOM     85  O   UNL     1      10.880  12.671  -7.288  1.00  0.00    -0.237 OA
ATOM     86  O   UNL     1      12.911  13.675  -6.299  1.00  0.00    -0.237 OA
ATOM     87  O   UNL     1      13.108  12.094  -8.181  1.00  0.00    -0.744 OA
ENDBRANCH  83  84
ENDBRANCH  62  76
BRANCH  63  88
ATOM     88  C   UNL     1      12.343   1.451   2.430  1.00  0.00     0.058 A 
ATOM     89  C   UNL     1      12.799   1.592   3.749  1.00  0.00     0.135 A 
ATOM     90  C   UNL     1      11.897   0.182   2.026  1.00  0.00     0.135 A 
ATOM     91  F   UNL     1      13.245   2.781   4.180  1.00  0.00    -0.206 F 
ATOM     92  C   UNL     1      12.831   0.514   4.628  1.00  0.00     0.059 A 
ATOM     93  C   UNL     1      11.896  -0.905   2.894  1.00  0.00     0.059 A 
ATOM     94  F   UNL     1      11.445  -0.005   0.776  1.00  0.00    -0.206 F 
ATOM     95  C   UNL     1      12.375  -0.731   4.192  1.00  0.00     0.060 A 
BRANCH  95  96
ATOM     96  S   UNL     1      12.384  -2.113   5.355  1.00  0.00     0.124 S 
ATOM     97  O   UNL     1      13.809  -2.412   5.444  1.00  0.00    -0.237 OA
ATOM     98  O   UNL     1      11.781  -1.515   6.543  1.00  0.00    -0.237 OA
ATOM     99  O   UNL     1      11.567  -3.120   4.686  1.00  0.00    -0.744 OA
ENDBRANCH  95  96
ENDBRANCH  63  88
BRANCH  75 100
ATOM    100  C   UNL     1      17.439   5.169  -0.559  1.00  0.00     0.058 A 
ATOM    101  C   UNL     1      18.181   4.155  -1.183  1.00  0.00     0.135 A 
ATOM    102  C   UNL     1      18.143   6.180   0.114  1.00  0.00     0.135 A 
ATOM    103  F   UNL     1      17.555   3.163  -1.836  1.00  0.00    -0.206 F 
ATOM    104  C   UNL     1      19.571   4.135  -1.126  1.00  0.00     0.059 A 
ATOM    105  C   UNL     1      19.533   6.195   0.160  1.00  0.00     0.059 A 
ATOM    106  F   UNL     1      17.480   7.181   0.716  1.00  0.00    -0.206 F 
ATOM    107  C   UNL     1      20.238   5.161  -0.454  1.00  0.00     0.060 A 
BRANCH 107 108
ATOM    108  S   UNL     1      22.043   5.146  -0.421  1.00  0.00     0.124 S 
ATOM    109  O   UNL     1      22.310   4.091   0.550  1.00  0.00    -0.237 OA
ATOM    110  O   UNL     1      22.379   4.833  -1.807  1.00  0.00    -0.237 OA
ATOM    111  O   UNL     1      22.386   6.498   0.010  1.00  0.00    -0.744 OA
ENDBRANCH 107 108
ENDBRANCH  75 100
ENDBRANCH  49  50
ENDBRANCH  42  44
ENDBRANCH  41  42
ENDBRANCH  40  41
ENDBRANCH  39  40
ENDBRANCH  38  39
ENDBRANCH  37  38
ENDBRANCH  36  37
ENDBRANCH   1  36
TORSDOF 27
