REMARK SMILES Cc1ccc(S(=O)(=O)N2CCCC2)cc1C(=O)N[C@H](CC1=c2ccccc2=NC1)C(=O)OCCOCCOCCOCCOC(=O)c1ccc(-c2c3nc(c(-c4c(F)cc(S(=O)(=O)[O-])cc4F)c4ccc([nH]4)c(-c4c(F)cc(S(=O)(=O)[O-])cc4F)c4nc(c(-c5c(F)cc(S(=O)(=O)[O-])cc5F)c5ccc2[nH]5)C=C4)C=C3)cc1
REMARK SMILES IDX 37 1 36 2 35 3 34 4 33 5 32 6 30 7 31 8 19 9 18 10 16 11
REMARK SMILES IDX 17 12 15 14 1 15 2 16 3 17 4 18 14 19 5 20 6 21 7 22 8 23
REMARK SMILES IDX 9 24 10 25 13 26 11 27 12 28 20 29 21 30 22 31 29 32 23 33
REMARK SMILES IDX 27 34 28 35 24 36 26 37 25 38 38 39 39 40 40 41 41 42 42 43
REMARK SMILES IDX 43 44 44 45 45 46 46 47 47 48 48 49 112 50 49 51 111 52
REMARK SMILES IDX 50 53 51 54 52 55 105 56 53 57 110 58 104 59 106 60 54 61
REMARK SMILES IDX 109 62 103 63 102 64 55 66 89 67 68 68 88 69 69 70 72 71
REMARK SMILES IDX 87 72 107 73 70 74 71 75 86 77 108 78 73 79 56 80 57 81
REMARK SMILES IDX 66 82 58 83 59 84 65 85 67 86 60 87 61 88 62 89 63 90 64 91
REMARK SMILES IDX 90 92 91 93 100 94 92 95 93 96 99 97 101 98 94 99 95 100
REMARK SMILES IDX 96 101 97 102 98 103 74 104 75 105 84 106 76 107 77 108
REMARK SMILES IDX 83 109 85 110 78 111 79 112 80 113 81 114 82 115
REMARK H PARENT 18 13 106 65 72 76
REMARK Flexibility Score: inf
ROOT
ATOM      1  C   UNL     1       1.012   3.627   3.091  1.00  0.00     0.188 C 
ENDROOT
BRANCH   1   2
ATOM      2  C   UNL     1       1.815   2.512   3.790  1.00  0.00     0.188 C 
BRANCH   2   3
ATOM      3  O   UNL     1       3.184   2.320   3.556  1.00  0.00    -0.376 OA
BRANCH   3   4
ATOM      4  C   UNL     1       3.946   3.468   3.420  1.00  0.00     0.202 C 
BRANCH   4   5
ATOM      5  C   UNL     1       4.065   3.875   1.963  1.00  0.00     0.261 C 
BRANCH   5   6
ATOM      6  O   UNL     1       3.843   2.951   0.818  1.00  0.00    -0.462 OA
BRANCH   6   7
ATOM      7  C   UNL     1       3.178   1.778   0.708  1.00  0.00     0.329 C 
ATOM      8  O   UNL     1       3.018   0.950   1.594  1.00  0.00    -0.250 OA
BRANCH   7   9
ATOM      9  C   UNL     1       2.547   1.523  -0.701  1.00  0.00     0.196 C 
BRANCH   9  10
ATOM     10  N   UNL     1       3.238   2.066  -1.900  1.00  0.00    -0.338 N 
ATOM     11  C   UNL     1       3.388   3.175  -2.678  1.00  0.00     0.252 C 
ATOM     12  O   UNL     1       4.037   2.941  -3.712  1.00  0.00    -0.269 OA
ATOM     13  H   UNL     1       3.802   1.352  -2.276  1.00  0.00     0.164 HD
BRANCH  11  14
ATOM     14  C   UNL     1       2.894   4.590  -2.521  1.00  0.00     0.044 A 
ATOM     15  C   UNL     1       2.087   4.751  -0.197  1.00  0.00     0.045 C 
ATOM     16  C   UNL     1       1.975   5.152  -1.623  1.00  0.00    -0.038 A 
ATOM     17  C   UNL     1       1.549   6.496  -1.704  1.00  0.00     0.005 A 
ATOM     18  C   UNL     1       2.353   7.399  -2.366  1.00  0.00     0.022 A 
ATOM     19  C   UNL     1       3.654   5.536  -3.227  1.00  0.00     0.035 A 
ATOM     20  C   UNL     1       3.449   6.916  -3.070  1.00  0.00     0.083 A 
BRANCH  20  21
ATOM     21  S   UNL     1       4.697   8.098  -3.517  1.00  0.00     0.243 S 
ATOM     22  O   UNL     1       4.161   8.926  -4.551  1.00  0.00    -0.207 OA
ATOM     23  O   UNL     1       5.192   8.656  -2.258  1.00  0.00    -0.207 OA
BRANCH  21  24
ATOM     24  N   UNL     1       5.920   7.164  -4.158  1.00  0.00    -0.198 NA
ATOM     25  C   UNL     1       5.829   6.673  -5.533  1.00  0.00     0.102 C 
ATOM     26  C   UNL     1       7.325   7.435  -3.817  1.00  0.00     0.102 C 
ATOM     27  C   UNL     1       7.104   5.856  -5.636  1.00  0.00     0.018 C 
ATOM     28  C   UNL     1       8.118   6.753  -4.936  1.00  0.00     0.018 C 
ENDBRANCH  21  24
ENDBRANCH  20  21
ENDBRANCH  11  14
ENDBRANCH   9  10
BRANCH   9  29
ATOM     29  C   UNL     1       0.992   1.575  -0.861  1.00  0.00     0.070 C 
BRANCH  29  30
ATOM     30  C   UNL     1       0.065   1.339   0.303  1.00  0.00    -0.037 C 
ATOM     31  C   UNL     1       0.032   0.369   1.217  1.00  0.00     0.001 A 
ATOM     32  C   UNL     1      -1.044   2.325   0.575  1.00  0.00     0.174 C 
ATOM     33  C   UNL     1       0.743  -0.847   1.451  1.00  0.00     0.010 A 
ATOM     34  C   UNL     1      -0.956   0.869   2.194  1.00  0.00     0.065 A 
ATOM     35  N   UNL     1      -1.615   1.947   1.892  1.00  0.00    -0.280 NA
ATOM     36  C   UNL     1       0.584  -1.478   2.627  1.00  0.00     0.001 A 
ATOM     37  C   UNL     1      -1.042   0.146   3.485  1.00  0.00     0.028 A 
ATOM     38  C   UNL     1      -0.279  -0.944   3.667  1.00  0.00     0.002 A 
ENDBRANCH  29  30
ENDBRANCH   9  29
ENDBRANCH   7   9
ENDBRANCH   6   7
ENDBRANCH   5   6
ENDBRANCH   4   5
ENDBRANCH   3   4
ENDBRANCH   2   3
ENDBRANCH   1   2
BRANCH   1  39
ATOM     39  O   UNL     1       1.424   4.953   2.803  1.00  0.00    -0.377 OA
BRANCH  39  40
ATOM     40  C   UNL     1       1.946   5.905   3.721  1.00  0.00     0.188 C 
BRANCH  40  41
ATOM     41  C   UNL     1       1.537   5.820   5.182  1.00  0.00     0.188 C 
BRANCH  41  42
ATOM     42  O   UNL     1       1.593   4.482   5.635  1.00  0.00    -0.376 OA
BRANCH  42  43
ATOM     43  C   UNL     1       0.602   4.117   6.584  1.00  0.00     0.202 C 
BRANCH  43  44
ATOM     44  C   UNL     1       1.145   4.332   7.988  1.00  0.00     0.261 C 
BRANCH  44  45
ATOM     45  O   UNL     1       2.236   3.408   8.177  1.00  0.00    -0.460 OA
BRANCH  45  46
ATOM     46  C   UNL     1       3.484   3.904   7.934  1.00  0.00     0.338 C 
ATOM     47  O   UNL     1       3.860   5.024   8.236  1.00  0.00    -0.246 OA
BRANCH  46  48
ATOM     48  C   UNL     1       4.287   2.904   7.163  1.00  0.00     0.060 A 
ATOM     49  C   UNL     1       5.595   3.195   6.735  1.00  0.00     0.016 A 
ATOM     50  C   UNL     1       3.680   1.736   6.708  1.00  0.00     0.016 A 
ATOM     51  C   UNL     1       6.272   2.341   5.830  1.00  0.00     0.010 A 
ATOM     52  C   UNL     1       4.325   0.942   5.768  1.00  0.00     0.010 A 
ATOM     53  C   UNL     1       5.627   1.213   5.311  1.00  0.00    -0.014 A 
BRANCH  53  54
ATOM     54  C   UNL     1       6.119   0.353   4.211  1.00  0.00     0.031 A 
ATOM     55  C   UNL     1       6.224  -1.121   4.369  1.00  0.00     0.074 A 
ATOM     56  C   UNL     1       6.271   0.764   2.925  1.00  0.00     0.049 A 
ATOM     57  N   UNL     1       7.030  -1.843   3.651  1.00  0.00    -0.248 NA
ATOM     58  C   UNL     1       5.407  -1.909   5.288  1.00  0.00     0.031 C 
ATOM     59  C   UNL     1       6.099  -0.084   1.742  1.00  0.00     0.029 A 
ATOM     60  N   UNL     1       6.424   2.033   2.370  1.00  0.00    -0.354 N 
ATOM     61  C   UNL     1       6.582  -3.133   3.746  1.00  0.00     0.074 A 
ATOM     62  C   UNL     1       5.666  -3.149   4.868  1.00  0.00     0.031 C 
ATOM     63  C   UNL     1       6.368   0.612   0.633  1.00  0.00     0.029 A 
ATOM     64  C   UNL     1       6.780   1.945   1.026  1.00  0.00     0.049 A 
ATOM     65  H   UNL     1       6.298   2.877   2.862  1.00  0.00     0.167 HD
ATOM     66  C   UNL     1       6.793  -4.049   2.760  1.00  0.00     0.037 A 
ATOM     67  C   UNL     1       7.577   2.766   0.301  1.00  0.00     0.037 A 
ATOM     68  C   UNL     1       7.220  -3.442   1.486  1.00  0.00     0.049 A 
ATOM     69  C   UNL     1       8.607   1.873  -0.292  1.00  0.00     0.074 A 
ATOM     70  C   UNL     1       6.571  -3.303   0.266  1.00  0.00     0.029 A 
ATOM     71  N   UNL     1       8.350  -2.619   1.392  1.00  0.00    -0.354 N 
ATOM     72  N   UNL     1       9.009   0.821   0.372  1.00  0.00    -0.248 NA
ATOM     73  C   UNL     1       9.076   1.914  -1.673  1.00  0.00     0.031 C 
ATOM     74  C   UNL     1       7.353  -2.482  -0.584  1.00  0.00     0.029 A 
ATOM     75  C   UNL     1       8.474  -2.077   0.118  1.00  0.00     0.049 A 
ATOM     76  H   UNL     1       8.976  -2.447   2.133  1.00  0.00     0.167 HD
ATOM     77  C   UNL     1       9.598  -0.025  -0.508  1.00  0.00     0.074 A 
ATOM     78  C   UNL     1       9.681   0.715  -1.764  1.00  0.00     0.031 C 
ATOM     79  C   UNL     1       9.665  -1.367  -0.322  1.00  0.00     0.037 A 
BRANCH  66  80
ATOM     80  C   UNL     1       6.263  -5.463   2.931  1.00  0.00     0.058 A 
ATOM     81  C   UNL     1       5.784  -6.250   1.869  1.00  0.00     0.135 A 
ATOM     82  C   UNL     1       6.236  -6.101   4.196  1.00  0.00     0.135 A 
ATOM     83  F   UNL     1       5.840  -5.834   0.599  1.00  0.00    -0.206 F 
ATOM     84  C   UNL     1       5.224  -7.516   2.058  1.00  0.00     0.059 A 
ATOM     85  C   UNL     1       5.628  -7.338   4.420  1.00  0.00     0.059 A 
ATOM     86  F   UNL     1       6.808  -5.530   5.269  1.00  0.00    -0.206 F 
ATOM     87  C   UNL     1       5.129  -8.045   3.338  1.00  0.00     0.060 A 
BRANCH  87  88
ATOM     88  S   UNL     1       4.380  -9.668   3.564  1.00  0.00     0.124 S 
ATOM     89  O   UNL     1       3.173  -9.573   2.749  1.00  0.00    -0.237 OA
ATOM     90  O   UNL     1       5.425 -10.549   3.055  1.00  0.00    -0.237 OA
ATOM     91  O   UNL     1       4.146  -9.734   5.005  1.00  0.00    -0.744 OA
ENDBRANCH  87  88
ENDBRANCH  66  80
BRANCH  67  92
ATOM     92  C   UNL     1       7.632   4.209   0.624  1.00  0.00     0.058 A 
ATOM     93  C   UNL     1       6.734   5.062  -0.057  1.00  0.00     0.135 A 
ATOM     94  C   UNL     1       8.158   4.676   1.835  1.00  0.00     0.135 A 
ATOM     95  F   UNL     1       6.187   4.664  -1.218  1.00  0.00    -0.206 F 
ATOM     96  C   UNL     1       6.250   6.244   0.515  1.00  0.00     0.059 A 
ATOM     97  C   UNL     1       7.673   5.841   2.437  1.00  0.00     0.059 A 
ATOM     98  F   UNL     1       9.043   3.935   2.516  1.00  0.00    -0.206 F 
ATOM     99  C   UNL     1       6.671   6.581   1.801  1.00  0.00     0.060 A 
BRANCH  99 100
ATOM    100  S   UNL     1       5.704   7.760   2.792  1.00  0.00     0.124 S 
ATOM    101  O   UNL     1       6.558   8.940   2.791  1.00  0.00    -0.237 OA
ATOM    102  O   UNL     1       4.448   7.873   2.054  1.00  0.00    -0.237 OA
ATOM    103  O   UNL     1       5.577   7.059   4.066  1.00  0.00    -0.744 OA
ENDBRANCH  99 100
ENDBRANCH  67  92
BRANCH  79 104
ATOM    104  C   UNL     1      10.970  -2.063  -0.541  1.00  0.00     0.058 A 
ATOM    105  C   UNL     1      12.169  -1.370  -0.800  1.00  0.00     0.135 A 
ATOM    106  C   UNL     1      11.082  -3.454  -0.338  1.00  0.00     0.135 A 
ATOM    107  F   UNL     1      12.198  -0.038  -0.957  1.00  0.00    -0.206 F 
ATOM    108  C   UNL     1      13.390  -2.021  -0.891  1.00  0.00     0.059 A 
ATOM    109  C   UNL     1      12.298  -4.118  -0.393  1.00  0.00     0.059 A 
ATOM    110  F   UNL     1      10.015  -4.218  -0.062  1.00  0.00    -0.206 F 
ATOM    111  C   UNL     1      13.443  -3.396  -0.697  1.00  0.00     0.060 A 
BRANCH 111 112
ATOM    112  S   UNL     1      15.022  -4.232  -0.855  1.00  0.00     0.124 S 
ATOM    113  O   UNL     1      15.145  -4.330  -2.306  1.00  0.00    -0.237 OA
ATOM    114  O   UNL     1      15.940  -3.303  -0.204  1.00  0.00    -0.237 OA
ATOM    115  O   UNL     1      14.810  -5.492  -0.151  1.00  0.00    -0.744 OA
ENDBRANCH 111 112
ENDBRANCH  79 104
ENDBRANCH  53  54
ENDBRANCH  46  48
ENDBRANCH  45  46
ENDBRANCH  44  45
ENDBRANCH  43  44
ENDBRANCH  42  43
ENDBRANCH  41  42
ENDBRANCH  40  41
ENDBRANCH  39  40
ENDBRANCH   1  39
TORSDOF 29
