REMARK SMILES O=C(OCCOCCOCCOCCOC(=O)c1cccc([C@@H]2CCC[N@@H+](Cc3cccc(OCCO)c3)C2)c1)c1ccc(-c2c3nc(c(-c4c(F)cc(S(=O)(=O)[O-])cc4F)c4ccc([nH]4)c(-c4c(F)cc(S(=O)(=O)[O-])cc4F)c4nc(c(-c5c(F)cc(S(=O)(=O)[O-])cc5F)c5ccc2[nH]5)C=C4)C=C3)cc1
REMARK SMILES IDX 11 1 10 2 9 3 8 4 7 5 6 6 5 7 4 8 3 9 2 10 1 11 41 12 42 13
REMARK SMILES IDX 106 14 43 15 105 16 44 17 45 18 46 19 99 20 47 21 104 22
REMARK SMILES IDX 98 23 100 24 48 25 103 26 97 27 96 28 49 30 83 31 62 32
REMARK SMILES IDX 82 33 63 34 66 35 81 36 101 37 64 38 65 39 80 41 102 42
REMARK SMILES IDX 67 43 50 44 51 45 60 46 52 47 53 48 59 49 61 50 54 51 55 52
REMARK SMILES IDX 56 53 57 54 58 55 84 56 85 57 94 58 86 59 87 60 93 61 95 62
REMARK SMILES IDX 88 63 89 64 90 65 91 66 92 67 68 68 69 69 78 70 70 71 71 72
REMARK SMILES IDX 77 73 79 74 72 75 73 76 74 77 75 78 76 79 12 80 13 81 14 82
REMARK SMILES IDX 15 83 16 84 17 85 18 86 19 87 40 88 20 89 22 90 21 91 23 92
REMARK SMILES IDX 24 93 39 94 25 95 27 96 26 97 28 99 29 100 30 101 38 102
REMARK SMILES IDX 31 103 33 104 32 105 34 106 35 107 36 108 37 109
REMARK H PARENT 100 29 66 40 27 98 37 110
REMARK Flexibility Score: inf
ROOT
ATOM      1  C   UNL     1       4.700   2.631  -2.041  1.00  0.00     0.188 C 
ENDROOT
BRANCH   1   2
ATOM      2  C   UNL     1       4.044   1.837  -3.198  1.00  0.00     0.188 C 
BRANCH   2   3
ATOM      3  O   UNL     1       2.633   1.919  -3.383  1.00  0.00    -0.377 OA
BRANCH   3   4
ATOM      4  C   UNL     1       1.825   1.502  -2.284  1.00  0.00     0.188 C 
BRANCH   4   5
ATOM      5  C   UNL     1       2.220   0.156  -1.676  1.00  0.00     0.188 C 
BRANCH   5   6
ATOM      6  O   UNL     1       3.476   0.290  -1.022  1.00  0.00    -0.376 OA
BRANCH   6   7
ATOM      7  C   UNL     1       4.337  -0.838  -0.989  1.00  0.00     0.202 C 
BRANCH   7   8
ATOM      8  C   UNL     1       3.908  -1.945  -0.030  1.00  0.00     0.261 C 
BRANCH   8   9
ATOM      9  O   UNL     1       2.524  -1.875   0.347  1.00  0.00    -0.460 OA
BRANCH   9  10
ATOM     10  C   UNL     1       1.968  -1.167   1.363  1.00  0.00     0.338 C 
ATOM     11  O   UNL     1       0.759  -1.273   1.564  1.00  0.00    -0.246 OA
BRANCH  10  12
ATOM     12  C   UNL     1       2.756  -0.312   2.293  1.00  0.00     0.060 A 
ATOM     13  C   UNL     1       3.799   0.530   1.911  1.00  0.00     0.016 A 
ATOM     14  C   UNL     1       2.353  -0.287   3.635  1.00  0.00     0.016 A 
ATOM     15  C   UNL     1       4.537   1.243   2.839  1.00  0.00     0.010 A 
ATOM     16  C   UNL     1       3.040   0.493   4.571  1.00  0.00     0.010 A 
ATOM     17  C   UNL     1       4.179   1.211   4.180  1.00  0.00    -0.014 A 
BRANCH  17  18
ATOM     18  C   UNL     1       5.132   1.760   5.164  1.00  0.00     0.031 A 
ATOM     19  C   UNL     1       5.855   0.780   6.043  1.00  0.00     0.074 A 
ATOM     20  C   UNL     1       5.448   3.068   5.154  1.00  0.00     0.049 A 
ATOM     21  N   UNL     1       6.659   0.999   7.045  1.00  0.00    -0.248 NA
ATOM     22  C   UNL     1       5.638  -0.650   5.750  1.00  0.00     0.031 C 
ATOM     23  C   UNL     1       4.902   4.065   4.226  1.00  0.00     0.029 A 
ATOM     24  N   UNL     1       6.335   3.779   5.916  1.00  0.00    -0.354 N 
ATOM     25  C   UNL     1       6.984  -0.258   7.543  1.00  0.00     0.074 A 
ATOM     26  C   UNL     1       6.297  -1.236   6.735  1.00  0.00     0.031 C 
ATOM     27  C   UNL     1       5.503   5.246   4.445  1.00  0.00     0.029 A 
ATOM     28  C   UNL     1       6.402   5.112   5.584  1.00  0.00     0.049 A 
ATOM     29  H   UNL     1       6.874   3.374   6.633  1.00  0.00     0.167 HD
ATOM     30  C   UNL     1       7.780  -0.557   8.595  1.00  0.00     0.037 A 
ATOM     31  C   UNL     1       7.089   6.111   6.170  1.00  0.00     0.037 A 
ATOM     32  C   UNL     1       8.479   0.449   9.345  1.00  0.00     0.049 A 
ATOM     33  C   UNL     1       7.918   5.766   7.379  1.00  0.00     0.074 A 
ATOM     34  C   UNL     1       9.276   0.302  10.463  1.00  0.00     0.029 A 
ATOM     35  N   UNL     1       8.468   1.804   9.030  1.00  0.00    -0.354 N 
ATOM     36  N   UNL     1       8.136   4.587   7.919  1.00  0.00    -0.248 NA
ATOM     37  C   UNL     1       8.572   6.879   8.075  1.00  0.00     0.031 C 
ATOM     38  C   UNL     1       9.714   1.575  10.847  1.00  0.00     0.029 A 
ATOM     39  C   UNL     1       9.233   2.508   9.939  1.00  0.00     0.049 A 
ATOM     40  H   UNL     1       7.985   2.203   8.270  1.00  0.00     0.167 HD
ATOM     41  C   UNL     1       8.964   4.814   9.010  1.00  0.00     0.074 A 
ATOM     42  C   UNL     1       9.222   6.242   9.040  1.00  0.00     0.031 C 
ATOM     43  C   UNL     1       9.466   3.932   9.911  1.00  0.00     0.037 A 
BRANCH  30  44
ATOM     44  C   UNL     1       7.843  -1.997   9.021  1.00  0.00     0.058 A 
ATOM     45  C   UNL     1       8.491  -2.984   8.260  1.00  0.00     0.135 A 
ATOM     46  C   UNL     1       7.180  -2.407  10.190  1.00  0.00     0.135 A 
ATOM     47  F   UNL     1       9.109  -2.656   7.114  1.00  0.00    -0.206 F 
ATOM     48  C   UNL     1       8.444  -4.328   8.620  1.00  0.00     0.059 A 
ATOM     49  C   UNL     1       7.143  -3.741  10.584  1.00  0.00     0.059 A 
ATOM     50  F   UNL     1       6.531  -1.509  10.948  1.00  0.00    -0.206 F 
ATOM     51  C   UNL     1       7.760  -4.698   9.780  1.00  0.00     0.060 A 
BRANCH  51  52
ATOM     52  S   UNL     1       7.673  -6.448  10.216  1.00  0.00     0.124 S 
ATOM     53  O   UNL     1       6.717  -6.946   9.232  1.00  0.00    -0.237 OA
ATOM     54  O   UNL     1       9.054  -6.885  10.033  1.00  0.00    -0.237 OA
ATOM     55  O   UNL     1       7.202  -6.431  11.597  1.00  0.00    -0.744 OA
ENDBRANCH  51  52
ENDBRANCH  30  44
BRANCH  31  56
ATOM     56  C   UNL     1       6.981   7.509   5.664  1.00  0.00     0.058 A 
ATOM     57  C   UNL     1       8.088   8.176   5.120  1.00  0.00     0.135 A 
ATOM     58  C   UNL     1       5.763   8.208   5.709  1.00  0.00     0.135 A 
ATOM     59  F   UNL     1       9.279   7.561   5.059  1.00  0.00    -0.206 F 
ATOM     60  C   UNL     1       7.997   9.486   4.651  1.00  0.00     0.059 A 
ATOM     61  C   UNL     1       5.639   9.506   5.220  1.00  0.00     0.059 A 
ATOM     62  F   UNL     1       4.666   7.620   6.212  1.00  0.00    -0.206 F 
ATOM     63  C   UNL     1       6.766  10.142   4.705  1.00  0.00     0.060 A 
BRANCH  63  64
ATOM     64  S   UNL     1       6.647  11.828   4.067  1.00  0.00     0.124 S 
ATOM     65  O   UNL     1       7.343  12.583   5.102  1.00  0.00    -0.237 OA
ATOM     66  O   UNL     1       7.334  11.722   2.784  1.00  0.00    -0.237 OA
ATOM     67  O   UNL     1       5.207  12.055   3.982  1.00  0.00    -0.744 OA
ENDBRANCH  63  64
ENDBRANCH  31  56
BRANCH  43  68
ATOM     68  C   UNL     1      10.374   4.490  10.966  1.00  0.00     0.058 A 
ATOM     69  C   UNL     1       9.878   5.236  12.045  1.00  0.00     0.135 A 
ATOM     70  C   UNL     1      11.751   4.225  10.918  1.00  0.00     0.135 A 
ATOM     71  F   UNL     1       8.568   5.518  12.127  1.00  0.00    -0.206 F 
ATOM     72  C   UNL     1      10.724   5.724  13.032  1.00  0.00     0.059 A 
ATOM     73  C   UNL     1      12.611   4.678  11.909  1.00  0.00     0.059 A 
ATOM     74  F   UNL     1      12.267   3.503   9.910  1.00  0.00    -0.206 F 
ATOM     75  C   UNL     1      12.089   5.438  12.956  1.00  0.00     0.060 A 
BRANCH  75  76
ATOM     76  S   UNL     1      13.175   6.048  14.260  1.00  0.00     0.124 S 
ATOM     77  O   UNL     1      13.282   7.461  13.915  1.00  0.00    -0.237 OA
ATOM     78  O   UNL     1      12.414   5.745  15.468  1.00  0.00    -0.237 OA
ATOM     79  O   UNL     1      14.393   5.262  14.082  1.00  0.00    -0.744 OA
ENDBRANCH  75  76
ENDBRANCH  43  68
ENDBRANCH  17  18
ENDBRANCH  10  12
ENDBRANCH   9  10
ENDBRANCH   8   9
ENDBRANCH   7   8
ENDBRANCH   6   7
ENDBRANCH   5   6
ENDBRANCH   4   5
ENDBRANCH   3   4
ENDBRANCH   2   3
ENDBRANCH   1   2
BRANCH   1  80
ATOM     80  O   UNL     1       3.793   3.371  -1.234  1.00  0.00    -0.376 OA
BRANCH  80  81
ATOM     81  C   UNL     1       3.893   4.790  -1.339  1.00  0.00     0.202 C 
BRANCH  81  82
ATOM     82  C   UNL     1       3.313   5.362  -2.635  1.00  0.00     0.261 C 
BRANCH  82  83
ATOM     83  O   UNL     1       3.928   4.859  -3.829  1.00  0.00    -0.460 OA
BRANCH  83  84
ATOM     84  C   UNL     1       5.249   5.066  -4.034  1.00  0.00     0.338 C 
ATOM     85  O   UNL     1       6.010   5.740  -3.364  1.00  0.00    -0.246 OA
BRANCH  84  86
ATOM     86  C   UNL     1       5.655   4.146  -5.122  1.00  0.00     0.060 A 
ATOM     87  C   UNL     1       6.827   3.392  -5.044  1.00  0.00     0.016 A 
ATOM     88  C   UNL     1       4.781   3.950  -6.185  1.00  0.00     0.020 A 
ATOM     89  C   UNL     1       7.095   2.438  -6.032  1.00  0.00     0.001 A 
ATOM     90  C   UNL     1       5.109   3.119  -7.253  1.00  0.00    -0.038 A 
ATOM     91  C   UNL     1       6.252   2.317  -7.143  1.00  0.00     0.004 A 
BRANCH  90  92
ATOM     92  C   UNL     1       4.315   3.207  -8.542  1.00  0.00     0.074 C 
ATOM     93  C   UNL     1       4.440   4.620  -9.149  1.00  0.00     0.020 C 
ATOM     94  C   UNL     1       2.837   2.790  -8.429  1.00  0.00     0.270 C 
ATOM     95  C   UNL     1       3.485   5.643  -8.531  1.00  0.00     0.062 C 
ATOM     96  N   UNL     1       1.934   3.778  -7.820  1.00  0.00    -0.331 N 
ATOM     97  C   UNL     1       2.054   5.115  -8.416  1.00  0.00     0.262 C 
ATOM     98  H   UNL     1       2.248   3.877  -6.854  1.00  0.00     0.348 HD
BRANCH  96  99
ATOM     99  C   UNL     1       0.527   3.306  -7.753  1.00  0.00     0.299 C 
BRANCH  99 100
ATOM    100  C   UNL     1      -0.240   3.405  -9.065  1.00  0.00     0.010 A 
ATOM    101  C   UNL     1      -1.131   4.463  -9.293  1.00  0.00     0.010 A 
ATOM    102  C   UNL     1       0.068   2.537 -10.125  1.00  0.00     0.056 A 
ATOM    103  C   UNL     1      -1.627   4.692 -10.576  1.00  0.00     0.004 A 
ATOM    104  C   UNL     1      -0.329   2.828 -11.427  1.00  0.00     0.119 A 
ATOM    105  C   UNL     1      -1.202   3.895 -11.642  1.00  0.00     0.046 A 
BRANCH 104 106
ATOM    106  O   UNL     1       0.111   2.191 -12.556  1.00  0.00    -0.491 OA
BRANCH 106 107
ATOM    107  C   UNL     1       1.298   1.387 -12.482  1.00  0.00     0.257 C 
BRANCH 107 108
ATOM    108  C   UNL     1       2.568   2.188 -12.788  1.00  0.00     0.197 C 
BRANCH 108 109
ATOM    109  O   UNL     1       2.804   3.229 -11.851  1.00  0.00    -0.393 OA
ATOM    110  H   UNL     1       2.068   3.861 -11.879  1.00  0.00     0.210 HD
ENDBRANCH 108 109
ENDBRANCH 107 108
ENDBRANCH 106 107
ENDBRANCH 104 106
ENDBRANCH  99 100
ENDBRANCH  96  99
ENDBRANCH  90  92
ENDBRANCH  84  86
ENDBRANCH  83  84
ENDBRANCH  82  83
ENDBRANCH  81  82
ENDBRANCH  80  81
ENDBRANCH   1  80
TORSDOF 30
