REMARK SMILES Cc1c(C(=O)Nc2ccc(C(=O)Nc3ccccc3C(=O)OCCOCCOCCOCCOC(=O)c3ccc(-c4c5nc(c(-c6c(F)cc(S(=O)(=O)[O-])cc6F)c6ccc([nH]6)c(-c6c(F)cc(S(=O)(=O)[O-])cc6F)c6nc(c(-c7c(F)cc(S(=O)(=O)[O-])cc7F)c7ccc4[nH]7)C=C6)C=C5)cc3)cc2)cccc1[N+](=O)[O-]
REMARK SMILES IDX 27 1 26 2 25 3 24 4 23 5 22 6 20 7 21 8 19 9 14 10 15 11
REMARK SMILES IDX 16 12 18 13 17 14 13 15 11 16 12 17 10 19 7 20 8 21 104 22
REMARK SMILES IDX 9 23 103 24 6 25 4 26 5 27 3 29 1 30 2 31 108 32 105 33
REMARK SMILES IDX 107 34 106 35 109 36 110 37 111 38 28 39 29 40 30 41 31 42
REMARK SMILES IDX 32 43 33 44 34 45 35 46 36 47 37 48 38 49 102 50 39 51
REMARK SMILES IDX 101 52 40 53 41 54 42 55 95 56 43 57 100 58 94 59 96 60
REMARK SMILES IDX 44 61 99 62 93 63 92 64 45 66 79 67 58 68 78 69 59 70 62 71
REMARK SMILES IDX 77 72 97 73 60 74 61 75 76 77 98 78 63 79 46 80 47 81 56 82
REMARK SMILES IDX 48 83 49 84 55 85 57 86 50 87 51 88 52 89 53 90 54 91 80 92
REMARK SMILES IDX 81 93 90 94 82 95 83 96 89 97 91 98 84 99 85 100 86 101
REMARK SMILES IDX 87 102 88 103 64 104 65 105 74 106 66 107 67 108 73 109
REMARK SMILES IDX 75 110 68 111 69 112 70 113 71 114 72 115
REMARK H PARENT 13 18 6 28 96 65 62 76
REMARK Flexibility Score: inf
ROOT
ATOM      1  C   UNL     1       5.194   0.210  -0.349  1.00  0.00     0.188 C 
ENDROOT
BRANCH   1   2
ATOM      2  C   UNL     1       5.687   1.597   0.093  1.00  0.00     0.188 C 
BRANCH   2   3
ATOM      3  O   UNL     1       6.938   1.894   0.619  1.00  0.00    -0.376 OA
BRANCH   3   4
ATOM      4  C   UNL     1       7.122   1.509   1.951  1.00  0.00     0.202 C 
BRANCH   4   5
ATOM      5  C   UNL     1       6.325   1.993   3.174  1.00  0.00     0.261 C 
BRANCH   5   6
ATOM      6  O   UNL     1       4.999   2.445   3.010  1.00  0.00    -0.460 OA
BRANCH   6   7
ATOM      7  C   UNL     1       5.007   3.780   2.867  1.00  0.00     0.340 C 
ATOM      8  O   UNL     1       5.954   4.531   2.611  1.00  0.00    -0.246 OA
BRANCH   7   9
ATOM      9  C   UNL     1       3.655   4.271   2.916  1.00  0.00     0.083 A 
ATOM     10  C   UNL     1       3.172   4.890   1.762  1.00  0.00     0.056 A 
ATOM     11  C   UNL     1       1.893   5.426   1.753  1.00  0.00     0.027 A 
ATOM     12  C   UNL     1       1.055   5.209   2.848  1.00  0.00     0.002 A 
ATOM     13  C   UNL     1       2.807   3.989   3.992  1.00  0.00     0.018 A 
ATOM     14  C   UNL     1       1.491   4.445   3.939  1.00  0.00     0.001 A 
BRANCH  10  15
ATOM     15  N   UNL     1       3.850   4.733   0.548  1.00  0.00    -0.321 N 
ATOM     16  C   UNL     1       3.499   3.854  -0.467  1.00  0.00     0.255 C 
ATOM     17  O   UNL     1       4.079   3.965  -1.550  1.00  0.00    -0.269 OA
ATOM     18  H   UNL     1       4.646   5.294   0.402  1.00  0.00     0.170 HD
BRANCH  16  19
ATOM     19  C   UNL     1       2.613   2.629  -0.252  1.00  0.00     0.040 A 
ATOM     20  C   UNL     1       1.384   0.063   0.086  1.00  0.00     0.041 A 
ATOM     21  C   UNL     1       1.350   0.978   1.112  1.00  0.00     0.027 A 
ATOM     22  C   UNL     1       2.047   0.410  -1.090  1.00  0.00     0.027 A 
ATOM     23  C   UNL     1       1.946   2.238   0.923  1.00  0.00     0.016 A 
ATOM     24  C   UNL     1       2.639   1.676  -1.272  1.00  0.00     0.016 A 
BRANCH  20  25
ATOM     25  N   UNL     1       0.705  -1.163   0.172  1.00  0.00    -0.322 N 
ATOM     26  C   UNL     1      -0.490  -1.429  -0.477  1.00  0.00     0.256 C 
ATOM     27  O   UNL     1      -0.858  -2.561  -0.768  1.00  0.00    -0.269 OA
ATOM     28  H   UNL     1       1.100  -1.875   0.726  1.00  0.00     0.170 HD
BRANCH  26  29
ATOM     29  C   UNL     1      -1.462  -0.305  -0.592  1.00  0.00     0.049 A 
ATOM     30  C   UNL     1      -0.364   1.030  -2.433  1.00  0.00     0.053 C 
ATOM     31  C   UNL     1      -1.158   0.945  -1.159  1.00  0.00     0.039 A 
ATOM     32  C   UNL     1      -1.784   2.057  -0.581  1.00  0.00     0.273 A 
ATOM     33  C   UNL     1      -2.622  -0.478   0.175  1.00  0.00     0.014 A 
ATOM     34  C   UNL     1      -2.932   1.895   0.212  1.00  0.00     0.086 A 
ATOM     35  C   UNL     1      -3.403   0.619   0.507  1.00  0.00     0.008 A 
BRANCH  32  36
ATOM     36  N   UNL     1      -1.165   3.393  -0.602  1.00  0.00     0.063 N 
ATOM     37  O   UNL     1      -1.346   4.109   0.398  1.00  0.00    -0.258 OA
ATOM     38  O   UNL     1      -0.506   3.736  -1.589  1.00  0.00    -0.258 OA
ENDBRANCH  32  36
ENDBRANCH  26  29
ENDBRANCH  20  25
ENDBRANCH  16  19
ENDBRANCH  10  15
ENDBRANCH   7   9
ENDBRANCH   6   7
ENDBRANCH   5   6
ENDBRANCH   4   5
ENDBRANCH   3   4
ENDBRANCH   2   3
ENDBRANCH   1   2
BRANCH   1  39
ATOM     39  O   UNL     1       5.331  -1.004   0.346  1.00  0.00    -0.377 OA
BRANCH  39  40
ATOM     40  C   UNL     1       4.162  -1.877   0.343  1.00  0.00     0.188 C 
BRANCH  40  41
ATOM     41  C   UNL     1       3.673  -2.391  -1.018  1.00  0.00     0.188 C 
BRANCH  41  42
ATOM     42  O   UNL     1       4.364  -1.708  -2.047  1.00  0.00    -0.376 OA
BRANCH  42  43
ATOM     43  C   UNL     1       3.977  -1.909  -3.387  1.00  0.00     0.202 C 
BRANCH  43  44
ATOM     44  C   UNL     1       3.918  -3.377  -3.784  1.00  0.00     0.261 C 
BRANCH  44  45
ATOM     45  O   UNL     1       5.247  -3.923  -3.626  1.00  0.00    -0.460 OA
BRANCH  45  46
ATOM     46  C   UNL     1       5.367  -4.919  -2.701  1.00  0.00     0.338 C 
ATOM     47  O   UNL     1       4.825  -6.005  -2.812  1.00  0.00    -0.246 OA
BRANCH  46  48
ATOM     48  C   UNL     1       6.175  -4.469  -1.513  1.00  0.00     0.060 A 
ATOM     49  C   UNL     1       6.050  -5.122  -0.273  1.00  0.00     0.016 A 
ATOM     50  C   UNL     1       6.866  -3.266  -1.549  1.00  0.00     0.016 A 
ATOM     51  C   UNL     1       6.511  -4.526   0.935  1.00  0.00     0.010 A 
ATOM     52  C   UNL     1       7.285  -2.675  -0.352  1.00  0.00     0.010 A 
ATOM     53  C   UNL     1       7.095  -3.254   0.929  1.00  0.00    -0.014 A 
BRANCH  53  54
ATOM     54  C   UNL     1       7.320  -2.357   2.147  1.00  0.00     0.031 A 
ATOM     55  C   UNL     1       8.582  -1.429   2.149  1.00  0.00     0.074 A 
ATOM     56  C   UNL     1       6.234  -2.052   2.932  1.00  0.00     0.049 A 
ATOM     57  N   UNL     1       8.951  -0.517   3.017  1.00  0.00    -0.248 NA
ATOM     58  C   UNL     1       9.602  -1.548   1.091  1.00  0.00     0.031 C 
ATOM     59  C   UNL     1       5.509  -0.776   2.962  1.00  0.00     0.029 A 
ATOM     60  N   UNL     1       5.280  -2.845   3.569  1.00  0.00    -0.354 N 
ATOM     61  C   UNL     1       9.982   0.274   2.429  1.00  0.00     0.074 A 
ATOM     62  C   UNL     1      10.397  -0.493   1.288  1.00  0.00     0.031 C 
ATOM     63  C   UNL     1       4.483  -0.738   3.804  1.00  0.00     0.029 A 
ATOM     64  C   UNL     1       4.435  -2.030   4.365  1.00  0.00     0.049 A 
ATOM     65  H   UNL     1       5.205  -3.823   3.481  1.00  0.00     0.167 HD
ATOM     66  C   UNL     1      10.275   1.572   2.827  1.00  0.00     0.037 A 
ATOM     67  C   UNL     1       4.217  -2.196   5.684  1.00  0.00     0.037 A 
ATOM     68  C   UNL     1       9.539   1.975   4.057  1.00  0.00     0.049 A 
ATOM     69  C   UNL     1       5.098  -1.286   6.553  1.00  0.00     0.074 A 
ATOM     70  C   UNL     1       8.919   3.151   4.464  1.00  0.00     0.029 A 
ATOM     71  N   UNL     1       9.197   1.033   5.026  1.00  0.00    -0.354 N 
ATOM     72  N   UNL     1       5.984  -0.405   6.106  1.00  0.00    -0.248 NA
ATOM     73  C   UNL     1       5.057  -1.305   8.015  1.00  0.00     0.031 C 
ATOM     74  C   UNL     1       8.104   2.867   5.596  1.00  0.00     0.029 A 
ATOM     75  C   UNL     1       8.259   1.528   5.909  1.00  0.00     0.049 A 
ATOM     76  H   UNL     1       9.577   0.127   5.074  1.00  0.00     0.167 HD
ATOM     77  C   UNL     1       6.744   0.065   7.169  1.00  0.00     0.074 A 
ATOM     78  C   UNL     1       6.057  -0.467   8.334  1.00  0.00     0.031 C 
ATOM     79  C   UNL     1       7.917   0.785   7.103  1.00  0.00     0.037 A 
BRANCH  66  80
ATOM     80  C   UNL     1      11.012   2.694   1.969  1.00  0.00     0.058 A 
ATOM     81  C   UNL     1      11.314   3.961   2.550  1.00  0.00     0.135 A 
ATOM     82  C   UNL     1      11.318   2.664   0.583  1.00  0.00     0.135 A 
ATOM     83  F   UNL     1      11.203   4.163   3.869  1.00  0.00    -0.206 F 
ATOM     84  C   UNL     1      11.784   5.083   1.841  1.00  0.00     0.059 A 
ATOM     85  C   UNL     1      11.889   3.752  -0.130  1.00  0.00     0.059 A 
ATOM     86  F   UNL     1      11.073   1.588  -0.173  1.00  0.00    -0.206 F 
ATOM     87  C   UNL     1      12.100   4.969   0.501  1.00  0.00     0.060 A 
BRANCH  87  88
ATOM     88  S   UNL     1      12.906   6.365  -0.330  1.00  0.00     0.124 S 
ATOM     89  O   UNL     1      11.806   7.305  -0.520  1.00  0.00    -0.237 OA
ATOM     90  O   UNL     1      13.916   6.771   0.645  1.00  0.00    -0.237 OA
ATOM     91  O   UNL     1      13.442   5.774  -1.554  1.00  0.00    -0.744 OA
ENDBRANCH  87  88
ENDBRANCH  66  80
BRANCH  67  92
ATOM     92  C   UNL     1       3.379  -3.449   5.819  1.00  0.00     0.058 A 
ATOM     93  C   UNL     1       2.059  -3.267   5.306  1.00  0.00     0.135 A 
ATOM     94  C   UNL     1       4.013  -4.648   5.427  1.00  0.00     0.135 A 
ATOM     95  F   UNL     1       1.345  -2.191   5.678  1.00  0.00    -0.206 F 
ATOM     96  C   UNL     1       1.592  -3.981   4.194  1.00  0.00     0.059 A 
ATOM     97  C   UNL     1       3.573  -5.365   4.298  1.00  0.00     0.059 A 
ATOM     98  F   UNL     1       5.241  -4.919   5.897  1.00  0.00    -0.206 F 
ATOM     99  C   UNL     1       2.413  -4.954   3.632  1.00  0.00     0.060 A 
BRANCH  99 100
ATOM    100  S   UNL     1       2.143  -5.383   1.880  1.00  0.00     0.124 S 
ATOM    101  O   UNL     1       0.999  -6.280   1.962  1.00  0.00    -0.237 OA
ATOM    102  O   UNL     1       1.899  -4.068   1.278  1.00  0.00    -0.237 OA
ATOM    103  O   UNL     1       3.412  -5.992   1.498  1.00  0.00    -0.744 OA
ENDBRANCH  99 100
ENDBRANCH  67  92
BRANCH  79 104
ATOM    104  C   UNL     1       8.966   0.890   8.210  1.00  0.00     0.058 A 
ATOM    105  C   UNL     1       9.189  -0.134   9.141  1.00  0.00     0.135 A 
ATOM    106  C   UNL     1       9.953   1.921   8.208  1.00  0.00     0.135 A 
ATOM    107  F   UNL     1       8.421  -1.232   9.167  1.00  0.00    -0.206 F 
ATOM    108  C   UNL     1      10.245  -0.097  10.053  1.00  0.00     0.059 A 
ATOM    109  C   UNL     1      11.054   1.936   9.054  1.00  0.00     0.059 A 
ATOM    110  F   UNL     1       9.906   2.966   7.373  1.00  0.00    -0.206 F 
ATOM    111  C   UNL     1      11.168   0.943  10.004  1.00  0.00     0.060 A 
BRANCH 111 112
ATOM    112  S   UNL     1      12.519   0.991  11.186  1.00  0.00     0.124 S 
ATOM    113  O   UNL     1      11.851   1.556  12.354  1.00  0.00    -0.237 OA
ATOM    114  O   UNL     1      12.898  -0.414  11.292  1.00  0.00    -0.237 OA
ATOM    115  O   UNL     1      13.507   1.854  10.546  1.00  0.00    -0.744 OA
ENDBRANCH 111 112
ENDBRANCH  79 104
ENDBRANCH  53  54
ENDBRANCH  46  48
ENDBRANCH  45  46
ENDBRANCH  44  45
ENDBRANCH  43  44
ENDBRANCH  42  43
ENDBRANCH  41  42
ENDBRANCH  40  41
ENDBRANCH  39  40
ENDBRANCH   1  39
TORSDOF 28
