REMARK SMILES O=C(C[NH+]1CCN(C(=O)c2ccc(F)c(F)c2F)CC1)OCCOCCOCCOCCOC(=O)c1ccc(-c2c3nc(c(-c4c(F)cc(S(=O)(=O)[O-])cc4F)c4ccc([nH]4)c(-c4c(F)cc(S(=O)(=O)[O-])cc4F)c4nc(c(-c5c(F)cc(S(=O)(=O)[O-])cc5F)c5ccc2[nH]5)C=C4)C=C3)cc1
REMARK SMILES IDX 28 1 27 2 26 3 25 4 24 5 23 6 22 7 21 8 2 9 1 10 3 11 4 12
REMARK SMILES IDX 5 13 20 14 6 16 19 17 7 18 8 19 9 20 10 21 11 22 17 23 12 24
REMARK SMILES IDX 15 25 18 26 13 27 16 28 14 29 29 30 30 31 31 32 32 33 33 34
REMARK SMILES IDX 34 35 35 36 36 37 37 38 101 39 38 40 100 41 39 42 40 43
REMARK SMILES IDX 41 44 94 45 42 46 99 47 93 48 95 49 43 50 98 51 92 52 91 53
REMARK SMILES IDX 44 55 78 56 57 57 77 58 58 59 61 60 76 61 96 62 59 63 60 64
REMARK SMILES IDX 75 66 97 67 62 68 45 69 46 70 55 71 47 72 48 73 54 74 56 75
REMARK SMILES IDX 49 76 50 77 51 78 52 79 53 80 79 81 80 82 89 83 81 84 82 85
REMARK SMILES IDX 88 86 90 87 83 88 84 89 85 90 86 91 87 92 63 93 64 94 73 95
REMARK SMILES IDX 65 96 66 97 72 98 74 99 67 100 68 101 69 102 70 103 71 104
REMARK H PARENT 4 15 95 54 61 65
REMARK Flexibility Score: inf
ROOT
ATOM      1  C   UNL     1       3.205  -2.229   3.717  1.00  0.00     0.188 C 
ENDROOT
BRANCH   1   2
ATOM      2  O   UNL     1       1.969  -2.484   3.072  1.00  0.00    -0.377 OA
BRANCH   2   3
ATOM      3  C   UNL     1       1.652  -1.648   1.973  1.00  0.00     0.188 C 
BRANCH   3   4
ATOM      4  C   UNL     1       2.473  -1.940   0.720  1.00  0.00     0.188 C 
BRANCH   4   5
ATOM      5  O   UNL     1       3.788  -1.391   0.612  1.00  0.00    -0.376 OA
BRANCH   5   6
ATOM      6  C   UNL     1       4.113  -0.174   1.263  1.00  0.00     0.202 C 
BRANCH   6   7
ATOM      7  C   UNL     1       3.390   1.098   0.854  1.00  0.00     0.261 C 
BRANCH   7   8
ATOM      8  O   UNL     1       2.106   0.923   0.259  1.00  0.00    -0.459 OA
BRANCH   8   9
ATOM      9  C   UNL     1       1.999   1.067  -1.093  1.00  0.00     0.361 C 
ATOM     10  O   UNL     1       1.023   1.630  -1.582  1.00  0.00    -0.245 OA
BRANCH   9  11
ATOM     11  C   UNL     1       3.053   0.347  -1.933  1.00  0.00     0.386 C 
BRANCH  11  12
ATOM     12  N   UNL     1       4.037   1.149  -2.675  1.00  0.00    -0.323 N 
ATOM     13  C   UNL     1       4.309   2.521  -2.256  1.00  0.00     0.284 C 
ATOM     14  C   UNL     1       5.295   0.417  -2.871  1.00  0.00     0.284 C 
ATOM     15  H   UNL     1       3.539   1.289  -3.555  1.00  0.00     0.348 HD
ATOM     16  C   UNL     1       5.526   2.802  -1.341  1.00  0.00     0.181 C 
ATOM     17  C   UNL     1       6.263   0.405  -1.668  1.00  0.00     0.181 C 
ATOM     18  N   UNL     1       6.337   1.655  -0.902  1.00  0.00    -0.327 N 
ATOM     19  C   UNL     1       7.095   1.850   0.265  1.00  0.00     0.257 C 
ATOM     20  O   UNL     1       6.954   2.850   0.967  1.00  0.00    -0.269 OA
BRANCH  19  21
ATOM     21  C   UNL     1       8.130   0.883   0.700  1.00  0.00     0.079 A 
ATOM     22  C   UNL     1       9.132   0.453  -0.181  1.00  0.00     0.020 A 
ATOM     23  C   UNL     1       8.220   0.544   2.057  1.00  0.00     0.174 A 
ATOM     24  C   UNL     1      10.176  -0.353   0.282  1.00  0.00     0.043 A 
ATOM     25  C   UNL     1       9.278  -0.232   2.520  1.00  0.00     0.195 A 
ATOM     26  F   UNL     1       7.282   0.944   2.929  1.00  0.00    -0.203 F 
ATOM     27  C   UNL     1      10.246  -0.684   1.633  1.00  0.00     0.161 A 
ATOM     28  F   UNL     1       9.366  -0.546   3.821  1.00  0.00    -0.200 F 
ATOM     29  F   UNL     1      11.266  -1.436   2.066  1.00  0.00    -0.204 F 
ENDBRANCH  19  21
ENDBRANCH  11  12
ENDBRANCH   9  11
ENDBRANCH   8   9
ENDBRANCH   7   8
ENDBRANCH   6   7
ENDBRANCH   5   6
ENDBRANCH   4   5
ENDBRANCH   3   4
ENDBRANCH   2   3
ENDBRANCH   1   2
BRANCH   1  30
ATOM     30  C   UNL     1       4.428  -2.980   3.142  1.00  0.00     0.188 C 
BRANCH  30  31
ATOM     31  O   UNL     1       4.336  -4.332   2.700  1.00  0.00    -0.376 OA
BRANCH  31  32
ATOM     32  C   UNL     1       3.187  -5.096   3.013  1.00  0.00     0.202 C 
BRANCH  32  33
ATOM     33  C   UNL     1       3.008  -5.538   4.475  1.00  0.00     0.261 C 
BRANCH  33  34
ATOM     34  O   UNL     1       3.345  -4.551   5.462  1.00  0.00    -0.460 OA
BRANCH  34  35
ATOM     35  C   UNL     1       4.640  -4.544   5.866  1.00  0.00     0.338 C 
ATOM     36  O   UNL     1       5.484  -5.383   5.591  1.00  0.00    -0.246 OA
BRANCH  35  37
ATOM     37  C   UNL     1       4.971  -3.252   6.534  1.00  0.00     0.060 A 
ATOM     38  C   UNL     1       6.228  -2.689   6.262  1.00  0.00     0.016 A 
ATOM     39  C   UNL     1       4.091  -2.592   7.401  1.00  0.00     0.016 A 
ATOM     40  C   UNL     1       6.648  -1.533   6.917  1.00  0.00     0.010 A 
ATOM     41  C   UNL     1       4.522  -1.442   8.082  1.00  0.00     0.010 A 
ATOM     42  C   UNL     1       5.832  -0.958   7.897  1.00  0.00    -0.014 A 
BRANCH  42  43
ATOM     43  C   UNL     1       6.495  -0.151   8.959  1.00  0.00     0.031 A 
ATOM     44  C   UNL     1       6.947  -0.897  10.194  1.00  0.00     0.074 A 
ATOM     45  C   UNL     1       6.786   1.154   8.816  1.00  0.00     0.049 A 
ATOM     46  N   UNL     1       7.581  -0.461  11.251  1.00  0.00    -0.248 NA
ATOM     47  C   UNL     1       6.640  -2.338  10.237  1.00  0.00     0.031 C 
ATOM     48  C   UNL     1       6.468   1.976   7.650  1.00  0.00     0.029 A 
ATOM     49  N   UNL     1       7.433   2.017   9.668  1.00  0.00    -0.354 N 
ATOM     50  C   UNL     1       7.737  -1.568  12.080  1.00  0.00     0.074 A 
ATOM     51  C   UNL     1       7.099  -2.686  11.426  1.00  0.00     0.031 C 
ATOM     52  C   UNL     1       6.919   3.227   7.863  1.00  0.00     0.029 A 
ATOM     53  C   UNL     1       7.541   3.300   9.185  1.00  0.00     0.049 A 
ATOM     54  H   UNL     1       7.787   1.741  10.544  1.00  0.00     0.167 HD
ATOM     55  C   UNL     1       8.368  -1.657  13.273  1.00  0.00     0.037 A 
ATOM     56  C   UNL     1       8.077   4.401   9.751  1.00  0.00     0.037 A 
ATOM     57  C   UNL     1       9.016  -0.550  13.920  1.00  0.00     0.049 A 
ATOM     58  C   UNL     1       8.721   4.295  11.114  1.00  0.00     0.074 A 
ATOM     59  C   UNL     1       9.693  -0.535  15.126  1.00  0.00     0.029 A 
ATOM     60  N   UNL     1       9.063   0.741  13.415  1.00  0.00    -0.354 N 
ATOM     61  N   UNL     1       8.872   3.239  11.880  1.00  0.00    -0.248 NA
ATOM     62  C   UNL     1       9.278   5.530  11.685  1.00  0.00     0.031 C 
ATOM     63  C   UNL     1      10.105   0.777  15.376  1.00  0.00     0.029 A 
ATOM     64  C   UNL     1       9.739   1.566  14.297  1.00  0.00     0.049 A 
ATOM     65  H   UNL     1       8.674   1.027  12.557  1.00  0.00     0.167 HD
ATOM     66  C   UNL     1       9.578   3.675  13.000  1.00  0.00     0.074 A 
ATOM     67  C   UNL     1       9.826   5.089  12.809  1.00  0.00     0.031 C 
ATOM     68  C   UNL     1       9.990   2.970  14.084  1.00  0.00     0.037 A 
BRANCH  55  69
ATOM     69  C   UNL     1       8.348  -2.990  13.969  1.00  0.00     0.058 A 
ATOM     70  C   UNL     1       9.082  -4.090  13.495  1.00  0.00     0.135 A 
ATOM     71  C   UNL     1       7.582  -3.167  15.132  1.00  0.00     0.135 A 
ATOM     72  F   UNL     1       9.809  -3.986  12.371  1.00  0.00    -0.206 F 
ATOM     73  C   UNL     1       9.034  -5.326  14.133  1.00  0.00     0.059 A 
ATOM     74  C   UNL     1       7.545  -4.385  15.804  1.00  0.00     0.059 A 
ATOM     75  F   UNL     1       6.854  -2.152  15.623  1.00  0.00    -0.206 F 
ATOM     76  C   UNL     1       8.262  -5.462  15.288  1.00  0.00     0.060 A 
BRANCH  76  77
ATOM     77  S   UNL     1       8.214  -7.068  16.111  1.00  0.00     0.124 S 
ATOM     78  O   UNL     1       7.393  -7.845  15.187  1.00  0.00    -0.237 OA
ATOM     79  O   UNL     1       9.625  -7.434  16.164  1.00  0.00    -0.237 OA
ATOM     80  O   UNL     1       7.597  -6.772  17.400  1.00  0.00    -0.744 OA
ENDBRANCH  76  77
ENDBRANCH  55  69
BRANCH  56  81
ATOM     81  C   UNL     1       8.039   5.709   9.037  1.00  0.00     0.058 A 
ATOM     82  C   UNL     1       9.212   6.317   8.564  1.00  0.00     0.135 A 
ATOM     83  C   UNL     1       6.828   6.390   8.835  1.00  0.00     0.135 A 
ATOM     84  F   UNL     1      10.398   5.718   8.747  1.00  0.00    -0.206 F 
ATOM     85  C   UNL     1       9.190   7.559   7.935  1.00  0.00     0.059 A 
ATOM     86  C   UNL     1       6.777   7.620   8.185  1.00  0.00     0.059 A 
ATOM     87  F   UNL     1       5.675   5.854   9.265  1.00  0.00    -0.206 F 
ATOM     88  C   UNL     1       7.965   8.202   7.747  1.00  0.00     0.060 A 
BRANCH  88  89
ATOM     89  S   UNL     1       7.943   9.794   6.893  1.00  0.00     0.124 S 
ATOM     90  O   UNL     1       8.522  10.677   7.900  1.00  0.00    -0.237 OA
ATOM     91  O   UNL     1       8.776   9.527   5.724  1.00  0.00    -0.237 OA
ATOM     92  O   UNL     1       6.526  10.004   6.610  1.00  0.00    -0.744 OA
ENDBRANCH  88  89
ENDBRANCH  56  81
BRANCH  68  93
ATOM     93  C   UNL     1      10.806   3.695  15.121  1.00  0.00     0.058 A 
ATOM     94  C   UNL     1      10.242   4.654  15.977  1.00  0.00     0.135 A 
ATOM     95  C   UNL     1      12.166   3.387  15.290  1.00  0.00     0.135 A 
ATOM     96  F   UNL     1       8.946   4.985  15.861  1.00  0.00    -0.206 F 
ATOM     97  C   UNL     1      11.007   5.312  16.936  1.00  0.00     0.059 A 
ATOM     98  C   UNL     1      12.943   4.008  16.263  1.00  0.00     0.059 A 
ATOM     99  F   UNL     1      12.753   2.463  14.513  1.00  0.00    -0.206 F 
ATOM    100  C   UNL     1      12.358   4.984  17.069  1.00  0.00     0.060 A 
BRANCH 100 101
ATOM    101  S   UNL     1      13.339   5.838  18.321  1.00  0.00     0.124 S 
ATOM    102  O   UNL     1      13.514   7.152  17.710  1.00  0.00    -0.237 OA
ATOM    103  O   UNL     1      12.466   5.793  19.489  1.00  0.00    -0.237 OA
ATOM    104  O   UNL     1      14.549   5.026  18.418  1.00  0.00    -0.744 OA
ENDBRANCH 100 101
ENDBRANCH  68  93
ENDBRANCH  42  43
ENDBRANCH  35  37
ENDBRANCH  34  35
ENDBRANCH  33  34
ENDBRANCH  32  33
ENDBRANCH  31  32
ENDBRANCH  30  31
ENDBRANCH   1  30
TORSDOF 25
