REMARK SMILES C[C@H](NC(=O)c1cccc(NC(=O)c2ccccc2C(=O)OCCOCCOCCOCCOC(=O)c2ccc(-c3c4nc(c(-c5c(F)cc(S(=O)(=O)[O-])cc5F)c5ccc([nH]5)c(-c5c(F)cc(S(=O)(=O)[O-])cc5F)c5nc(c(-c6c(F)cc(S(=O)(=O)[O-])cc6F)c6ccc3[nH]6)C=C5)C=C4)cc2)c1)c1ccccc1
REMARK SMILES IDX 27 1 26 2 25 3 24 4 23 5 22 6 20 7 21 8 19 9 14 10 15 11
REMARK SMILES IDX 16 12 18 13 17 14 12 15 11 16 13 18 10 19 6 20 7 21 103 22
REMARK SMILES IDX 8 23 9 24 4 25 3 26 5 28 2 29 1 30 104 31 105 32 109 33
REMARK SMILES IDX 106 34 108 35 107 36 28 37 29 38 30 39 31 40 32 41 33 42
REMARK SMILES IDX 34 43 35 44 36 45 37 46 38 47 102 48 39 49 101 50 40 51
REMARK SMILES IDX 41 52 42 53 95 54 43 55 100 56 94 57 96 58 44 59 99 60 93 61
REMARK SMILES IDX 92 62 45 64 79 65 58 66 78 67 59 68 62 69 77 70 97 71 60 72
REMARK SMILES IDX 61 73 76 75 98 76 63 77 46 78 47 79 56 80 48 81 49 82 55 83
REMARK SMILES IDX 57 84 50 85 51 86 52 87 53 88 54 89 80 90 81 91 90 92 82 93
REMARK SMILES IDX 83 94 89 95 91 96 84 97 85 98 86 99 87 100 88 101 64 102
REMARK SMILES IDX 65 103 74 104 66 105 67 106 73 107 75 108 68 109 69 110
REMARK SMILES IDX 70 111 71 112 72 113
REMARK H PARENT 11 17 3 27 96 63 62 74
REMARK Flexibility Score: inf
ROOT
ATOM      1  C   UNL     1       1.491   7.646   1.099  1.00  0.00     0.188 C 
ENDROOT
BRANCH   1   2
ATOM      2  C   UNL     1       0.635   7.653  -0.188  1.00  0.00     0.188 C 
BRANCH   2   3
ATOM      3  O   UNL     1      -0.389   6.698  -0.420  1.00  0.00    -0.376 OA
BRANCH   3   4
ATOM      4  C   UNL     1      -0.263   5.348  -0.026  1.00  0.00     0.202 C 
BRANCH   4   5
ATOM      5  C   UNL     1       1.060   4.584  -0.047  1.00  0.00     0.261 C 
BRANCH   5   6
ATOM      6  O   UNL     1       2.276   5.298  -0.190  1.00  0.00    -0.460 OA
BRANCH   6   7
ATOM      7  C   UNL     1       2.652   5.593  -1.434  1.00  0.00     0.339 C 
ATOM      8  O   UNL     1       2.011   5.418  -2.461  1.00  0.00    -0.246 OA
BRANCH   7   9
ATOM      9  C   UNL     1       3.930   6.329  -1.366  1.00  0.00     0.072 A 
ATOM     10  C   UNL     1       4.986   6.073  -0.469  1.00  0.00     0.054 A 
ATOM     11  C   UNL     1       6.097   6.944  -0.503  1.00  0.00     0.015 A 
ATOM     12  C   UNL     1       6.169   8.010  -1.406  1.00  0.00     0.001 A 
ATOM     13  C   UNL     1       4.018   7.401  -2.278  1.00  0.00     0.016 A 
ATOM     14  C   UNL     1       5.128   8.238  -2.295  1.00  0.00     0.001 A 
BRANCH  10  15
ATOM     15  C   UNL     1       5.048   5.047   0.616  1.00  0.00     0.256 C 
ATOM     16  N   UNL     1       4.687   3.717   0.516  1.00  0.00    -0.322 N 
ATOM     17  H   UNL     1       4.783   3.217   1.359  1.00  0.00     0.170 HD
ATOM     18  O   UNL     1       5.472   5.435   1.711  1.00  0.00    -0.269 OA
BRANCH  16  19
ATOM     19  C   UNL     1       4.209   2.938  -0.549  1.00  0.00     0.042 A 
ATOM     20  C   UNL     1       2.577   1.264  -1.220  1.00  0.00     0.041 A 
ATOM     21  C   UNL     1       2.687   1.752  -2.535  1.00  0.00     0.014 A 
ATOM     22  C   UNL     1       3.394   1.830  -0.239  1.00  0.00     0.040 A 
ATOM     23  C   UNL     1       3.633   2.719  -2.871  1.00  0.00     0.003 A 
ATOM     24  C   UNL     1       4.424   3.283  -1.878  1.00  0.00     0.026 A 
BRANCH  20  25
ATOM     25  C   UNL     1       1.698   0.077  -1.051  1.00  0.00     0.251 C 
ATOM     26  N   UNL     1       0.868  -0.236  -0.014  1.00  0.00    -0.346 N 
ATOM     27  H   UNL     1       0.526  -1.149  -0.147  1.00  0.00     0.164 HD
ATOM     28  O   UNL     1       1.708  -0.735  -1.985  1.00  0.00    -0.269 OA
BRANCH  26  29
ATOM     29  C   UNL     1       0.302   0.304   1.229  1.00  0.00     0.109 C 
ATOM     30  C   UNL     1       0.967   1.520   1.831  1.00  0.00     0.036 C 
BRANCH  29  31
ATOM     31  C   UNL     1      -1.220   0.429   1.131  1.00  0.00    -0.026 A 
ATOM     32  C   UNL     1      -1.889   1.658   0.997  1.00  0.00     0.006 A 
ATOM     33  C   UNL     1      -2.004  -0.733   1.261  1.00  0.00     0.006 A 
ATOM     34  C   UNL     1      -3.286   1.728   1.059  1.00  0.00     0.000 A 
ATOM     35  C   UNL     1      -3.399  -0.663   1.313  1.00  0.00     0.000 A 
ATOM     36  C   UNL     1      -4.040   0.569   1.228  1.00  0.00     0.000 A 
ENDBRANCH  29  31
ENDBRANCH  26  29
ENDBRANCH  20  25
ENDBRANCH  16  19
ENDBRANCH  10  15
ENDBRANCH   7   9
ENDBRANCH   6   7
ENDBRANCH   5   6
ENDBRANCH   4   5
ENDBRANCH   3   4
ENDBRANCH   2   3
ENDBRANCH   1   2
BRANCH   1  37
ATOM     37  O   UNL     1       1.285   6.520   1.940  1.00  0.00    -0.377 OA
BRANCH  37  38
ATOM     38  C   UNL     1       0.487   6.741   3.093  1.00  0.00     0.188 C 
BRANCH  38  39
ATOM     39  C   UNL     1      -0.908   7.335   2.828  1.00  0.00     0.188 C 
BRANCH  39  40
ATOM     40  O   UNL     1      -0.863   8.507   2.027  1.00  0.00    -0.376 OA
BRANCH  40  41
ATOM     41  C   UNL     1      -0.984   9.772   2.652  1.00  0.00     0.202 C 
BRANCH  41  42
ATOM     42  C   UNL     1       0.129  10.208   3.620  1.00  0.00     0.261 C 
BRANCH  42  43
ATOM     43  O   UNL     1       0.444   9.305   4.690  1.00  0.00    -0.460 OA
BRANCH  43  44
ATOM     44  C   UNL     1      -0.543   9.005   5.561  1.00  0.00     0.338 C 
ATOM     45  O   UNL     1      -1.670   9.465   5.569  1.00  0.00    -0.246 OA
BRANCH  44  46
ATOM     46  C   UNL     1      -0.099   7.852   6.378  1.00  0.00     0.060 A 
ATOM     47  C   UNL     1      -0.900   6.703   6.411  1.00  0.00     0.016 A 
ATOM     48  C   UNL     1       1.089   7.905   7.112  1.00  0.00     0.016 A 
ATOM     49  C   UNL     1      -0.547   5.629   7.226  1.00  0.00     0.010 A 
ATOM     50  C   UNL     1       1.430   6.836   7.946  1.00  0.00     0.010 A 
ATOM     51  C   UNL     1       0.588   5.715   8.042  1.00  0.00    -0.014 A 
BRANCH  51  52
ATOM     52  C   UNL     1       0.755   4.738   9.147  1.00  0.00     0.031 A 
ATOM     53  C   UNL     1       0.302   5.140  10.526  1.00  0.00     0.074 A 
ATOM     54  C   UNL     1       1.244   3.505   8.925  1.00  0.00     0.049 A 
ATOM     55  N   UNL     1       0.340   4.465  11.644  1.00  0.00    -0.248 NA
ATOM     56  C   UNL     1      -0.273   6.490  10.659  1.00  0.00     0.031 C 
ATOM     57  C   UNL     1       1.679   2.988   7.629  1.00  0.00     0.029 A 
ATOM     58  N   UNL     1       1.459   2.464   9.793  1.00  0.00    -0.354 N 
ATOM     59  C   UNL     1      -0.198   5.306  12.613  1.00  0.00     0.074 A 
ATOM     60  C   UNL     1      -0.522   6.554  11.958  1.00  0.00     0.031 C 
ATOM     61  C   UNL     1       2.117   1.727   7.788  1.00  0.00     0.029 A 
ATOM     62  C   UNL     1       2.023   1.359   9.201  1.00  0.00     0.049 A 
ATOM     63  H   UNL     1       1.230   2.504  10.750  1.00  0.00     0.167 HD
ATOM     64  C   UNL     1      -0.411   5.058  13.926  1.00  0.00     0.037 A 
ATOM     65  C   UNL     1       2.433   0.195   9.743  1.00  0.00     0.037 A 
ATOM     66  C   UNL     1      -0.084   3.813  14.571  1.00  0.00     0.049 A 
ATOM     67  C   UNL     1       2.244  -0.036  11.222  1.00  0.00     0.074 A 
ATOM     68  C   UNL     1      -0.277   3.452  15.893  1.00  0.00     0.029 A 
ATOM     69  N   UNL     1       0.517   2.729  13.945  1.00  0.00    -0.354 N 
ATOM     70  N   UNL     1       1.707   0.756  12.121  1.00  0.00    -0.248 NA
ATOM     71  C   UNL     1       2.710  -1.322  11.758  1.00  0.00     0.031 C 
ATOM     72  C   UNL     1       0.263   2.175  16.080  1.00  0.00     0.029 A 
ATOM     73  C   UNL     1       0.729   1.712  14.861  1.00  0.00     0.049 A 
ATOM     74  H   UNL     1       0.756   2.690  12.991  1.00  0.00     0.167 HD
ATOM     75  C   UNL     1       1.745   0.052  13.321  1.00  0.00     0.074 A 
ATOM     76  C   UNL     1       2.341  -1.236  13.028  1.00  0.00     0.031 C 
ATOM     77  C   UNL     1       1.325   0.434  14.554  1.00  0.00     0.037 A 
BRANCH  64  78
ATOM     78  C   UNL     1      -0.997   6.165  14.761  1.00  0.00     0.058 A 
ATOM     79  C   UNL     1      -2.328   6.587  14.611  1.00  0.00     0.135 A 
ATOM     80  C   UNL     1      -0.221   6.792  15.750  1.00  0.00     0.135 A 
ATOM     81  F   UNL     1      -3.110   6.038  13.668  1.00  0.00    -0.206 F 
ATOM     82  C   UNL     1      -2.861   7.606  15.395  1.00  0.00     0.059 A 
ATOM     83  C   UNL     1      -0.743   7.792  16.566  1.00  0.00     0.059 A 
ATOM     84  F   UNL     1       1.059   6.434  15.933  1.00  0.00    -0.206 F 
ATOM     85  C   UNL     1      -2.061   8.200  16.372  1.00  0.00     0.060 A 
BRANCH  85  86
ATOM     86  S   UNL     1      -2.772   9.512  17.388  1.00  0.00     0.124 S 
ATOM     87  O   UNL     1      -2.887  10.600  16.422  1.00  0.00    -0.237 OA
ATOM     88  O   UNL     1      -4.031   8.917  17.825  1.00  0.00    -0.237 OA
ATOM     89  O   UNL     1      -1.777   9.709  18.437  1.00  0.00    -0.744 OA
ENDBRANCH  85  86
ENDBRANCH  64  78
BRANCH  65  90
ATOM     90  C   UNL     1       3.073  -0.842   8.887  1.00  0.00     0.058 A 
ATOM     91  C   UNL     1       2.446  -2.072   8.638  1.00  0.00     0.135 A 
ATOM     92  C   UNL     1       4.333  -0.623   8.306  1.00  0.00     0.135 A 
ATOM     93  F   UNL     1       1.248  -2.336   9.180  1.00  0.00    -0.206 F 
ATOM     94  C   UNL     1       3.049  -3.052   7.856  1.00  0.00     0.059 A 
ATOM     95  C   UNL     1       4.942  -1.575   7.496  1.00  0.00     0.059 A 
ATOM     96  F   UNL     1       4.973   0.540   8.506  1.00  0.00    -0.206 F 
ATOM     97  C   UNL     1       4.295  -2.791   7.284  1.00  0.00     0.060 A 
BRANCH  97  98
ATOM     98  S   UNL     1       5.038  -4.047   6.220  1.00  0.00     0.124 S 
ATOM     99  O   UNL     1       5.407  -5.073   7.188  1.00  0.00    -0.237 OA
ATOM    100  O   UNL     1       3.933  -4.377   5.326  1.00  0.00    -0.237 OA
ATOM    101  O   UNL     1       6.151  -3.339   5.593  1.00  0.00    -0.744 OA
ENDBRANCH  97  98
ENDBRANCH  65  90
BRANCH  77 102
ATOM    102  C   UNL     1       1.459  -0.565  15.674  1.00  0.00     0.058 A 
ATOM    103  C   UNL     1       2.709  -0.937  16.193  1.00  0.00     0.135 A 
ATOM    104  C   UNL     1       0.314  -1.135  16.258  1.00  0.00     0.135 A 
ATOM    105  F   UNL     1       3.836  -0.426  15.673  1.00  0.00    -0.206 F 
ATOM    106  C   UNL     1       2.822  -1.867  17.222  1.00  0.00     0.059 A 
ATOM    107  C   UNL     1       0.402  -2.039  17.311  1.00  0.00     0.059 A 
ATOM    108  F   UNL     1      -0.908  -0.804  15.813  1.00  0.00    -0.206 F 
ATOM    109  C   UNL     1       1.662  -2.414  17.774  1.00  0.00     0.060 A 
BRANCH 109 110
ATOM    110  S   UNL     1       1.823  -3.615  19.112  1.00  0.00     0.124 S 
ATOM    111  O   UNL     1       2.325  -4.784  18.399  1.00  0.00    -0.237 OA
ATOM    112  O   UNL     1       2.774  -2.960  20.006  1.00  0.00    -0.237 OA
ATOM    113  O   UNL     1       0.464  -3.732  19.631  1.00  0.00    -0.744 OA
ENDBRANCH 109 110
ENDBRANCH  77 102
ENDBRANCH  51  52
ENDBRANCH  44  46
ENDBRANCH  43  44
ENDBRANCH  42  43
ENDBRANCH  41  42
ENDBRANCH  40  41
ENDBRANCH  39  40
ENDBRANCH  38  39
ENDBRANCH  37  38
ENDBRANCH   1  37
TORSDOF 28
