REMARK SMILES O=C(OCCOCCOCCOCCOC(=O)[C@@H]1CC[C@@H](CS(=O)(=O)c2cccc(F)c2)O1)c1ccc(-c2c3nc(c(-c4c(F)cc(S(=O)(=O)[O-])cc4F)c4ccc([nH]4)c(-c4c(F)cc(S(=O)(=O)[O-])cc4F)c4nc(c(-c5c(F)cc(S(=O)(=O)[O-])cc5F)c5ccc2[nH]5)C=C4)C=C3)cc1
REMARK SMILES IDX 9 1 8 2 7 3 6 4 5 5 4 6 3 7 2 8 1 9 34 10 35 11 99 12 36 13
REMARK SMILES IDX 98 14 37 15 38 16 39 17 92 18 40 19 97 20 91 21 93 22 41 23
REMARK SMILES IDX 96 24 90 25 89 26 42 28 76 29 55 30 75 31 56 32 59 33 74 34
REMARK SMILES IDX 94 35 57 36 58 37 73 39 95 40 60 41 43 42 44 43 53 44 45 45
REMARK SMILES IDX 46 46 52 47 54 48 47 49 48 50 49 51 50 52 51 53 77 54 78 55
REMARK SMILES IDX 87 56 79 57 80 58 86 59 88 60 81 61 82 62 83 63 84 64 85 65
REMARK SMILES IDX 61 66 62 67 71 68 63 69 64 70 70 71 72 72 65 73 66 74 67 75
REMARK SMILES IDX 68 76 69 77 10 78 11 79 12 80 13 81 14 82 15 83 16 84 17 85
REMARK SMILES IDX 18 86 19 87 33 88 20 89 21 90 22 91 23 92 24 93 25 94 26 95
REMARK SMILES IDX 27 96 32 97 28 98 30 99 29 100 31 101
REMARK H PARENT 93 27 59 38
REMARK Flexibility Score: inf
ROOT
ATOM      1  O   UNL     1       2.924   3.487   1.728  1.00  0.00    -0.377 OA
ENDROOT
BRANCH   1   2
ATOM      2  C   UNL     1       1.989   2.430   1.516  1.00  0.00     0.188 C 
BRANCH   2   3
ATOM      3  C   UNL     1       2.304   1.558   0.304  1.00  0.00     0.188 C 
BRANCH   3   4
ATOM      4  O   UNL     1       3.529   0.882   0.537  1.00  0.00    -0.376 OA
BRANCH   4   5
ATOM      5  C   UNL     1       4.338   0.495  -0.554  1.00  0.00     0.202 C 
BRANCH   5   6
ATOM      6  C   UNL     1       3.663  -0.247  -1.701  1.00  0.00     0.261 C 
BRANCH   6   7
ATOM      7  O   UNL     1       2.282  -0.623  -1.500  1.00  0.00    -0.460 OA
BRANCH   7   8
ATOM      8  C   UNL     1       1.754  -1.683  -0.841  1.00  0.00     0.338 C 
ATOM      9  O   UNL     1       0.569  -1.968  -0.985  1.00  0.00    -0.246 OA
BRANCH   8  10
ATOM     10  C   UNL     1       2.589  -2.536   0.030  1.00  0.00     0.060 A 
ATOM     11  C   UNL     1       3.465  -1.996   0.954  1.00  0.00     0.016 A 
ATOM     12  C   UNL     1       2.419  -3.920   0.024  1.00  0.00     0.016 A 
ATOM     13  C   UNL     1       4.394  -2.769   1.608  1.00  0.00     0.010 A 
ATOM     14  C   UNL     1       3.213  -4.722   0.854  1.00  0.00     0.010 A 
ATOM     15  C   UNL     1       4.255  -4.149   1.600  1.00  0.00    -0.014 A 
BRANCH  15  16
ATOM     16  C   UNL     1       5.272  -4.944   2.318  1.00  0.00     0.031 A 
ATOM     17  C   UNL     1       6.113  -5.892   1.518  1.00  0.00     0.074 A 
ATOM     18  C   UNL     1       5.532  -4.689   3.619  1.00  0.00     0.049 A 
ATOM     19  N   UNL     1       6.970  -6.782   1.933  1.00  0.00    -0.248 NA
ATOM     20  C   UNL     1       5.975  -5.834   0.050  1.00  0.00     0.031 C 
ATOM     21  C   UNL     1       4.860  -3.670   4.438  1.00  0.00     0.029 A 
ATOM     22  N   UNL     1       6.466  -5.216   4.471  1.00  0.00    -0.354 N 
ATOM     23  C   UNL     1       7.425  -7.424   0.789  1.00  0.00     0.074 A 
ATOM     24  C   UNL     1       6.758  -6.827  -0.342  1.00  0.00     0.031 C 
ATOM     25  C   UNL     1       5.458  -3.592   5.635  1.00  0.00     0.029 A 
ATOM     26  C   UNL     1       6.457  -4.645   5.724  1.00  0.00     0.049 A 
ATOM     27  H   UNL     1       7.085  -5.936   4.212  1.00  0.00     0.167 HD
ATOM     28  C   UNL     1       8.322  -8.430   0.709  1.00  0.00     0.037 A 
ATOM     29  C   UNL     1       7.140  -4.979   6.835  1.00  0.00     0.037 A 
ATOM     30  C   UNL     1       8.992  -8.963   1.863  1.00  0.00     0.049 A 
ATOM     31  C   UNL     1       8.052  -6.171   6.738  1.00  0.00     0.074 A 
ATOM     32  C   UNL     1       9.856 -10.036   1.944  1.00  0.00     0.029 A 
ATOM     33  N   UNL     1       8.880  -8.433   3.143  1.00  0.00    -0.354 N 
ATOM     34  N   UNL     1       8.372  -6.875   5.675  1.00  0.00    -0.248 NA
ATOM     35  C   UNL     1       8.660  -6.646   7.985  1.00  0.00     0.031 C 
ATOM     36  C   UNL     1      10.240 -10.177   3.282  1.00  0.00     0.029 A 
ATOM     37  C   UNL     1       9.651  -9.163   4.025  1.00  0.00     0.049 A 
ATOM     38  H   UNL     1       8.332  -7.652   3.385  1.00  0.00     0.167 HD
ATOM     39  C   UNL     1       9.216  -7.879   6.125  1.00  0.00     0.074 A 
ATOM     40  C   UNL     1       9.385  -7.667   7.551  1.00  0.00     0.031 C 
ATOM     41  C   UNL     1       9.787  -8.898   5.436  1.00  0.00     0.037 A 
BRANCH  28  42
ATOM     42  C   UNL     1       8.577  -9.040  -0.637  1.00  0.00     0.058 A 
ATOM     43  C   UNL     1       8.059 -10.309  -0.943  1.00  0.00     0.135 A 
ATOM     44  C   UNL     1       9.342  -8.392  -1.619  1.00  0.00     0.135 A 
ATOM     45  F   UNL     1       7.294 -10.960  -0.052  1.00  0.00    -0.206 F 
ATOM     46  C   UNL     1       8.317 -10.928  -2.161  1.00  0.00     0.059 A 
ATOM     47  C   UNL     1       9.596  -8.983  -2.854  1.00  0.00     0.059 A 
ATOM     48  F   UNL     1       9.819  -7.157  -1.396  1.00  0.00    -0.206 F 
ATOM     49  C   UNL     1       9.094 -10.260  -3.108  1.00  0.00     0.060 A 
BRANCH  49  50
ATOM     50  S   UNL     1       9.422 -11.082  -4.682  1.00  0.00     0.124 S 
ATOM     51  O   UNL     1      10.281 -12.186  -4.270  1.00  0.00    -0.237 OA
ATOM     52  O   UNL     1       8.079 -11.448  -5.121  1.00  0.00    -0.237 OA
ATOM     53  O   UNL     1      10.070 -10.043  -5.478  1.00  0.00    -0.744 OA
ENDBRANCH  49  50
ENDBRANCH  28  42
BRANCH  29  54
ATOM     54  C   UNL     1       6.920  -4.260   8.123  1.00  0.00     0.058 A 
ATOM     55  C   UNL     1       5.665  -4.261   8.756  1.00  0.00     0.135 A 
ATOM     56  C   UNL     1       7.961  -3.568   8.761  1.00  0.00     0.135 A 
ATOM     57  F   UNL     1       4.627  -4.904   8.198  1.00  0.00    -0.206 F 
ATOM     58  C   UNL     1       5.444  -3.592   9.955  1.00  0.00     0.059 A 
ATOM     59  C   UNL     1       7.774  -2.919   9.982  1.00  0.00     0.059 A 
ATOM     60  F   UNL     1       9.184  -3.542   8.210  1.00  0.00    -0.206 F 
ATOM     61  C   UNL     1       6.508  -2.929  10.565  1.00  0.00     0.060 A 
BRANCH  61  62
ATOM     62  S   UNL     1       6.211  -2.117  12.151  1.00  0.00     0.124 S 
ATOM     63  O   UNL     1       5.392  -0.978  11.748  1.00  0.00    -0.237 OA
ATOM     64  O   UNL     1       5.521  -3.159  12.904  1.00  0.00    -0.237 OA
ATOM     65  O   UNL     1       7.554  -1.792  12.620  1.00  0.00    -0.744 OA
ENDBRANCH  61  62
ENDBRANCH  29  54
BRANCH  41  66
ATOM     66  C   UNL     1      10.653  -9.836   6.218  1.00  0.00     0.058 A 
ATOM     67  C   UNL     1      12.045  -9.818   6.050  1.00  0.00     0.135 A 
ATOM     68  C   UNL     1      10.097 -10.794   7.077  1.00  0.00     0.135 A 
ATOM     69  F   UNL     1      12.618  -8.921   5.231  1.00  0.00    -0.206 F 
ATOM     70  C   UNL     1      12.860 -10.736   6.697  1.00  0.00     0.059 A 
ATOM     71  C   UNL     1      10.896 -11.703   7.758  1.00  0.00     0.059 A 
ATOM     72  F   UNL     1       8.769 -10.835   7.275  1.00  0.00    -0.206 F 
ATOM     73  C   UNL     1      12.275 -11.676   7.547  1.00  0.00     0.060 A 
BRANCH  73  74
ATOM     74  S   UNL     1      13.350 -12.848   8.396  1.00  0.00     0.124 S 
ATOM     75  O   UNL     1      13.737 -13.737   7.306  1.00  0.00    -0.237 OA
ATOM     76  O   UNL     1      14.404 -11.980   8.913  1.00  0.00    -0.237 OA
ATOM     77  O   UNL     1      12.478 -13.434   9.409  1.00  0.00    -0.744 OA
ENDBRANCH  73  74
ENDBRANCH  41  66
ENDBRANCH  15  16
ENDBRANCH   8  10
ENDBRANCH   7   8
ENDBRANCH   6   7
ENDBRANCH   5   6
ENDBRANCH   4   5
ENDBRANCH   3   4
ENDBRANCH   2   3
ENDBRANCH   1   2
BRANCH   1  78
ATOM     78  C   UNL     1       4.306   3.136   1.777  1.00  0.00     0.188 C 
BRANCH  78  79
ATOM     79  C   UNL     1       4.825   2.274   2.937  1.00  0.00     0.188 C 
BRANCH  79  80
ATOM     80  O   UNL     1       3.840   1.404   3.460  1.00  0.00    -0.376 OA
BRANCH  80  81
ATOM     81  C   UNL     1       3.405   1.685   4.785  1.00  0.00     0.202 C 
BRANCH  81  82
ATOM     82  C   UNL     1       2.869   3.092   5.150  1.00  0.00     0.261 C 
BRANCH  82  83
ATOM     83  O   UNL     1       3.276   4.167   4.283  1.00  0.00    -0.461 OA
BRANCH  83  84
ATOM     84  C   UNL     1       4.146   5.098   4.739  1.00  0.00     0.335 C 
ATOM     85  O   UNL     1       4.571   5.149   5.888  1.00  0.00    -0.249 OA
BRANCH  84  86
ATOM     86  C   UNL     1       4.645   6.052   3.619  1.00  0.00     0.228 C 
ATOM     87  C   UNL     1       4.634   7.491   4.103  1.00  0.00     0.047 C 
ATOM     88  O   UNL     1       4.048   6.077   2.317  1.00  0.00    -0.362 OA
ATOM     89  C   UNL     1       4.601   8.276   2.815  1.00  0.00     0.036 C 
ATOM     90  C   UNL     1       3.740   7.406   1.908  1.00  0.00     0.135 C 
BRANCH  90  91
ATOM     91  C   UNL     1       4.054   7.691   0.444  1.00  0.00     0.174 C 
BRANCH  91  92
ATOM     92  S   UNL     1       3.393   6.577  -0.765  1.00  0.00     0.181 S 
ATOM     93  O   UNL     1       2.195   5.951  -0.275  1.00  0.00    -0.224 OA
ATOM     94  O   UNL     1       3.342   7.350  -2.009  1.00  0.00    -0.224 OA
BRANCH  92  95
ATOM     95  C   UNL     1       4.602   5.309  -1.106  1.00  0.00     0.070 A 
ATOM     96  C   UNL     1       4.360   4.454  -2.193  1.00  0.00     0.020 A 
ATOM     97  C   UNL     1       5.796   5.205  -0.394  1.00  0.00     0.059 A 
ATOM     98  C   UNL     1       5.311   3.495  -2.559  1.00  0.00     0.004 A 
ATOM     99  C   UNL     1       6.721   4.230  -0.756  1.00  0.00     0.124 A 
ATOM    100  C   UNL     1       6.496   3.381  -1.833  1.00  0.00     0.039 A 
ATOM    101  F   UNL     1       7.843   4.098  -0.037  1.00  0.00    -0.207 F 
ENDBRANCH  92  95
ENDBRANCH  91  92
ENDBRANCH  90  91
ENDBRANCH  84  86
ENDBRANCH  83  84
ENDBRANCH  82  83
ENDBRANCH  81  82
ENDBRANCH  80  81
ENDBRANCH  79  80
ENDBRANCH  78  79
ENDBRANCH   1  78
TORSDOF 26
