REMARK SMILES CC(=O)Nc1ccc2sc(C(=O)OCCOCCOCCOCCOC(=O)c3ccc(-c4c5nc(c(-c6c(F)cc(S(=O)(=O)[O-])cc6F)c6ccc([nH]6)c(-c6c(F)cc(S(=O)(=O)[O-])cc6F)c6nc(c(-c7c(F)cc(S(=O)(=O)[O-])cc7F)c7ccc4[nH]7)C=C6)C=C5)cc3)cc2c1
REMARK SMILES IDX 20 1 19 2 18 3 17 4 16 5 15 6 14 7 13 8 11 9 12 10 10 11
REMARK SMILES IDX 5 12 6 13 96 14 7 15 95 16 8 17 94 18 9 19 4 20 1 21 2 22
REMARK SMILES IDX 3 23 21 25 22 26 23 27 24 28 25 29 26 30 27 31 28 32 29 33
REMARK SMILES IDX 93 34 30 35 92 36 31 37 32 38 33 39 86 40 34 41 91 42 85 43
REMARK SMILES IDX 87 44 35 45 90 46 84 47 83 48 36 50 70 51 49 52 69 53 50 54
REMARK SMILES IDX 53 55 68 56 88 57 51 58 52 59 67 61 89 62 54 63 37 64 38 65
REMARK SMILES IDX 47 66 39 67 40 68 46 69 48 70 41 71 42 72 43 73 44 74 45 75
REMARK SMILES IDX 71 76 72 77 81 78 73 79 74 80 80 81 82 82 75 83 76 84 77 85
REMARK SMILES IDX 78 86 79 87 55 88 56 89 65 90 57 91 58 92 64 93 66 94 59 95
REMARK SMILES IDX 60 96 61 97 62 98 63 99
REMARK H PARENT 4 24 87 49 53 60
REMARK Flexibility Score: inf
ROOT
ATOM      1  C   UNL     1       5.964   4.539  -9.293  1.00  0.00     0.188 C 
ENDROOT
BRANCH   1   2
ATOM      2  O   UNL     1       5.367   4.125  -8.068  1.00  0.00    -0.377 OA
BRANCH   2   3
ATOM      3  C   UNL     1       4.156   3.396  -8.090  1.00  0.00     0.188 C 
BRANCH   3   4
ATOM      4  C   UNL     1       2.938   4.111  -8.697  1.00  0.00     0.188 C 
BRANCH   4   5
ATOM      5  O   UNL     1       3.229   5.395  -9.243  1.00  0.00    -0.376 OA
BRANCH   5   6
ATOM      6  C   UNL     1       2.733   6.516  -8.522  1.00  0.00     0.202 C 
BRANCH   6   7
ATOM      7  C   UNL     1       3.542   6.873  -7.267  1.00  0.00     0.261 C 
BRANCH   7   8
ATOM      8  O   UNL     1       3.536   5.862  -6.250  1.00  0.00    -0.459 OA
BRANCH   8   9
ATOM      9  C   UNL     1       2.337   5.529  -5.712  1.00  0.00     0.348 C 
ATOM     10  O   UNL     1       1.274   6.082  -5.969  1.00  0.00    -0.245 OA
BRANCH   9  11
ATOM     11  C   UNL     1       2.463   4.307  -4.952  1.00  0.00     0.113 A 
ATOM     12  C   UNL     1       1.796   0.184  -2.712  1.00  0.00     0.041 A 
ATOM     13  C   UNL     1       2.998   0.498  -2.085  1.00  0.00     0.027 A 
ATOM     14  C   UNL     1       1.328   0.970  -3.767  1.00  0.00     0.035 A 
ATOM     15  C   UNL     1       3.713   1.642  -2.445  1.00  0.00     0.022 A 
ATOM     16  C   UNL     1       1.975   2.189  -4.074  1.00  0.00    -0.005 A 
ATOM     17  C   UNL     1       3.163   2.502  -3.411  1.00  0.00     0.035 A 
ATOM     18  C   UNL     1       1.583   3.245  -4.956  1.00  0.00     0.036 A 
ATOM     19  S   UNL     1       3.793   4.016  -3.929  1.00  0.00    -0.128 S 
BRANCH  12  20
ATOM     20  N   UNL     1       1.001  -0.896  -2.309  1.00  0.00    -0.326 N 
ATOM     21  C   UNL     1       1.034  -0.365   0.117  1.00  0.00     0.114 C 
ATOM     22  C   UNL     1       0.680  -1.276  -1.032  1.00  0.00     0.221 C 
ATOM     23  O   UNL     1       0.033  -2.308  -0.850  1.00  0.00    -0.275 OA
ATOM     24  H   UNL     1       0.628  -1.451  -3.031  1.00  0.00     0.169 HD
ENDBRANCH  12  20
ENDBRANCH   9  11
ENDBRANCH   8   9
ENDBRANCH   7   8
ENDBRANCH   6   7
ENDBRANCH   5   6
ENDBRANCH   4   5
ENDBRANCH   3   4
ENDBRANCH   2   3
ENDBRANCH   1   2
BRANCH   1  25
ATOM     25  C   UNL     1       5.427   4.089 -10.669  1.00  0.00     0.188 C 
BRANCH  25  26
ATOM     26  O   UNL     1       4.841   2.791 -10.691  1.00  0.00    -0.376 OA
BRANCH  26  27
ATOM     27  C   UNL     1       5.580   1.786 -11.373  1.00  0.00     0.202 C 
BRANCH  27  28
ATOM     28  C   UNL     1       6.720   1.207 -10.529  1.00  0.00     0.261 C 
BRANCH  28  29
ATOM     29  O   UNL     1       7.773   2.136 -10.233  1.00  0.00    -0.460 OA
BRANCH  29  30
ATOM     30  C   UNL     1       8.440   2.655 -11.288  1.00  0.00     0.338 C 
ATOM     31  O   UNL     1       8.276   2.393 -12.466  1.00  0.00    -0.246 OA
BRANCH  30  32
ATOM     32  C   UNL     1       9.306   3.737 -10.787  1.00  0.00     0.060 A 
ATOM     33  C   UNL     1       9.184   5.014 -11.346  1.00  0.00     0.016 A 
ATOM     34  C   UNL     1      10.237   3.484  -9.776  1.00  0.00     0.016 A 
ATOM     35  C   UNL     1      10.030   6.038 -10.921  1.00  0.00     0.010 A 
ATOM     36  C   UNL     1      11.094   4.504  -9.365  1.00  0.00     0.010 A 
ATOM     37  C   UNL     1      11.017   5.775  -9.960  1.00  0.00    -0.014 A 
BRANCH  37  38
ATOM     38  C   UNL     1      12.102   6.754  -9.725  1.00  0.00     0.031 A 
ATOM     39  C   UNL     1      13.376   6.599 -10.509  1.00  0.00     0.074 A 
ATOM     40  C   UNL     1      11.962   7.755  -8.838  1.00  0.00     0.049 A 
ATOM     41  N   UNL     1      14.484   7.287 -10.437  1.00  0.00    -0.248 NA
ATOM     42  C   UNL     1      13.402   5.518 -11.511  1.00  0.00     0.031 C 
ATOM     43  C   UNL     1      10.765   8.025  -8.043  1.00  0.00     0.029 A 
ATOM     44  N   UNL     1      12.850   8.728  -8.451  1.00  0.00    -0.354 N 
ATOM     45  C   UNL     1      15.334   6.731 -11.386  1.00  0.00     0.074 A 
ATOM     46  C   UNL     1      14.629   5.628 -11.998  1.00  0.00     0.031 C 
ATOM     47  C   UNL     1      10.998   9.088  -7.251  1.00  0.00     0.029 A 
ATOM     48  C   UNL     1      12.367   9.554  -7.464  1.00  0.00     0.049 A 
ATOM     49  H   UNL     1      13.747   8.824  -8.843  1.00  0.00     0.167 HD
ATOM     50  C   UNL     1      16.587   7.114 -11.725  1.00  0.00     0.037 A 
ATOM     51  C   UNL     1      12.975  10.557  -6.799  1.00  0.00     0.037 A 
ATOM     52  C   UNL     1      17.294   8.200 -11.103  1.00  0.00     0.049 A 
ATOM     53  C   UNL     1      14.402  10.911  -7.139  1.00  0.00     0.074 A 
ATOM     54  C   UNL     1      18.575   8.654 -11.361  1.00  0.00     0.029 A 
ATOM     55  N   UNL     1      16.779   9.001 -10.095  1.00  0.00    -0.354 N 
ATOM     56  N   UNL     1      15.191  10.384  -8.046  1.00  0.00    -0.248 NA
ATOM     57  C   UNL     1      15.021  11.998  -6.365  1.00  0.00     0.031 C 
ATOM     58  C   UNL     1      18.847   9.711 -10.487  1.00  0.00     0.029 A 
ATOM     59  C   UNL     1      17.720   9.941  -9.713  1.00  0.00     0.049 A 
ATOM     60  H   UNL     1      15.878   8.915  -9.709  1.00  0.00     0.167 HD
ATOM     61  C   UNL     1      16.384  11.098  -7.973  1.00  0.00     0.074 A 
ATOM     62  C   UNL     1      16.213  12.096  -6.939  1.00  0.00     0.031 C 
ATOM     63  C   UNL     1      17.520  10.942  -8.697  1.00  0.00     0.037 A 
BRANCH  50  64
ATOM     64  C   UNL     1      17.274   6.345 -12.815  1.00  0.00     0.058 A 
ATOM     65  C   UNL     1      16.910   6.506 -14.161  1.00  0.00     0.135 A 
ATOM     66  C   UNL     1      18.328   5.467 -12.519  1.00  0.00     0.135 A 
ATOM     67  F   UNL     1      15.891   7.315 -14.494  1.00  0.00    -0.206 F 
ATOM     68  C   UNL     1      17.560   5.814 -15.176  1.00  0.00     0.059 A 
ATOM     69  C   UNL     1      19.007   4.780 -13.521  1.00  0.00     0.059 A 
ATOM     70  F   UNL     1      18.706   5.271 -11.246  1.00  0.00    -0.206 F 
ATOM     71  C   UNL     1      18.609   4.954 -14.846  1.00  0.00     0.060 A 
BRANCH  71  72
ATOM     72  S   UNL     1      19.458   4.079 -16.177  1.00  0.00     0.124 S 
ATOM     73  O   UNL     1      18.465   3.073 -16.543  1.00  0.00    -0.237 OA
ATOM     74  O   UNL     1      19.678   5.138 -17.157  1.00  0.00    -0.237 OA
ATOM     75  O   UNL     1      20.663   3.566 -15.533  1.00  0.00    -0.744 OA
ENDBRANCH  71  72
ENDBRANCH  50  64
BRANCH  51  76
ATOM     76  C   UNL     1      12.256  11.298  -5.728  1.00  0.00     0.058 A 
ATOM     77  C   UNL     1      11.897  12.644  -5.896  1.00  0.00     0.135 A 
ATOM     78  C   UNL     1      11.959  10.692  -4.498  1.00  0.00     0.135 A 
ATOM     79  F   UNL     1      12.170  13.271  -7.051  1.00  0.00    -0.206 F 
ATOM     80  C   UNL     1      11.298  13.373  -4.873  1.00  0.00     0.059 A 
ATOM     81  C   UNL     1      11.338  11.392  -3.469  1.00  0.00     0.059 A 
ATOM     82  F   UNL     1      12.273   9.404  -4.290  1.00  0.00    -0.206 F 
ATOM     83  C   UNL     1      11.028  12.738  -3.660  1.00  0.00     0.060 A 
BRANCH  83  84
ATOM     84  S   UNL     1      10.242  13.686  -2.338  1.00  0.00     0.124 S 
ATOM     85  O   UNL     1      11.361  14.480  -1.844  1.00  0.00    -0.237 OA
ATOM     86  O   UNL     1       9.206  14.420  -3.057  1.00  0.00    -0.237 OA
ATOM     87  O   UNL     1       9.752  12.652  -1.432  1.00  0.00    -0.744 OA
ENDBRANCH  83  84
ENDBRANCH  51  76
BRANCH  63  88
ATOM     88  C   UNL     1      18.648  11.900  -8.437  1.00  0.00     0.058 A 
ATOM     89  C   UNL     1      19.450  11.802  -7.290  1.00  0.00     0.135 A 
ATOM     90  C   UNL     1      18.968  12.891  -9.380  1.00  0.00     0.135 A 
ATOM     91  F   UNL     1      19.184  10.874  -6.357  1.00  0.00    -0.206 F 
ATOM     92  C   UNL     1      20.519  12.666  -7.076  1.00  0.00     0.059 A 
ATOM     93  C   UNL     1      20.046  13.750  -9.198  1.00  0.00     0.059 A 
ATOM     94  F   UNL     1      18.238  13.018 -10.500  1.00  0.00    -0.206 F 
ATOM     95  C   UNL     1      20.810  13.637  -8.037  1.00  0.00     0.060 A 
BRANCH  95  96
ATOM     96  S   UNL     1      22.224  14.728  -7.770  1.00  0.00     0.124 S 
ATOM     97  O   UNL     1      21.695  15.655  -6.776  1.00  0.00    -0.237 OA
ATOM     98  O   UNL     1      23.248  13.804  -7.293  1.00  0.00    -0.237 OA
ATOM     99  O   UNL     1      22.469  15.295  -9.092  1.00  0.00    -0.744 OA
ENDBRANCH  95  96
ENDBRANCH  63  88
ENDBRANCH  37  38
ENDBRANCH  30  32
ENDBRANCH  29  30
ENDBRANCH  28  29
ENDBRANCH  27  28
ENDBRANCH  26  27
ENDBRANCH  25  26
ENDBRANCH   1  25
TORSDOF 24
