REMARK SMILES C[C@H](NC(=O)c1ccncc1/C=C/C(=O)OCCOCCOCCOCCOC(=O)c1ccc(-c2c3nc(c(-c4c(F)cc(S(=O)(=O)[O-])cc4F)c4ccc([nH]4)c(-c4c(F)cc(S(=O)(=O)[O-])cc4F)c4nc(c(-c5c(F)cc(S(=O)(=O)[O-])cc5F)c5ccc2[nH]5)C=C4)C=C3)cc1)c1ccco1
REMARK SMILES IDX 21 1 20 2 19 3 18 4 17 5 16 6 14 7 15 8 13 9 12 10 11 11
REMARK SMILES IDX 6 12 7 13 8 14 10 15 9 16 4 17 3 18 5 20 2 21 1 22 97 23
REMARK SMILES IDX 98 24 101 25 99 26 100 27 22 28 23 29 24 30 25 31 26 32
REMARK SMILES IDX 27 33 28 34 29 35 30 36 31 37 32 38 96 39 33 40 95 41 34 42
REMARK SMILES IDX 35 43 36 44 89 45 37 46 94 47 88 48 90 49 38 50 93 51 87 52
REMARK SMILES IDX 86 53 39 55 73 56 52 57 72 58 53 59 56 60 71 61 91 62 54 63
REMARK SMILES IDX 55 64 70 66 92 67 57 68 40 69 41 70 50 71 42 72 43 73 49 74
REMARK SMILES IDX 51 75 44 76 45 77 46 78 47 79 48 80 74 81 75 82 84 83 76 84
REMARK SMILES IDX 77 85 83 86 85 87 78 88 79 89 80 90 81 91 82 92 58 93 59 94
REMARK SMILES IDX 68 95 60 96 61 97 67 98 69 99 62 100 63 101 64 102 65 103
REMARK SMILES IDX 66 104
REMARK H PARENT 3 19 90 54 56 65
REMARK Flexibility Score: inf
ROOT
ATOM      1  C   UNL     1       6.629   1.286   2.789  1.00  0.00     0.188 C 
ENDROOT
BRANCH   1   2
ATOM      2  C   UNL     1       8.094   1.393   2.322  1.00  0.00     0.188 C 
BRANCH   2   3
ATOM      3  O   UNL     1       8.547   2.722   2.155  1.00  0.00    -0.376 OA
BRANCH   3   4
ATOM      4  C   UNL     1       8.707   3.259   0.856  1.00  0.00     0.202 C 
BRANCH   4   5
ATOM      5  C   UNL     1       7.577   3.177  -0.185  1.00  0.00     0.261 C 
BRANCH   5   6
ATOM      6  O   UNL     1       6.785   1.987  -0.178  1.00  0.00    -0.460 OA
BRANCH   6   7
ATOM      7  C   UNL     1       7.309   0.908  -0.789  1.00  0.00     0.330 C 
ATOM      8  O   UNL     1       8.413   0.835  -1.308  1.00  0.00    -0.247 OA
BRANCH   7   9
ATOM      9  C   UNL     1       6.444  -0.281  -0.613  1.00  0.00     0.094 C 
ATOM     10  C   UNL     1       5.165  -0.283  -0.190  1.00  0.00     0.018 C 
BRANCH  10  11
ATOM     11  C   UNL     1       4.396  -1.537  -0.065  1.00  0.00     0.006 A 
ATOM     12  C   UNL     1       3.048  -1.684  -0.420  1.00  0.00     0.050 A 
ATOM     13  C   UNL     1       2.485  -2.962  -0.516  1.00  0.00     0.034 A 
ATOM     14  C   UNL     1       3.216  -4.040  -0.067  1.00  0.00     0.112 A 
ATOM     15  C   UNL     1       5.011  -2.692   0.423  1.00  0.00     0.119 A 
ATOM     16  N   UNL     1       4.452  -3.927   0.449  1.00  0.00    -0.264 NA
BRANCH  12  17
ATOM     17  C   UNL     1       2.175  -0.529  -0.733  1.00  0.00     0.252 C 
ATOM     18  N   UNL     1       0.976  -0.390  -0.071  1.00  0.00    -0.342 N 
ATOM     19  H   UNL     1       0.392   0.323  -0.416  1.00  0.00     0.164 HD
ATOM     20  O   UNL     1       2.522   0.282  -1.583  1.00  0.00    -0.269 OA
BRANCH  18  21
ATOM     21  C   UNL     1       0.434  -1.134   1.064  1.00  0.00     0.145 C 
ATOM     22  C   UNL     1       0.888  -0.554   2.397  1.00  0.00     0.039 C 
BRANCH  21  23
ATOM     23  C   UNL     1      -1.055  -1.176   0.950  1.00  0.00     0.125 A 
ATOM     24  C   UNL     1      -1.960  -2.216   0.862  1.00  0.00     0.048 A 
ATOM     25  O   UNL     1      -1.718   0.017   0.927  1.00  0.00    -0.467 OA
ATOM     26  C   UNL     1      -3.244  -1.625   0.791  1.00  0.00     0.042 A 
ATOM     27  C   UNL     1      -3.043  -0.266   0.832  1.00  0.00     0.195 A 
ENDBRANCH  21  23
ENDBRANCH  18  21
ENDBRANCH  12  17
ENDBRANCH  10  11
ENDBRANCH   7   9
ENDBRANCH   6   7
ENDBRANCH   5   6
ENDBRANCH   4   5
ENDBRANCH   3   4
ENDBRANCH   2   3
ENDBRANCH   1   2
BRANCH   1  28
ATOM     28  O   UNL     1       5.781   2.409   2.614  1.00  0.00    -0.377 OA
BRANCH  28  29
ATOM     29  C   UNL     1       6.148   3.677   3.157  1.00  0.00     0.188 C 
BRANCH  29  30
ATOM     30  C   UNL     1       7.215   3.830   4.268  1.00  0.00     0.188 C 
BRANCH  30  31
ATOM     31  O   UNL     1       7.594   2.621   4.904  1.00  0.00    -0.376 OA
BRANCH  31  32
ATOM     32  C   UNL     1       7.145   2.414   6.230  1.00  0.00     0.202 C 
BRANCH  32  33
ATOM     33  C   UNL     1       5.629   2.279   6.428  1.00  0.00     0.261 C 
BRANCH  33  34
ATOM     34  O   UNL     1       4.827   3.357   5.924  1.00  0.00    -0.460 OA
BRANCH  34  35
ATOM     35  C   UNL     1       4.976   4.566   6.518  1.00  0.00     0.338 C 
ATOM     36  O   UNL     1       5.717   4.842   7.436  1.00  0.00    -0.246 OA
BRANCH  35  37
ATOM     37  C   UNL     1       4.204   5.547   5.723  1.00  0.00     0.060 A 
ATOM     38  C   UNL     1       4.876   6.614   5.112  1.00  0.00     0.016 A 
ATOM     39  C   UNL     1       2.822   5.405   5.580  1.00  0.00     0.016 A 
ATOM     40  C   UNL     1       4.158   7.562   4.380  1.00  0.00     0.010 A 
ATOM     41  C   UNL     1       2.104   6.366   4.863  1.00  0.00     0.010 A 
ATOM     42  C   UNL     1       2.763   7.467   4.287  1.00  0.00    -0.014 A 
BRANCH  42  43
ATOM     43  C   UNL     1       1.972   8.607   3.759  1.00  0.00     0.031 A 
ATOM     44  C   UNL     1       1.334   9.548   4.747  1.00  0.00     0.074 A 
ATOM     45  C   UNL     1       1.824   8.807   2.436  1.00  0.00     0.049 A 
ATOM     46  N   UNL     1       0.546  10.568   4.532  1.00  0.00    -0.248 NA
ATOM     47  C   UNL     1       1.621   9.300   6.171  1.00  0.00     0.031 C 
ATOM     48  C   UNL     1       2.423   7.989   1.382  1.00  0.00     0.029 A 
ATOM     49  N   UNL     1       1.108   9.760   1.753  1.00  0.00    -0.354 N 
ATOM     50  C   UNL     1       0.226  11.069   5.789  1.00  0.00     0.074 A 
ATOM     51  C   UNL     1       0.891  10.234   6.763  1.00  0.00     0.031 C 
ATOM     52  C   UNL     1       2.038   8.469   0.185  1.00  0.00     0.029 A 
ATOM     53  C   UNL     1       1.136   9.601   0.387  1.00  0.00     0.049 A 
ATOM     54  H   UNL     1       0.619  10.489   2.200  1.00  0.00     0.167 HD
ATOM     55  C   UNL     1      -0.553  12.131   6.100  1.00  0.00     0.037 A 
ATOM     56  C   UNL     1       0.485  10.277  -0.583  1.00  0.00     0.037 A 
ATOM     57  C   UNL     1      -1.197  12.970   5.124  1.00  0.00     0.049 A 
ATOM     58  C   UNL     1      -0.426  11.420  -0.201  1.00  0.00     0.074 A 
ATOM     59  C   UNL     1      -1.967  14.100   5.340  1.00  0.00     0.029 A 
ATOM     60  N   UNL     1      -1.159  12.767   3.753  1.00  0.00    -0.354 N 
ATOM     61  N   UNL     1      -0.681  11.914   0.989  1.00  0.00    -0.248 NA
ATOM     62  C   UNL     1      -1.138  12.100  -1.293  1.00  0.00     0.031 C 
ATOM     63  C   UNL     1      -2.450  14.540   4.105  1.00  0.00     0.029 A 
ATOM     64  C   UNL     1      -1.923  13.729   3.114  1.00  0.00     0.049 A 
ATOM     65  H   UNL     1      -0.663  12.046   3.302  1.00  0.00     0.167 HD
ATOM     66  C   UNL     1      -1.547  12.985   0.780  1.00  0.00     0.074 A 
ATOM     67  C   UNL     1      -1.764  13.074  -0.648  1.00  0.00     0.031 C 
ATOM     68  C   UNL     1      -2.111  13.821   1.688  1.00  0.00     0.037 A 
BRANCH  55  69
ATOM     69  C   UNL     1      -0.786  12.441   7.553  1.00  0.00     0.058 A 
ATOM     70  C   UNL     1       0.214  12.993   8.368  1.00  0.00     0.135 A 
ATOM     71  C   UNL     1      -2.062  12.260   8.112  1.00  0.00     0.135 A 
ATOM     72  F   UNL     1       1.457  13.165   7.891  1.00  0.00    -0.206 F 
ATOM     73  C   UNL     1      -0.043  13.354   9.687  1.00  0.00     0.059 A 
ATOM     74  C   UNL     1      -2.349  12.640   9.419  1.00  0.00     0.059 A 
ATOM     75  F   UNL     1      -3.052  11.728   7.378  1.00  0.00    -0.206 F 
ATOM     76  C   UNL     1      -1.330  13.183  10.200  1.00  0.00     0.060 A 
BRANCH  76  77
ATOM     77  S   UNL     1      -1.660  13.710  11.895  1.00  0.00     0.124 S 
ATOM     78  O   UNL     1      -0.917  12.712  12.660  1.00  0.00    -0.237 OA
ATOM     79  O   UNL     1      -1.108  15.061  11.912  1.00  0.00    -0.237 OA
ATOM     80  O   UNL     1      -3.113  13.627  12.002  1.00  0.00    -0.744 OA
ENDBRANCH  76  77
ENDBRANCH  55  69
BRANCH  56  81
ATOM     81  C   UNL     1       0.637   9.890  -2.015  1.00  0.00     0.058 A 
ATOM     82  C   UNL     1       1.220  10.764  -2.946  1.00  0.00     0.135 A 
ATOM     83  C   UNL     1       0.144   8.666  -2.496  1.00  0.00     0.135 A 
ATOM     84  F   UNL     1       1.697  11.952  -2.542  1.00  0.00    -0.206 F 
ATOM     85  C   UNL     1       1.273  10.460  -4.303  1.00  0.00     0.059 A 
ATOM     86  C   UNL     1       0.216   8.323  -3.843  1.00  0.00     0.059 A 
ATOM     87  F   UNL     1      -0.418   7.788  -1.650  1.00  0.00    -0.206 F 
ATOM     88  C   UNL     1       0.762   9.238  -4.742  1.00  0.00     0.060 A 
BRANCH  88  89
ATOM     89  S   UNL     1       0.829   8.857  -6.507  1.00  0.00     0.124 S 
ATOM     90  O   UNL     1      -0.185   9.761  -7.039  1.00  0.00    -0.237 OA
ATOM     91  O   UNL     1       2.212   9.183  -6.838  1.00  0.00    -0.237 OA
ATOM     92  O   UNL     1       0.496   7.437  -6.557  1.00  0.00    -0.744 OA
ENDBRANCH  88  89
ENDBRANCH  56  81
BRANCH  68  93
ATOM     93  C   UNL     1      -2.968  14.946   1.170  1.00  0.00     0.058 A 
ATOM     94  C   UNL     1      -4.234  14.720   0.607  1.00  0.00     0.135 A 
ATOM     95  C   UNL     1      -2.538  16.278   1.296  1.00  0.00     0.135 A 
ATOM     96  F   UNL     1      -4.694  13.467   0.458  1.00  0.00    -0.206 F 
ATOM     97  C   UNL     1      -5.030  15.771   0.163  1.00  0.00     0.059 A 
ATOM     98  C   UNL     1      -3.332  17.346   0.892  1.00  0.00     0.059 A 
ATOM     99  F   UNL     1      -1.341  16.553   1.841  1.00  0.00    -0.206 F 
ATOM    100  C   UNL     1      -4.572  17.082   0.313  1.00  0.00     0.060 A 
BRANCH 100 101
ATOM    101  S   UNL     1      -5.630  18.438  -0.235  1.00  0.00     0.124 S 
ATOM    102  O   UNL     1      -5.540  18.314  -1.686  1.00  0.00    -0.237 OA
ATOM    103  O   UNL     1      -6.918  18.084   0.353  1.00  0.00    -0.237 OA
ATOM    104  O   UNL     1      -4.992  19.621   0.335  1.00  0.00    -0.744 OA
ENDBRANCH 100 101
ENDBRANCH  68  93
ENDBRANCH  42  43
ENDBRANCH  35  37
ENDBRANCH  34  35
ENDBRANCH  33  34
ENDBRANCH  32  33
ENDBRANCH  31  32
ENDBRANCH  30  31
ENDBRANCH  29  30
ENDBRANCH  28  29
ENDBRANCH   1  28
TORSDOF 27
