REMARK SMILES C[C@@H]1CCC[N@@H+]([C@@H]2CCC[C@]([NH3+])(C(=O)OCCOCCOCCOCCOC(=O)c3ccc(-c4c5nc(c(-c6c(F)cc(S(=O)(=O)[O-])cc6F)c6ccc([nH]6)c(-c6c(F)cc(S(=O)(=O)[O-])cc6F)c6nc(c(-c7c(F)cc(S(=O)(=O)[O-])cc7F)c7ccc4[nH]7)C=C6)C=C5)cc3)C2)C1
REMARK SMILES IDX 22 1 21 2 20 3 19 4 18 5 17 6 16 7 15 8 13 9 14 10 11 11
REMARK SMILES IDX 7 12 8 13 96 14 9 15 10 16 6 17 1 18 2 19 3 20 97 21 4 22
REMARK SMILES IDX 5 23 12 25 23 29 24 30 25 31 26 32 27 33 28 34 29 35 30 36
REMARK SMILES IDX 31 37 95 38 32 39 94 40 33 41 34 42 35 43 88 44 36 45 93 46
REMARK SMILES IDX 87 47 89 48 37 49 92 50 86 51 85 52 38 54 72 55 51 56 71 57
REMARK SMILES IDX 52 58 55 59 70 60 90 61 53 62 54 63 69 65 91 66 56 67 39 68
REMARK SMILES IDX 40 69 49 70 41 71 42 72 48 73 50 74 43 75 44 76 45 77 46 78
REMARK SMILES IDX 47 79 73 80 74 81 83 82 75 83 76 84 82 85 84 86 77 87 78 88
REMARK SMILES IDX 79 89 80 90 81 91 57 92 58 93 67 94 59 95 60 96 66 97 68 98
REMARK SMILES IDX 61 99 62 100 63 101 64 102 65 103
REMARK H PARENT 6 24 12 26 12 27 12 28 89 53 55 64
REMARK Flexibility Score: inf
ROOT
ATOM      1  C   UNL     1       5.448   4.249  -6.101  1.00  0.00     0.188 C 
ENDROOT
BRANCH   1   2
ATOM      2  O   UNL     1       4.647   3.321  -5.375  1.00  0.00    -0.377 OA
BRANCH   2   3
ATOM      3  C   UNL     1       4.631   3.427  -3.969  1.00  0.00     0.188 C 
BRANCH   3   4
ATOM      4  C   UNL     1       5.653   2.540  -3.242  1.00  0.00     0.188 C 
BRANCH   4   5
ATOM      5  O   UNL     1       6.881   2.181  -3.851  1.00  0.00    -0.376 OA
BRANCH   5   6
ATOM      6  C   UNL     1       6.949   1.480  -5.087  1.00  0.00     0.202 C 
BRANCH   6   7
ATOM      7  C   UNL     1       5.952   0.401  -5.531  1.00  0.00     0.261 C 
BRANCH   7   8
ATOM      8  O   UNL     1       4.574   0.715  -5.324  1.00  0.00    -0.459 OA
BRANCH   8   9
ATOM      9  C   UNL     1       3.953   0.001  -4.351  1.00  0.00     0.368 C 
ATOM     10  O   UNL     1       4.492  -0.884  -3.693  1.00  0.00    -0.245 OA
BRANCH   9  11
ATOM     11  C   UNL     1       2.493   0.462  -4.115  1.00  0.00     0.198 C 
ATOM     12  C   UNL     1       0.889   0.816  -2.075  1.00  0.00     0.190 C 
ATOM     13  C   UNL     1      -0.056  -0.195  -2.753  1.00  0.00     0.065 C 
ATOM     14  C   UNL     1       2.334   0.702  -2.594  1.00  0.00     0.145 C 
ATOM     15  C   UNL     1       0.144  -0.403  -4.247  1.00  0.00     0.013 C 
ATOM     16  C   UNL     1       1.598  -0.689  -4.571  1.00  0.00     0.081 C 
BRANCH  12  17
ATOM     17  N   UNL     1       0.836   0.885  -0.583  1.00  0.00    -0.332 N 
ATOM     18  C   UNL     1      -2.646  -0.006   0.820  1.00  0.00     0.013 C 
ATOM     19  C   UNL     1      -1.313  -0.257   0.119  1.00  0.00     0.041 C 
ATOM     20  C   UNL     1      -0.513  -1.374   0.803  1.00  0.00     0.015 C 
ATOM     21  C   UNL     1      -0.505   1.050  -0.007  1.00  0.00     0.265 C 
ATOM     22  C   UNL     1       0.933  -1.466   0.314  1.00  0.00     0.062 C 
ATOM     23  C   UNL     1       1.592  -0.094   0.208  1.00  0.00     0.262 C 
ATOM     24  H   UNL     1       1.361   1.754  -0.486  1.00  0.00     0.348 HD
ENDBRANCH  12  17
BRANCH  11  25
ATOM     25  N   UNL     1       2.104   1.641  -4.930  1.00  0.00    -0.343 N 
ATOM     26  H   UNL     1       1.136   1.890  -4.726  1.00  0.00     0.345 HD
ATOM     27  H   UNL     1       2.196   1.415  -5.920  1.00  0.00     0.345 HD
ATOM     28  H   UNL     1       2.712   2.427  -4.703  1.00  0.00     0.345 HD
ENDBRANCH  11  25
ENDBRANCH   9  11
ENDBRANCH   8   9
ENDBRANCH   7   8
ENDBRANCH   6   7
ENDBRANCH   5   6
ENDBRANCH   4   5
ENDBRANCH   3   4
ENDBRANCH   2   3
ENDBRANCH   1   2
BRANCH   1  29
ATOM     29  C   UNL     1       6.633   4.957  -5.404  1.00  0.00     0.188 C 
BRANCH  29  30
ATOM     30  O   UNL     1       6.357   5.452  -4.102  1.00  0.00    -0.376 OA
BRANCH  30  31
ATOM     31  C   UNL     1       5.962   6.808  -3.952  1.00  0.00     0.202 C 
BRANCH  31  32
ATOM     32  C   UNL     1       4.661   7.264  -4.635  1.00  0.00     0.261 C 
BRANCH  32  33
ATOM     33  O   UNL     1       4.603   7.133  -6.064  1.00  0.00    -0.460 OA
BRANCH  33  34
ATOM     34  C   UNL     1       5.567   7.729  -6.796  1.00  0.00     0.338 C 
ATOM     35  O   UNL     1       6.467   8.442  -6.382  1.00  0.00    -0.246 OA
BRANCH  34  36
ATOM     36  C   UNL     1       5.479   7.201  -8.173  1.00  0.00     0.060 A 
ATOM     37  C   UNL     1       6.584   6.531  -8.716  1.00  0.00     0.016 A 
ATOM     38  C   UNL     1       4.314   7.365  -8.925  1.00  0.00     0.016 A 
ATOM     39  C   UNL     1       6.542   6.062 -10.029  1.00  0.00     0.010 A 
ATOM     40  C   UNL     1       4.282   6.917 -10.248  1.00  0.00     0.010 A 
ATOM     41  C   UNL     1       5.409   6.298 -10.818  1.00  0.00    -0.014 A 
BRANCH  41  42
ATOM     42  C   UNL     1       5.481   6.096 -12.286  1.00  0.00     0.031 A 
ATOM     43  C   UNL     1       5.740   7.297 -13.155  1.00  0.00     0.074 A 
ATOM     44  C   UNL     1       5.341   4.877 -12.837  1.00  0.00     0.049 A 
ATOM     45  N   UNL     1       5.784   7.387 -14.458  1.00  0.00    -0.248 NA
ATOM     46  C   UNL     1       5.980   8.571 -12.455  1.00  0.00     0.031 C 
ATOM     47  C   UNL     1       5.135   3.633 -12.098  1.00  0.00     0.029 A 
ATOM     48  N   UNL     1       5.342   4.491 -14.154  1.00  0.00    -0.354 N 
ATOM     49  C   UNL     1       6.044   8.725 -14.735  1.00  0.00     0.074 A 
ATOM     50  C   UNL     1       6.117   9.415 -13.466  1.00  0.00     0.031 C 
ATOM     51  C   UNL     1       5.012   2.621 -12.976  1.00  0.00     0.029 A 
ATOM     52  C   UNL     1       5.095   3.151 -14.337  1.00  0.00     0.049 A 
ATOM     53  H   UNL     1       5.505   5.115 -14.898  1.00  0.00     0.167 HD
ATOM     54  C   UNL     1       6.214   9.322 -15.938  1.00  0.00     0.037 A 
ATOM     55  C   UNL     1       4.926   2.443 -15.472  1.00  0.00     0.037 A 
ATOM     56  C   UNL     1       6.137   8.628 -17.197  1.00  0.00     0.049 A 
ATOM     57  C   UNL     1       5.042   3.144 -16.804  1.00  0.00     0.074 A 
ATOM     58  C   UNL     1       6.308   9.139 -18.471  1.00  0.00     0.029 A 
ATOM     59  N   UNL     1       5.856   7.277 -17.342  1.00  0.00    -0.354 N 
ATOM     60  N   UNL     1       5.307   4.405 -17.054  1.00  0.00    -0.248 NA
ATOM     61  C   UNL     1       4.837   2.326 -18.008  1.00  0.00     0.031 C 
ATOM     62  C   UNL     1       6.070   8.111 -19.389  1.00  0.00     0.029 A 
ATOM     63  C   UNL     1       5.819   6.943 -18.685  1.00  0.00     0.049 A 
ATOM     64  H   UNL     1       5.705   6.649 -16.599  1.00  0.00     0.167 HD
ATOM     65  C   UNL     1       5.335   4.522 -18.441  1.00  0.00     0.074 A 
ATOM     66  C   UNL     1       5.068   3.203 -18.975  1.00  0.00     0.031 C 
ATOM     67  C   UNL     1       5.563   5.621 -19.204  1.00  0.00     0.037 A 
BRANCH  54  68
ATOM     68  C   UNL     1       6.466  10.806 -15.952  1.00  0.00     0.058 A 
ATOM     69  C   UNL     1       7.671  11.360 -15.492  1.00  0.00     0.135 A 
ATOM     70  C   UNL     1       5.496  11.684 -16.464  1.00  0.00     0.135 A 
ATOM     71  F   UNL     1       8.625  10.570 -14.973  1.00  0.00    -0.206 F 
ATOM     72  C   UNL     1       7.896  12.732 -15.514  1.00  0.00     0.059 A 
ATOM     73  C   UNL     1       5.712  13.057 -16.525  1.00  0.00     0.059 A 
ATOM     74  F   UNL     1       4.323  11.210 -16.912  1.00  0.00    -0.206 F 
ATOM     75  C   UNL     1       6.911  13.573 -16.035  1.00  0.00     0.060 A 
BRANCH  75  76
ATOM     76  S   UNL     1       7.223  15.351 -16.065  1.00  0.00     0.124 S 
ATOM     77  O   UNL     1       7.151  15.683 -14.646  1.00  0.00    -0.237 OA
ATOM     78  O   UNL     1       8.551  15.422 -16.666  1.00  0.00    -0.237 OA
ATOM     79  O   UNL     1       6.136  15.874 -16.887  1.00  0.00    -0.744 OA
ENDBRANCH  75  76
ENDBRANCH  54  68
BRANCH  55  80
ATOM     80  C   UNL     1       4.613   0.988 -15.405  1.00  0.00     0.058 A 
ATOM     81  C   UNL     1       5.529   0.026 -15.855  1.00  0.00     0.135 A 
ATOM     82  C   UNL     1       3.386   0.532 -14.896  1.00  0.00     0.135 A 
ATOM     83  F   UNL     1       6.709   0.410 -16.365  1.00  0.00    -0.206 F 
ATOM     84  C   UNL     1       5.236  -1.334 -15.818  1.00  0.00     0.059 A 
ATOM     85  C   UNL     1       3.083  -0.824 -14.820  1.00  0.00     0.059 A 
ATOM     86  F   UNL     1       2.476   1.410 -14.447  1.00  0.00    -0.206 F 
ATOM     87  C   UNL     1       4.011  -1.750 -15.293  1.00  0.00     0.060 A 
BRANCH  87  88
ATOM     88  S   UNL     1       3.664  -3.520 -15.202  1.00  0.00     0.124 S 
ATOM     89  O   UNL     1       3.478  -3.856 -16.609  1.00  0.00    -0.237 OA
ATOM     90  O   UNL     1       4.878  -4.035 -14.576  1.00  0.00    -0.237 OA
ATOM     91  O   UNL     1       2.464  -3.585 -14.373  1.00  0.00    -0.744 OA
ENDBRANCH  87  88
ENDBRANCH  55  80
BRANCH  67  92
ATOM     92  C   UNL     1       5.585   5.445 -20.700  1.00  0.00     0.058 A 
ATOM     93  C   UNL     1       4.417   5.191 -21.436  1.00  0.00     0.135 A 
ATOM     94  C   UNL     1       6.787   5.595 -21.413  1.00  0.00     0.135 A 
ATOM     95  F   UNL     1       3.242   5.034 -20.807  1.00  0.00    -0.206 F 
ATOM     96  C   UNL     1       4.444   5.069 -22.823  1.00  0.00     0.059 A 
ATOM     97  C   UNL     1       6.831   5.510 -22.801  1.00  0.00     0.059 A 
ATOM     98  F   UNL     1       7.932   5.851 -20.761  1.00  0.00    -0.206 F 
ATOM     99  C   UNL     1       5.656   5.234 -23.497  1.00  0.00     0.060 A 
BRANCH  99 100
ATOM    100  S   UNL     1       5.669   5.108 -25.297  1.00  0.00     0.124 S 
ATOM    101  O   UNL     1       5.465   3.677 -25.495  1.00  0.00    -0.237 OA
ATOM    102  O   UNL     1       4.551   5.966 -25.677  1.00  0.00    -0.237 OA
ATOM    103  O   UNL     1       6.989   5.610 -25.665  1.00  0.00    -0.744 OA
ENDBRANCH  99 100
ENDBRANCH  67  92
ENDBRANCH  41  42
ENDBRANCH  34  36
ENDBRANCH  33  34
ENDBRANCH  32  33
ENDBRANCH  31  32
ENDBRANCH  30  31
ENDBRANCH  29  30
ENDBRANCH   1  29
TORSDOF 25
