REMARK SMILES COc1cc2c(cc1OC)[C@H](C(=O)OCCOCCOCCOCCOC(=O)c1ccc(-c3c4nc(c(-c5c(F)cc(S(=O)(=O)[O-])cc5F)c5ccc([nH]5)c(-c5c(F)cc(S(=O)(=O)[O-])cc5F)c5nc(c(-c6c(F)cc(S(=O)(=O)[O-])cc6F)c6ccc3[nH]6)C=C5)C=C4)cc1)[C@H](c1cccc(Cl)c1)N(C)C2=O
REMARK SMILES IDX 21 1 20 2 19 3 18 4 17 5 16 6 15 7 14 8 12 9 13 10 11 11
REMARK SMILES IDX 3 12 4 13 8 14 5 15 7 16 6 17 105 18 103 19 106 20 95 21
REMARK SMILES IDX 104 22 2 23 1 24 9 25 10 26 96 27 97 28 102 29 98 30 100 31
REMARK SMILES IDX 99 32 101 33 22 34 23 35 24 36 25 37 26 38 27 39 28 40 29 41
REMARK SMILES IDX 30 42 94 43 31 44 93 45 32 46 33 47 34 48 87 49 35 50 92 51
REMARK SMILES IDX 86 52 88 53 36 54 91 55 85 56 84 57 37 59 71 60 50 61 70 62
REMARK SMILES IDX 51 63 54 64 69 65 89 66 52 67 53 68 68 70 90 71 55 72 38 73
REMARK SMILES IDX 39 74 48 75 40 76 41 77 47 78 49 79 42 80 43 81 44 82 45 83
REMARK SMILES IDX 46 84 72 85 73 86 82 87 74 88 75 89 81 90 83 91 76 92 77 93
REMARK SMILES IDX 78 94 79 95 80 96 56 97 57 98 66 99 58 100 59 101 65 102
REMARK SMILES IDX 67 103 60 104 61 105 62 106 63 107 64 108
REMARK H PARENT 88 58 54 69
REMARK Flexibility Score: inf
ROOT
ATOM      1  C   UNL     1       0.595   7.307  -8.707  1.00  0.00     0.188 C 
ENDROOT
BRANCH   1   2
ATOM      2  O   UNL     1       1.352   7.237  -7.511  1.00  0.00    -0.377 OA
BRANCH   2   3
ATOM      3  C   UNL     1       2.190   6.115  -7.306  1.00  0.00     0.188 C 
BRANCH   3   4
ATOM      4  C   UNL     1       2.065   4.827  -8.155  1.00  0.00     0.188 C 
BRANCH   4   5
ATOM      5  O   UNL     1       0.927   4.686  -8.985  1.00  0.00    -0.376 OA
BRANCH   5   6
ATOM      6  C   UNL     1      -0.123   3.812  -8.604  1.00  0.00     0.202 C 
BRANCH   6   7
ATOM      7  C   UNL     1      -0.797   4.103  -7.260  1.00  0.00     0.261 C 
BRANCH   7   8
ATOM      8  O   UNL     1       0.139   4.235  -6.183  1.00  0.00    -0.463 OA
BRANCH   8   9
ATOM      9  C   UNL     1       0.816   3.103  -5.851  1.00  0.00     0.316 C 
ATOM     10  O   UNL     1       0.581   2.003  -6.330  1.00  0.00    -0.251 OA
BRANCH   9  11
ATOM     11  C   UNL     1       1.851   3.416  -4.777  1.00  0.00     0.157 C 
ATOM     12  C   UNL     1       0.883   0.853  -1.520  1.00  0.00     0.161 A 
ATOM     13  C   UNL     1       2.195   1.354  -1.646  1.00  0.00     0.064 A 
ATOM     14  C   UNL     1      -0.148   1.381  -2.303  1.00  0.00     0.161 A 
ATOM     15  C   UNL     1       2.498   2.290  -2.634  1.00  0.00     0.048 A 
ATOM     16  C   UNL     1       0.168   2.337  -3.254  1.00  0.00     0.056 A 
ATOM     17  C   UNL     1       1.497   2.682  -3.515  1.00  0.00    -0.015 A 
ATOM     18  C   UNL     1       3.868   2.867  -2.771  1.00  0.00     0.254 C 
ATOM     19  N   UNL     1       4.190   3.419  -4.015  1.00  0.00    -0.333 N 
ATOM     20  O   UNL     1       4.643   2.839  -1.822  1.00  0.00    -0.269 OA
ATOM     21  C   UNL     1       3.336   3.140  -5.194  1.00  0.00     0.134 C 
ATOM     22  C   UNL     1       5.488   4.050  -4.199  1.00  0.00     0.147 C 
BRANCH  12  23
ATOM     23  O   UNL     1       0.622  -0.219  -0.712  1.00  0.00    -0.493 OA
ATOM     24  C   UNL     1       1.087  -0.050   0.620  1.00  0.00     0.278 C 
ENDBRANCH  12  23
BRANCH  14  25
ATOM     25  O   UNL     1      -1.481   1.095  -2.326  1.00  0.00    -0.493 OA
ATOM     26  C   UNL     1      -1.960  -0.012  -1.591  1.00  0.00     0.278 C 
ENDBRANCH  14  25
BRANCH  21  27
ATOM     27  C   UNL     1       3.684   1.786  -5.848  1.00  0.00    -0.023 A 
ATOM     28  C   UNL     1       3.268   1.479  -7.158  1.00  0.00     0.006 A 
ATOM     29  C   UNL     1       4.448   0.802  -5.197  1.00  0.00     0.026 A 
ATOM     30  C   UNL     1       3.494   0.232  -7.747  1.00  0.00     0.002 A 
ATOM     31  C   UNL     1       4.696  -0.440  -5.793  1.00  0.00     0.041 A 
ATOM     32  C   UNL     1       4.200  -0.738  -7.056  1.00  0.00     0.020 A 
ATOM     33  Cl  UNL     1       5.624  -1.619  -4.949  1.00  0.00    -0.084 Cl
ENDBRANCH  21  27
ENDBRANCH   9  11
ENDBRANCH   8   9
ENDBRANCH   7   8
ENDBRANCH   6   7
ENDBRANCH   5   6
ENDBRANCH   4   5
ENDBRANCH   3   4
ENDBRANCH   2   3
ENDBRANCH   1   2
BRANCH   1  34
ATOM     34  C   UNL     1       1.363   7.179 -10.042  1.00  0.00     0.188 C 
BRANCH  34  35
ATOM     35  O   UNL     1       2.705   6.733  -9.897  1.00  0.00    -0.376 OA
BRANCH  35  36
ATOM     36  C   UNL     1       3.755   7.669 -10.044  1.00  0.00     0.202 C 
BRANCH  36  37
ATOM     37  C   UNL     1       3.814   8.876  -9.096  1.00  0.00     0.261 C 
BRANCH  37  38
ATOM     38  O   UNL     1       2.596   9.601  -8.894  1.00  0.00    -0.460 OA
BRANCH  38  39
ATOM     39  C   UNL     1       2.077  10.257  -9.953  1.00  0.00     0.338 C 
ATOM     40  O   UNL     1       2.544  10.317 -11.078  1.00  0.00    -0.246 OA
BRANCH  39  41
ATOM     41  C   UNL     1       0.719  10.697  -9.567  1.00  0.00     0.060 A 
ATOM     42  C   UNL     1      -0.384  10.247 -10.310  1.00  0.00     0.016 A 
ATOM     43  C   UNL     1       0.532  11.493  -8.435  1.00  0.00     0.016 A 
ATOM     44  C   UNL     1      -1.676  10.602  -9.927  1.00  0.00     0.010 A 
ATOM     45  C   UNL     1      -0.758  11.889  -8.081  1.00  0.00     0.010 A 
ATOM     46  C   UNL     1      -1.862  11.470  -8.845  1.00  0.00    -0.014 A 
BRANCH  46  47
ATOM     47  C   UNL     1      -3.168  12.146  -8.678  1.00  0.00     0.031 A 
ATOM     48  C   UNL     1      -3.332  13.495  -9.322  1.00  0.00     0.074 A 
ATOM     49  C   UNL     1      -4.179  11.580  -7.996  1.00  0.00     0.049 A 
ATOM     50  N   UNL     1      -4.344  14.319  -9.278  1.00  0.00    -0.248 NA
ATOM     51  C   UNL     1      -2.193  13.982 -10.121  1.00  0.00     0.031 C 
ATOM     52  C   UNL     1      -4.145  10.261  -7.368  1.00  0.00     0.029 A 
ATOM     53  N   UNL     1      -5.432  12.059  -7.708  1.00  0.00    -0.354 N 
ATOM     54  C   UNL     1      -3.960  15.423 -10.029  1.00  0.00     0.074 A 
ATOM     55  C   UNL     1      -2.616  15.177 -10.500  1.00  0.00     0.031 C 
ATOM     56  C   UNL     1      -5.318  10.046  -6.746  1.00  0.00     0.029 A 
ATOM     57  C   UNL     1      -6.170  11.224  -6.904  1.00  0.00     0.049 A 
ATOM     58  H   UNL     1      -5.770  12.920  -8.046  1.00  0.00     0.167 HD
ATOM     59  C   UNL     1      -4.669  16.541 -10.304  1.00  0.00     0.037 A 
ATOM     60  C   UNL     1      -7.381  11.409  -6.339  1.00  0.00     0.037 A 
ATOM     61  C   UNL     1      -6.006  16.776  -9.829  1.00  0.00     0.049 A 
ATOM     62  C   UNL     1      -8.128  12.693  -6.610  1.00  0.00     0.074 A 
ATOM     63  C   UNL     1      -6.823  17.864 -10.072  1.00  0.00     0.029 A 
ATOM     64  N   UNL     1      -6.716  15.914  -9.007  1.00  0.00    -0.354 N 
ATOM     65  N   UNL     1      -7.771  13.717  -7.350  1.00  0.00    -0.248 NA
ATOM     66  C   UNL     1      -9.444  12.846  -5.974  1.00  0.00     0.031 C 
ATOM     67  C   UNL     1      -8.004  17.690  -9.345  1.00  0.00     0.029 A 
ATOM     68  C   UNL     1      -7.951  16.461  -8.706  1.00  0.00     0.049 A 
ATOM     69  H   UNL     1      -6.390  15.043  -8.684  1.00  0.00     0.167 HD
ATOM     70  C   UNL     1      -8.830  14.619  -7.293  1.00  0.00     0.074 A 
ATOM     71  C   UNL     1      -9.846  14.014  -6.457  1.00  0.00     0.031 C 
ATOM     72  C   UNL     1      -8.955  15.836  -7.880  1.00  0.00     0.037 A 
BRANCH  59  73
ATOM     73  C   UNL     1      -4.002  17.610 -11.123  1.00  0.00     0.058 A 
ATOM     74  C   UNL     1      -3.747  17.447 -12.494  1.00  0.00     0.135 A 
ATOM     75  C   UNL     1      -3.654  18.836 -10.533  1.00  0.00     0.135 A 
ATOM     76  F   UNL     1      -4.035  16.285 -13.102  1.00  0.00    -0.206 F 
ATOM     77  C   UNL     1      -3.161  18.458 -13.248  1.00  0.00     0.059 A 
ATOM     78  C   UNL     1      -3.094  19.871 -11.274  1.00  0.00     0.059 A 
ATOM     79  F   UNL     1      -3.864  19.039  -9.223  1.00  0.00    -0.206 F 
ATOM     80  C   UNL     1      -2.844  19.669 -12.630  1.00  0.00     0.060 A 
BRANCH  80  81
ATOM     81  S   UNL     1      -2.117  20.982 -13.632  1.00  0.00     0.124 S 
ATOM     82  O   UNL     1      -0.784  20.448 -13.892  1.00  0.00    -0.237 OA
ATOM     83  O   UNL     1      -3.016  21.029 -14.781  1.00  0.00    -0.237 OA
ATOM     84  O   UNL     1      -2.165  22.147 -12.754  1.00  0.00    -0.744 OA
ENDBRANCH  80  81
ENDBRANCH  59  73
BRANCH  60  85
ATOM     85  C   UNL     1      -7.955  10.372  -5.438  1.00  0.00     0.058 A 
ATOM     86  C   UNL     1      -9.107   9.653  -5.792  1.00  0.00     0.135 A 
ATOM     87  C   UNL     1      -7.372  10.094  -4.191  1.00  0.00     0.135 A 
ATOM     88  F   UNL     1      -9.710   9.889  -6.967  1.00  0.00    -0.206 F 
ATOM     89  C   UNL     1      -9.673   8.714  -4.935  1.00  0.00     0.059 A 
ATOM     90  C   UNL     1      -7.902   9.138  -3.330  1.00  0.00     0.059 A 
ATOM     91  F   UNL     1      -6.264  10.746  -3.805  1.00  0.00    -0.206 F 
ATOM     92  C   UNL     1      -9.061   8.461  -3.706  1.00  0.00     0.060 A 
BRANCH  92  93
ATOM     93  S   UNL     1      -9.783   7.214  -2.618  1.00  0.00     0.124 S 
ATOM     94  O   UNL     1     -10.995   7.885  -2.164  1.00  0.00    -0.237 OA
ATOM     95  O   UNL     1      -9.978   6.091  -3.530  1.00  0.00    -0.237 OA
ATOM     96  O   UNL     1      -8.753   7.016  -1.604  1.00  0.00    -0.744 OA
ENDBRANCH  92  93
ENDBRANCH  60  85
BRANCH  72  97
ATOM     97  C   UNL     1     -10.250  16.579  -7.684  1.00  0.00     0.058 A 
ATOM     98  C   UNL     1     -10.598  17.154  -6.453  1.00  0.00     0.135 A 
ATOM     99  C   UNL     1     -11.124  16.773  -8.768  1.00  0.00     0.135 A 
ATOM    100  F   UNL     1      -9.800  16.998  -5.384  1.00  0.00    -0.206 F 
ATOM    101  C   UNL     1     -11.779  17.872  -6.294  1.00  0.00     0.059 A 
ATOM    102  C   UNL     1     -12.293  17.515  -8.641  1.00  0.00     0.059 A 
ATOM    103  F   UNL     1     -10.833  16.257  -9.973  1.00  0.00    -0.206 F 
ATOM    104  C   UNL     1     -12.619  18.050  -7.396  1.00  0.00     0.060 A 
BRANCH 104 105
ATOM    105  S   UNL     1     -14.132  19.012  -7.184  1.00  0.00     0.124 S 
ATOM    106  O   UNL     1     -14.953  18.098  -6.397  1.00  0.00    -0.237 OA
ATOM    107  O   UNL     1     -13.652  20.198  -6.482  1.00  0.00    -0.237 OA
ATOM    108  O   UNL     1     -14.585  19.241  -8.553  1.00  0.00    -0.744 OA
ENDBRANCH 104 105
ENDBRANCH  72  97
ENDBRANCH  46  47
ENDBRANCH  39  41
ENDBRANCH  38  39
ENDBRANCH  37  38
ENDBRANCH  36  37
ENDBRANCH  35  36
ENDBRANCH  34  35
ENDBRANCH   1  34
TORSDOF 26
