REMARK SMILES CC[C@@H](C)N(C)C(=O)N1[C@@H](C(=O)OCCOCCOCCOCCOC(=O)c2ccc(-c3c4nc(c(-c5c(F)cc(S(=O)(=O)[O-])cc5F)c5ccc([nH]5)c(-c5c(F)cc(S(=O)(=O)[O-])cc5F)c5nc(c(-c6c(F)cc(S(=O)(=O)[O-])cc6F)c6ccc3[nH]6)C=C5)C=C4)cc2)CC[C@H]2CCCC[C@H]21
REMARK SMILES IDX 18 1 17 2 16 3 15 4 14 5 13 6 11 7 12 8 10 9 9 10 101 11
REMARK SMILES IDX 94 12 96 13 100 14 95 15 97 16 99 17 98 18 7 19 8 20 5 21
REMARK SMILES IDX 6 22 3 23 4 24 2 25 1 26 19 27 20 28 21 29 22 30 23 31 24 32
REMARK SMILES IDX 25 33 26 34 27 35 28 36 29 37 93 38 30 39 92 40 31 41 32 42
REMARK SMILES IDX 33 43 86 44 34 45 91 46 85 47 87 48 35 49 90 50 84 51 83 52
REMARK SMILES IDX 36 54 70 55 49 56 69 57 50 58 53 59 68 60 88 61 51 62 52 63
REMARK SMILES IDX 67 65 89 66 54 67 37 68 38 69 47 70 39 71 40 72 46 73 48 74
REMARK SMILES IDX 41 75 42 76 43 77 44 78 45 79 71 80 72 81 81 82 73 83 74 84
REMARK SMILES IDX 80 85 82 86 75 87 76 88 77 89 78 90 79 91 55 92 56 93 65 94
REMARK SMILES IDX 57 95 58 96 64 97 66 98 59 99 60 100 61 101 62 102 63 103
REMARK H PARENT 87 53 53 64
REMARK Flexibility Score: inf
ROOT
ATOM      1  C   UNL     1      -0.016   9.242  -2.251  1.00  0.00     0.188 C 
ENDROOT
BRANCH   1   2
ATOM      2  C   UNL     1       1.427   9.218  -1.747  1.00  0.00     0.188 C 
BRANCH   2   3
ATOM      3  O   UNL     1       2.353   8.743  -2.692  1.00  0.00    -0.376 OA
BRANCH   3   4
ATOM      4  C   UNL     1       2.681   7.380  -2.845  1.00  0.00     0.202 C 
BRANCH   4   5
ATOM      5  C   UNL     1       1.765   6.137  -2.745  1.00  0.00     0.261 C 
BRANCH   5   6
ATOM      6  O   UNL     1       0.411   6.189  -2.303  1.00  0.00    -0.462 OA
BRANCH   6   7
ATOM      7  C   UNL     1       0.232   6.316  -0.973  1.00  0.00     0.329 C 
ATOM      8  O   UNL     1       1.131   6.618  -0.192  1.00  0.00    -0.250 OA
BRANCH   7   9
ATOM      9  C   UNL     1      -1.199   6.015  -0.497  1.00  0.00     0.197 C 
ATOM     10  N   UNL     1      -1.569   4.639  -0.060  1.00  0.00    -0.308 N 
ATOM     11  C   UNL     1      -2.944   4.564   0.517  1.00  0.00     0.091 C 
ATOM     12  C   UNL     1      -2.267   6.606  -1.432  1.00  0.00     0.038 C 
ATOM     13  C   UNL     1      -4.042   5.305  -0.293  1.00  0.00     0.012 C 
ATOM     14  C   UNL     1      -3.489   3.153   0.775  1.00  0.00     0.025 C 
ATOM     15  C   UNL     1      -3.598   6.699  -0.706  1.00  0.00     0.008 C 
ATOM     16  C   UNL     1      -4.599   4.517  -1.497  1.00  0.00     0.006 C 
ATOM     17  C   UNL     1      -3.653   2.337  -0.496  1.00  0.00     0.002 C 
ATOM     18  C   UNL     1      -3.969   3.154  -1.743  1.00  0.00     0.000 C 
BRANCH  10  19
ATOM     19  C   UNL     1      -0.587   3.897   0.622  1.00  0.00     0.320 C 
ATOM     20  O   UNL     1      -0.740   3.490   1.773  1.00  0.00    -0.248 OA
BRANCH  19  21
ATOM     21  N   UNL     1       0.613   3.677  -0.059  1.00  0.00    -0.325 N 
ATOM     22  C   UNL     1       1.800   4.115   0.669  1.00  0.00     0.149 C 
BRANCH  21  23
ATOM     23  C   UNL     1       0.835   2.393  -0.773  1.00  0.00     0.083 C 
ATOM     24  C   UNL     1       0.134   2.301  -2.126  1.00  0.00     0.031 C 
BRANCH  23  25
ATOM     25  C   UNL     1       0.533   1.187   0.144  1.00  0.00     0.021 C 
ATOM     26  C   UNL     1       1.205  -0.108  -0.284  1.00  0.00     0.006 C 
ENDBRANCH  23  25
ENDBRANCH  21  23
ENDBRANCH  19  21
ENDBRANCH  10  19
ENDBRANCH   7   9
ENDBRANCH   6   7
ENDBRANCH   5   6
ENDBRANCH   4   5
ENDBRANCH   3   4
ENDBRANCH   2   3
ENDBRANCH   1   2
BRANCH   1  27
ATOM     27  O   UNL     1      -0.287   8.445  -3.392  1.00  0.00    -0.377 OA
BRANCH  27  28
ATOM     28  C   UNL     1       0.213   8.841  -4.670  1.00  0.00     0.188 C 
BRANCH  28  29
ATOM     29  C   UNL     1       1.111  10.087  -4.826  1.00  0.00     0.188 C 
BRANCH  29  30
ATOM     30  O   UNL     1       0.817  11.142  -3.926  1.00  0.00    -0.376 OA
BRANCH  30  31
ATOM     31  C   UNL     1      -0.061  12.174  -4.340  1.00  0.00     0.202 C 
BRANCH  31  32
ATOM     32  C   UNL     1      -1.468  11.795  -4.829  1.00  0.00     0.261 C 
BRANCH  32  33
ATOM     33  O   UNL     1      -1.551  10.917  -5.963  1.00  0.00    -0.460 OA
BRANCH  33  34
ATOM     34  C   UNL     1      -0.887  11.250  -7.087  1.00  0.00     0.338 C 
ATOM     35  O   UNL     1      -0.254  12.276  -7.294  1.00  0.00    -0.246 OA
BRANCH  34  36
ATOM     36  C   UNL     1      -0.879  10.065  -7.967  1.00  0.00     0.060 A 
ATOM     37  C   UNL     1       0.345   9.498  -8.349  1.00  0.00     0.016 A 
ATOM     38  C   UNL     1      -2.083   9.517  -8.414  1.00  0.00     0.016 A 
ATOM     39  C   UNL     1       0.370   8.407  -9.217  1.00  0.00     0.010 A 
ATOM     40  C   UNL     1      -2.056   8.443  -9.305  1.00  0.00     0.010 A 
ATOM     41  C   UNL     1      -0.829   7.911  -9.741  1.00  0.00    -0.014 A 
BRANCH  41  42
ATOM     42  C   UNL     1      -0.805   7.009 -10.916  1.00  0.00     0.031 A 
ATOM     43  C   UNL     1      -1.007   7.626 -12.274  1.00  0.00     0.074 A 
ATOM     44  C   UNL     1      -0.609   5.685 -10.789  1.00  0.00     0.049 A 
ATOM     45  N   UNL     1      -1.165   7.049 -13.434  1.00  0.00    -0.248 NA
ATOM     46  C   UNL     1      -1.041   9.099 -12.324  1.00  0.00     0.031 C 
ATOM     47  C   UNL     1      -0.346   4.984  -9.534  1.00  0.00     0.029 A 
ATOM     48  N   UNL     1      -0.625   4.690 -11.735  1.00  0.00    -0.354 N 
ATOM     49  C   UNL     1      -1.320   8.083 -14.350  1.00  0.00     0.074 A 
ATOM     50  C   UNL     1      -1.274   9.322 -13.608  1.00  0.00     0.031 C 
ATOM     51  C   UNL     1      -0.260   3.665  -9.782  1.00  0.00     0.029 A 
ATOM     52  C   UNL     1      -0.504   3.427 -11.204  1.00  0.00     0.049 A 
ATOM     53  H   UNL     1      -0.714   4.863 -12.700  1.00  0.00     0.167 HD
ATOM     54  C   UNL     1      -1.476   8.005 -15.692  1.00  0.00     0.037 A 
ATOM     55  C   UNL     1      -0.622   2.220 -11.796  1.00  0.00     0.037 A 
ATOM     56  C   UNL     1      -1.530   6.765 -16.419  1.00  0.00     0.049 A 
ATOM     57  C   UNL     1      -0.892   2.152 -13.281  1.00  0.00     0.074 A 
ATOM     58  C   UNL     1      -1.706   6.572 -17.777  1.00  0.00     0.029 A 
ATOM     59  N   UNL     1      -1.411   5.507 -15.846  1.00  0.00    -0.354 N 
ATOM     60  N   UNL     1      -1.043   3.135 -14.138  1.00  0.00    -0.248 NA
ATOM     61  C   UNL     1      -1.005   0.815 -13.881  1.00  0.00     0.031 C 
ATOM     62  C   UNL     1      -1.742   5.196 -18.019  1.00  0.00     0.029 A 
ATOM     63  C   UNL     1      -1.522   4.533 -16.821  1.00  0.00     0.049 A 
ATOM     64  H   UNL     1      -1.269   5.334 -14.887  1.00  0.00     0.167 HD
ATOM     65  C   UNL     1      -1.227   2.534 -15.381  1.00  0.00     0.074 A 
ATOM     66  C   UNL     1      -1.167   1.104 -15.165  1.00  0.00     0.031 C 
ATOM     67  C   UNL     1      -1.424   3.113 -16.591  1.00  0.00     0.037 A 
BRANCH  54  68
ATOM     68  C   UNL     1      -1.616   9.291 -16.457  1.00  0.00     0.058 A 
ATOM     69  C   UNL     1      -0.532  10.168 -16.628  1.00  0.00     0.135 A 
ATOM     70  C   UNL     1      -2.835   9.631 -17.067  1.00  0.00     0.135 A 
ATOM     71  F   UNL     1       0.649   9.904 -16.047  1.00  0.00    -0.206 F 
ATOM     72  C   UNL     1      -0.656  11.342 -17.363  1.00  0.00     0.059 A 
ATOM     73  C   UNL     1      -2.973  10.785 -17.831  1.00  0.00     0.059 A 
ATOM     74  F   UNL     1      -3.905   8.833 -16.928  1.00  0.00    -0.206 F 
ATOM     75  C   UNL     1      -1.880  11.639 -17.966  1.00  0.00     0.060 A 
BRANCH  75  76
ATOM     76  S   UNL     1      -2.013  13.155 -18.937  1.00  0.00     0.124 S 
ATOM     77  O   UNL     1      -1.947  14.175 -17.895  1.00  0.00    -0.237 OA
ATOM     78  O   UNL     1      -0.848  13.066 -19.811  1.00  0.00    -0.237 OA
ATOM     79  O   UNL     1      -3.305  13.021 -19.601  1.00  0.00    -0.744 OA
ENDBRANCH  75  76
ENDBRANCH  54  68
BRANCH  55  80
ATOM     80  C   UNL     1      -0.531   0.974 -10.984  1.00  0.00     0.058 A 
ATOM     81  C   UNL     1       0.517   0.059 -11.162  1.00  0.00     0.135 A 
ATOM     82  C   UNL     1      -1.515   0.659 -10.032  1.00  0.00     0.135 A 
ATOM     83  F   UNL     1       1.477   0.306 -12.066  1.00  0.00    -0.206 F 
ATOM     84  C   UNL     1       0.573  -1.135 -10.448  1.00  0.00     0.059 A 
ATOM     85  C   UNL     1      -1.463  -0.512  -9.283  1.00  0.00     0.059 A 
ATOM     86  F   UNL     1      -2.535   1.504  -9.813  1.00  0.00    -0.206 F 
ATOM     87  C   UNL     1      -0.424  -1.411  -9.511  1.00  0.00     0.060 A 
BRANCH  87  88
ATOM     88  S   UNL     1      -0.331  -2.954  -8.576  1.00  0.00     0.124 S 
ATOM     89  O   UNL     1      -0.665  -3.938  -9.599  1.00  0.00    -0.237 OA
ATOM     90  O   UNL     1       1.055  -2.951  -8.120  1.00  0.00    -0.237 OA
ATOM     91  O   UNL     1      -1.329  -2.770  -7.526  1.00  0.00    -0.744 OA
ENDBRANCH  87  88
ENDBRANCH  55  80
BRANCH  67  92
ATOM     92  C   UNL     1      -1.518   2.217 -17.797  1.00  0.00     0.058 A 
ATOM     93  C   UNL     1      -2.650   1.430 -18.054  1.00  0.00     0.135 A 
ATOM     94  C   UNL     1      -0.495   2.229 -18.761  1.00  0.00     0.135 A 
ATOM     95  F   UNL     1      -3.654   1.377 -17.165  1.00  0.00    -0.206 F 
ATOM     96  C   UNL     1      -2.761   0.679 -19.221  1.00  0.00     0.059 A 
ATOM     97  C   UNL     1      -0.598   1.511 -19.947  1.00  0.00     0.059 A 
ATOM     98  F   UNL     1       0.606   2.974 -18.568  1.00  0.00    -0.206 F 
ATOM     99  C   UNL     1      -1.734   0.735 -20.166  1.00  0.00     0.060 A 
BRANCH  99 100
ATOM    100  S   UNL     1      -1.925  -0.188 -21.706  1.00  0.00     0.124 S 
ATOM    101  O   UNL     1      -1.775  -1.564 -21.246  1.00  0.00    -0.237 OA
ATOM    102  O   UNL     1      -3.268   0.195 -22.133  1.00  0.00    -0.237 OA
ATOM    103  O   UNL     1      -0.840   0.316 -22.543  1.00  0.00    -0.744 OA
ENDBRANCH  99 100
ENDBRANCH  67  92
ENDBRANCH  41  42
ENDBRANCH  34  36
ENDBRANCH  33  34
ENDBRANCH  32  33
ENDBRANCH  31  32
ENDBRANCH  30  31
ENDBRANCH  29  30
ENDBRANCH  28  29
ENDBRANCH  27  28
ENDBRANCH   1  27
TORSDOF 27
