REMARK SMILES NC(=O)c1cc(NC(=O)/C=C\C(=O)OCCOCCOCCOCCOC(=O)c2ccc(-c3c4nc(c(-c5c(F)cc(S(=O)(=O)[O-])cc5F)c5ccc([nH]5)c(-c5c(F)cc(S(=O)(=O)[O-])cc5F)c5nc(c(-c6c(F)cc(S(=O)(=O)[O-])cc6F)c6ccc3[nH]6)C=C5)C=C4)cc2)ccc1N1CCOCC1
REMARK SMILES IDX 20 1 19 2 18 3 17 4 16 5 15 6 14 7 12 8 13 9 11 10 10 11
REMARK SMILES IDX 8 12 7 13 9 15 6 16 4 17 5 18 97 19 96 20 95 21 2 22 1 23
REMARK SMILES IDX 3 26 98 27 99 28 103 29 100 30 102 31 101 32 21 33 22 34
REMARK SMILES IDX 23 35 24 36 25 37 26 38 27 39 28 40 29 41 30 42 94 43 31 44
REMARK SMILES IDX 93 45 32 46 33 47 34 48 87 49 35 50 92 51 86 52 88 53 36 54
REMARK SMILES IDX 91 55 85 56 84 57 37 59 71 60 50 61 70 62 51 63 54 64 69 65
REMARK SMILES IDX 89 66 52 67 53 68 68 70 90 71 55 72 38 73 39 74 48 75 40 76
REMARK SMILES IDX 41 77 47 78 49 79 42 80 43 81 44 82 45 83 46 84 72 85 73 86
REMARK SMILES IDX 82 87 74 88 75 89 81 90 83 91 76 92 77 93 78 94 79 95 80 96
REMARK SMILES IDX 56 97 57 98 66 99 58 100 59 101 65 102 67 103 60 104 61 105
REMARK SMILES IDX 62 106 63 107 64 108
REMARK H PARENT 7 14 1 24 1 25 88 58 54 69
REMARK Flexibility Score: inf
ROOT
ATOM      1  O   UNL     1       3.296   0.954  -5.062  1.00  0.00    -0.377 OA
ENDROOT
BRANCH   1   2
ATOM      2  C   UNL     1       2.880   1.217  -3.733  1.00  0.00     0.188 C 
BRANCH   2   3
ATOM      3  C   UNL     1       3.329   0.218  -2.661  1.00  0.00     0.188 C 
BRANCH   3   4
ATOM      4  O   UNL     1       3.912  -0.981  -3.167  1.00  0.00    -0.376 OA
BRANCH   4   5
ATOM      5  C   UNL     1       3.019  -2.032  -3.515  1.00  0.00     0.202 C 
BRANCH   5   6
ATOM      6  C   UNL     1       2.410  -2.046  -4.924  1.00  0.00     0.261 C 
BRANCH   6   7
ATOM      7  O   UNL     1       1.121  -1.447  -5.179  1.00  0.00    -0.460 OA
BRANCH   7   8
ATOM      8  C   UNL     1       0.363  -0.873  -4.236  1.00  0.00     0.331 C 
ATOM      9  O   UNL     1       0.657  -0.565  -3.095  1.00  0.00    -0.247 OA
BRANCH   8  10
ATOM     10  C   UNL     1      -0.997  -0.645  -4.720  1.00  0.00     0.099 C 
ATOM     11  C   UNL     1      -1.778  -1.602  -5.236  1.00  0.00     0.079 C 
BRANCH  11  12
ATOM     12  C   UNL     1      -1.408  -2.995  -5.576  1.00  0.00     0.248 C 
ATOM     13  N   UNL     1      -0.777  -3.861  -4.731  1.00  0.00    -0.322 N 
ATOM     14  H   UNL     1      -0.520  -4.705  -5.166  1.00  0.00     0.170 HD
ATOM     15  O   UNL     1      -1.680  -3.371  -6.718  1.00  0.00    -0.270 OA
BRANCH  13  16
ATOM     16  C   UNL     1      -0.412  -3.809  -3.373  1.00  0.00     0.042 A 
ATOM     17  C   UNL     1      -0.351  -2.712  -1.210  1.00  0.00     0.064 A 
ATOM     18  C   UNL     1      -1.005  -2.978  -2.433  1.00  0.00     0.042 A 
ATOM     19  C   UNL     1       0.876  -3.338  -0.877  1.00  0.00     0.050 A 
ATOM     20  C   UNL     1       1.324  -4.341  -1.751  1.00  0.00     0.029 A 
ATOM     21  C   UNL     1       0.688  -4.577  -2.981  1.00  0.00     0.028 A 
BRANCH  17  22
ATOM     22  C   UNL     1      -0.939  -1.586  -0.432  1.00  0.00     0.250 C 
ATOM     23  N   UNL     1      -0.071  -0.628   0.003  1.00  0.00    -0.366 N 
ATOM     24  H   UNL     1      -0.405   0.140   0.522  1.00  0.00     0.159 HD
ATOM     25  H   UNL     1       0.889  -0.704  -0.201  1.00  0.00     0.159 HD
ATOM     26  O   UNL     1      -2.147  -1.484  -0.255  1.00  0.00    -0.269 OA
ENDBRANCH  17  22
BRANCH  19  27
ATOM     27  N   UNL     1       1.654  -2.938   0.203  1.00  0.00    -0.366 N 
ATOM     28  C   UNL     1       1.187  -3.266   1.556  1.00  0.00     0.145 C 
ATOM     29  C   UNL     1       3.115  -2.775   0.102  1.00  0.00     0.145 C 
ATOM     30  C   UNL     1       1.744  -2.232   2.551  1.00  0.00     0.181 C 
ATOM     31  C   UNL     1       3.579  -1.741   1.145  1.00  0.00     0.181 C 
ATOM     32  O   UNL     1       3.177  -2.121   2.472  1.00  0.00    -0.378 OA
ENDBRANCH  19  27
ENDBRANCH  13  16
ENDBRANCH  11  12
ENDBRANCH   8  10
ENDBRANCH   7   8
ENDBRANCH   6   7
ENDBRANCH   5   6
ENDBRANCH   4   5
ENDBRANCH   3   4
ENDBRANCH   2   3
ENDBRANCH   1   2
BRANCH   1  33
ATOM     33  C   UNL     1       4.650   0.574  -5.291  1.00  0.00     0.188 C 
BRANCH  33  34
ATOM     34  C   UNL     1       5.754   1.116  -4.372  1.00  0.00     0.188 C 
BRANCH  34  35
ATOM     35  O   UNL     1       5.436   2.351  -3.747  1.00  0.00    -0.376 OA
BRANCH  35  36
ATOM     36  C   UNL     1       5.901   3.521  -4.406  1.00  0.00     0.202 C 
BRANCH  36  37
ATOM     37  C   UNL     1       5.226   3.845  -5.747  1.00  0.00     0.261 C 
BRANCH  37  38
ATOM     38  O   UNL     1       5.483   2.953  -6.849  1.00  0.00    -0.460 OA
BRANCH  38  39
ATOM     39  C   UNL     1       6.748   2.562  -7.122  1.00  0.00     0.338 C 
ATOM     40  O   UNL     1       7.771   2.970  -6.607  1.00  0.00    -0.246 OA
BRANCH  39  41
ATOM     41  C   UNL     1       6.670   1.365  -7.998  1.00  0.00     0.060 A 
ATOM     42  C   UNL     1       7.342   0.196  -7.610  1.00  0.00     0.016 A 
ATOM     43  C   UNL     1       5.895   1.377  -9.161  1.00  0.00     0.016 A 
ATOM     44  C   UNL     1       7.287  -0.946  -8.414  1.00  0.00     0.010 A 
ATOM     45  C   UNL     1       5.866   0.245  -9.981  1.00  0.00     0.010 A 
ATOM     46  C   UNL     1       6.599  -0.904  -9.634  1.00  0.00    -0.014 A 
BRANCH  46  47
ATOM     47  C   UNL     1       6.903  -1.909 -10.684  1.00  0.00     0.031 A 
ATOM     48  C   UNL     1       8.048  -1.601 -11.613  1.00  0.00     0.074 A 
ATOM     49  C   UNL     1       6.190  -3.038 -10.840  1.00  0.00     0.049 A 
ATOM     50  N   UNL     1       8.473  -2.257 -12.660  1.00  0.00    -0.248 NA
ATOM     51  C   UNL     1       8.811  -0.375 -11.321  1.00  0.00     0.031 C 
ATOM     52  C   UNL     1       5.080  -3.469  -9.996  1.00  0.00     0.029 A 
ATOM     53  N   UNL     1       6.292  -4.024 -11.793  1.00  0.00    -0.354 N 
ATOM     54  C   UNL     1       9.541  -1.519 -13.156  1.00  0.00     0.074 A 
ATOM     55  C   UNL     1       9.690  -0.358 -12.308  1.00  0.00     0.031 C 
ATOM     56  C   UNL     1       4.582  -4.620 -10.486  1.00  0.00     0.029 A 
ATOM     57  C   UNL     1       5.320  -4.990 -11.694  1.00  0.00     0.049 A 
ATOM     58  H   UNL     1       6.995  -4.036 -12.482  1.00  0.00     0.167 HD
ATOM     59  C   UNL     1      10.329  -1.780 -14.223  1.00  0.00     0.037 A 
ATOM     60  C   UNL     1       5.042  -6.034 -12.505  1.00  0.00     0.037 A 
ATOM     61  C   UNL     1      10.174  -2.924 -15.078  1.00  0.00     0.049 A 
ATOM     62  C   UNL     1       5.895  -6.276 -13.727  1.00  0.00     0.074 A 
ATOM     63  C   UNL     1      10.941  -3.293 -16.167  1.00  0.00     0.029 A 
ATOM     64  N   UNL     1       9.170  -3.872 -14.950  1.00  0.00    -0.354 N 
ATOM     65  N   UNL     1       6.932  -5.597 -14.159  1.00  0.00    -0.248 NA
ATOM     66  C   UNL     1       5.538  -7.425 -14.573  1.00  0.00     0.031 C 
ATOM     67  C   UNL     1      10.369  -4.439 -16.731  1.00  0.00     0.029 A 
ATOM     68  C   UNL     1       9.277  -4.811 -15.961  1.00  0.00     0.049 A 
ATOM     69  H   UNL     1       8.483  -3.876 -14.246  1.00  0.00     0.167 HD
ATOM     70  C   UNL     1       7.360  -6.246 -15.315  1.00  0.00     0.074 A 
ATOM     71  C   UNL     1       6.478  -7.378 -15.508  1.00  0.00     0.031 C 
ATOM     72  C   UNL     1       8.390  -5.933 -16.141  1.00  0.00     0.037 A 
BRANCH  59  73
ATOM     73  C   UNL     1      11.400  -0.777 -14.543  1.00  0.00     0.058 A 
ATOM     74  C   UNL     1      12.546  -0.638 -13.744  1.00  0.00     0.135 A 
ATOM     75  C   UNL     1      11.268   0.068 -15.656  1.00  0.00     0.135 A 
ATOM     76  F   UNL     1      12.707  -1.403 -12.653  1.00  0.00    -0.206 F 
ATOM     77  C   UNL     1      13.509   0.326 -14.020  1.00  0.00     0.059 A 
ATOM     78  C   UNL     1      12.231   1.022 -15.966  1.00  0.00     0.059 A 
ATOM     79  F   UNL     1      10.185  -0.018 -16.445  1.00  0.00    -0.206 F 
ATOM     80  C   UNL     1      13.340   1.155 -15.131  1.00  0.00     0.060 A 
BRANCH  80  81
ATOM     81  S   UNL     1      14.590   2.412 -15.468  1.00  0.00     0.124 S 
ATOM     82  O   UNL     1      14.293   3.401 -14.436  1.00  0.00    -0.237 OA
ATOM     83  O   UNL     1      15.835   1.671 -15.295  1.00  0.00    -0.237 OA
ATOM     84  O   UNL     1      14.295   2.826 -16.836  1.00  0.00    -0.744 OA
ENDBRANCH  80  81
ENDBRANCH  59  73
BRANCH  60  85
ATOM     85  C   UNL     1       3.885  -6.919 -12.202  1.00  0.00     0.058 A 
ATOM     86  C   UNL     1       4.074  -8.236 -11.758  1.00  0.00     0.135 A 
ATOM     87  C   UNL     1       2.565  -6.461 -12.344  1.00  0.00     0.135 A 
ATOM     88  F   UNL     1       5.315  -8.727 -11.626  1.00  0.00    -0.206 F 
ATOM     89  C   UNL     1       2.997  -9.068 -11.464  1.00  0.00     0.059 A 
ATOM     90  C   UNL     1       1.473  -7.266 -12.034  1.00  0.00     0.059 A 
ATOM     91  F   UNL     1       2.331  -5.209 -12.766  1.00  0.00    -0.206 F 
ATOM     92  C   UNL     1       1.700  -8.570 -11.597  1.00  0.00     0.060 A 
BRANCH  92  93
ATOM     93  S   UNL     1       0.315  -9.634 -11.134  1.00  0.00     0.124 S 
ATOM     94  O   UNL     1       0.296 -10.591 -12.234  1.00  0.00    -0.237 OA
ATOM     95  O   UNL     1       0.751 -10.155  -9.842  1.00  0.00    -0.237 OA
ATOM     96  O   UNL     1      -0.815  -8.711 -11.079  1.00  0.00    -0.744 OA
ENDBRANCH  92  93
ENDBRANCH  60  85
BRANCH  72  97
ATOM     97  C   UNL     1       8.643  -6.832 -17.320  1.00  0.00     0.058 A 
ATOM     98  C   UNL     1       7.813  -6.814 -18.451  1.00  0.00     0.135 A 
ATOM     99  C   UNL     1       9.774  -7.664 -17.351  1.00  0.00     0.135 A 
ATOM    100  F   UNL     1       6.717  -6.039 -18.473  1.00  0.00    -0.206 F 
ATOM    101  C   UNL     1       8.087  -7.601 -19.566  1.00  0.00     0.059 A 
ATOM    102  C   UNL     1      10.082  -8.440 -18.464  1.00  0.00     0.059 A 
ATOM    103  F   UNL     1      10.609  -7.708 -16.300  1.00  0.00    -0.206 F 
ATOM    104  C   UNL     1       9.226  -8.409 -19.564  1.00  0.00     0.060 A 
BRANCH 104 105
ATOM    105  S   UNL     1       9.596  -9.392 -21.033  1.00  0.00     0.124 S 
ATOM    106  O   UNL     1       8.614 -10.465 -20.923  1.00  0.00    -0.237 OA
ATOM    107  O   UNL     1       9.374  -8.437 -22.114  1.00  0.00    -0.237 OA
ATOM    108  O   UNL     1      10.986  -9.790 -20.834  1.00  0.00    -0.744 OA
ENDBRANCH 104 105
ENDBRANCH  72  97
ENDBRANCH  46  47
ENDBRANCH  39  41
ENDBRANCH  38  39
ENDBRANCH  37  38
ENDBRANCH  36  37
ENDBRANCH  35  36
ENDBRANCH  34  35
ENDBRANCH  33  34
ENDBRANCH   1  33
TORSDOF 27
