REMARK SMILES O=C(NCc1ccc(C(=O)OCCOCCOCCOCCOC(=O)c2ccc(-c3c4nc(c(-c5c(F)cc(S(=O)(=O)[O-])cc5F)c5ccc([nH]5)c(-c5c(F)cc(S(=O)(=O)[O-])cc5F)c5nc(c(-c6c(F)cc(S(=O)(=O)[O-])cc6F)c6ccc3[nH]6)C=C5)C=C4)cc2)cc1)Nc1ccccc1Br
REMARK SMILES IDX 17 1 16 2 15 3 14 4 13 5 12 6 11 7 9 8 10 9 8 10 5 11 6 12
REMARK SMILES IDX 93 13 7 14 92 15 4 16 3 17 1 18 2 19 94 20 95 23 96 24
REMARK SMILES IDX 100 25 97 26 99 27 101 28 98 29 18 30 19 31 20 32 21 33
REMARK SMILES IDX 22 34 23 35 24 36 25 37 26 38 27 39 91 40 28 41 90 42 29 43
REMARK SMILES IDX 30 44 31 45 84 46 32 47 89 48 83 49 85 50 33 51 88 52 82 53
REMARK SMILES IDX 81 54 34 56 68 57 47 58 67 59 48 60 51 61 66 62 86 63 49 64
REMARK SMILES IDX 50 65 65 67 87 68 52 69 35 70 36 71 45 72 37 73 38 74 44 75
REMARK SMILES IDX 46 76 39 77 40 78 41 79 42 80 43 81 69 82 70 83 79 84 71 85
REMARK SMILES IDX 72 86 78 87 80 88 73 89 74 90 75 91 76 92 77 93 53 94 54 95
REMARK SMILES IDX 63 96 55 97 56 98 62 99 64 100 57 101 58 102 59 103 60 104
REMARK SMILES IDX 61 105
REMARK H PARENT 3 21 94 22 85 55 51 66
REMARK Flexibility Score: inf
ROOT
ATOM      1  O   UNL     1       8.799  -1.242  -6.002  1.00  0.00    -0.377 OA
ENDROOT
BRANCH   1   2
ATOM      2  C   UNL     1       7.960  -2.125  -5.274  1.00  0.00     0.188 C 
BRANCH   2   3
ATOM      3  C   UNL     1       7.051  -3.108  -6.042  1.00  0.00     0.188 C 
BRANCH   3   4
ATOM      4  O   UNL     1       7.330  -3.201  -7.428  1.00  0.00    -0.376 OA
BRANCH   4   5
ATOM      5  C   UNL     1       6.410  -2.648  -8.351  1.00  0.00     0.202 C 
BRANCH   5   6
ATOM      6  C   UNL     1       6.131  -1.138  -8.294  1.00  0.00     0.261 C 
BRANCH   6   7
ATOM      7  O   UNL     1       5.897  -0.595  -6.990  1.00  0.00    -0.460 OA
BRANCH   7   8
ATOM      8  C   UNL     1       4.720  -0.911  -6.410  1.00  0.00     0.338 C 
ATOM      9  O   UNL     1       3.834  -1.599  -6.887  1.00  0.00    -0.246 OA
BRANCH   8  10
ATOM     10  C   UNL     1       4.760  -0.468  -4.996  1.00  0.00     0.060 A 
ATOM     11  C   UNL     1       4.720   0.308  -2.305  1.00  0.00    -0.029 A 
ATOM     12  C   UNL     1       4.242  -0.956  -2.685  1.00  0.00     0.006 A 
ATOM     13  C   UNL     1       5.287   1.148  -3.275  1.00  0.00     0.006 A 
ATOM     14  C   UNL     1       4.248  -1.336  -4.025  1.00  0.00     0.016 A 
ATOM     15  C   UNL     1       5.316   0.758  -4.618  1.00  0.00     0.016 A 
BRANCH  11  16
ATOM     16  C   UNL     1       4.529   0.774  -0.885  1.00  0.00     0.153 C 
BRANCH  16  17
ATOM     17  N   UNL     1       3.110   0.940  -0.623  1.00  0.00    -0.334 N 
ATOM     18  O   UNL     1       1.070   0.468   0.129  1.00  0.00    -0.248 OA
ATOM     19  C   UNL     1       2.276   0.257   0.205  1.00  0.00     0.319 C 
ATOM     20  N   UNL     1       2.880  -0.569   1.111  1.00  0.00    -0.307 N 
ATOM     21  H   UNL     1       2.681   1.667  -1.129  1.00  0.00     0.165 HD
ATOM     22  H   UNL     1       3.859  -0.511   1.187  1.00  0.00     0.171 HD
BRANCH  20  23
ATOM     23  C   UNL     1       2.221  -1.499   1.948  1.00  0.00     0.057 A 
ATOM     24  C   UNL     1       2.735  -1.605   3.251  1.00  0.00     0.027 A 
ATOM     25  C   UNL     1       1.143  -2.325   1.583  1.00  0.00     0.041 A 
ATOM     26  C   UNL     1       2.147  -2.452   4.194  1.00  0.00     0.002 A 
ATOM     27  C   UNL     1       0.553  -3.169   2.538  1.00  0.00     0.018 A 
ATOM     28  Br  UNL     1       0.544  -2.567  -0.207  1.00  0.00    -0.049 Br
ATOM     29  C   UNL     1       1.045  -3.223   3.841  1.00  0.00     0.001 A 
ENDBRANCH  20  23
ENDBRANCH  16  17
ENDBRANCH  11  16
ENDBRANCH   8  10
ENDBRANCH   7   8
ENDBRANCH   6   7
ENDBRANCH   5   6
ENDBRANCH   4   5
ENDBRANCH   3   4
ENDBRANCH   2   3
ENDBRANCH   1   2
BRANCH   1  30
ATOM     30  C   UNL     1       9.589  -1.731  -7.083  1.00  0.00     0.188 C 
BRANCH  30  31
ATOM     31  C   UNL     1      10.052  -3.206  -7.152  1.00  0.00     0.188 C 
BRANCH  31  32
ATOM     32  O   UNL     1       9.766  -3.969  -5.992  1.00  0.00    -0.376 OA
BRANCH  32  33
ATOM     33  C   UNL     1      10.853  -4.343  -5.168  1.00  0.00     0.202 C 
BRANCH  33  34
ATOM     34  C   UNL     1      11.627  -3.212  -4.479  1.00  0.00     0.261 C 
BRANCH  34  35
ATOM     35  O   UNL     1      12.096  -2.155  -5.325  1.00  0.00    -0.460 OA
BRANCH  35  36
ATOM     36  C   UNL     1      13.043  -2.456  -6.240  1.00  0.00     0.338 C 
ATOM     37  O   UNL     1      13.541  -3.548  -6.454  1.00  0.00    -0.246 OA
BRANCH  36  38
ATOM     38  C   UNL     1      13.245  -1.246  -7.061  1.00  0.00     0.060 A 
ATOM     39  C   UNL     1      12.973  -1.279  -8.437  1.00  0.00     0.016 A 
ATOM     40  C   UNL     1      13.677  -0.068  -6.450  1.00  0.00     0.016 A 
ATOM     41  C   UNL     1      13.163  -0.132  -9.212  1.00  0.00     0.010 A 
ATOM     42  C   UNL     1      13.888   1.068  -7.228  1.00  0.00     0.010 A 
ATOM     43  C   UNL     1      13.666   1.032  -8.616  1.00  0.00    -0.014 A 
BRANCH  43  44
ATOM     44  C   UNL     1      14.200   2.141  -9.440  1.00  0.00     0.031 A 
ATOM     45  C   UNL     1      15.686   2.176  -9.668  1.00  0.00     0.074 A 
ATOM     46  C   UNL     1      13.411   3.118  -9.918  1.00  0.00     0.049 A 
ATOM     47  N   UNL     1      16.429   3.124 -10.173  1.00  0.00    -0.248 NA
ATOM     48  C   UNL     1      16.436   0.980  -9.248  1.00  0.00     0.031 C 
ATOM     49  C   UNL     1      11.955   3.166  -9.804  1.00  0.00     0.029 A 
ATOM     50  N   UNL     1      13.737   4.280 -10.573  1.00  0.00    -0.354 N 
ATOM     51  C   UNL     1      17.734   2.650 -10.109  1.00  0.00     0.074 A 
ATOM     52  C   UNL     1      17.685   1.341  -9.497  1.00  0.00     0.031 C 
ATOM     53  C   UNL     1      11.514   4.316 -10.345  1.00  0.00     0.029 A 
ATOM     54  C   UNL     1      12.659   5.105 -10.799  1.00  0.00     0.049 A 
ATOM     55  H   UNL     1      14.654   4.502 -10.854  1.00  0.00     0.167 HD
ATOM     56  C   UNL     1      18.871   3.255 -10.523  1.00  0.00     0.037 A 
ATOM     57  C   UNL     1      12.614   6.365 -11.277  1.00  0.00     0.037 A 
ATOM     58  C   UNL     1      18.906   4.560 -11.126  1.00  0.00     0.049 A 
ATOM     59  C   UNL     1      13.901   7.052 -11.668  1.00  0.00     0.074 A 
ATOM     60  C   UNL     1      20.002   5.263 -11.590  1.00  0.00     0.029 A 
ATOM     61  N   UNL     1      17.793   5.361 -11.341  1.00  0.00    -0.354 N 
ATOM     62  N   UNL     1      15.132   6.597 -11.608  1.00  0.00    -0.248 NA
ATOM     63  C   UNL     1      13.797   8.423 -12.188  1.00  0.00     0.031 C 
ATOM     64  C   UNL     1      19.560   6.513 -12.035  1.00  0.00     0.029 A 
ATOM     65  C   UNL     1      18.180   6.559 -11.915  1.00  0.00     0.049 A 
ATOM     66  H   UNL     1      16.867   5.113 -11.120  1.00  0.00     0.167 HD
ATOM     67  C   UNL     1      15.939   7.607 -12.127  1.00  0.00     0.074 A 
ATOM     68  C   UNL     1      15.060   8.699 -12.487  1.00  0.00     0.031 C 
ATOM     69  C   UNL     1      17.284   7.624 -12.297  1.00  0.00     0.037 A 
BRANCH  56  70
ATOM     70  C   UNL     1      20.168   2.528 -10.302  1.00  0.00     0.058 A 
ATOM     71  C   UNL     1      20.502   1.369 -11.021  1.00  0.00     0.135 A 
ATOM     72  C   UNL     1      21.103   3.013  -9.373  1.00  0.00     0.135 A 
ATOM     73  F   UNL     1      19.635   0.848 -11.905  1.00  0.00    -0.206 F 
ATOM     74  C   UNL     1      21.703   0.702 -10.808  1.00  0.00     0.059 A 
ATOM     75  C   UNL     1      22.325   2.381  -9.167  1.00  0.00     0.059 A 
ATOM     76  F   UNL     1      20.832   4.113  -8.653  1.00  0.00    -0.206 F 
ATOM     77  C   UNL     1      22.610   1.218  -9.880  1.00  0.00     0.060 A 
BRANCH  77  78
ATOM     78  S   UNL     1      24.168   0.345  -9.622  1.00  0.00     0.124 S 
ATOM     79  O   UNL     1      23.719  -0.853  -8.921  1.00  0.00    -0.237 OA
ATOM     80  O   UNL     1      24.639   0.141 -10.988  1.00  0.00    -0.237 OA
ATOM     81  O   UNL     1      24.955   1.280  -8.824  1.00  0.00    -0.744 OA
ENDBRANCH  77  78
ENDBRANCH  56  70
BRANCH  57  82
ATOM     82  C   UNL     1      11.310   7.072 -11.401  1.00  0.00     0.058 A 
ATOM     83  C   UNL     1      10.774   7.388 -12.658  1.00  0.00     0.135 A 
ATOM     84  C   UNL     1      10.575   7.453 -10.267  1.00  0.00     0.135 A 
ATOM     85  F   UNL     1      11.443   7.059 -13.774  1.00  0.00    -0.206 F 
ATOM     86  C   UNL     1       9.566   8.067 -12.789  1.00  0.00     0.059 A 
ATOM     87  C   UNL     1       9.351   8.108 -10.371  1.00  0.00     0.059 A 
ATOM     88  F   UNL     1      11.037   7.170  -9.039  1.00  0.00    -0.206 F 
ATOM     89  C   UNL     1       8.860   8.419 -11.638  1.00  0.00     0.060 A 
BRANCH  89  90
ATOM     90  S   UNL     1       7.271   9.258 -11.821  1.00  0.00     0.124 S 
ATOM     91  O   UNL     1       7.686  10.576 -12.289  1.00  0.00    -0.237 OA
ATOM     92  O   UNL     1       6.593   8.416 -12.802  1.00  0.00    -0.237 OA
ATOM     93  O   UNL     1       6.710   9.214 -10.474  1.00  0.00    -0.744 OA
ENDBRANCH  89  90
ENDBRANCH  57  82
BRANCH  69  94
ATOM     94  C   UNL     1      17.898   8.821 -12.973  1.00  0.00     0.058 A 
ATOM     95  C   UNL     1      18.029  10.059 -12.328  1.00  0.00     0.135 A 
ATOM     96  C   UNL     1      18.456   8.688 -14.257  1.00  0.00     0.135 A 
ATOM     97  F   UNL     1      17.509  10.243 -11.104  1.00  0.00    -0.206 F 
ATOM     98  C   UNL     1      18.684  11.127 -12.935  1.00  0.00     0.059 A 
ATOM     99  C   UNL     1      19.142   9.731 -14.869  1.00  0.00     0.059 A 
ATOM    100  F   UNL     1      18.369   7.520 -14.914  1.00  0.00    -0.206 F 
ATOM    101  C   UNL     1      19.246  10.950 -14.201  1.00  0.00     0.060 A 
BRANCH 101 102
ATOM    102  S   UNL     1      20.152  12.322 -14.947  1.00  0.00     0.124 S 
ATOM    103  O   UNL     1      19.070  13.241 -15.285  1.00  0.00    -0.237 OA
ATOM    104  O   UNL     1      21.027  12.745 -13.858  1.00  0.00    -0.237 OA
ATOM    105  O   UNL     1      20.830  11.706 -16.084  1.00  0.00    -0.744 OA
ENDBRANCH 101 102
ENDBRANCH  69  94
ENDBRANCH  43  44
ENDBRANCH  36  38
ENDBRANCH  35  36
ENDBRANCH  34  35
ENDBRANCH  33  34
ENDBRANCH  32  33
ENDBRANCH  31  32
ENDBRANCH  30  31
ENDBRANCH   1  30
TORSDOF 26
