REMARK SMILES COc1ccc(C2=NN(C(=O)CCC(=O)OCCOCCOCCOCCOC(=O)c3ccc(-c4c5nc(c(-c6c(F)cc(S(=O)(=O)[O-])cc6F)c6ccc([nH]6)c(-c6c(F)cc(S(=O)(=O)[O-])cc6F)c6nc(c(-c7c(F)cc(S(=O)(=O)[O-])cc7F)c7ccc4[nH]7)C=C6)C=C5)cc3)[C@H](c3ccc(Cl)cc3Cl)C2)cc1
REMARK SMILES IDX 21 1 20 2 19 3 18 4 17 5 16 6 14 7 15 8 13 9 12 10 10 11
REMARK SMILES IDX 11 12 9 13 7 14 8 15 106 16 97 17 6 18 3 19 4 20 108 21 5 22
REMARK SMILES IDX 107 23 2 24 1 25 98 26 99 27 104 28 100 29 103 30 105 31
REMARK SMILES IDX 101 32 102 33 22 34 23 35 24 36 25 37 26 38 27 39 28 40
REMARK SMILES IDX 29 41 30 42 31 43 32 44 96 45 33 46 95 47 34 48 35 49 36 50
REMARK SMILES IDX 89 51 37 52 94 53 88 54 90 55 38 56 93 57 87 58 86 59 39 61
REMARK SMILES IDX 73 62 52 63 72 64 53 65 56 66 71 67 91 68 54 69 55 70 70 72
REMARK SMILES IDX 92 73 57 74 40 75 41 76 50 77 42 78 43 79 49 80 51 81 44 82
REMARK SMILES IDX 45 83 46 84 47 85 48 86 74 87 75 88 84 89 76 90 77 91 83 92
REMARK SMILES IDX 85 93 78 94 79 95 80 96 81 97 82 98 58 99 59 100 68 101
REMARK SMILES IDX 60 102 61 103 67 104 69 105 62 106 63 107 64 108 65 109
REMARK SMILES IDX 66 110
REMARK H PARENT 90 60 56 71
REMARK Flexibility Score: inf
ROOT
ATOM      1  C   UNL     1       2.516  -7.699   7.141  1.00  0.00     0.188 C 
ENDROOT
BRANCH   1   2
ATOM      2  C   UNL     1       4.458  -7.839   7.119  1.00  0.00     0.188 C 
BRANCH   2   3
ATOM      3  O   UNL     1       5.606  -6.835   7.477  1.00  0.00    -0.376 OA
BRANCH   3   4
ATOM      4  C   UNL     1       6.309  -5.859   6.573  1.00  0.00     0.202 C 
BRANCH   4   5
ATOM      5  C   UNL     1       6.483  -6.082   5.025  1.00  0.00     0.261 C 
BRANCH   5   6
ATOM      6  O   UNL     1       5.531  -6.999   4.470  1.00  0.00    -0.463 OA
BRANCH   6   7
ATOM      7  C   UNL     1       6.006  -8.251   4.314  1.00  0.00     0.306 C 
ATOM      8  O   UNL     1       7.199  -8.539   4.339  1.00  0.00    -0.252 OA
BRANCH   7   9
ATOM      9  C   UNL     1       4.948  -9.326   4.355  1.00  0.00     0.132 C 
BRANCH   9  10
ATOM     10  C   UNL     1       3.444  -9.084   4.455  1.00  0.00     0.114 C 
BRANCH  10  11
ATOM     11  C   UNL     1       2.621  -7.786   4.328  1.00  0.00     0.243 C 
ATOM     12  O   UNL     1       1.665  -7.932   3.532  1.00  0.00    -0.273 OA
BRANCH  11  13
ATOM     13  N   UNL     1       2.728  -6.575   5.047  1.00  0.00    -0.225 N 
ATOM     14  C   UNL     1       2.747  -4.454   4.455  1.00  0.00     0.071 C 
ATOM     15  N   UNL     1       2.222  -5.593   4.202  1.00  0.00    -0.174 NA
ATOM     16  C   UNL     1       3.674  -4.363   5.659  1.00  0.00     0.091 C 
ATOM     17  C   UNL     1       3.494  -5.776   6.440  1.00  0.00     0.149 C 
BRANCH  14  18
ATOM     18  C   UNL     1       2.417  -3.288   3.621  1.00  0.00    -0.002 A 
ATOM     19  C   UNL     1       1.810  -1.002   2.154  1.00  0.00     0.118 A 
ATOM     20  C   UNL     1       1.087  -1.307   3.300  1.00  0.00     0.047 A 
ATOM     21  C   UNL     1       2.797  -1.880   1.699  1.00  0.00     0.047 A 
ATOM     22  C   UNL     1       1.372  -2.461   4.018  1.00  0.00     0.014 A 
ATOM     23  C   UNL     1       3.093  -3.042   2.427  1.00  0.00     0.014 A 
BRANCH  19  24
ATOM     24  O   UNL     1       1.484   0.197   1.591  1.00  0.00    -0.497 OA
ATOM     25  C   UNL     1       1.614   0.261   0.181  1.00  0.00     0.278 C 
ENDBRANCH  19  24
ENDBRANCH  14  18
BRANCH  17  26
ATOM     26  C   UNL     1       3.282  -6.157   8.383  1.00  0.00    -0.004 A 
ATOM     27  C   UNL     1       2.306  -4.930   9.003  1.00  0.00     0.009 A 
ATOM     28  C   UNL     1       3.681  -7.316   9.716  1.00  0.00     0.047 A 
ATOM     29  C   UNL     1       1.898  -4.474  10.806  1.00  0.00     0.021 A 
ATOM     30  C   UNL     1       3.304  -7.032  11.437  1.00  0.00     0.041 A 
ATOM     31  Cl  UNL     1       3.889  -9.096   9.699  1.00  0.00    -0.084 Cl
ATOM     32  C   UNL     1       2.433  -5.633  12.024  1.00  0.00     0.042 A 
ATOM     33  Cl  UNL     1       2.058  -5.517  13.687  1.00  0.00    -0.084 Cl
ENDBRANCH  17  26
ENDBRANCH  11  13
ENDBRANCH  10  11
ENDBRANCH   9  10
ENDBRANCH   7   9
ENDBRANCH   6   7
ENDBRANCH   5   6
ENDBRANCH   4   5
ENDBRANCH   3   4
ENDBRANCH   2   3
ENDBRANCH   1   2
BRANCH   1  34
ATOM     34  O   UNL     1       1.432  -6.256   7.140  1.00  0.00    -0.377 OA
BRANCH  34  35
ATOM     35  C   UNL     1       1.522  -4.459   7.123  1.00  0.00     0.188 C 
BRANCH  35  36
ATOM     36  C   UNL     1       2.368  -3.039   8.245  1.00  0.00     0.188 C 
BRANCH  36  37
ATOM     37  O   UNL     1       3.609  -3.456   9.549  1.00  0.00    -0.376 OA
BRANCH  37  38
ATOM     38  C   UNL     1       3.620  -5.175  10.293  1.00  0.00     0.202 C 
BRANCH  38  39
ATOM     39  C   UNL     1       1.722  -6.321  10.141  1.00  0.00     0.261 C 
BRANCH  39  40
ATOM     40  O   UNL     1       0.218  -5.551   9.467  1.00  0.00    -0.460 OA
BRANCH  40  41
ATOM     41  C   UNL     1      -0.591  -4.434   9.734  1.00  0.00     0.338 C 
ATOM     42  O   UNL     1      -0.680  -3.877  10.822  1.00  0.00    -0.246 OA
BRANCH  41  43
ATOM     43  C   UNL     1      -1.225  -3.715   8.511  1.00  0.00     0.060 A 
ATOM     44  C   UNL     1      -0.755  -2.447   8.060  1.00  0.00     0.016 A 
ATOM     45  C   UNL     1      -2.230  -4.292   7.739  1.00  0.00     0.016 A 
ATOM     46  C   UNL     1      -1.117  -1.897   6.802  1.00  0.00     0.010 A 
ATOM     47  C   UNL     1      -2.695  -3.670   6.542  1.00  0.00     0.010 A 
ATOM     48  C   UNL     1      -2.119  -2.494   6.028  1.00  0.00    -0.014 A 
BRANCH  48  49
ATOM     49  C   UNL     1      -2.686  -1.775   4.828  1.00  0.00     0.031 A 
ATOM     50  C   UNL     1      -3.611  -0.615   5.083  1.00  0.00     0.074 A 
ATOM     51  C   UNL     1      -2.426  -2.129   3.547  1.00  0.00     0.049 A 
ATOM     52  N   UNL     1      -4.273   0.125   4.233  1.00  0.00    -0.248 NA
ATOM     53  C   UNL     1      -3.882  -0.300   6.494  1.00  0.00     0.031 C 
ATOM     54  C   UNL     1      -1.610  -3.272   3.163  1.00  0.00     0.029 A 
ATOM     55  N   UNL     1      -2.752  -1.548   2.333  1.00  0.00    -0.354 N 
ATOM     56  C   UNL     1      -5.124   0.909   5.004  1.00  0.00     0.074 A 
ATOM     57  C   UNL     1      -4.846   0.600   6.388  1.00  0.00     0.031 C 
ATOM     58  C   UNL     1      -1.361  -3.217   1.842  1.00  0.00     0.029 A 
ATOM     59  C   UNL     1      -2.098  -2.108   1.242  1.00  0.00     0.049 A 
ATOM     60  H   UNL     1      -3.392  -0.804   2.250  1.00  0.00     0.167 HD
ATOM     61  C   UNL     1      -6.098   1.754   4.588  1.00  0.00     0.037 A 
ATOM     62  C   UNL     1      -2.105  -1.761  -0.072  1.00  0.00     0.037 A 
ATOM     63  C   UNL     1      -6.380   2.022   3.202  1.00  0.00     0.049 A 
ATOM     64  C   UNL     1      -3.117  -0.716  -0.501  1.00  0.00     0.074 A 
ATOM     65  C   UNL     1      -7.363   2.833   2.664  1.00  0.00     0.029 A 
ATOM     66  N   UNL     1      -5.686   1.472   2.132  1.00  0.00    -0.354 N 
ATOM     67  N   UNL     1      -3.891   0.040   0.244  1.00  0.00    -0.248 NA
ATOM     68  C   UNL     1      -3.322  -0.532  -1.948  1.00  0.00     0.031 C 
ATOM     69  C   UNL     1      -7.301   2.727   1.272  1.00  0.00     0.029 A 
ATOM     70  C   UNL     1      -6.231   1.912   0.937  1.00  0.00     0.049 A 
ATOM     71  H   UNL     1      -4.919   0.860   2.211  1.00  0.00     0.167 HD
ATOM     72  C   UNL     1      -4.696   0.752  -0.640  1.00  0.00     0.074 A 
ATOM     73  C   UNL     1      -4.249   0.415  -1.975  1.00  0.00     0.031 C 
ATOM     74  C   UNL     1      -5.750   1.565  -0.379  1.00  0.00     0.037 A 
BRANCH  61  75
ATOM     75  C   UNL     1      -6.988   2.350   5.648  1.00  0.00     0.058 A 
ATOM     76  C   UNL     1      -6.510   3.260   6.605  1.00  0.00     0.135 A 
ATOM     77  C   UNL     1      -8.340   1.973   5.729  1.00  0.00     0.135 A 
ATOM     78  F   UNL     1      -5.220   3.636   6.596  1.00  0.00    -0.206 F 
ATOM     79  C   UNL     1      -7.323   3.734   7.629  1.00  0.00     0.059 A 
ATOM     80  C   UNL     1      -9.184   2.470   6.718  1.00  0.00     0.059 A 
ATOM     81  F   UNL     1      -8.855   1.100   4.848  1.00  0.00    -0.206 F 
ATOM     82  C   UNL     1      -8.659   3.334   7.676  1.00  0.00     0.060 A 
BRANCH  82  83
ATOM     83  S   UNL     1      -9.695   3.960   9.015  1.00  0.00     0.124 S 
ATOM     84  O   UNL     1      -9.129   3.269  10.170  1.00  0.00    -0.237 OA
ATOM     85  O   UNL     1      -9.444   5.396   8.951  1.00  0.00    -0.237 OA
ATOM     86  O   UNL     1     -11.039   3.542   8.631  1.00  0.00    -0.744 OA
ENDBRANCH  82  83
ENDBRANCH  61  75
BRANCH  62  87
ATOM     87  C   UNL     1      -1.172  -2.373  -1.094  1.00  0.00     0.058 A 
ATOM     88  C   UNL     1      -0.385  -1.558  -1.935  1.00  0.00     0.135 A 
ATOM     89  C   UNL     1      -1.016  -3.756  -1.272  1.00  0.00     0.135 A 
ATOM     90  F   UNL     1      -0.498  -0.221  -1.878  1.00  0.00    -0.206 F 
ATOM     91  C   UNL     1       0.544  -2.074  -2.841  1.00  0.00     0.059 A 
ATOM     92  C   UNL     1      -0.055  -4.301  -2.129  1.00  0.00     0.059 A 
ATOM     93  F   UNL     1      -1.800  -4.615  -0.603  1.00  0.00    -0.206 F 
ATOM     94  C   UNL     1       0.728  -3.450  -2.904  1.00  0.00     0.060 A 
BRANCH  94  95
ATOM     95  S   UNL     1       2.022  -4.098  -3.985  1.00  0.00     0.124 S 
ATOM     96  O   UNL     1       1.537  -3.705  -5.303  1.00  0.00    -0.237 OA
ATOM     97  O   UNL     1       3.200  -3.381  -3.501  1.00  0.00    -0.237 OA
ATOM     98  O   UNL     1       2.011  -5.531  -3.710  1.00  0.00    -0.744 OA
ENDBRANCH  94  95
ENDBRANCH  62  87
BRANCH  74  99
ATOM     99  C   UNL     1      -6.489   2.139  -1.558  1.00  0.00     0.058 A 
ATOM    100  C   UNL     1      -7.283   1.333  -2.391  1.00  0.00     0.135 A 
ATOM    101  C   UNL     1      -6.465   3.519  -1.811  1.00  0.00     0.135 A 
ATOM    102  F   UNL     1      -7.336   0.005  -2.199  1.00  0.00    -0.206 F 
ATOM    103  C   UNL     1      -8.013   1.873  -3.444  1.00  0.00     0.059 A 
ATOM    104  C   UNL     1      -7.216   4.086  -2.835  1.00  0.00     0.059 A 
ATOM    105  F   UNL     1      -5.730   4.336  -1.040  1.00  0.00    -0.206 F 
ATOM    106  C   UNL     1      -7.982   3.253  -3.650  1.00  0.00     0.060 A 
BRANCH 106 107
ATOM    107  S   UNL     1      -8.984   3.946  -4.981  1.00  0.00     0.124 S 
ATOM    108  O   UNL     1      -8.296   3.441  -6.164  1.00  0.00    -0.237 OA
ATOM    109  O   UNL     1     -10.296   3.365  -4.713  1.00  0.00    -0.237 OA
ATOM    110  O   UNL     1      -8.887   5.387  -4.766  1.00  0.00    -0.744 OA
ENDBRANCH 106 107
ENDBRANCH  74  99
ENDBRANCH  48  49
ENDBRANCH  41  43
ENDBRANCH  40  41
ENDBRANCH  39  40
ENDBRANCH  38  39
ENDBRANCH  37  38
ENDBRANCH  36  37
ENDBRANCH  35  36
ENDBRANCH  34  35
ENDBRANCH   1  34
TORSDOF 29
