REMARK SMILES CC(C)[C@@H](NC(=O)c1ccc(NS(C)(=O)=O)cc1)C(=O)OCCOCCOCCOCCOC(=O)c1ccc(-c2c3nc(c(-c4c(F)cc(S(=O)(=O)[O-])cc4F)c4ccc([nH]4)c(-c4c(F)cc(S(=O)(=O)[O-])cc4F)c4nc(c(-c5c(F)cc(S(=O)(=O)[O-])cc5F)c5ccc2[nH]5)C=C4)C=C3)cc1
REMARK SMILES IDX 26 1 25 2 24 3 23 4 22 5 21 6 19 7 20 8 4 9 2 10 1 11 3 12
REMARK SMILES IDX 5 13 6 14 7 16 8 17 9 18 18 19 10 20 17 21 11 22 12 23 13 25
REMARK SMILES IDX 14 26 15 27 16 28 27 29 28 30 29 31 30 32 31 33 32 34 33 35
REMARK SMILES IDX 34 36 35 37 36 38 37 39 101 40 38 41 100 42 39 43 40 44
REMARK SMILES IDX 41 45 94 46 42 47 99 48 93 49 95 50 43 51 98 52 92 53 91 54
REMARK SMILES IDX 44 56 78 57 57 58 77 59 58 60 61 61 76 62 96 63 59 64 60 65
REMARK SMILES IDX 75 67 97 68 62 69 45 70 46 71 55 72 47 73 48 74 54 75 56 76
REMARK SMILES IDX 49 77 50 78 51 79 52 80 53 81 79 82 80 83 89 84 81 85 82 86
REMARK SMILES IDX 88 87 90 88 83 89 84 90 85 91 86 92 87 93 63 94 64 95 73 96
REMARK SMILES IDX 65 97 66 98 72 99 74 100 67 101 68 102 69 103 70 104 71 105
REMARK H PARENT 5 15 12 24 95 55 61 66
REMARK Flexibility Score: inf
ROOT
ATOM      1  C   UNL     1      -0.845   2.925   3.937  1.00  0.00     0.188 C 
ENDROOT
BRANCH   1   2
ATOM      2  C   UNL     1      -2.128   2.674   4.729  1.00  0.00     0.188 C 
BRANCH   2   3
ATOM      3  O   UNL     1      -1.894   2.065   5.978  1.00  0.00    -0.376 OA
BRANCH   3   4
ATOM      4  C   UNL     1      -1.933   0.652   6.076  1.00  0.00     0.202 C 
BRANCH   4   5
ATOM      5  C   UNL     1      -1.855  -0.340   4.899  1.00  0.00     0.261 C 
BRANCH   5   6
ATOM      6  O   UNL     1      -0.991  -0.278   3.755  1.00  0.00    -0.462 OA
BRANCH   6   7
ATOM      7  C   UNL     1      -1.620   0.092   2.603  1.00  0.00     0.328 C 
ATOM      8  O   UNL     1      -2.654   0.761   2.557  1.00  0.00    -0.250 OA
BRANCH   7   9
ATOM      9  C   UNL     1      -1.127  -0.565   1.318  1.00  0.00     0.195 C 
BRANCH   9  10
ATOM     10  C   UNL     1       0.410  -0.547   1.052  1.00  0.00     0.017 C 
ATOM     11  C   UNL     1       0.722  -0.787  -0.438  1.00  0.00     0.010 C 
ATOM     12  C   UNL     1       1.106   0.768   1.426  1.00  0.00     0.010 C 
ENDBRANCH   9  10
BRANCH   9  13
ATOM     13  N   UNL     1      -1.718  -1.917   1.079  1.00  0.00    -0.338 N 
ATOM     14  C   UNL     1      -2.966  -2.451   1.341  1.00  0.00     0.251 C 
ATOM     15  H   UNL     1      -1.097  -2.551   0.652  1.00  0.00     0.164 HD
ATOM     16  O   UNL     1      -3.460  -3.233   0.532  1.00  0.00    -0.269 OA
BRANCH  14  17
ATOM     17  C   UNL     1      -3.644  -2.283   2.648  1.00  0.00     0.039 A 
ATOM     18  C   UNL     1      -3.317  -3.150   3.698  1.00  0.00     0.016 A 
ATOM     19  C   UNL     1      -4.633  -1.321   2.849  1.00  0.00     0.016 A 
ATOM     20  C   UNL     1      -3.853  -2.952   4.988  1.00  0.00     0.027 A 
ATOM     21  C   UNL     1      -5.158  -1.118   4.143  1.00  0.00     0.027 A 
ATOM     22  C   UNL     1      -4.743  -1.902   5.239  1.00  0.00     0.048 A 
BRANCH  22  23
ATOM     23  N   UNL     1      -4.964  -1.330   6.544  1.00  0.00    -0.284 N 
ATOM     24  H   UNL     1      -5.117  -0.358   6.590  1.00  0.00     0.180 HD
BRANCH  23  25
ATOM     25  S   UNL     1      -4.982  -2.183   7.996  1.00  0.00     0.229 S 
ATOM     26  C   UNL     1      -3.651  -1.405   8.901  1.00  0.00     0.183 C 
ATOM     27  O   UNL     1      -6.214  -1.787   8.639  1.00  0.00    -0.207 OA
ATOM     28  O   UNL     1      -4.641  -3.572   7.788  1.00  0.00    -0.207 OA
ENDBRANCH  23  25
ENDBRANCH  22  23
ENDBRANCH  14  17
ENDBRANCH   9  13
ENDBRANCH   7   9
ENDBRANCH   6   7
ENDBRANCH   5   6
ENDBRANCH   4   5
ENDBRANCH   3   4
ENDBRANCH   2   3
ENDBRANCH   1   2
BRANCH   1  29
ATOM     29  O   UNL     1       0.195   1.971   4.080  1.00  0.00    -0.377 OA
BRANCH  29  30
ATOM     30  C   UNL     1       0.878   1.840   5.325  1.00  0.00     0.188 C 
BRANCH  30  31
ATOM     31  C   UNL     1       0.940   3.075   6.226  1.00  0.00     0.188 C 
BRANCH  31  32
ATOM     32  O   UNL     1       1.478   4.272   5.669  1.00  0.00    -0.376 OA
BRANCH  32  33
ATOM     33  C   UNL     1       2.345   4.158   4.549  1.00  0.00     0.202 C 
BRANCH  33  34
ATOM     34  C   UNL     1       3.790   3.754   4.846  1.00  0.00     0.261 C 
BRANCH  34  35
ATOM     35  O   UNL     1       3.926   2.501   5.535  1.00  0.00    -0.460 OA
BRANCH  35  36
ATOM     36  C   UNL     1       4.016   2.603   6.883  1.00  0.00     0.338 C 
ATOM     37  O   UNL     1       4.004   3.628   7.543  1.00  0.00    -0.246 OA
BRANCH  36  38
ATOM     38  C   UNL     1       4.002   1.262   7.498  1.00  0.00     0.060 A 
ATOM     39  C   UNL     1       3.115   1.031   8.559  1.00  0.00     0.016 A 
ATOM     40  C   UNL     1       4.938   0.292   7.131  1.00  0.00     0.016 A 
ATOM     41  C   UNL     1       3.213  -0.139   9.304  1.00  0.00     0.010 A 
ATOM     42  C   UNL     1       5.045  -0.876   7.891  1.00  0.00     0.010 A 
ATOM     43  C   UNL     1       4.220  -1.067   9.014  1.00  0.00    -0.014 A 
BRANCH  43  44
ATOM     44  C   UNL     1       4.522  -2.117  10.014  1.00  0.00     0.031 A 
ATOM     45  C   UNL     1       5.681  -1.910  10.953  1.00  0.00     0.074 A 
ATOM     46  C   UNL     1       3.726  -3.193  10.135  1.00  0.00     0.049 A 
ATOM     47  N   UNL     1       6.101  -2.668  11.932  1.00  0.00    -0.248 NA
ATOM     48  C   UNL     1       6.473  -0.683  10.763  1.00  0.00     0.031 C 
ATOM     49  C   UNL     1       2.557  -3.472   9.302  1.00  0.00     0.029 A 
ATOM     50  N   UNL     1       3.779  -4.246  11.009  1.00  0.00    -0.354 N 
ATOM     51  C   UNL     1       7.207  -2.017  12.469  1.00  0.00     0.074 A 
ATOM     52  C   UNL     1       7.415  -0.820  11.684  1.00  0.00     0.031 C 
ATOM     53  C   UNL     1       2.002  -4.627   9.706  1.00  0.00     0.029 A 
ATOM     54  C   UNL     1       2.793  -5.180  10.804  1.00  0.00     0.049 A 
ATOM     55  H   UNL     1       4.458  -4.326  11.717  1.00  0.00     0.167 HD
ATOM     56  C   UNL     1       7.973  -2.381  13.525  1.00  0.00     0.037 A 
ATOM     57  C   UNL     1       2.567  -6.354  11.424  1.00  0.00     0.037 A 
ATOM     58  C   UNL     1       7.754  -3.578  14.297  1.00  0.00     0.049 A 
ATOM     59  C   UNL     1       3.458  -6.760  12.568  1.00  0.00     0.074 A 
ATOM     60  C   UNL     1       8.457  -4.033  15.398  1.00  0.00     0.029 A 
ATOM     61  N   UNL     1       6.763  -4.516  14.042  1.00  0.00    -0.354 N 
ATOM     62  N   UNL     1       4.486  -6.125  13.081  1.00  0.00    -0.248 NA
ATOM     63  C   UNL     1       3.149  -8.035  13.227  1.00  0.00     0.031 C 
ATOM     64  C   UNL     1       7.933  -5.276  15.769  1.00  0.00     0.029 A 
ATOM     65  C   UNL     1       6.854  -5.561  14.947  1.00  0.00     0.049 A 
ATOM     66  H   UNL     1       6.093  -4.449  13.323  1.00  0.00     0.167 HD
ATOM     67  C   UNL     1       4.927  -6.908  14.144  1.00  0.00     0.074 A 
ATOM     68  C   UNL     1       4.041  -8.053  14.208  1.00  0.00     0.031 C 
ATOM     69  C   UNL     1       5.966  -6.699  14.993  1.00  0.00     0.037 A 
BRANCH  56  70
ATOM     70  C   UNL     1       9.139  -1.497  13.883  1.00  0.00     0.058 A 
ATOM     71  C   UNL     1       8.967  -0.212  14.424  1.00  0.00     0.135 A 
ATOM     72  C   UNL     1      10.455  -1.958  13.708  1.00  0.00     0.135 A 
ATOM     73  F   UNL     1       7.734   0.290  14.596  1.00  0.00    -0.206 F 
ATOM     74  C   UNL     1      10.054   0.593  14.752  1.00  0.00     0.059 A 
ATOM     75  C   UNL     1      11.557  -1.183  14.059  1.00  0.00     0.059 A 
ATOM     76  F   UNL     1      10.682  -3.175  13.191  1.00  0.00    -0.206 F 
ATOM     77  C   UNL     1      11.346   0.097  14.567  1.00  0.00     0.060 A 
BRANCH  77  78
ATOM     78  S   UNL     1      12.746   1.151  15.004  1.00  0.00     0.124 S 
ATOM     79  O   UNL     1      12.685   2.166  13.958  1.00  0.00    -0.237 OA
ATOM     80  O   UNL     1      12.389   1.601  16.346  1.00  0.00    -0.237 OA
ATOM     81  O   UNL     1      13.889   0.246  14.933  1.00  0.00    -0.744 OA
ENDBRANCH  77  78
ENDBRANCH  56  70
BRANCH  57  82
ATOM     82  C   UNL     1       1.451  -7.227  10.970  1.00  0.00     0.058 A 
ATOM     83  C   UNL     1       0.326  -7.454  11.775  1.00  0.00     0.135 A 
ATOM     84  C   UNL     1       1.488  -7.845   9.709  1.00  0.00     0.135 A 
ATOM     85  F   UNL     1       0.246  -6.891  12.991  1.00  0.00    -0.206 F 
ATOM     86  C   UNL     1      -0.716  -8.277  11.357  1.00  0.00     0.059 A 
ATOM     87  C   UNL     1       0.446  -8.646   9.256  1.00  0.00     0.059 A 
ATOM     88  F   UNL     1       2.535  -7.648   8.893  1.00  0.00    -0.206 F 
ATOM     89  C   UNL     1      -0.647  -8.866  10.092  1.00  0.00     0.060 A 
BRANCH  89  90
ATOM     90  S   UNL     1      -2.023  -9.895   9.540  1.00  0.00     0.124 S 
ATOM     91  O   UNL     1      -1.855 -11.081  10.372  1.00  0.00    -0.237 OA
ATOM     92  O   UNL     1      -3.175  -9.055   9.850  1.00  0.00    -0.237 OA
ATOM     93  O   UNL     1      -1.753 -10.079   8.117  1.00  0.00    -0.744 OA
ENDBRANCH  89  90
ENDBRANCH  57  82
BRANCH  69  94
ATOM     94  C   UNL     1       6.170  -7.710  16.092  1.00  0.00     0.058 A 
ATOM     95  C   UNL     1       6.588  -9.024  15.829  1.00  0.00     0.135 A 
ATOM     96  C   UNL     1       5.944  -7.353  17.432  1.00  0.00     0.135 A 
ATOM     97  F   UNL     1       6.821  -9.421  14.568  1.00  0.00    -0.206 F 
ATOM     98  C   UNL     1       6.719  -9.963  16.848  1.00  0.00     0.059 A 
ATOM     99  C   UNL     1       6.106  -8.264  18.470  1.00  0.00     0.059 A 
ATOM    100  F   UNL     1       5.561  -6.104  17.745  1.00  0.00    -0.206 F 
ATOM    101  C   UNL     1       6.468  -9.574  18.165  1.00  0.00     0.060 A 
BRANCH 101 102
ATOM    102  S   UNL     1       6.617 -10.806  19.476  1.00  0.00     0.124 S 
ATOM    103  O   UNL     1       5.429 -11.622  19.248  1.00  0.00    -0.237 OA
ATOM    104  O   UNL     1       7.893 -11.443  19.163  1.00  0.00    -0.237 OA
ATOM    105  O   UNL     1       6.605 -10.007  20.697  1.00  0.00    -0.744 OA
ENDBRANCH 101 102
ENDBRANCH  69  94
ENDBRANCH  43  44
ENDBRANCH  36  38
ENDBRANCH  35  36
ENDBRANCH  34  35
ENDBRANCH  33  34
ENDBRANCH  32  33
ENDBRANCH  31  32
ENDBRANCH  30  31
ENDBRANCH  29  30
ENDBRANCH   1  29
TORSDOF 28
