REMARK SMILES COc1ccccc1C(=O)N/C(=C/c1ccc2c(c1)OCO2)C(=O)Nc1ccc(C(=O)OCCOCCOCCOCCOC(=O)c2ccc(-c3c4nc(c(-c5c(F)cc(S(=O)(=O)[O-])cc5F)c5ccc([nH]5)c(-c5c(F)cc(S(=O)(=O)[O-])cc5F)c5nc(c(-c6c(F)cc(S(=O)(=O)[O-])cc6F)c6ccc3[nH]6)C=C5)C=C4)cc2)cc1
REMARK SMILES IDX 37 1 36 2 35 3 34 4 33 5 32 6 30 7 31 8 29 9 26 10 27 11
REMARK SMILES IDX 114 12 28 13 113 14 25 15 23 16 24 17 12 19 13 20 11 21 9 22
REMARK SMILES IDX 10 23 8 25 3 26 4 27 5 28 7 29 6 30 2 31 1 32 14 33 15 34
REMARK SMILES IDX 19 35 16 36 18 37 17 38 20 39 22 40 21 41 38 42 39 43 40 44
REMARK SMILES IDX 41 45 42 46 43 47 44 48 45 49 46 50 47 51 48 52 112 53 49 54
REMARK SMILES IDX 111 55 50 56 51 57 52 58 105 59 53 60 110 61 104 62 106 63
REMARK SMILES IDX 54 64 109 65 103 66 102 67 55 69 89 70 68 71 88 72 69 73
REMARK SMILES IDX 72 74 87 75 107 76 70 77 71 78 86 80 108 81 73 82 56 83
REMARK SMILES IDX 57 84 66 85 58 86 59 87 65 88 67 89 60 90 61 91 62 92 63 93
REMARK SMILES IDX 64 94 90 95 91 96 100 97 92 98 93 99 99 100 101 101 94 102
REMARK SMILES IDX 95 103 96 104 97 105 98 106 74 107 75 108 84 109 76 110
REMARK SMILES IDX 77 111 83 112 85 113 78 114 79 115 80 116 81 117 82 118
REMARK H PARENT 25 18 11 24 106 68 72 79
REMARK Flexibility Score: inf
ROOT
ATOM      1  C   UNL     1      -4.740   1.147  -4.815  1.00  0.00     0.188 C 
ENDROOT
BRANCH   1   2
ATOM      2  C   UNL     1      -4.683   2.682  -4.897  1.00  0.00     0.188 C 
BRANCH   2   3
ATOM      3  O   UNL     1      -4.598   3.377  -6.136  1.00  0.00    -0.376 OA
BRANCH   3   4
ATOM      4  C   UNL     1      -3.908   2.848  -7.260  1.00  0.00     0.202 C 
BRANCH   4   5
ATOM      5  C   UNL     1      -2.452   2.349  -7.184  1.00  0.00     0.261 C 
BRANCH   5   6
ATOM      6  O   UNL     1      -2.091   1.677  -5.974  1.00  0.00    -0.460 OA
BRANCH   6   7
ATOM      7  C   UNL     1      -1.457   2.454  -5.079  1.00  0.00     0.338 C 
ATOM      8  O   UNL     1      -1.045   3.590  -5.243  1.00  0.00    -0.246 OA
BRANCH   7   9
ATOM      9  C   UNL     1      -1.504   1.829  -3.755  1.00  0.00     0.060 A 
ATOM     10  C   UNL     1      -1.513   0.424  -0.302  1.00  0.00     0.041 A 
ATOM     11  C   UNL     1      -1.434   2.180  -0.505  1.00  0.00     0.027 A 
ATOM     12  C   UNL     1      -1.667  -0.581  -1.744  1.00  0.00     0.027 A 
ATOM     13  C   UNL     1      -1.379   2.960  -2.366  1.00  0.00     0.018 A 
ATOM     14  C   UNL     1      -1.669   0.097  -3.406  1.00  0.00     0.018 A 
BRANCH  10  15
ATOM     15  N   UNL     1      -0.701   0.020   0.776  1.00  0.00    -0.321 N 
ATOM     16  C   UNL     1       0.278   0.886   1.272  1.00  0.00     0.272 C 
ATOM     17  O   UNL     1       0.200   1.358   2.407  1.00  0.00    -0.267 OA
ATOM     18  H   UNL     1      -0.822  -0.870   1.179  1.00  0.00     0.170 HD
BRANCH  16  19
ATOM     19  C   UNL     1       1.541   1.134   0.428  1.00  0.00     0.108 C 
ATOM     20  C   UNL     1       1.635   2.029  -0.598  1.00  0.00     0.040 C 
BRANCH  19  21
ATOM     21  N   UNL     1       2.691   0.406   0.709  1.00  0.00    -0.317 N 
ATOM     22  C   UNL     1       3.072  -0.511   1.664  1.00  0.00     0.259 C 
ATOM     23  O   UNL     1       4.201  -1.000   1.579  1.00  0.00    -0.269 OA
ATOM     24  H   UNL     1       3.413   0.593   0.067  1.00  0.00     0.170 HD
BRANCH  22  25
ATOM     25  C   UNL     1       2.278  -0.859   2.855  1.00  0.00     0.082 A 
ATOM     26  C   UNL     1       1.057  -1.539   2.876  1.00  0.00     0.131 A 
ATOM     27  C   UNL     1       0.334  -1.574   4.079  1.00  0.00     0.047 A 
ATOM     28  C   UNL     1       0.883  -1.096   5.270  1.00  0.00     0.004 A 
ATOM     29  C   UNL     1       2.866  -0.464   4.073  1.00  0.00     0.018 A 
ATOM     30  C   UNL     1       2.178  -0.596   5.278  1.00  0.00     0.001 A 
BRANCH  26  31
ATOM     31  O   UNL     1       0.400  -2.169   1.856  1.00  0.00    -0.496 OA
ATOM     32  C   UNL     1       1.153  -2.618   0.735  1.00  0.00     0.278 C 
ENDBRANCH  26  31
ENDBRANCH  22  25
ENDBRANCH  19  21
BRANCH  20  33
ATOM     33  C   UNL     1       0.474   2.651  -1.264  1.00  0.00    -0.019 A 
ATOM     34  C   UNL     1      -0.533   1.330  -1.941  1.00  0.00     0.012 A 
ATOM     35  C   UNL     1      -0.345   4.116  -0.686  1.00  0.00     0.058 A 
ATOM     36  C   UNL     1      -2.545   1.523  -1.892  1.00  0.00     0.051 A 
ATOM     37  C   UNL     1      -2.116   4.272  -0.700  1.00  0.00     0.166 A 
ATOM     38  C   UNL     1      -3.208   3.056  -1.259  1.00  0.00     0.165 A 
ATOM     39  O   UNL     1      -2.842   5.044   0.180  1.00  0.00    -0.454 OA
ATOM     40  O   UNL     1      -4.410   3.251  -0.649  1.00  0.00    -0.454 OA
ATOM     41  C   UNL     1      -4.021   4.194   0.404  1.00  0.00     0.468 C 
ENDBRANCH  20  33
ENDBRANCH  16  19
ENDBRANCH  10  15
ENDBRANCH   7   9
ENDBRANCH   6   7
ENDBRANCH   5   6
ENDBRANCH   4   5
ENDBRANCH   3   4
ENDBRANCH   2   3
ENDBRANCH   1   2
BRANCH   1  42
ATOM     42  O   UNL     1      -4.456   0.491  -6.029  1.00  0.00    -0.377 OA
BRANCH  42  43
ATOM     43  C   UNL     1      -5.562  -0.107  -6.679  1.00  0.00     0.188 C 
BRANCH  43  44
ATOM     44  C   UNL     1      -6.834   0.752  -6.798  1.00  0.00     0.188 C 
BRANCH  44  45
ATOM     45  O   UNL     1      -7.366   1.129  -5.531  1.00  0.00    -0.376 OA
BRANCH  45  46
ATOM     46  C   UNL     1      -8.482   0.394  -5.050  1.00  0.00     0.202 C 
BRANCH  46  47
ATOM     47  C   UNL     1      -8.230  -1.054  -4.595  1.00  0.00     0.261 C 
BRANCH  47  48
ATOM     48  O   UNL     1      -7.648  -1.960  -5.548  1.00  0.00    -0.460 OA
BRANCH  48  49
ATOM     49  C   UNL     1      -8.277  -2.177  -6.725  1.00  0.00     0.338 C 
ATOM     50  O   UNL     1      -9.351  -1.722  -7.070  1.00  0.00    -0.246 OA
BRANCH  49  51
ATOM     51  C   UNL     1      -7.317  -2.884  -7.613  1.00  0.00     0.060 A 
ATOM     52  C   UNL     1      -6.928  -2.282  -8.819  1.00  0.00     0.016 A 
ATOM     53  C   UNL     1      -6.745  -4.098  -7.225  1.00  0.00     0.016 A 
ATOM     54  C   UNL     1      -5.958  -2.884  -9.628  1.00  0.00     0.010 A 
ATOM     55  C   UNL     1      -5.803  -4.718  -8.055  1.00  0.00     0.010 A 
ATOM     56  C   UNL     1      -5.409  -4.120  -9.265  1.00  0.00    -0.014 A 
BRANCH  56  57
ATOM     57  C   UNL     1      -4.541  -4.872 -10.210  1.00  0.00     0.031 A 
ATOM     58  C   UNL     1      -5.173  -5.928 -11.075  1.00  0.00     0.074 A 
ATOM     59  C   UNL     1      -3.216  -4.645 -10.285  1.00  0.00     0.049 A 
ATOM     60  N   UNL     1      -4.609  -6.786 -11.883  1.00  0.00    -0.248 NA
ATOM     61  C   UNL     1      -6.640  -6.028 -11.015  1.00  0.00     0.031 C 
ATOM     62  C   UNL     1      -2.487  -3.622  -9.538  1.00  0.00     0.029 A 
ATOM     63  N   UNL     1      -2.242  -5.284 -11.017  1.00  0.00    -0.354 N 
ATOM     64  C   UNL     1      -5.648  -7.538 -12.420  1.00  0.00     0.074 A 
ATOM     65  C   UNL     1      -6.875  -7.045 -11.832  1.00  0.00     0.031 C 
ATOM     66  C   UNL     1      -1.177  -3.721  -9.828  1.00  0.00     0.029 A 
ATOM     67  C   UNL     1      -0.968  -4.839 -10.749  1.00  0.00     0.049 A 
ATOM     68  H   UNL     1      -2.438  -5.993 -11.671  1.00  0.00     0.167 HD
ATOM     69  C   UNL     1      -5.585  -8.546 -13.321  1.00  0.00     0.037 A 
ATOM     70  C   UNL     1       0.228  -5.304 -11.166  1.00  0.00     0.037 A 
ATOM     71  C   UNL     1      -4.362  -9.037 -13.900  1.00  0.00     0.049 A 
ATOM     72  C   UNL     1       0.280  -6.489 -12.100  1.00  0.00     0.074 A 
ATOM     73  C   UNL     1      -4.201 -10.035 -14.845  1.00  0.00     0.029 A 
ATOM     74  N   UNL     1      -3.092  -8.583 -13.578  1.00  0.00    -0.354 N 
ATOM     75  N   UNL     1      -0.710  -7.169 -12.628  1.00  0.00    -0.248 NA
ATOM     76  C   UNL     1       1.613  -6.976 -12.491  1.00  0.00     0.031 C 
ATOM     77  C   UNL     1      -2.831 -10.228 -15.048  1.00  0.00     0.029 A 
ATOM     78  C   UNL     1      -2.140  -9.309 -14.274  1.00  0.00     0.049 A 
ATOM     79  H   UNL     1      -2.897  -7.853 -12.948  1.00  0.00     0.167 HD
ATOM     80  C   UNL     1      -0.122  -8.149 -13.423  1.00  0.00     0.074 A 
ATOM     81  C   UNL     1       1.310  -7.963 -13.323  1.00  0.00     0.031 C 
ATOM     82  C   UNL     1      -0.714  -9.116 -14.167  1.00  0.00     0.037 A 
BRANCH  69  83
ATOM     83  C   UNL     1      -6.874  -9.214 -13.714  1.00  0.00     0.058 A 
ATOM     84  C   UNL     1      -7.826  -8.572 -14.521  1.00  0.00     0.135 A 
ATOM     85  C   UNL     1      -7.139 -10.533 -13.310  1.00  0.00     0.135 A 
ATOM     86  F   UNL     1      -7.632  -7.305 -14.919  1.00  0.00    -0.206 F 
ATOM     87  C   UNL     1      -9.005  -9.208 -14.899  1.00  0.00     0.059 A 
ATOM     88  C   UNL     1      -8.298 -11.197 -13.698  1.00  0.00     0.059 A 
ATOM     89  F   UNL     1      -6.265 -11.190 -12.532  1.00  0.00    -0.206 F 
ATOM     90  C   UNL     1      -9.230 -10.522 -14.484  1.00  0.00     0.060 A 
BRANCH  90  91
ATOM     91  S   UNL     1     -10.758 -11.336 -14.994  1.00  0.00     0.124 S 
ATOM     92  O   UNL     1     -11.748 -10.623 -14.192  1.00  0.00    -0.237 OA
ATOM     93  O   UNL     1     -10.791 -11.064 -16.428  1.00  0.00    -0.237 OA
ATOM     94  O   UNL     1     -10.541 -12.731 -14.627  1.00  0.00    -0.744 OA
ENDBRANCH  90  91
ENDBRANCH  69  83
BRANCH  70  95
ATOM     95  C   UNL     1       1.487  -4.680 -10.670  1.00  0.00     0.058 A 
ATOM     96  C   UNL     1       2.338  -3.973 -11.532  1.00  0.00     0.135 A 
ATOM     97  C   UNL     1       1.872  -4.793  -9.324  1.00  0.00     0.135 A 
ATOM     98  F   UNL     1       2.027  -3.853 -12.832  1.00  0.00    -0.206 F 
ATOM     99  C   UNL     1       3.529  -3.408 -11.082  1.00  0.00     0.059 A 
ATOM    100  C   UNL     1       3.042  -4.214  -8.845  1.00  0.00     0.059 A 
ATOM    101  F   UNL     1       1.094  -5.458  -8.456  1.00  0.00    -0.206 F 
ATOM    102  C   UNL     1       3.869  -3.530  -9.734  1.00  0.00     0.060 A 
BRANCH 102 103
ATOM    103  S   UNL     1       5.387  -2.746  -9.147  1.00  0.00     0.124 S 
ATOM    104  O   UNL     1       6.408  -3.612  -9.725  1.00  0.00    -0.237 OA
ATOM    105  O   UNL     1       5.281  -1.409  -9.722  1.00  0.00    -0.237 OA
ATOM    106  O   UNL     1       5.255  -2.807  -7.694  1.00  0.00    -0.744 OA
ENDBRANCH 102 103
ENDBRANCH  70  95
BRANCH  82 107
ATOM    107  C   UNL     1       0.175 -10.047 -14.948  1.00  0.00     0.058 A 
ATOM    108  C   UNL     1       0.936 -11.043 -14.314  1.00  0.00     0.135 A 
ATOM    109  C   UNL     1       0.209  -9.995 -16.351  1.00  0.00     0.135 A 
ATOM    110  F   UNL     1       0.947 -11.134 -12.975  1.00  0.00    -0.206 F 
ATOM    111  C   UNL     1       1.708 -11.943 -15.042  1.00  0.00     0.059 A 
ATOM    112  C   UNL     1       0.950 -10.904 -17.101  1.00  0.00     0.059 A 
ATOM    113  F   UNL     1      -0.508  -9.070 -17.010  1.00  0.00    -0.206 F 
ATOM    114  C   UNL     1       1.703 -11.870 -16.436  1.00  0.00     0.060 A 
BRANCH 114 115
ATOM    115  S   UNL     1       2.667 -13.079 -17.368  1.00  0.00     0.124 S 
ATOM    116  O   UNL     1       4.032 -12.639 -17.098  1.00  0.00    -0.237 OA
ATOM    117  O   UNL     1       2.273 -14.339 -16.745  1.00  0.00    -0.237 OA
ATOM    118  O   UNL     1       2.209 -12.896 -18.742  1.00  0.00    -0.744 OA
ENDBRANCH 114 115
ENDBRANCH  82 107
ENDBRANCH  56  57
ENDBRANCH  49  51
ENDBRANCH  48  49
ENDBRANCH  47  48
ENDBRANCH  46  47
ENDBRANCH  45  46
ENDBRANCH  44  45
ENDBRANCH  43  44
ENDBRANCH  42  43
ENDBRANCH   1  42
TORSDOF 29
