REMARK SMILES CC[C@@H](C)[C@@H](NC(=O)C(F)(F)F)C(=O)OCCOCCOCCOCCOC(=O)c1ccc(-c2c3nc(c(-c4c(F)cc(S(=O)(=O)[O-])cc4F)c4ccc([nH]4)c(-c4c(F)cc(S(=O)(=O)[O-])cc4F)c4nc(c(-c5c(F)cc(S(=O)(=O)[O-])cc5F)c5ccc2[nH]5)C=C4)C=C3)cc1
REMARK SMILES IDX 22 1 21 2 20 3 19 4 18 5 17 6 16 7 15 8 13 9 14 10 5 11 3 12
REMARK SMILES IDX 4 13 2 14 1 15 6 16 7 17 8 19 9 20 10 21 11 22 12 23 23 24
REMARK SMILES IDX 24 25 25 26 26 27 27 28 28 29 29 30 30 31 31 32 95 33 32 34
REMARK SMILES IDX 94 35 33 36 34 37 35 38 88 39 36 40 93 41 87 42 89 43 37 44
REMARK SMILES IDX 92 45 86 46 85 47 38 49 72 50 51 51 71 52 52 53 55 54 70 55
REMARK SMILES IDX 90 56 53 57 54 58 69 60 91 61 56 62 39 63 40 64 49 65 41 66
REMARK SMILES IDX 42 67 48 68 50 69 43 70 44 71 45 72 46 73 47 74 73 75 74 76
REMARK SMILES IDX 83 77 75 78 76 79 82 80 84 81 77 82 78 83 79 84 80 85 81 86
REMARK SMILES IDX 57 87 58 88 67 89 59 90 60 91 66 92 68 93 61 94 62 95 63 96
REMARK SMILES IDX 64 97 65 98
REMARK H PARENT 6 18 89 48 55 59
REMARK Flexibility Score: inf
ROOT
ATOM      1  C   UNL     1       2.123  -3.491   4.830  1.00  0.00     0.188 C 
ENDROOT
BRANCH   1   2
ATOM      2  O   UNL     1       1.197  -3.826   3.798  1.00  0.00    -0.377 OA
BRANCH   2   3
ATOM      3  C   UNL     1      -0.035  -4.442   4.118  1.00  0.00     0.188 C 
BRANCH   3   4
ATOM      4  C   UNL     1      -0.026  -5.968   4.075  1.00  0.00     0.188 C 
BRANCH   4   5
ATOM      5  O   UNL     1       1.163  -6.589   4.526  1.00  0.00    -0.376 OA
BRANCH   5   6
ATOM      6  C   UNL     1       2.285  -6.632   3.640  1.00  0.00     0.202 C 
BRANCH   6   7
ATOM      7  C   UNL     1       2.102  -6.539   2.117  1.00  0.00     0.261 C 
BRANCH   7   8
ATOM      8  O   UNL     1       1.896  -5.199   1.584  1.00  0.00    -0.462 OA
BRANCH   8   9
ATOM      9  C   UNL     1       0.766  -5.013   0.853  1.00  0.00     0.329 C 
ATOM     10  O   UNL     1      -0.153  -5.829   0.794  1.00  0.00    -0.250 OA
BRANCH   9  11
ATOM     11  C   UNL     1       0.790  -3.811  -0.120  1.00  0.00     0.195 C 
BRANCH  11  12
ATOM     12  C   UNL     1       1.378  -2.401   0.211  1.00  0.00     0.019 C 
ATOM     13  C   UNL     1       0.872  -1.876   1.559  1.00  0.00     0.010 C 
BRANCH  12  14
ATOM     14  C   UNL     1       0.971  -1.394  -0.915  1.00  0.00     0.002 C 
ATOM     15  C   UNL     1       1.349   0.069  -0.701  1.00  0.00     0.004 C 
ENDBRANCH  12  14
ENDBRANCH  11  12
BRANCH  11  16
ATOM     16  N   UNL     1       1.021  -4.230  -1.523  1.00  0.00    -0.335 N 
ATOM     17  C   UNL     1       1.973  -5.010  -2.130  1.00  0.00     0.326 C 
ATOM     18  H   UNL     1       0.352  -3.874  -2.151  1.00  0.00     0.164 HD
ATOM     19  O   UNL     1       2.010  -4.923  -3.366  1.00  0.00    -0.265 OA
BRANCH  17  20
ATOM     20  C   UNL     1       2.867  -5.998  -1.351  1.00  0.00     0.471 C 
ATOM     21  F   UNL     1       3.637  -5.381  -0.416  1.00  0.00    -0.162 F 
ATOM     22  F   UNL     1       2.127  -6.937  -0.694  1.00  0.00    -0.162 F 
ATOM     23  F   UNL     1       3.714  -6.698  -2.153  1.00  0.00    -0.162 F 
ENDBRANCH  17  20
ENDBRANCH  11  16
ENDBRANCH   9  11
ENDBRANCH   8   9
ENDBRANCH   7   8
ENDBRANCH   6   7
ENDBRANCH   5   6
ENDBRANCH   4   5
ENDBRANCH   3   4
ENDBRANCH   2   3
ENDBRANCH   1   2
BRANCH   1  24
ATOM     24  C   UNL     1       1.637  -3.530   6.278  1.00  0.00     0.188 C 
BRANCH  24  25
ATOM     25  O   UNL     1       0.563  -2.654   6.630  1.00  0.00    -0.376 OA
BRANCH  25  26
ATOM     26  C   UNL     1       0.428  -1.424   5.923  1.00  0.00     0.202 C 
BRANCH  26  27
ATOM     27  C   UNL     1       1.339  -0.289   6.394  1.00  0.00     0.261 C 
BRANCH  27  28
ATOM     28  O   UNL     1       2.721  -0.526   6.084  1.00  0.00    -0.460 OA
BRANCH  28  29
ATOM     29  C   UNL     1       3.470  -0.972   7.122  1.00  0.00     0.338 C 
ATOM     30  O   UNL     1       3.095  -1.194   8.258  1.00  0.00    -0.246 OA
BRANCH  29  31
ATOM     31  C   UNL     1       4.831  -1.287   6.651  1.00  0.00     0.060 A 
ATOM     32  C   UNL     1       5.389  -2.519   7.014  1.00  0.00     0.016 A 
ATOM     33  C   UNL     1       5.585  -0.338   5.957  1.00  0.00     0.016 A 
ATOM     34  C   UNL     1       6.728  -2.783   6.737  1.00  0.00     0.010 A 
ATOM     35  C   UNL     1       6.930  -0.599   5.691  1.00  0.00     0.010 A 
ATOM     36  C   UNL     1       7.515  -1.802   6.120  1.00  0.00    -0.014 A 
BRANCH  36  37
ATOM     37  C   UNL     1       8.988  -1.949   6.101  1.00  0.00     0.031 A 
ATOM     38  C   UNL     1       9.790  -1.256   7.169  1.00  0.00     0.074 A 
ATOM     39  C   UNL     1       9.595  -2.687   5.156  1.00  0.00     0.049 A 
ATOM     40  N   UNL     1      11.085  -1.175   7.313  1.00  0.00    -0.248 NA
ATOM     41  C   UNL     1       9.022  -0.556   8.213  1.00  0.00     0.031 C 
ATOM     42  C   UNL     1       8.914  -3.431   4.098  1.00  0.00     0.029 A 
ATOM     43  N   UNL     1      10.927  -2.917   4.928  1.00  0.00    -0.354 N 
ATOM     44  C   UNL     1      11.290  -0.412   8.457  1.00  0.00     0.074 A 
ATOM     45  C   UNL     1       9.986  -0.029   8.952  1.00  0.00     0.031 C 
ATOM     46  C   UNL     1       9.836  -4.019   3.317  1.00  0.00     0.029 A 
ATOM     47  C   UNL     1      11.170  -3.667   3.803  1.00  0.00     0.049 A 
ATOM     48  H   UNL     1      11.642  -2.578   5.515  1.00  0.00     0.167 HD
ATOM     49  C   UNL     1      12.461  -0.070   9.045  1.00  0.00     0.037 A 
ATOM     50  C   UNL     1      12.337  -4.003   3.219  1.00  0.00     0.037 A 
ATOM     51  C   UNL     1      13.752  -0.451   8.538  1.00  0.00     0.049 A 
ATOM     52  C   UNL     1      13.629  -3.559   3.854  1.00  0.00     0.074 A 
ATOM     53  C   UNL     1      15.002  -0.162   9.056  1.00  0.00     0.029 A 
ATOM     54  N   UNL     1      13.959  -1.202   7.389  1.00  0.00    -0.354 N 
ATOM     55  N   UNL     1      13.811  -2.848   4.943  1.00  0.00    -0.248 NA
ATOM     56  C   UNL     1      14.873  -3.964   3.186  1.00  0.00     0.031 C 
ATOM     57  C   UNL     1      15.965  -0.701   8.196  1.00  0.00     0.029 A 
ATOM     58  C   UNL     1      15.316  -1.370   7.170  1.00  0.00     0.049 A 
ATOM     59  H   UNL     1      13.246  -1.562   6.814  1.00  0.00     0.167 HD
ATOM     60  C   UNL     1      15.189  -2.743   5.103  1.00  0.00     0.074 A 
ATOM     61  C   UNL     1      15.792  -3.471   4.005  1.00  0.00     0.031 C 
ATOM     62  C   UNL     1      15.893  -2.105   6.072  1.00  0.00     0.037 A 
BRANCH  49  63
ATOM     63  C   UNL     1      12.393   0.780  10.283  1.00  0.00     0.058 A 
ATOM     64  C   UNL     1      11.933   0.267  11.507  1.00  0.00     0.135 A 
ATOM     65  C   UNL     1      12.805   2.122  10.251  1.00  0.00     0.135 A 
ATOM     66  F   UNL     1      11.507  -1.003  11.590  1.00  0.00    -0.206 F 
ATOM     67  C   UNL     1      11.857   1.061  12.647  1.00  0.00     0.059 A 
ATOM     68  C   UNL     1      12.763   2.928  11.385  1.00  0.00     0.059 A 
ATOM     69  F   UNL     1      13.248   2.665   9.106  1.00  0.00    -0.206 F 
ATOM     70  C   UNL     1      12.273   2.392  12.575  1.00  0.00     0.060 A 
BRANCH  70  71
ATOM     71  S   UNL     1      12.165   3.412  14.061  1.00  0.00     0.124 S 
ATOM     72  O   UNL     1      10.726   3.632  14.159  1.00  0.00    -0.237 OA
ATOM     73  O   UNL     1      12.743   2.542  15.080  1.00  0.00    -0.237 OA
ATOM     74  O   UNL     1      12.959   4.590  13.723  1.00  0.00    -0.744 OA
ENDBRANCH  70  71
ENDBRANCH  49  63
BRANCH  50  75
ATOM     75  C   UNL     1      12.333  -4.789   1.957  1.00  0.00     0.058 A 
ATOM     76  C   UNL     1      12.769  -6.121   1.930  1.00  0.00     0.135 A 
ATOM     77  C   UNL     1      11.880  -4.224   0.754  1.00  0.00     0.135 A 
ATOM     78  F   UNL     1      13.220  -6.702   3.052  1.00  0.00    -0.206 F 
ATOM     79  C   UNL     1      12.767  -6.864   0.754  1.00  0.00     0.059 A 
ATOM     80  C   UNL     1      11.845  -4.954  -0.430  1.00  0.00     0.059 A 
ATOM     81  F   UNL     1      11.441  -2.956   0.729  1.00  0.00    -0.206 F 
ATOM     82  C   UNL     1      12.300  -6.272  -0.421  1.00  0.00     0.060 A 
BRANCH  82  83
ATOM     83  S   UNL     1      12.251  -7.262  -1.931  1.00  0.00     0.124 S 
ATOM     84  O   UNL     1      13.665  -7.336  -2.279  1.00  0.00    -0.237 OA
ATOM     85  O   UNL     1      11.642  -8.504  -1.463  1.00  0.00    -0.237 OA
ATOM     86  O   UNL     1      11.420  -6.464  -2.828  1.00  0.00    -0.744 OA
ENDBRANCH  82  83
ENDBRANCH  50  75
BRANCH  62  87
ATOM     87  C   UNL     1      17.393  -2.193   6.010  1.00  0.00     0.058 A 
ATOM     88  C   UNL     1      18.137  -1.477   5.061  1.00  0.00     0.135 A 
ATOM     89  C   UNL     1      18.097  -2.960   6.953  1.00  0.00     0.135 A 
ATOM     90  F   UNL     1      17.512  -0.733   4.134  1.00  0.00    -0.206 F 
ATOM     91  C   UNL     1      19.526  -1.534   5.034  1.00  0.00     0.059 A 
ATOM     92  C   UNL     1      19.487  -3.011   6.962  1.00  0.00     0.059 A 
ATOM     93  F   UNL     1      17.433  -3.655   7.891  1.00  0.00    -0.206 F 
ATOM     94  C   UNL     1      20.193  -2.303   5.991  1.00  0.00     0.060 A 
BRANCH  94  95
ATOM     95  S   UNL     1      21.998  -2.340   5.968  1.00  0.00     0.124 S 
ATOM     96  O   UNL     1      22.259  -3.199   4.818  1.00  0.00    -0.237 OA
ATOM     97  O   UNL     1      22.338  -0.931   5.797  1.00  0.00    -0.237 OA
ATOM     98  O   UNL     1      22.342  -2.908   7.268  1.00  0.00    -0.744 OA
ENDBRANCH  94  95
ENDBRANCH  62  87
ENDBRANCH  36  37
ENDBRANCH  29  31
ENDBRANCH  28  29
ENDBRANCH  27  28
ENDBRANCH  26  27
ENDBRANCH  25  26
ENDBRANCH  24  25
ENDBRANCH   1  24
TORSDOF 27
