REMARK SMILES O=C(CCC(=O)N1CCCn2nc(-c3ccccc3)cc21)OCCOCCOCCOCCOC(=O)c1ccc(-c2c3nc(c(-c4c(F)cc(S(=O)(=O)[O-])cc4F)c4ccc([nH]4)c(-c4c(F)cc(S(=O)(=O)[O-])cc4F)c4nc(c(-c5c(F)cc(S(=O)(=O)[O-])cc5F)c5ccc2[nH]5)C=C4)C=C3)cc1
REMARK SMILES IDX 27 1 26 2 25 3 24 4 23 5 22 6 2 7 1 8 3 9 4 10 5 11 6 12
REMARK SMILES IDX 7 13 8 14 21 15 9 16 11 17 20 18 10 19 12 20 13 21 14 22
REMARK SMILES IDX 15 23 19 24 16 25 18 26 17 27 28 28 29 29 30 30 31 31 32 32
REMARK SMILES IDX 33 33 34 34 35 35 36 36 37 37 38 38 102 39 39 40 101 41
REMARK SMILES IDX 40 42 41 43 42 44 95 45 43 46 100 47 94 48 96 49 44 50 99 51
REMARK SMILES IDX 93 52 92 53 45 55 79 56 58 57 78 58 59 59 62 60 77 61 97 62
REMARK SMILES IDX 60 63 61 64 76 66 98 67 63 68 46 69 47 70 56 71 48 72 49 73
REMARK SMILES IDX 55 74 57 75 50 76 51 77 52 78 53 79 54 80 80 81 81 82 90 83
REMARK SMILES IDX 82 84 83 85 89 86 91 87 84 88 85 89 86 90 87 91 88 92 64 93
REMARK SMILES IDX 65 94 74 95 66 96 67 97 73 98 75 99 68 100 69 101 70 102
REMARK SMILES IDX 71 103 72 104
REMARK H PARENT 96 54 62 65
REMARK Flexibility Score: inf
ROOT
ATOM      1  C   UNL     1       2.210  -2.558   0.364  1.00  0.00     0.188 C 
ENDROOT
BRANCH   1   2
ATOM      2  C   UNL     1       2.974  -2.692  -0.975  1.00  0.00     0.188 C 
BRANCH   2   3
ATOM      3  O   UNL     1       4.386  -2.613  -0.848  1.00  0.00    -0.376 OA
BRANCH   3   4
ATOM      4  C   UNL     1       5.083  -1.442  -1.217  1.00  0.00     0.202 C 
BRANCH   4   5
ATOM      5  C   UNL     1       4.869  -0.260  -0.285  1.00  0.00     0.261 C 
BRANCH   5   6
ATOM      6  O   UNL     1       3.476   0.060  -0.098  1.00  0.00    -0.463 OA
BRANCH   6   7
ATOM      7  C   UNL     1       2.611   0.387  -1.081  1.00  0.00     0.306 C 
ATOM      8  O   UNL     1       1.406   0.199  -0.950  1.00  0.00    -0.252 OA
BRANCH   7   9
ATOM      9  C   UNL     1       3.141   1.234  -2.180  1.00  0.00     0.132 C 
BRANCH   9  10
ATOM     10  C   UNL     1       3.055   2.665  -1.681  1.00  0.00     0.112 C 
BRANCH  10  11
ATOM     11  C   UNL     1       4.157   2.923  -0.697  1.00  0.00     0.228 C 
ATOM     12  O   UNL     1       5.303   3.044  -1.124  1.00  0.00    -0.274 OA
BRANCH  11  13
ATOM     13  N   UNL     1       3.924   2.921   0.738  1.00  0.00    -0.297 N 
ATOM     14  C   UNL     1       2.675   2.503   1.432  1.00  0.00     0.129 C 
ATOM     15  C   UNL     1       4.887   3.486   1.575  1.00  0.00     0.134 A 
ATOM     16  C   UNL     1       3.039   1.812   2.760  1.00  0.00     0.046 C 
ATOM     17  N   UNL     1       4.816   3.484   2.941  1.00  0.00    -0.249 N 
ATOM     18  C   UNL     1       5.976   4.250   1.266  1.00  0.00     0.077 A 
ATOM     19  C   UNL     1       3.780   2.789   3.679  1.00  0.00     0.148 C 
ATOM     20  N   UNL     1       5.647   4.357   3.521  1.00  0.00    -0.171 NA
ATOM     21  C   UNL     1       6.311   4.895   2.485  1.00  0.00     0.095 A 
BRANCH  21  22
ATOM     22  C   UNL     1       7.139   6.085   2.576  1.00  0.00     0.002 A 
ATOM     23  C   UNL     1       8.069   6.262   3.597  1.00  0.00     0.010 A 
ATOM     24  C   UNL     1       6.982   7.084   1.596  1.00  0.00     0.010 A 
ATOM     25  C   UNL     1       8.854   7.416   3.618  1.00  0.00     0.001 A 
ATOM     26  C   UNL     1       7.760   8.236   1.624  1.00  0.00     0.001 A 
ATOM     27  C   UNL     1       8.703   8.397   2.634  1.00  0.00     0.000 A 
ENDBRANCH  21  22
ENDBRANCH  11  13
ENDBRANCH  10  11
ENDBRANCH   9  10
ENDBRANCH   7   9
ENDBRANCH   6   7
ENDBRANCH   5   6
ENDBRANCH   4   5
ENDBRANCH   3   4
ENDBRANCH   2   3
ENDBRANCH   1   2
BRANCH   1  28
ATOM     28  O   UNL     1       2.646  -3.415   1.416  1.00  0.00    -0.377 OA
BRANCH  28  29
ATOM     29  C   UNL     1       3.976  -3.189   1.860  1.00  0.00     0.188 C 
BRANCH  29  30
ATOM     30  C   UNL     1       5.058  -4.125   1.273  1.00  0.00     0.188 C 
BRANCH  30  31
ATOM     31  O   UNL     1       4.745  -5.192   0.386  1.00  0.00    -0.376 OA
BRANCH  31  32
ATOM     32  C   UNL     1       3.503  -5.868   0.481  1.00  0.00     0.202 C 
BRANCH  32  33
ATOM     33  C   UNL     1       3.148  -6.617   1.769  1.00  0.00     0.261 C 
BRANCH  33  34
ATOM     34  O   UNL     1       3.474  -5.934   2.984  1.00  0.00    -0.460 OA
BRANCH  34  35
ATOM     35  C   UNL     1       4.665  -6.295   3.520  1.00  0.00     0.338 C 
ATOM     36  O   UNL     1       5.440  -7.133   3.098  1.00  0.00    -0.246 OA
BRANCH  35  37
ATOM     37  C   UNL     1       5.005  -5.372   4.621  1.00  0.00     0.060 A 
ATOM     38  C   UNL     1       6.270  -4.766   4.599  1.00  0.00     0.016 A 
ATOM     39  C   UNL     1       4.127  -5.151   5.683  1.00  0.00     0.016 A 
ATOM     40  C   UNL     1       6.687  -3.979   5.664  1.00  0.00     0.010 A 
ATOM     41  C   UNL     1       4.562  -4.398   6.776  1.00  0.00     0.010 A 
ATOM     42  C   UNL     1       5.862  -3.860   6.787  1.00  0.00    -0.014 A 
BRANCH  42  43
ATOM     43  C   UNL     1       6.484  -3.454   8.065  1.00  0.00     0.031 A 
ATOM     44  C   UNL     1       7.011  -4.549   8.954  1.00  0.00     0.074 A 
ATOM     45  C   UNL     1       6.635  -2.161   8.393  1.00  0.00     0.049 A 
ATOM     46  N   UNL     1       7.573  -4.465  10.130  1.00  0.00    -0.248 NA
ATOM     47  C   UNL     1       6.888  -5.926   8.442  1.00  0.00     0.031 C 
ATOM     48  C   UNL     1       6.228  -1.025   7.568  1.00  0.00     0.029 A 
ATOM     49  N   UNL     1       7.175  -1.590   9.514  1.00  0.00    -0.354 N 
ATOM     50  C   UNL     1       7.861  -5.774  10.501  1.00  0.00     0.074 A 
ATOM     51  C   UNL     1       7.388  -6.635   9.441  1.00  0.00     0.031 C 
ATOM     52  C   UNL     1       6.521   0.113   8.223  1.00  0.00     0.029 A 
ATOM     53  C   UNL     1       7.104  -0.219   9.522  1.00  0.00     0.049 A 
ATOM     54  H   UNL     1       7.576  -2.113  10.245  1.00  0.00     0.167 HD
ATOM     55  C   UNL     1       8.471  -6.218  11.624  1.00  0.00     0.037 A 
ATOM     56  C   UNL     1       7.453   0.658  10.483  1.00  0.00     0.037 A 
ATOM     57  C   UNL     1       8.931  -5.350  12.673  1.00  0.00     0.049 A 
ATOM     58  C   UNL     1       8.054   0.136  11.764  1.00  0.00     0.074 A 
ATOM     59  C   UNL     1       9.560  -5.688  13.857  1.00  0.00     0.029 A 
ATOM     60  N   UNL     1       8.802  -3.968  12.666  1.00  0.00    -0.354 N 
ATOM     61  N   UNL     1       8.323  -1.103  12.105  1.00  0.00    -0.248 NA
ATOM     62  C   UNL     1       8.401   1.130  12.788  1.00  0.00     0.031 C 
ATOM     63  C   UNL     1       9.764  -4.514  14.590  1.00  0.00     0.029 A 
ATOM     64  C   UNL     1       9.318  -3.439  13.836  1.00  0.00     0.049 A 
ATOM     65  H   UNL     1       8.402  -3.442  11.936  1.00  0.00     0.167 HD
ATOM     66  C   UNL     1       8.903  -1.033  13.369  1.00  0.00     0.074 A 
ATOM     67  C   UNL     1       8.951   0.371  13.725  1.00  0.00     0.031 C 
ATOM     68  C   UNL     1       9.360  -2.035  14.162  1.00  0.00     0.037 A 
BRANCH  55  69
ATOM     69  C   UNL     1       8.631  -7.704  11.785  1.00  0.00     0.058 A 
ATOM     70  C   UNL     1       9.524  -8.446  10.996  1.00  0.00     0.135 A 
ATOM     71  C   UNL     1       7.879  -8.396  12.748  1.00  0.00     0.135 A 
ATOM     72  F   UNL     1      10.248  -7.840  10.041  1.00  0.00    -0.206 F 
ATOM     73  C   UNL     1       9.645  -9.825  11.136  1.00  0.00     0.059 A 
ATOM     74  C   UNL     1       8.005  -9.770  12.926  1.00  0.00     0.059 A 
ATOM     75  F   UNL     1       7.002  -7.737  13.522  1.00  0.00    -0.206 F 
ATOM     76  C   UNL     1       8.880 -10.478  12.104  1.00  0.00     0.060 A 
BRANCH  76  77
ATOM     77  S   UNL     1       9.044 -12.268  12.272  1.00  0.00     0.124 S 
ATOM     78  O   UNL     1       8.370 -12.736  11.065  1.00  0.00    -0.237 OA
ATOM     79  O   UNL     1      10.493 -12.445  12.298  1.00  0.00    -0.237 OA
ATOM     80  O   UNL     1       8.357 -12.556  13.527  1.00  0.00    -0.744 OA
ENDBRANCH  76  77
ENDBRANCH  55  69
BRANCH  56  81
ATOM     81  C   UNL     1       7.234   2.115  10.278  1.00  0.00     0.058 A 
ATOM     82  C   UNL     1       8.314   2.999  10.142  1.00  0.00     0.135 A 
ATOM     83  C   UNL     1       5.938   2.652  10.215  1.00  0.00     0.135 A 
ATOM     84  F   UNL     1       9.571   2.535  10.204  1.00  0.00    -0.206 F 
ATOM     85  C   UNL     1       8.120   4.365   9.964  1.00  0.00     0.059 A 
ATOM     86  C   UNL     1       5.718   4.011  10.011  1.00  0.00     0.059 A 
ATOM     87  F   UNL     1       4.869   1.848  10.324  1.00  0.00    -0.206 F 
ATOM     88  C   UNL     1       6.817   4.861   9.895  1.00  0.00     0.060 A 
BRANCH  88  89
ATOM     89  S   UNL     1       6.574   6.626   9.604  1.00  0.00     0.124 S 
ATOM     90  O   UNL     1       6.952   7.191  10.894  1.00  0.00    -0.237 OA
ATOM     91  O   UNL     1       7.494   6.882   8.499  1.00  0.00    -0.237 OA
ATOM     92  O   UNL     1       5.157   6.716   9.263  1.00  0.00    -0.744 OA
ENDBRANCH  88  89
ENDBRANCH  56  81
BRANCH  68  93
ATOM     93  C   UNL     1       9.993  -1.648  15.471  1.00  0.00     0.058 A 
ATOM     94  C   UNL     1       9.235  -1.163  16.547  1.00  0.00     0.135 A 
ATOM     95  C   UNL     1      11.375  -1.813  15.663  1.00  0.00     0.135 A 
ATOM     96  F   UNL     1       7.911  -0.984  16.415  1.00  0.00    -0.206 F 
ATOM     97  C   UNL     1       9.829  -0.825  17.758  1.00  0.00     0.059 A 
ATOM     98  C   UNL     1      11.985  -1.512  16.875  1.00  0.00     0.059 A 
ATOM     99  F   UNL     1      12.144  -2.287  14.670  1.00  0.00    -0.206 F 
ATOM    100  C   UNL     1      11.206  -1.003  17.912  1.00  0.00     0.060 A 
BRANCH 100 101
ATOM    101  S   UNL     1      11.961  -0.577  19.495  1.00  0.00     0.124 S 
ATOM    102  O   UNL     1      11.937   0.881  19.447  1.00  0.00    -0.237 OA
ATOM    103  O   UNL     1      11.049  -1.196  20.452  1.00  0.00    -0.237 OA
ATOM    104  O   UNL     1      13.285  -1.186  19.414  1.00  0.00    -0.744 OA
ENDBRANCH 100 101
ENDBRANCH  68  93
ENDBRANCH  42  43
ENDBRANCH  35  37
ENDBRANCH  34  35
ENDBRANCH  33  34
ENDBRANCH  32  33
ENDBRANCH  31  32
ENDBRANCH  30  31
ENDBRANCH  29  30
ENDBRANCH  28  29
ENDBRANCH   1  28
TORSDOF 27
