REMARK SMILES N#C/C(=C\c1ccc(Oc2ccccc2Cl)c([N+](=O)[O-])c1)C(=O)OCCOCCOCCOCCOC(=O)c1ccc(-c2c3nc(c(-c4c(F)cc(S(=O)(=O)[O-])cc4F)c4ccc([nH]4)c(-c4c(F)cc(S(=O)(=O)[O-])cc4F)c4nc(c(-c5c(F)cc(S(=O)(=O)[O-])cc5F)c5ccc2[nH]5)C=C4)C=C3)cc1
REMARK SMILES IDX 30 1 29 2 28 3 27 4 26 5 25 6 24 7 22 8 23 9 3 10 4 11 2 12
REMARK SMILES IDX 1 13 5 14 6 15 21 16 7 17 17 18 8 19 18 20 19 21 20 22 9 23
REMARK SMILES IDX 10 24 11 25 15 26 12 27 14 28 16 29 13 30 31 31 32 32 33 33
REMARK SMILES IDX 34 34 35 35 36 36 37 37 38 38 39 39 40 40 104 41 41 42
REMARK SMILES IDX 103 43 42 44 43 45 44 46 97 47 45 48 102 49 96 50 98 51
REMARK SMILES IDX 46 52 101 53 95 54 94 55 47 57 81 58 60 59 80 60 61 61 64 62
REMARK SMILES IDX 79 63 99 64 62 65 63 66 78 68 100 69 65 70 48 71 49 72 58 73
REMARK SMILES IDX 50 74 51 75 57 76 59 77 52 78 53 79 54 80 55 81 56 82 82 83
REMARK SMILES IDX 83 84 92 85 84 86 85 87 91 88 93 89 86 90 87 91 88 92 89 93
REMARK SMILES IDX 90 94 66 95 67 96 76 97 68 98 69 99 75 100 77 101 70 102
REMARK SMILES IDX 71 103 72 104 73 105 74 106
REMARK H PARENT 98 56 64 67
REMARK Flexibility Score: inf
ROOT
ATOM      1  O   UNL     1       5.818   1.736   2.067  1.00  0.00    -0.377 OA
ENDROOT
BRANCH   1   2
ATOM      2  C   UNL     1       4.429   1.876   2.237  1.00  0.00     0.188 C 
BRANCH   2   3
ATOM      3  C   UNL     1       3.788   0.815   3.156  1.00  0.00     0.188 C 
BRANCH   3   4
ATOM      4  O   UNL     1       4.551   0.033   4.061  1.00  0.00    -0.376 OA
BRANCH   4   5
ATOM      5  C   UNL     1       5.739  -0.681   3.744  1.00  0.00     0.202 C 
BRANCH   5   6
ATOM      6  C   UNL     1       6.025  -1.399   2.415  1.00  0.00     0.261 C 
BRANCH   6   7
ATOM      7  O   UNL     1       5.556  -0.721   1.259  1.00  0.00    -0.459 OA
BRANCH   7   8
ATOM      8  C   UNL     1       4.327  -1.103   0.870  1.00  0.00     0.348 C 
ATOM      9  O   UNL     1       3.720  -2.092   1.253  1.00  0.00    -0.245 OA
BRANCH   8  10
ATOM     10  C   UNL     1       3.710  -0.070   0.009  1.00  0.00     0.138 C 
ATOM     11  C   UNL     1       4.391   0.348  -1.086  1.00  0.00     0.035 C 
BRANCH  10  12
ATOM     12  C   UNL     1       2.190  -0.070   0.009  1.00  0.00     0.107 C 
ATOM     13  N   UNL     1       0.929  -0.070   0.009  1.00  0.00    -0.192 NA
ENDBRANCH  10  12
BRANCH  11  14
ATOM     14  C   UNL     1       3.729   0.815  -2.326  1.00  0.00    -0.017 A 
ATOM     15  C   UNL     1       4.101   0.248  -3.550  1.00  0.00     0.012 A 
ATOM     16  C   UNL     1       2.641   1.690  -2.311  1.00  0.00     0.098 A 
ATOM     17  C   UNL     1       3.374   0.525  -4.720  1.00  0.00     0.055 A 
ATOM     18  C   UNL     1       1.853   1.872  -3.464  1.00  0.00     0.312 A 
ATOM     19  C   UNL     1       2.228   1.336  -4.700  1.00  0.00     0.204 A 
BRANCH  18  20
ATOM     20  N   UNL     1       0.568   2.499  -3.223  1.00  0.00     0.066 N 
ATOM     21  O   UNL     1      -0.444   1.817  -3.432  1.00  0.00    -0.258 OA
ATOM     22  O   UNL     1       0.579   3.645  -2.753  1.00  0.00    -0.258 OA
ENDBRANCH  18  20
BRANCH  19  23
ATOM     23  O   UNL     1       1.649   1.452  -5.946  1.00  0.00    -0.449 OA
BRANCH  23  24
ATOM     24  C   UNL     1       0.642   2.351  -6.189  1.00  0.00     0.146 A 
ATOM     25  C   UNL     1      -0.572   1.796  -6.611  1.00  0.00     0.049 A 
ATOM     26  C   UNL     1       0.776   3.741  -6.097  1.00  0.00     0.083 A 
ATOM     27  C   UNL     1      -1.679   2.614  -6.831  1.00  0.00     0.004 A 
ATOM     28  C   UNL     1      -0.344   4.555  -6.288  1.00  0.00     0.024 A 
ATOM     29  Cl  UNL     1       2.284   4.499  -5.740  1.00  0.00    -0.080 Cl
ATOM     30  C   UNL     1      -1.572   3.991  -6.642  1.00  0.00     0.002 A 
ENDBRANCH  23  24
ENDBRANCH  19  23
ENDBRANCH  11  14
ENDBRANCH   8  10
ENDBRANCH   7   8
ENDBRANCH   6   7
ENDBRANCH   5   6
ENDBRANCH   4   5
ENDBRANCH   3   4
ENDBRANCH   2   3
ENDBRANCH   1   2
BRANCH   1  31
ATOM     31  C   UNL     1       6.644   2.438   2.987  1.00  0.00     0.188 C 
BRANCH  31  32
ATOM     32  C   UNL     1       6.095   2.793   4.391  1.00  0.00     0.188 C 
BRANCH  32  33
ATOM     33  O   UNL     1       4.740   3.217   4.439  1.00  0.00    -0.376 OA
BRANCH  33  34
ATOM     34  C   UNL     1       4.422   4.601   4.411  1.00  0.00     0.202 C 
BRANCH  34  35
ATOM     35  C   UNL     1       4.839   5.440   3.189  1.00  0.00     0.261 C 
BRANCH  35  36
ATOM     36  O   UNL     1       6.229   5.415   2.846  1.00  0.00    -0.460 OA
BRANCH  36  37
ATOM     37  C   UNL     1       7.102   5.834   3.785  1.00  0.00     0.338 C 
ATOM     38  O   UNL     1       6.832   6.280   4.889  1.00  0.00    -0.246 OA
BRANCH  37  39
ATOM     39  C   UNL     1       8.458   5.460   3.338  1.00  0.00     0.060 A 
ATOM     40  C   UNL     1       9.224   4.607   4.144  1.00  0.00     0.016 A 
ATOM     41  C   UNL     1       8.963   5.937   2.127  1.00  0.00     0.016 A 
ATOM     42  C   UNL     1      10.517   4.260   3.760  1.00  0.00     0.010 A 
ATOM     43  C   UNL     1      10.270   5.612   1.757  1.00  0.00     0.010 A 
ATOM     44  C   UNL     1      11.064   4.805   2.592  1.00  0.00    -0.014 A 
BRANCH  44  45
ATOM     45  C   UNL     1      12.525   4.718   2.363  1.00  0.00     0.031 A 
ATOM     46  C   UNL     1      13.373   5.897   2.755  1.00  0.00     0.074 A 
ATOM     47  C   UNL     1      13.091   3.613   1.847  1.00  0.00     0.049 A 
ATOM     48  N   UNL     1      14.656   6.087   2.600  1.00  0.00    -0.248 NA
ATOM     49  C   UNL     1      12.672   7.016   3.407  1.00  0.00     0.031 C 
ATOM     50  C   UNL     1      12.377   2.394   1.472  1.00  0.00     0.029 A 
ATOM     51  N   UNL     1      14.401   3.348   1.537  1.00  0.00    -0.354 N 
ATOM     52  C   UNL     1      14.916   7.345   3.130  1.00  0.00     0.074 A 
ATOM     53  C   UNL     1      13.652   7.890   3.574  1.00  0.00     0.031 C 
ATOM     54  C   UNL     1      13.258   1.517   0.958  1.00  0.00     0.029 A 
ATOM     55  C   UNL     1      14.587   2.127   0.936  1.00  0.00     0.049 A 
ATOM     56  H   UNL     1      15.137   3.974   1.727  1.00  0.00     0.167 HD
ATOM     57  C   UNL     1      16.104   7.984   3.247  1.00  0.00     0.037 A 
ATOM     58  C   UNL     1      15.698   1.581   0.401  1.00  0.00     0.037 A 
ATOM     59  C   UNL     1      17.355   7.439   2.788  1.00  0.00     0.049 A 
ATOM     60  C   UNL     1      16.999   2.341   0.468  1.00  0.00     0.074 A 
ATOM     61  C   UNL     1      18.616   8.004   2.857  1.00  0.00     0.029 A 
ATOM     62  N   UNL     1      17.501   6.208   2.166  1.00  0.00    -0.354 N 
ATOM     63  N   UNL     1      17.238   3.524   0.984  1.00  0.00    -0.248 NA
ATOM     64  C   UNL     1      18.181   1.692  -0.115  1.00  0.00     0.031 C 
ATOM     65  C   UNL     1      19.515   7.140   2.224  1.00  0.00     0.029 A 
ATOM     66  C   UNL     1      18.828   6.005   1.822  1.00  0.00     0.049 A 
ATOM     67  H   UNL     1      16.770   5.572   1.993  1.00  0.00     0.167 HD
ATOM     68  C   UNL     1      18.602   3.748   0.814  1.00  0.00     0.074 A 
ATOM     69  C   UNL     1      19.136   2.572   0.158  1.00  0.00     0.031 C 
ATOM     70  C   UNL     1      19.345   4.825   1.171  1.00  0.00     0.037 A 
BRANCH  57  71
ATOM     71  C   UNL     1      16.094   9.356   3.866  1.00  0.00     0.058 A 
ATOM     72  C   UNL     1      15.811   9.553   5.228  1.00  0.00     0.135 A 
ATOM     73  C   UNL     1      16.380  10.490   3.088  1.00  0.00     0.135 A 
ATOM     74  F   UNL     1      15.510   8.507   6.014  1.00  0.00    -0.206 F 
ATOM     75  C   UNL     1      15.777  10.826   5.787  1.00  0.00     0.059 A 
ATOM     76  C   UNL     1      16.385  11.770   3.635  1.00  0.00     0.059 A 
ATOM     77  F   UNL     1      16.653  10.362   1.780  1.00  0.00    -0.206 F 
ATOM     78  C   UNL     1      16.065  11.929   4.982  1.00  0.00     0.060 A 
BRANCH  78  79
ATOM     79  S   UNL     1      16.008  13.573   5.722  1.00  0.00     0.124 S 
ATOM     80  O   UNL     1      14.574  13.751   5.928  1.00  0.00    -0.237 OA
ATOM     81  O   UNL     1      16.805  13.397   6.932  1.00  0.00    -0.237 OA
ATOM     82  O   UNL     1      16.605  14.428   4.701  1.00  0.00    -0.744 OA
ENDBRANCH  78  79
ENDBRANCH  57  71
BRANCH  58  83
ATOM     83  C   UNL     1      15.621   0.252  -0.265  1.00  0.00     0.058 A 
ATOM     84  C   UNL     1      16.243  -0.879   0.282  1.00  0.00     0.135 A 
ATOM     85  C   UNL     1      14.909   0.088  -1.465  1.00  0.00     0.135 A 
ATOM     86  F   UNL     1      16.948  -0.772   1.419  1.00  0.00    -0.206 F 
ATOM     87  C   UNL     1      16.168  -2.123  -0.336  1.00  0.00     0.059 A 
ATOM     88  C   UNL     1      14.795  -1.151  -2.086  1.00  0.00     0.059 A 
ATOM     89  F   UNL     1      14.288   1.136  -2.028  1.00  0.00    -0.206 F 
ATOM     90  C   UNL     1      15.434  -2.251  -1.517  1.00  0.00     0.060 A 
BRANCH  90  91
ATOM     91  S   UNL     1      15.284  -3.884  -2.272  1.00  0.00     0.124 S 
ATOM     92  O   UNL     1      16.633  -4.099  -2.782  1.00  0.00    -0.237 OA
ATOM     93  O   UNL     1      14.891  -4.709  -1.134  1.00  0.00    -0.237 OA
ATOM     94  O   UNL     1      14.249  -3.692  -3.283  1.00  0.00    -0.744 OA
ENDBRANCH  90  91
ENDBRANCH  58  83
BRANCH  70  95
ATOM     95  C   UNL     1      20.826   4.775   0.900  1.00  0.00     0.058 A 
ATOM     96  C   UNL     1      21.347   4.858  -0.401  1.00  0.00     0.135 A 
ATOM     97  C   UNL     1      21.739   4.703   1.966  1.00  0.00     0.135 A 
ATOM     98  F   UNL     1      20.521   4.924  -1.457  1.00  0.00    -0.206 F 
ATOM     99  C   UNL     1      22.719   4.846  -0.637  1.00  0.00     0.059 A 
ATOM    100  C   UNL     1      23.114   4.723   1.756  1.00  0.00     0.059 A 
ATOM    101  F   UNL     1      21.297   4.634   3.232  1.00  0.00    -0.206 F 
ATOM    102  C   UNL     1      23.595   4.782   0.449  1.00  0.00     0.060 A 
BRANCH 102 103
ATOM    103  S   UNL     1      25.372   4.801   0.129  1.00  0.00     0.124 S 
ATOM    104  O   UNL     1      25.582   3.476  -0.444  1.00  0.00    -0.237 OA
ATOM    105  O   UNL     1      25.509   5.922  -0.796  1.00  0.00    -0.237 OA
ATOM    106  O   UNL     1      25.954   5.012   1.451  1.00  0.00    -0.744 OA
ENDBRANCH 102 103
ENDBRANCH  70  95
ENDBRANCH  44  45
ENDBRANCH  37  39
ENDBRANCH  36  37
ENDBRANCH  35  36
ENDBRANCH  34  35
ENDBRANCH  33  34
ENDBRANCH  32  33
ENDBRANCH  31  32
ENDBRANCH   1  31
TORSDOF 28
