REMARK SMILES CCC(CC)(NC(=O)c1ccc(C)s1)C(=O)OCCOCCOCCOCCOC(=O)c1ccc(-c2c3nc(c(-c4c(F)cc(S(=O)(=O)[O-])cc4F)c4ccc([nH]4)c(-c4c(F)cc(S(=O)(=O)[O-])cc4F)c4nc(c(-c5c(F)cc(S(=O)(=O)[O-])cc5F)c5ccc2[nH]5)C=C4)C=C3)cc1
REMARK SMILES IDX 24 1 23 2 22 3 21 4 20 5 19 6 18 7 17 8 15 9 16 10 3 11 2 12
REMARK SMILES IDX 1 13 4 14 5 15 6 16 7 17 8 19 9 20 10 21 14 22 11 23 12 24
REMARK SMILES IDX 13 25 25 26 26 27 27 28 28 29 29 30 30 31 31 32 32 33 33 34
REMARK SMILES IDX 97 35 34 36 96 37 35 38 36 39 37 40 90 41 38 42 95 43 89 44
REMARK SMILES IDX 91 45 39 46 94 47 88 48 87 49 40 51 74 52 53 53 73 54 54 55
REMARK SMILES IDX 57 56 72 57 92 58 55 59 56 60 71 62 93 63 58 64 41 65 42 66
REMARK SMILES IDX 51 67 43 68 44 69 50 70 52 71 45 72 46 73 47 74 48 75 49 76
REMARK SMILES IDX 75 77 76 78 85 79 77 80 78 81 84 82 86 83 79 84 80 85 81 86
REMARK SMILES IDX 82 87 83 88 59 89 60 90 69 91 61 92 62 93 68 94 70 95 63 96
REMARK SMILES IDX 64 97 65 98 66 99 67 100
REMARK H PARENT 6 18 91 50 57 61
REMARK Flexibility Score: inf
ROOT
ATOM      1  C   UNL     1       5.038  -1.589   4.754  1.00  0.00     0.188 C 
ENDROOT
BRANCH   1   2
ATOM      2  O   UNL     1       3.936  -1.230   3.920  1.00  0.00    -0.377 OA
BRANCH   2   3
ATOM      3  C   UNL     1       3.908  -1.861   2.652  1.00  0.00     0.188 C 
BRANCH   3   4
ATOM      4  C   UNL     1       4.465  -1.026   1.500  1.00  0.00     0.188 C 
BRANCH   4   5
ATOM      5  O   UNL     1       5.655  -0.291   1.767  1.00  0.00    -0.376 OA
BRANCH   5   6
ATOM      6  C   UNL     1       5.499   0.951   2.472  1.00  0.00     0.202 C 
BRANCH   6   7
ATOM      7  C   UNL     1       4.458   1.900   1.887  1.00  0.00     0.261 C 
BRANCH   7   8
ATOM      8  O   UNL     1       3.147   1.483   2.322  1.00  0.00    -0.461 OA
BRANCH   8   9
ATOM      9  C   UNL     1       2.126   1.908   1.547  1.00  0.00     0.331 C 
ATOM     10  O   UNL     1       2.285   2.562   0.519  1.00  0.00    -0.249 OA
BRANCH   9  11
ATOM     11  C   UNL     1       0.729   1.407   2.019  1.00  0.00     0.137 C 
BRANCH  11  12
ATOM     12  C   UNL     1       0.382   0.176   1.110  1.00  0.00     0.037 C 
ATOM     13  C   UNL     1       0.487   0.339  -0.399  1.00  0.00     0.007 C 
ENDBRANCH  11  12
BRANCH  11  14
ATOM     14  C   UNL     1      -0.254   2.592   1.819  1.00  0.00     0.037 C 
ATOM     15  C   UNL     1      -1.731   2.272   2.006  1.00  0.00     0.007 C 
ENDBRANCH  11  14
BRANCH  11  16
ATOM     16  N   UNL     1       0.565   0.855   3.396  1.00  0.00    -0.335 N 
ATOM     17  C   UNL     1       0.853   1.260   4.670  1.00  0.00     0.262 C 
ATOM     18  H   UNL     1       0.138  -0.032   3.384  1.00  0.00     0.165 HD
ATOM     19  O   UNL     1       0.165   0.732   5.550  1.00  0.00    -0.268 OA
BRANCH  17  20
ATOM     20  C   UNL     1       1.974   2.118   4.952  1.00  0.00     0.092 A 
ATOM     21  C   UNL     1       2.298   3.397   4.552  1.00  0.00     0.026 A 
ATOM     22  S   UNL     1       3.156   1.488   6.025  1.00  0.00    -0.135 S 
ATOM     23  C   UNL     1       3.600   3.785   5.004  1.00  0.00     0.016 A 
ATOM     24  C   UNL     1       4.213   2.794   5.740  1.00  0.00     0.002 A 
ATOM     25  C   UNL     1       5.599   2.739   6.276  1.00  0.00     0.056 C 
ENDBRANCH  17  20
ENDBRANCH  11  16
ENDBRANCH   9  11
ENDBRANCH   8   9
ENDBRANCH   7   8
ENDBRANCH   6   7
ENDBRANCH   5   6
ENDBRANCH   4   5
ENDBRANCH   3   4
ENDBRANCH   2   3
ENDBRANCH   1   2
BRANCH   1  26
ATOM     26  C   UNL     1       5.239  -3.087   5.028  1.00  0.00     0.188 C 
BRANCH  26  27
ATOM     27  O   UNL     1       4.109  -3.945   4.912  1.00  0.00    -0.376 OA
BRANCH  27  28
ATOM     28  C   UNL     1       2.899  -3.571   5.568  1.00  0.00     0.202 C 
BRANCH  28  29
ATOM     29  C   UNL     1       2.929  -3.653   7.091  1.00  0.00     0.261 C 
BRANCH  29  30
ATOM     30  O   UNL     1       3.435  -2.433   7.660  1.00  0.00    -0.460 OA
BRANCH  30  31
ATOM     31  C   UNL     1       4.611  -2.545   8.312  1.00  0.00     0.338 C 
ATOM     32  O   UNL     1       5.299  -3.545   8.430  1.00  0.00    -0.246 OA
BRANCH  31  33
ATOM     33  C   UNL     1       5.038  -1.233   8.825  1.00  0.00     0.060 A 
ATOM     34  C   UNL     1       6.361  -0.845   8.587  1.00  0.00     0.016 A 
ATOM     35  C   UNL     1       4.214  -0.492   9.676  1.00  0.00     0.016 A 
ATOM     36  C   UNL     1       6.898   0.232   9.285  1.00  0.00     0.010 A 
ATOM     37  C   UNL     1       4.756   0.585  10.382  1.00  0.00     0.010 A 
ATOM     38  C   UNL     1       6.117   0.904  10.237  1.00  0.00    -0.014 A 
BRANCH  38  39
ATOM     39  C   UNL     1       6.801   1.752  11.241  1.00  0.00     0.031 A 
ATOM     40  C   UNL     1       7.233   1.111  12.533  1.00  0.00     0.074 A 
ATOM     41  C   UNL     1       7.085   3.040  10.989  1.00  0.00     0.049 A 
ATOM     42  N   UNL     1       7.891   1.631  13.535  1.00  0.00    -0.248 NA
ATOM     43  C   UNL     1       6.869  -0.304  12.721  1.00  0.00     0.031 C 
ATOM     44  C   UNL     1       6.713   3.755   9.774  1.00  0.00     0.029 A 
ATOM     45  N   UNL     1       7.756   3.973  11.734  1.00  0.00    -0.354 N 
ATOM     46  C   UNL     1       8.011   0.613  14.475  1.00  0.00     0.074 A 
ATOM     47  C   UNL     1       7.340  -0.548  13.934  1.00  0.00     0.031 C 
ATOM     48  C   UNL     1       7.181   5.013   9.839  1.00  0.00     0.029 A 
ATOM     49  C   UNL     1       7.854   5.200  11.121  1.00  0.00     0.049 A 
ATOM     50  H   UNL     1       8.132   3.784  12.624  1.00  0.00     0.167 HD
ATOM     51  C   UNL     1       8.630   0.645  15.678  1.00  0.00     0.037 A 
ATOM     52  C   UNL     1       8.416   6.345  11.553  1.00  0.00     0.037 A 
ATOM     53  C   UNL     1       9.290   1.809  16.207  1.00  0.00     0.049 A 
ATOM     54  C   UNL     1       9.087   6.359  12.900  1.00  0.00     0.074 A 
ATOM     55  C   UNL     1       9.956   1.951  17.411  1.00  0.00     0.029 A 
ATOM     56  N   UNL     1       9.362   3.036  15.562  1.00  0.00    -0.354 N 
ATOM     57  N   UNL     1       9.214   5.383  13.768  1.00  0.00    -0.248 NA
ATOM     58  C   UNL     1       9.695   7.627  13.325  1.00  0.00     0.031 C 
ATOM     59  C   UNL     1      10.400   3.275  17.510  1.00  0.00     0.029 A 
ATOM     60  C   UNL     1      10.051   3.944  16.347  1.00  0.00     0.049 A 
ATOM     61  H   UNL     1       8.979   3.231  14.677  1.00  0.00     0.167 HD
ATOM     62  C   UNL     1       9.940   5.910  14.830  1.00  0.00     0.074 A 
ATOM     63  C   UNL     1      10.231   7.288  14.489  1.00  0.00     0.031 C 
ATOM     64  C   UNL     1      10.333   5.309  15.981  1.00  0.00     0.037 A 
BRANCH  51  65
ATOM     65  C   UNL     1       8.589  -0.606  16.509  1.00  0.00     0.058 A 
ATOM     66  C   UNL     1       9.342  -1.743  16.174  1.00  0.00     0.135 A 
ATOM     67  C   UNL     1       7.787  -0.668  17.660  1.00  0.00     0.135 A 
ATOM     68  F   UNL     1      10.107  -1.745  15.070  1.00  0.00    -0.206 F 
ATOM     69  C   UNL     1       9.283  -2.906  16.936  1.00  0.00     0.059 A 
ATOM     70  C   UNL     1       7.731  -1.813  18.450  1.00  0.00     0.059 A 
ATOM     71  F   UNL     1       7.041   0.387  18.022  1.00  0.00    -0.206 F 
ATOM     72  C   UNL     1       8.471  -2.932  18.071  1.00  0.00     0.060 A 
BRANCH  72  73
ATOM     73  S   UNL     1       8.402  -4.446  19.052  1.00  0.00     0.124 S 
ATOM     74  O   UNL     1       7.571  -5.301  18.211  1.00  0.00    -0.237 OA
ATOM     75  O   UNL     1       9.809  -4.824  19.145  1.00  0.00    -0.237 OA
ATOM     76  O   UNL     1       7.791  -4.012  20.304  1.00  0.00    -0.744 OA
ENDBRANCH  72  73
ENDBRANCH  51  65
BRANCH  52  77
ATOM     77  C   UNL     1       8.377   7.561  10.699  1.00  0.00     0.058 A 
ATOM     78  C   UNL     1       9.540   8.057  10.092  1.00  0.00     0.135 A 
ATOM     79  C   UNL     1       7.173   8.240  10.458  1.00  0.00     0.135 A 
ATOM     80  F   UNL     1      10.717   7.447  10.296  1.00  0.00    -0.206 F 
ATOM     81  C   UNL     1       9.513   9.190   9.284  1.00  0.00     0.059 A 
ATOM     82  C   UNL     1       7.117   9.360   9.635  1.00  0.00     0.059 A 
ATOM     83  F   UNL     1       6.030   7.796  11.004  1.00  0.00    -0.206 F 
ATOM     84  C   UNL     1       8.295   9.833   9.059  1.00  0.00     0.060 A 
BRANCH  84  85
ATOM     85  S   UNL     1       8.258  11.265   7.959  1.00  0.00     0.124 S 
ATOM     86  O   UNL     1       8.839  12.301   8.805  1.00  0.00    -0.237 OA
ATOM     87  O   UNL     1       9.081  10.816   6.841  1.00  0.00    -0.237 OA
ATOM     88  O   UNL     1       6.837  11.418   7.657  1.00  0.00    -0.744 OA
ENDBRANCH  84  85
ENDBRANCH  52  77
BRANCH  64  89
ATOM     89  C   UNL     1      11.160   6.130  16.929  1.00  0.00     0.058 A 
ATOM     90  C   UNL     1      10.598   7.156  17.703  1.00  0.00     0.135 A 
ATOM     91  C   UNL     1      12.531   5.866  17.080  1.00  0.00     0.135 A 
ATOM     92  F   UNL     1       9.292   7.449  17.592  1.00  0.00    -0.206 F 
ATOM     93  C   UNL     1      11.375   7.919  18.569  1.00  0.00     0.059 A 
ATOM     94  C   UNL     1      13.321   6.598  17.959  1.00  0.00     0.059 A 
ATOM     95  F   UNL     1      13.113   4.885  16.372  1.00  0.00    -0.206 F 
ATOM     96  C   UNL     1      12.737   7.636  18.685  1.00  0.00     0.060 A 
BRANCH  96  97
ATOM     97  S   UNL     1      13.739   8.628  19.812  1.00  0.00     0.124 S 
ATOM     98  O   UNL     1      13.925   9.851  19.038  1.00  0.00    -0.237 OA
ATOM     99  O   UNL     1      12.875   8.744  20.983  1.00  0.00    -0.237 OA
ATOM    100  O   UNL     1      14.937   7.816  20.003  1.00  0.00    -0.744 OA
ENDBRANCH  96  97
ENDBRANCH  64  89
ENDBRANCH  38  39
ENDBRANCH  31  33
ENDBRANCH  30  31
ENDBRANCH  29  30
ENDBRANCH  28  29
ENDBRANCH  27  28
ENDBRANCH  26  27
ENDBRANCH   1  26
TORSDOF 27
