REMARK SMILES Cc1cc(C(=O)OCCOCCOCCOCCOC(=O)c2ccc(-c3c4nc(c(-c5c(F)cc(S(=O)(=O)[O-])cc5F)c5ccc([nH]5)c(-c5c(F)cc(S(=O)(=O)[O-])cc5F)c5nc(c(-c6c(F)cc(S(=O)(=O)[O-])cc6F)c6ccc3[nH]6)C=C5)C=C4)cc2)ccc1NC(=O)N1C[C@@H](C)[C@H](C)C1
REMARK SMILES IDX 14 1 13 2 12 3 11 4 10 5 9 6 8 7 7 8 5 9 6 10 4 11 1 12 2 13
REMARK SMILES IDX 3 14 90 15 89 16 88 17 91 18 92 19 93 21 94 22 95 23 100 24
REMARK SMILES IDX 96 25 98 26 97 27 99 28 15 29 16 30 17 31 18 32 19 33 20 34
REMARK SMILES IDX 21 35 22 36 23 37 87 38 24 39 86 40 25 41 26 42 27 43 80 44
REMARK SMILES IDX 28 45 85 46 79 47 81 48 29 49 84 50 78 51 77 52 30 54 64 55
REMARK SMILES IDX 43 56 63 57 44 58 47 59 62 60 82 61 45 62 46 63 61 65 83 66
REMARK SMILES IDX 48 67 31 68 32 69 41 70 33 71 34 72 40 73 42 74 35 75 36 76
REMARK SMILES IDX 37 77 38 78 39 79 65 80 66 81 75 82 67 83 68 84 74 85 76 86
REMARK SMILES IDX 69 87 70 88 71 89 72 90 73 91 49 92 50 93 59 94 51 95 52 96
REMARK SMILES IDX 58 97 60 98 53 99 54 100 55 101 56 102 57 103
REMARK H PARENT 91 20 81 53 47 64
REMARK Flexibility Score: inf
ROOT
ATOM      1  C   UNL     1      -2.900  -2.046  -3.122  1.00  0.00     0.188 C 
ENDROOT
BRANCH   1   2
ATOM      2  O   UNL     1      -1.864  -1.200  -2.603  1.00  0.00    -0.377 OA
BRANCH   2   3
ATOM      3  C   UNL     1      -0.530  -1.420  -3.038  1.00  0.00     0.188 C 
BRANCH   3   4
ATOM      4  C   UNL     1       0.391  -2.254  -2.138  1.00  0.00     0.188 C 
BRANCH   4   5
ATOM      5  O   UNL     1       0.222  -3.664  -2.103  1.00  0.00    -0.376 OA
BRANCH   5   6
ATOM      6  C   UNL     1      -0.643  -4.147  -1.071  1.00  0.00     0.202 C 
BRANCH   6   7
ATOM      7  C   UNL     1      -0.119  -4.050   0.363  1.00  0.00     0.261 C 
BRANCH   7   8
ATOM      8  O   UNL     1      -0.373  -2.732   0.844  1.00  0.00    -0.460 OA
BRANCH   8   9
ATOM      9  C   UNL     1       0.628  -2.164   1.540  1.00  0.00     0.338 C 
ATOM     10  O   UNL     1       1.516  -2.716   2.159  1.00  0.00    -0.246 OA
BRANCH   9  11
ATOM     11  C   UNL     1       0.661  -0.749   1.117  1.00  0.00     0.060 A 
ATOM     12  C   UNL     1       3.470   1.487   0.002  1.00  0.00     0.046 C 
ATOM     13  C   UNL     1       2.069   1.089   0.381  1.00  0.00    -0.027 A 
ATOM     14  C   UNL     1       1.923  -0.180   0.957  1.00  0.00     0.021 A 
ATOM     15  C   UNL     1       0.912   1.818   0.039  1.00  0.00     0.045 A 
ATOM     16  C   UNL     1      -0.310   1.152   0.009  1.00  0.00     0.027 A 
ATOM     17  C   UNL     1      -0.458  -0.096   0.602  1.00  0.00     0.018 A 
BRANCH  15  18
ATOM     18  N   UNL     1       1.017   3.185  -0.253  1.00  0.00    -0.308 N 
ATOM     19  C   UNL     1       0.118   4.179  -0.451  1.00  0.00     0.321 C 
ATOM     20  H   UNL     1       1.949   3.491  -0.331  1.00  0.00     0.171 HD
ATOM     21  O   UNL     1       0.558   5.225  -0.943  1.00  0.00    -0.248 OA
ATOM     22  N   UNL     1      -1.202   4.045  -0.132  1.00  0.00    -0.324 N 
ATOM     23  C   UNL     1      -2.182   4.837  -0.854  1.00  0.00     0.125 C 
ATOM     24  C   UNL     1      -1.746   3.628   1.166  1.00  0.00     0.125 C 
ATOM     25  C   UNL     1      -3.248   5.193   0.177  1.00  0.00     0.010 C 
ATOM     26  C   UNL     1      -3.243   3.959   1.089  1.00  0.00     0.010 C 
ATOM     27  C   UNL     1      -4.589   5.497  -0.466  1.00  0.00     0.010 C 
ATOM     28  C   UNL     1      -3.879   4.189   2.454  1.00  0.00     0.010 C 
ENDBRANCH  15  18
ENDBRANCH   9  11
ENDBRANCH   8   9
ENDBRANCH   7   8
ENDBRANCH   6   7
ENDBRANCH   5   6
ENDBRANCH   4   5
ENDBRANCH   3   4
ENDBRANCH   2   3
ENDBRANCH   1   2
BRANCH   1  29
ATOM     29  C   UNL     1      -2.744  -2.598  -4.537  1.00  0.00     0.188 C 
BRANCH  29  30
ATOM     30  O   UNL     1      -1.842  -3.711  -4.472  1.00  0.00    -0.376 OA
BRANCH  30  31
ATOM     31  C   UNL     1      -1.143  -4.005  -5.673  1.00  0.00     0.202 C 
BRANCH  31  32
ATOM     32  C   UNL     1      -2.045  -4.433  -6.834  1.00  0.00     0.261 C 
BRANCH  32  33
ATOM     33  O   UNL     1      -2.438  -5.816  -6.716  1.00  0.00    -0.460 OA
BRANCH  33  34
ATOM     34  C   UNL     1      -3.752  -6.027  -6.416  1.00  0.00     0.338 C 
ATOM     35  O   UNL     1      -4.614  -6.217  -7.256  1.00  0.00    -0.246 OA
BRANCH  34  36
ATOM     36  C   UNL     1      -3.953  -6.141  -4.949  1.00  0.00     0.060 A 
ATOM     37  C   UNL     1      -5.185  -5.852  -4.349  1.00  0.00     0.016 A 
ATOM     38  C   UNL     1      -2.865  -6.461  -4.149  1.00  0.00     0.016 A 
ATOM     39  C   UNL     1      -5.287  -5.742  -2.947  1.00  0.00     0.010 A 
ATOM     40  C   UNL     1      -2.961  -6.303  -2.781  1.00  0.00     0.010 A 
ATOM     41  C   UNL     1      -4.150  -5.901  -2.151  1.00  0.00    -0.014 A 
BRANCH  41  42
ATOM     42  C   UNL     1      -4.009  -5.511  -0.727  1.00  0.00     0.031 A 
ATOM     43  C   UNL     1      -3.279  -6.401   0.248  1.00  0.00     0.074 A 
ATOM     44  C   UNL     1      -4.155  -4.194  -0.417  1.00  0.00     0.049 A 
ATOM     45  N   UNL     1      -3.017  -6.087   1.475  1.00  0.00    -0.248 NA
ATOM     46  C   UNL     1      -2.765  -7.737  -0.072  1.00  0.00     0.031 C 
ATOM     47  C   UNL     1      -3.450  -3.465   0.640  1.00  0.00     0.029 A 
ATOM     48  N   UNL     1      -4.943  -3.197  -0.992  1.00  0.00    -0.354 N 
ATOM     49  C   UNL     1      -2.021  -6.922   1.939  1.00  0.00     0.074 A 
ATOM     50  C   UNL     1      -1.999  -8.008   0.994  1.00  0.00     0.031 C 
ATOM     51  C   UNL     1      -3.902  -2.208   0.723  1.00  0.00     0.029 A 
ATOM     52  C   UNL     1      -5.114  -2.168  -0.059  1.00  0.00     0.049 A 
ATOM     53  H   UNL     1      -5.317  -3.214  -1.902  1.00  0.00     0.167 HD
ATOM     54  C   UNL     1      -1.228  -6.512   2.978  1.00  0.00     0.037 A 
ATOM     55  C   UNL     1      -6.316  -1.800   0.472  1.00  0.00     0.037 A 
ATOM     56  C   UNL     1      -1.748  -5.284   3.607  1.00  0.00     0.049 A 
ATOM     57  C   UNL     1      -6.345  -2.086   1.963  1.00  0.00     0.074 A 
ATOM     58  C   UNL     1      -1.206  -4.050   3.917  1.00  0.00     0.029 A 
ATOM     59  N   UNL     1      -3.111  -5.182   3.901  1.00  0.00    -0.354 N 
ATOM     60  N   UNL     1      -5.544  -2.963   2.519  1.00  0.00    -0.248 NA
ATOM     61  C   UNL     1      -7.148  -1.382   2.959  1.00  0.00     0.031 C 
ATOM     62  C   UNL     1      -2.276  -3.168   4.244  1.00  0.00     0.029 A 
ATOM     63  C   UNL     1      -3.460  -3.893   4.240  1.00  0.00     0.049 A 
ATOM     64  H   UNL     1      -3.742  -5.937   3.870  1.00  0.00     0.167 HD
ATOM     65  C   UNL     1      -5.628  -2.886   3.875  1.00  0.00     0.074 A 
ATOM     66  C   UNL     1      -6.693  -1.926   4.107  1.00  0.00     0.031 C 
ATOM     67  C   UNL     1      -4.805  -3.583   4.712  1.00  0.00     0.037 A 
BRANCH  54  68
ATOM     68  C   UNL     1       0.148  -7.091   3.332  1.00  0.00     0.058 A 
ATOM     69  C   UNL     1       0.774  -6.767   4.561  1.00  0.00     0.135 A 
ATOM     70  C   UNL     1       0.954  -7.868   2.467  1.00  0.00     0.135 A 
ATOM     71  F   UNL     1       0.139  -6.029   5.483  1.00  0.00    -0.206 F 
ATOM     72  C   UNL     1       2.075  -7.174   4.900  1.00  0.00     0.059 A 
ATOM     73  C   UNL     1       2.234  -8.336   2.808  1.00  0.00     0.059 A 
ATOM     74  F   UNL     1       0.564  -8.168   1.222  1.00  0.00    -0.206 F 
ATOM     75  C   UNL     1       2.799  -7.968   4.020  1.00  0.00     0.060 A 
BRANCH  75  76
ATOM     76  S   UNL     1       4.456  -8.533   4.476  1.00  0.00     0.124 S 
ATOM     77  O   UNL     1       5.252  -7.323   4.307  1.00  0.00    -0.237 OA
ATOM     78  O   UNL     1       4.271  -8.984   5.852  1.00  0.00    -0.237 OA
ATOM     79  O   UNL     1       4.728  -9.598   3.513  1.00  0.00    -0.744 OA
ENDBRANCH  75  76
ENDBRANCH  54  68
BRANCH  55  80
ATOM     80  C   UNL     1      -7.408  -1.694  -0.537  1.00  0.00     0.058 A 
ATOM     81  C   UNL     1      -7.302  -0.565  -1.377  1.00  0.00     0.135 A 
ATOM     82  C   UNL     1      -7.965  -2.857  -1.096  1.00  0.00     0.135 A 
ATOM     83  F   UNL     1      -6.842   0.595  -0.878  1.00  0.00    -0.206 F 
ATOM     84  C   UNL     1      -7.450  -0.667  -2.757  1.00  0.00     0.059 A 
ATOM     85  C   UNL     1      -8.125  -2.980  -2.482  1.00  0.00     0.059 A 
ATOM     86  F   UNL     1      -8.093  -3.965  -0.351  1.00  0.00    -0.206 F 
ATOM     87  C   UNL     1      -7.771  -1.907  -3.304  1.00  0.00     0.060 A 
BRANCH  87  88
ATOM     88  S   UNL     1      -7.413  -2.171  -5.064  1.00  0.00     0.124 S 
ATOM     89  O   UNL     1      -8.477  -1.413  -5.708  1.00  0.00    -0.237 OA
ATOM     90  O   UNL     1      -6.066  -1.617  -5.186  1.00  0.00    -0.237 OA
ATOM     91  O   UNL     1      -7.493  -3.621  -5.197  1.00  0.00    -0.744 OA
ENDBRANCH  87  88
ENDBRANCH  55  80
BRANCH  67  92
ATOM     92  C   UNL     1      -5.188  -4.016   6.104  1.00  0.00     0.058 A 
ATOM     93  C   UNL     1      -6.524  -4.222   6.485  1.00  0.00     0.135 A 
ATOM     94  C   UNL     1      -4.209  -4.476   7.020  1.00  0.00     0.135 A 
ATOM     95  F   UNL     1      -7.541  -3.921   5.664  1.00  0.00    -0.206 F 
ATOM     96  C   UNL     1      -6.869  -4.800   7.704  1.00  0.00     0.059 A 
ATOM     97  C   UNL     1      -4.533  -5.104   8.218  1.00  0.00     0.059 A 
ATOM     98  F   UNL     1      -2.897  -4.362   6.768  1.00  0.00    -0.206 F 
ATOM     99  C   UNL     1      -5.868  -5.241   8.562  1.00  0.00     0.060 A 
BRANCH  99 100
ATOM    100  S   UNL     1      -6.324  -6.036  10.109  1.00  0.00     0.124 S 
ATOM    101  O   UNL     1      -6.527  -4.879  10.975  1.00  0.00    -0.237 OA
ATOM    102  O   UNL     1      -7.533  -6.771   9.746  1.00  0.00    -0.237 OA
ATOM    103  O   UNL     1      -5.165  -6.865  10.419  1.00  0.00    -0.744 OA
ENDBRANCH  99 100
ENDBRANCH  67  92
ENDBRANCH  41  42
ENDBRANCH  34  36
ENDBRANCH  33  34
ENDBRANCH  32  33
ENDBRANCH  31  32
ENDBRANCH  30  31
ENDBRANCH  29  30
ENDBRANCH   1  29
TORSDOF 24
