REMARK SMILES CC[C@@H](C(=O)OCCOCCOCCOCCOC(=O)c1ccc(-c2c3nc(c(-c4c(F)cc(S(=O)(=O)[O-])cc4F)c4ccc([nH]4)c(-c4c(F)cc(S(=O)(=O)[O-])cc4F)c4nc(c(-c5c(F)cc(S(=O)(=O)[O-])cc5F)c5ccc2[nH]5)C=C4)C=C3)cc1)N1C(=O)/C(=C/C(C)=C/c2ccccc2)SC1=S
REMARK SMILES IDX 12 1 11 2 10 3 9 4 8 5 7 6 6 7 4 8 5 9 3 10 2 11 1 12 87 13
REMARK SMILES IDX 88 14 102 15 89 16 90 17 101 18 103 19 91 20 92 21 93 22
REMARK SMILES IDX 94 23 95 24 96 25 100 26 97 27 99 28 98 29 13 30 14 31 15 32
REMARK SMILES IDX 16 33 17 34 18 35 19 36 20 37 21 38 22 39 86 40 23 41 85 42
REMARK SMILES IDX 24 43 25 44 26 45 79 46 27 47 84 48 78 49 80 50 28 51 83 52
REMARK SMILES IDX 77 53 76 54 29 56 63 57 42 58 62 59 43 60 46 61 61 62 81 63
REMARK SMILES IDX 44 64 45 65 60 67 82 68 47 69 30 70 31 71 40 72 32 73 33 74
REMARK SMILES IDX 39 75 41 76 34 77 35 78 36 79 37 80 38 81 64 82 65 83 74 84
REMARK SMILES IDX 66 85 67 86 73 87 75 88 68 89 69 90 70 91 71 92 72 93 48 94
REMARK SMILES IDX 49 95 58 96 50 97 51 98 57 99 59 100 52 101 53 102 54 103
REMARK SMILES IDX 55 104 56 105
REMARK H PARENT 80 55 46 66
REMARK Flexibility Score: inf
ROOT
ATOM      1  O   UNL     1      -1.256   0.914  -1.237  1.00  0.00    -0.377 OA
ENDROOT
BRANCH   1   2
ATOM      2  C   UNL     1      -1.599   2.031  -0.433  1.00  0.00     0.188 C 
BRANCH   2   3
ATOM      3  C   UNL     1      -1.513   3.433  -1.049  1.00  0.00     0.188 C 
BRANCH   3   4
ATOM      4  O   UNL     1      -1.478   3.428  -2.462  1.00  0.00    -0.376 OA
BRANCH   4   5
ATOM      5  C   UNL     1      -0.245   3.663  -3.116  1.00  0.00     0.202 C 
BRANCH   5   6
ATOM      6  C   UNL     1       0.977   2.759  -2.855  1.00  0.00     0.261 C 
BRANCH   6   7
ATOM      7  O   UNL     1       1.163   2.227  -1.533  1.00  0.00    -0.462 OA
BRANCH   7   8
ATOM      8  C   UNL     1       1.612   3.079  -0.595  1.00  0.00     0.329 C 
ATOM      9  O   UNL     1       1.739   4.280  -0.822  1.00  0.00    -0.250 OA
BRANCH   8  10
ATOM     10  C   UNL     1       1.965   2.426   0.775  1.00  0.00     0.201 C 
BRANCH  10  11
ATOM     11  C   UNL     1       1.592   0.944   1.020  1.00  0.00     0.034 C 
ATOM     12  C   UNL     1       2.081  -0.078   0.002  1.00  0.00     0.007 C 
ENDBRANCH  10  11
BRANCH  10  13
ATOM     13  N   UNL     1       1.455   3.384   1.824  1.00  0.00    -0.278 N 
ATOM     14  C   UNL     1       0.371   3.145   2.666  1.00  0.00     0.266 C 
ATOM     15  C   UNL     1       2.034   4.631   2.000  1.00  0.00     0.149 C 
ATOM     16  O   UNL     1      -0.257   2.106   2.811  1.00  0.00    -0.268 OA
ATOM     17  C   UNL     1       0.070   4.359   3.499  1.00  0.00     0.080 C 
ATOM     18  S   UNL     1       0.889   5.685   2.792  1.00  0.00    -0.054 SA
ATOM     19  S   UNL     1       3.572   5.158   1.629  1.00  0.00    -0.052 S 
ATOM     20  C   UNL     1      -0.635   4.303   4.645  1.00  0.00     0.024 C 
BRANCH  20  21
ATOM     21  C   UNL     1      -0.961   5.331   5.655  1.00  0.00    -0.049 C 
ATOM     22  C   UNL     1      -1.787   4.842   6.825  1.00  0.00     0.044 C 
ATOM     23  C   UNL     1      -0.580   6.622   5.568  1.00  0.00     0.011 C 
BRANCH  23  24
ATOM     24  C   UNL     1      -0.797   7.751   6.482  1.00  0.00    -0.025 A 
ATOM     25  C   UNL     1      -1.240   8.958   5.922  1.00  0.00     0.008 A 
ATOM     26  C   UNL     1      -0.412   7.723   7.825  1.00  0.00     0.008 A 
ATOM     27  C   UNL     1      -1.306  10.119   6.692  1.00  0.00     0.001 A 
ATOM     28  C   UNL     1      -0.482   8.886   8.598  1.00  0.00     0.001 A 
ATOM     29  C   UNL     1      -0.925  10.082   8.031  1.00  0.00     0.000 A 
ENDBRANCH  23  24
ENDBRANCH  20  21
ENDBRANCH  10  13
ENDBRANCH   8  10
ENDBRANCH   7   8
ENDBRANCH   6   7
ENDBRANCH   5   6
ENDBRANCH   4   5
ENDBRANCH   3   4
ENDBRANCH   2   3
ENDBRANCH   1   2
BRANCH   1  30
ATOM     30  C   UNL     1      -1.922   0.710  -2.481  1.00  0.00     0.188 C 
BRANCH  30  31
ATOM     31  C   UNL     1      -3.300   1.350  -2.761  1.00  0.00     0.188 C 
BRANCH  31  32
ATOM     32  O   UNL     1      -3.992   1.811  -1.613  1.00  0.00    -0.376 OA
BRANCH  32  33
ATOM     33  C   UNL     1      -4.986   0.956  -1.068  1.00  0.00     0.202 C 
BRANCH  33  34
ATOM     34  C   UNL     1      -4.541  -0.436  -0.596  1.00  0.00     0.261 C 
BRANCH  34  35
ATOM     35  O   UNL     1      -3.959  -1.298  -1.589  1.00  0.00    -0.460 OA
BRANCH  35  36
ATOM     36  C   UNL     1      -4.693  -1.603  -2.687  1.00  0.00     0.338 C 
ATOM     37  O   UNL     1      -5.825  -1.264  -2.932  1.00  0.00    -0.246 OA
BRANCH  36  38
ATOM     38  C   UNL     1      -3.775  -2.276  -3.639  1.00  0.00     0.060 A 
ATOM     39  C   UNL     1      -3.457  -1.648  -4.852  1.00  0.00     0.016 A 
ATOM     40  C   UNL     1      -3.197  -3.501  -3.307  1.00  0.00     0.016 A 
ATOM     41  C   UNL     1      -2.554  -2.247  -5.735  1.00  0.00     0.010 A 
ATOM     42  C   UNL     1      -2.318  -4.112  -4.204  1.00  0.00     0.010 A 
ATOM     43  C   UNL     1      -2.001  -3.496  -5.428  1.00  0.00    -0.014 A 
BRANCH  43  44
ATOM     44  C   UNL     1      -1.194  -4.234  -6.430  1.00  0.00     0.031 A 
ATOM     45  C   UNL     1      -1.864  -5.304  -7.246  1.00  0.00     0.074 A 
ATOM     46  C   UNL     1       0.118  -3.982  -6.591  1.00  0.00     0.049 A 
ATOM     47  N   UNL     1      -1.340  -6.161  -8.082  1.00  0.00    -0.248 NA
ATOM     48  C   UNL     1      -3.324  -5.423  -7.094  1.00  0.00     0.031 C 
ATOM     49  C   UNL     1       0.871  -2.941  -5.893  1.00  0.00     0.029 A 
ATOM     50  N   UNL     1       1.056  -4.604  -7.380  1.00  0.00    -0.354 N 
ATOM     51  C   UNL     1      -2.400  -6.932  -8.545  1.00  0.00     0.074 A 
ATOM     52  C   UNL     1      -3.594  -6.452  -7.884  1.00  0.00     0.031 C 
ATOM     53  C   UNL     1       2.161  -3.014  -6.263  1.00  0.00     0.029 A 
ATOM     54  C   UNL     1       2.334  -4.134  -7.189  1.00  0.00     0.049 A 
ATOM     55  H   UNL     1       0.834  -5.317  -8.021  1.00  0.00     0.167 HD
ATOM     56  C   UNL     1      -2.376  -7.948  -9.440  1.00  0.00     0.037 A 
ATOM     57  C   UNL     1       3.512  -4.584  -7.670  1.00  0.00     0.037 A 
ATOM     58  C   UNL     1      -1.181  -8.423 -10.087  1.00  0.00     0.049 A 
ATOM     59  C   UNL     1       3.525  -5.776  -8.595  1.00  0.00     0.074 A 
ATOM     60  C   UNL     1      -1.057  -9.427 -11.031  1.00  0.00     0.029 A 
ATOM     61  N   UNL     1       0.098  -7.942  -9.846  1.00  0.00    -0.354 N 
ATOM     62  N   UNL     1       2.514  -6.476  -9.055  1.00  0.00    -0.248 NA
ATOM     63  C   UNL     1       4.838  -6.247  -9.060  1.00  0.00     0.031 C 
ATOM     64  C   UNL     1       0.302  -9.598 -11.311  1.00  0.00     0.029 A 
ATOM     65  C   UNL     1       1.021  -8.658 -10.590  1.00  0.00     0.049 A 
ATOM     66  H   UNL     1       0.317  -7.202  -9.235  1.00  0.00     0.167 HD
ATOM     67  C   UNL     1       3.068  -7.455  -9.875  1.00  0.00     0.074 A 
ATOM     68  C   UNL     1       4.501  -7.245  -9.865  1.00  0.00     0.031 C 
ATOM     69  C   UNL     1       2.447  -8.440 -10.571  1.00  0.00     0.037 A 
BRANCH  56  70
ATOM     70  C   UNL     1      -3.675  -8.642  -9.747  1.00  0.00     0.058 A 
ATOM     71  C   UNL     1      -4.693  -8.020 -10.487  1.00  0.00     0.135 A 
ATOM     72  C   UNL     1      -3.885  -9.967  -9.330  1.00  0.00     0.135 A 
ATOM     73  F   UNL     1      -4.553  -6.749 -10.895  1.00  0.00    -0.206 F 
ATOM     74  C   UNL     1      -5.881  -8.680 -10.786  1.00  0.00     0.059 A 
ATOM     75  C   UNL     1      -5.053 -10.656  -9.642  1.00  0.00     0.059 A 
ATOM     76  F   UNL     1      -2.947 -10.607  -8.615  1.00  0.00    -0.206 F 
ATOM     77  C   UNL     1      -6.050 -10.000 -10.361  1.00  0.00     0.060 A 
BRANCH  77  78
ATOM     78  S   UNL     1      -7.592 -10.845 -10.770  1.00  0.00     0.124 S 
ATOM     79  O   UNL     1      -8.544 -10.145  -9.913  1.00  0.00    -0.237 OA
ATOM     80  O   UNL     1      -7.718 -10.584 -12.201  1.00  0.00    -0.237 OA
ATOM     81  O   UNL     1      -7.327 -12.233 -10.409  1.00  0.00    -0.744 OA
ENDBRANCH  77  78
ENDBRANCH  56  70
BRANCH  57  82
ATOM     82  C   UNL     1       4.785  -3.932  -7.257  1.00  0.00     0.058 A 
ATOM     83  C   UNL     1       5.572  -3.223  -8.177  1.00  0.00     0.135 A 
ATOM     84  C   UNL     1       5.247  -4.012  -5.933  1.00  0.00     0.135 A 
ATOM     85  F   UNL     1       5.185  -3.131  -9.459  1.00  0.00    -0.206 F 
ATOM     86  C   UNL     1       6.772  -2.625  -7.804  1.00  0.00     0.059 A 
ATOM     87  C   UNL     1       6.428  -3.398  -5.529  1.00  0.00     0.059 A 
ATOM     88  F   UNL     1       4.533  -4.676  -5.010  1.00  0.00    -0.206 F 
ATOM     89  C   UNL     1       7.189  -2.713  -6.475  1.00  0.00     0.060 A 
BRANCH  89  90
ATOM     90  S   UNL     1       8.718  -1.883  -5.990  1.00  0.00     0.124 S 
ATOM     91  O   UNL     1       9.724  -2.721  -6.631  1.00  0.00    -0.237 OA
ATOM     92  O   UNL     1       8.534  -0.552  -6.561  1.00  0.00    -0.237 OA
ATOM     93  O   UNL     1       8.683  -1.941  -4.532  1.00  0.00    -0.744 OA
ENDBRANCH  89  90
ENDBRANCH  57  82
BRANCH  69  94
ATOM     94  C   UNL     1       3.304  -9.365 -11.395  1.00  0.00     0.058 A 
ATOM     95  C   UNL     1       4.124 -10.335 -10.799  1.00  0.00     0.135 A 
ATOM     96  C   UNL     1       3.244  -9.332 -12.799  1.00  0.00     0.135 A 
ATOM     97  F   UNL     1       4.225 -10.405  -9.462  1.00  0.00    -0.206 F 
ATOM     98  C   UNL     1       4.864 -11.232 -11.564  1.00  0.00     0.059 A 
ATOM     99  C   UNL     1       3.952 -10.239 -13.583  1.00  0.00     0.059 A 
ATOM    100  F   UNL     1       2.469  -8.431 -13.422  1.00  0.00    -0.206 F 
ATOM    101  C   UNL     1       4.765 -11.181 -12.956  1.00  0.00     0.060 A 
BRANCH 101 102
ATOM    102  S   UNL     1       5.688 -12.388 -13.931  1.00  0.00     0.124 S 
ATOM    103  O   UNL     1       7.061 -11.930 -13.745  1.00  0.00    -0.237 OA
ATOM    104  O   UNL     1       5.345 -13.646 -13.275  1.00  0.00    -0.237 OA
ATOM    105  O   UNL     1       5.149 -12.222 -15.278  1.00  0.00    -0.744 OA
ENDBRANCH 101 102
ENDBRANCH  69  94
ENDBRANCH  43  44
ENDBRANCH  36  38
ENDBRANCH  35  36
ENDBRANCH  34  35
ENDBRANCH  33  34
ENDBRANCH  32  33
ENDBRANCH  31  32
ENDBRANCH  30  31
ENDBRANCH   1  30
TORSDOF 27
