REMARK SMILES COc1ccc(/C=C/c2ncc(C(=O)OCCOCCOCCOCCOC(=O)c3ccc(-c4c5nc(c(-c6c(F)cc(S(=O)(=O)[O-])cc6F)c6ccc([nH]6)c(-c6c(F)cc(S(=O)(=O)[O-])cc6F)c6nc(c(-c7c(F)cc(S(=O)(=O)[O-])cc7F)c7ccc4[nH]7)C=C6)C=C5)cc3)s2)cc1O
REMARK SMILES IDX 21 1 20 2 19 3 18 4 17 5 16 6 15 7 13 8 14 9 12 10 9 11
REMARK SMILES IDX 10 12 96 13 11 14 8 15 7 16 6 17 3 18 4 19 98 20 5 21 97 22
REMARK SMILES IDX 2 23 1 24 99 25 22 27 23 28 24 29 25 30 26 31 27 32 28 33
REMARK SMILES IDX 29 34 30 35 31 36 95 37 32 38 94 39 33 40 34 41 35 42 88 43
REMARK SMILES IDX 36 44 93 45 87 46 89 47 37 48 92 49 86 50 85 51 38 53 72 54
REMARK SMILES IDX 51 55 71 56 52 57 55 58 70 59 90 60 53 61 54 62 69 64 91 65
REMARK SMILES IDX 56 66 39 67 40 68 49 69 41 70 42 71 48 72 50 73 43 74 44 75
REMARK SMILES IDX 45 76 46 77 47 78 73 79 74 80 83 81 75 82 76 83 82 84 84 85
REMARK SMILES IDX 77 86 78 87 79 88 80 89 81 90 57 91 58 92 67 93 59 94 60 95
REMARK SMILES IDX 66 96 68 97 61 98 62 99 63 100 64 101 65 102
REMARK H PARENT 99 26 89 52 55 63
REMARK Flexibility Score: inf
ROOT
ATOM      1  O   UNL     1     -11.497   6.929   1.165  1.00  0.00    -0.377 OA
ENDROOT
BRANCH   1   2
ATOM      2  C   UNL     1     -10.219   7.194   0.607  1.00  0.00     0.188 C 
BRANCH   2   3
ATOM      3  C   UNL     1     -10.318   7.617  -0.868  1.00  0.00     0.188 C 
BRANCH   3   4
ATOM      4  O   UNL     1     -11.656   7.884  -1.280  1.00  0.00    -0.376 OA
BRANCH   4   5
ATOM      5  C   UNL     1     -12.361   6.850  -1.959  1.00  0.00     0.202 C 
BRANCH   5   6
ATOM      6  C   UNL     1     -12.609   5.514  -1.233  1.00  0.00     0.261 C 
BRANCH   6   7
ATOM      7  O   UNL     1     -11.437   4.812  -0.787  1.00  0.00    -0.459 OA
BRANCH   7   8
ATOM      8  C   UNL     1     -10.529   4.420  -1.718  1.00  0.00     0.350 C 
ATOM      9  O   UNL     1     -10.686   4.512  -2.923  1.00  0.00    -0.245 OA
BRANCH   8  10
ATOM     10  C   UNL     1      -9.319   4.032  -1.032  1.00  0.00     0.132 A 
ATOM     11  C   UNL     1      -7.003   3.708  -0.344  1.00  0.00     0.116 A 
ATOM     12  N   UNL     1      -7.820   3.370   0.635  1.00  0.00    -0.244 NA
ATOM     13  S   UNL     1      -7.797   4.245  -1.783  1.00  0.00    -0.107 S 
ATOM     14  C   UNL     1      -9.134   3.573   0.255  1.00  0.00     0.139 A 
BRANCH  11  15
ATOM     15  C   UNL     1      -5.584   3.621  -0.339  1.00  0.00     0.040 C 
ATOM     16  C   UNL     1      -4.995   2.514   0.139  1.00  0.00     0.011 C 
BRANCH  16  17
ATOM     17  C   UNL     1      -3.554   2.235   0.083  1.00  0.00    -0.022 A 
ATOM     18  C   UNL     1      -0.804   1.548   0.038  1.00  0.00     0.160 A 
ATOM     19  C   UNL     1      -1.216   2.884   0.120  1.00  0.00     0.051 A 
ATOM     20  C   UNL     1      -1.788   0.561  -0.013  1.00  0.00     0.158 A 
ATOM     21  C   UNL     1      -2.574   3.228   0.152  1.00  0.00     0.012 A 
ATOM     22  C   UNL     1      -3.145   0.898  -0.001  1.00  0.00     0.058 A 
BRANCH  18  23
ATOM     23  O   UNL     1       0.554   1.404   0.030  1.00  0.00    -0.493 OA
ATOM     24  C   UNL     1       1.109   0.118  -0.198  1.00  0.00     0.278 C 
ENDBRANCH  18  23
BRANCH  20  25
ATOM     25  O   UNL     1      -1.520  -0.778  -0.039  1.00  0.00    -0.504 OA
ATOM     26  H   UNL     1      -0.633  -1.078  -0.048  1.00  0.00     0.293 HD
ENDBRANCH  20  25
ENDBRANCH  16  17
ENDBRANCH  11  15
ENDBRANCH   8  10
ENDBRANCH   7   8
ENDBRANCH   6   7
ENDBRANCH   5   6
ENDBRANCH   4   5
ENDBRANCH   3   4
ENDBRANCH   2   3
ENDBRANCH   1   2
BRANCH   1  27
ATOM     27  C   UNL     1     -12.120   8.014   1.850  1.00  0.00     0.188 C 
BRANCH  27  28
ATOM     28  C   UNL     1     -12.049   9.426   1.233  1.00  0.00     0.188 C 
BRANCH  28  29
ATOM     29  O   UNL     1     -10.710   9.908   1.080  1.00  0.00    -0.376 OA
BRANCH  29  30
ATOM     30  C   UNL     1     -10.297  10.914   2.001  1.00  0.00     0.202 C 
BRANCH  30  31
ATOM     31  C   UNL     1      -9.887  10.362   3.373  1.00  0.00     0.261 C 
BRANCH  31  32
ATOM     32  O   UNL     1     -10.956   9.770   4.128  1.00  0.00    -0.460 OA
BRANCH  32  33
ATOM     33  C   UNL     1     -12.011  10.562   4.420  1.00  0.00     0.338 C 
ATOM     34  O   UNL     1     -12.120  11.752   4.187  1.00  0.00    -0.246 OA
BRANCH  33  35
ATOM     35  C   UNL     1     -13.109   9.704   4.905  1.00  0.00     0.060 A 
ATOM     36  C   UNL     1     -14.368   9.827   4.306  1.00  0.00     0.016 A 
ATOM     37  C   UNL     1     -12.905   8.805   5.955  1.00  0.00     0.016 A 
ATOM     38  C   UNL     1     -15.446   9.092   4.798  1.00  0.00     0.010 A 
ATOM     39  C   UNL     1     -13.987   8.079   6.456  1.00  0.00     0.010 A 
ATOM     40  C   UNL     1     -15.269   8.253   5.907  1.00  0.00    -0.014 A 
BRANCH  40  41
ATOM     41  C   UNL     1     -16.453   7.730   6.626  1.00  0.00     0.031 A 
ATOM     42  C   UNL     1     -16.969   8.509   7.806  1.00  0.00     0.074 A 
ATOM     43  C   UNL     1     -17.064   6.597   6.240  1.00  0.00     0.049 A 
ATOM     44  N   UNL     1     -17.968   8.243   8.605  1.00  0.00    -0.248 NA
ATOM     45  C   UNL     1     -16.254   9.756   8.127  1.00  0.00     0.031 C 
ATOM     46  C   UNL     1     -16.666   5.765   5.106  1.00  0.00     0.029 A 
ATOM     47  N   UNL     1     -18.145   5.945   6.776  1.00  0.00    -0.354 N 
ATOM     48  C   UNL     1     -18.008   9.290   9.517  1.00  0.00     0.074 A 
ATOM     49  C   UNL     1     -16.909  10.175   9.199  1.00  0.00     0.031 C 
ATOM     50  C   UNL     1     -17.483   4.699   5.043  1.00  0.00     0.029 A 
ATOM     51  C   UNL     1     -18.446   4.764   6.142  1.00  0.00     0.049 A 
ATOM     52  H   UNL     1     -18.657   6.290   7.543  1.00  0.00     0.167 HD
ATOM     53  C   UNL     1     -18.889   9.504  10.523  1.00  0.00     0.037 A 
ATOM     54  C   UNL     1     -19.381   3.837   6.429  1.00  0.00     0.037 A 
ATOM     55  C   UNL     1     -19.967   8.612  10.853  1.00  0.00     0.049 A 
ATOM     56  C   UNL     1     -20.321   4.066   7.584  1.00  0.00     0.074 A 
ATOM     57  C   UNL     1     -20.910   8.732  11.857  1.00  0.00     0.029 A 
ATOM     58  N   UNL     1     -20.239   7.425  10.187  1.00  0.00    -0.354 N 
ATOM     59  N   UNL     1     -20.366   5.074   8.424  1.00  0.00    -0.248 NA
ATOM     60  C   UNL     1     -21.343   3.038   7.826  1.00  0.00     0.031 C 
ATOM     61  C   UNL     1     -21.732   7.600  11.822  1.00  0.00     0.029 A 
ATOM     62  C   UNL     1     -21.328   6.796  10.768  1.00  0.00     0.049 A 
ATOM     63  H   UNL     1     -19.733   7.081   9.416  1.00  0.00     0.167 HD
ATOM     64  C   UNL     1     -21.433   4.812   9.278  1.00  0.00     0.074 A 
ATOM     65  C   UNL     1     -22.012   3.556   8.848  1.00  0.00     0.031 C 
ATOM     66  C   UNL     1     -21.893   5.546  10.322  1.00  0.00     0.037 A 
BRANCH  53  67
ATOM     67  C   UNL     1     -18.697  10.747  11.345  1.00  0.00     0.058 A 
ATOM     68  C   UNL     1     -18.979  12.021  10.825  1.00  0.00     0.135 A 
ATOM     69  C   UNL     1     -18.212  10.668  12.660  1.00  0.00     0.135 A 
ATOM     70  F   UNL     1     -19.424  12.153   9.565  1.00  0.00    -0.206 F 
ATOM     71  C   UNL     1     -18.753  13.175  11.567  1.00  0.00     0.059 A 
ATOM     72  C   UNL     1     -18.001  11.808  13.429  1.00  0.00     0.059 A 
ATOM     73  F   UNL     1     -17.921   9.475  13.203  1.00  0.00    -0.206 F 
ATOM     74  C   UNL     1     -18.256  13.059  12.866  1.00  0.00     0.060 A 
BRANCH  74  75
ATOM     75  S   UNL     1     -17.942  14.565  13.809  1.00  0.00     0.124 S 
ATOM     76  O   UNL     1     -16.713  15.046  13.187  1.00  0.00    -0.237 OA
ATOM     77  O   UNL     1     -19.138  15.358  13.543  1.00  0.00    -0.237 OA
ATOM     78  O   UNL     1     -17.805  14.084  15.181  1.00  0.00    -0.744 OA
ENDBRANCH  74  75
ENDBRANCH  53  67
BRANCH  54  79
ATOM     79  C   UNL     1     -19.470   2.602   5.606  1.00  0.00     0.058 A 
ATOM     80  C   UNL     1     -20.530   2.397   4.712  1.00  0.00     0.135 A 
ATOM     81  C   UNL     1     -18.479   1.610   5.686  1.00  0.00     0.135 A 
ATOM     82  F   UNL     1     -21.507   3.311   4.610  1.00  0.00    -0.206 F 
ATOM     83  C   UNL     1     -20.610   1.250   3.929  1.00  0.00     0.059 A 
ATOM     84  C   UNL     1     -18.526   0.465   4.897  1.00  0.00     0.059 A 
ATOM     85  F   UNL     1     -17.439   1.764   6.520  1.00  0.00    -0.206 F 
ATOM     86  C   UNL     1     -19.599   0.292   4.025  1.00  0.00     0.060 A 
BRANCH  86  87
ATOM     87  S   UNL     1     -19.675  -1.160   2.953  1.00  0.00     0.124 S 
ATOM     88  O   UNL     1     -20.723  -1.945   3.594  1.00  0.00    -0.237 OA
ATOM     89  O   UNL     1     -20.017  -0.571   1.661  1.00  0.00    -0.237 OA
ATOM     90  O   UNL     1     -18.326  -1.712   3.042  1.00  0.00    -0.744 OA
ENDBRANCH  86  87
ENDBRANCH  54  79
BRANCH  66  91
ATOM     91  C   UNL     1     -23.100   5.030  11.056  1.00  0.00     0.058 A 
ATOM     92  C   UNL     1     -23.019   3.939  11.934  1.00  0.00     0.135 A 
ATOM     93  C   UNL     1     -24.342   5.673  10.920  1.00  0.00     0.135 A 
ATOM     94  F   UNL     1     -21.856   3.288  12.097  1.00  0.00    -0.206 F 
ATOM     95  C   UNL     1     -24.131   3.489  12.639  1.00  0.00     0.059 A 
ATOM     96  C   UNL     1     -25.462   5.255  11.632  1.00  0.00     0.059 A 
ATOM     97  F   UNL     1     -24.470   6.729  10.102  1.00  0.00    -0.206 F 
ATOM     98  C   UNL     1     -25.349   4.154  12.481  1.00  0.00     0.060 A 
BRANCH  98  99
ATOM     99  S   UNL     1     -26.780   3.583  13.423  1.00  0.00     0.124 S 
ATOM    100  O   UNL     1     -27.160   2.385  12.683  1.00  0.00    -0.237 OA
ATOM    101  O   UNL     1     -26.212   3.356  14.749  1.00  0.00    -0.237 OA
ATOM    102  O   UNL     1     -27.714   4.701  13.332  1.00  0.00    -0.744 OA
ENDBRANCH  98  99
ENDBRANCH  66  91
ENDBRANCH  40  41
ENDBRANCH  33  35
ENDBRANCH  32  33
ENDBRANCH  31  32
ENDBRANCH  30  31
ENDBRANCH  29  30
ENDBRANCH  28  29
ENDBRANCH  27  28
ENDBRANCH   1  27
TORSDOF 27
