REMARK SMILES CCCC(=O)N(c1cc2sc(=O)oc2c2ccccc12)S(=O)(=O)c1ccc(C(=O)OCCOCCOCCOCCOC(=O)c2ccc(-c3c4nc(c(-c5c(F)cc(S(=O)(=O)[O-])cc5F)c5ccc([nH]5)c(-c5c(F)cc(S(=O)(=O)[O-])cc5F)c5nc(c(-c6c(F)cc(S(=O)(=O)[O-])cc6F)c6ccc3[nH]6)C=C5)C=C4)cc2)cc1
REMARK SMILES IDX 35 1 34 2 33 3 32 4 31 5 30 6 28 7 29 8 27 9 24 10 25 11
REMARK SMILES IDX 112 12 26 13 111 14 21 15 22 16 23 17 6 18 4 19 5 20 3 21
REMARK SMILES IDX 2 22 1 23 7 24 8 25 20 26 9 27 15 28 19 29 10 30 14 31 16 32
REMARK SMILES IDX 18 33 11 34 13 35 17 36 12 37 36 38 37 39 38 40 39 41 40 42
REMARK SMILES IDX 41 43 42 44 43 45 44 46 45 47 46 48 110 49 47 50 109 51
REMARK SMILES IDX 48 52 49 53 50 54 103 55 51 56 108 57 102 58 104 59 52 60
REMARK SMILES IDX 107 61 101 62 100 63 53 65 87 66 66 67 86 68 67 69 70 70
REMARK SMILES IDX 85 71 105 72 68 73 69 74 84 76 106 77 71 78 54 79 55 80
REMARK SMILES IDX 64 81 56 82 57 83 63 84 65 85 58 86 59 87 60 88 61 89 62 90
REMARK SMILES IDX 88 91 89 92 98 93 90 94 91 95 97 96 99 97 92 98 93 99 94 100
REMARK SMILES IDX 95 101 96 102 72 103 73 104 82 105 74 106 75 107 81 108
REMARK SMILES IDX 83 109 76 110 77 111 78 112 79 113 80 114
REMARK H PARENT 104 64 70 75
REMARK Flexibility Score: inf
ROOT
ATOM      1  C   UNL     1       3.152   3.133   5.511  1.00  0.00     0.188 C 
ENDROOT
BRANCH   1   2
ATOM      2  C   UNL     1       2.479   4.473   5.828  1.00  0.00     0.188 C 
BRANCH   2   3
ATOM      3  O   UNL     1       3.026   5.101   6.987  1.00  0.00    -0.376 OA
BRANCH   3   4
ATOM      4  C   UNL     1       2.238   5.051   8.175  1.00  0.00     0.202 C 
BRANCH   4   5
ATOM      5  C   UNL     1       2.372   3.748   8.980  1.00  0.00     0.261 C 
BRANCH   5   6
ATOM      6  O   UNL     1       1.957   2.553   8.293  1.00  0.00    -0.460 OA
BRANCH   6   7
ATOM      7  C   UNL     1       0.687   2.501   7.830  1.00  0.00     0.338 C 
ATOM      8  O   UNL     1      -0.169   3.360   7.959  1.00  0.00    -0.246 OA
BRANCH   7   9
ATOM      9  C   UNL     1       0.561   1.362   6.878  1.00  0.00     0.060 A 
ATOM     10  C   UNL     1       0.306  -0.667   4.962  1.00  0.00     0.088 A 
ATOM     11  C   UNL     1      -0.486   0.480   4.860  1.00  0.00     0.023 A 
ATOM     12  C   UNL     1       1.232  -0.799   6.008  1.00  0.00     0.023 A 
ATOM     13  C   UNL     1      -0.350   1.493   5.816  1.00  0.00     0.017 A 
ATOM     14  C   UNL     1       1.360   0.215   6.965  1.00  0.00     0.017 A 
BRANCH  10  15
ATOM     15  S   UNL     1       0.019  -2.054   3.873  1.00  0.00     0.270 S 
ATOM     16  O   UNL     1      -1.385  -2.374   4.018  1.00  0.00    -0.201 OA
ATOM     17  O   UNL     1       1.049  -3.035   4.159  1.00  0.00    -0.201 OA
BRANCH  15  18
ATOM     18  N   UNL     1       0.296  -1.530   2.278  1.00  0.00    -0.202 N 
BRANCH  18  19
ATOM     19  C   UNL     1       0.138  -2.546   1.265  1.00  0.00     0.241 C 
ATOM     20  O   UNL     1      -0.868  -3.251   1.226  1.00  0.00    -0.273 OA
BRANCH  19  21
ATOM     21  C   UNL     1       1.231  -2.778   0.227  1.00  0.00     0.101 C 
BRANCH  21  22
ATOM     22  C   UNL     1       0.946  -2.098  -1.111  1.00  0.00     0.006 C 
ATOM     23  C   UNL     1       2.152  -1.335  -1.643  1.00  0.00     0.004 C 
ENDBRANCH  21  22
ENDBRANCH  19  21
ENDBRANCH  18  19
BRANCH  18  24
ATOM     24  C   UNL     1       1.230  -0.468   2.010  1.00  0.00     0.070 A 
ATOM     25  C   UNL     1       2.552  -0.529   2.473  1.00  0.00     0.051 A 
ATOM     26  C   UNL     1       0.814   0.559   1.097  1.00  0.00     0.010 A 
ATOM     27  C   UNL     1       3.451   0.428   2.035  1.00  0.00     0.080 A 
ATOM     28  C   UNL     1       1.762   1.506   0.638  1.00  0.00     0.028 A 
ATOM     29  C   UNL     1      -0.501   0.650   0.578  1.00  0.00     0.011 A 
ATOM     30  S   UNL     1       5.172   0.514   2.364  1.00  0.00    -0.052 S 
ATOM     31  C   UNL     1       3.068   1.418   1.135  1.00  0.00     0.157 A 
ATOM     32  C   UNL     1       1.393   2.453  -0.341  1.00  0.00     0.013 A 
ATOM     33  C   UNL     1      -0.845   1.577  -0.408  1.00  0.00     0.001 A 
ATOM     34  C   UNL     1       5.283   1.842   1.207  1.00  0.00     0.396 A 
ATOM     35  O   UNL     1       4.074   2.273   0.671  1.00  0.00    -0.413 OA
ATOM     36  C   UNL     1       0.105   2.473  -0.874  1.00  0.00     0.001 A 
ATOM     37  O   UNL     1       6.353   2.325   0.863  1.00  0.00    -0.233 OA
ENDBRANCH  18  24
ENDBRANCH  15  18
ENDBRANCH  10  15
ENDBRANCH   7   9
ENDBRANCH   6   7
ENDBRANCH   5   6
ENDBRANCH   4   5
ENDBRANCH   3   4
ENDBRANCH   2   3
ENDBRANCH   1   2
BRANCH   1  38
ATOM     38  O   UNL     1       4.522   3.248   5.164  1.00  0.00    -0.377 OA
BRANCH  38  39
ATOM     39  C   UNL     1       5.343   3.715   6.229  1.00  0.00     0.188 C 
BRANCH  39  40
ATOM     40  C   UNL     1       5.874   5.149   6.026  1.00  0.00     0.188 C 
BRANCH  40  41
ATOM     41  O   UNL     1       5.747   5.775   4.750  1.00  0.00    -0.376 OA
BRANCH  41  42
ATOM     42  C   UNL     1       6.040   5.025   3.576  1.00  0.00     0.202 C 
BRANCH  42  43
ATOM     43  C   UNL     1       7.444   4.428   3.448  1.00  0.00     0.261 C 
BRANCH  43  44
ATOM     44  O   UNL     1       7.725   3.439   4.450  1.00  0.00    -0.460 OA
BRANCH  44  45
ATOM     45  C   UNL     1       8.830   3.657   5.204  1.00  0.00     0.338 C 
ATOM     46  O   UNL     1       9.677   4.521   5.051  1.00  0.00    -0.246 OA
BRANCH  45  47
ATOM     47  C   UNL     1       8.744   2.807   6.406  1.00  0.00     0.060 A 
ATOM     48  C   UNL     1       8.705   1.414   6.319  1.00  0.00     0.016 A 
ATOM     49  C   UNL     1       8.616   3.445   7.643  1.00  0.00     0.016 A 
ATOM     50  C   UNL     1       8.574   0.660   7.491  1.00  0.00     0.010 A 
ATOM     51  C   UNL     1       8.430   2.691   8.797  1.00  0.00     0.010 A 
ATOM     52  C   UNL     1       8.444   1.291   8.743  1.00  0.00    -0.014 A 
BRANCH  52  53
ATOM     53  C   UNL     1       8.528   0.481   9.981  1.00  0.00     0.031 A 
ATOM     54  C   UNL     1       9.121   1.155  11.181  1.00  0.00     0.074 A 
ATOM     55  C   UNL     1       7.745  -0.588  10.227  1.00  0.00     0.049 A 
ATOM     56  N   UNL     1       8.430   1.901  11.995  1.00  0.00    -0.248 NA
ATOM     57  C   UNL     1      10.568   1.242  11.378  1.00  0.00     0.031 C 
ATOM     58  C   UNL     1       6.331  -0.672   9.847  1.00  0.00     0.029 A 
ATOM     59  N   UNL     1       7.939  -1.656  11.070  1.00  0.00    -0.354 N 
ATOM     60  C   UNL     1       9.335   2.580  12.792  1.00  0.00     0.074 A 
ATOM     61  C   UNL     1      10.648   2.137  12.374  1.00  0.00     0.031 C 
ATOM     62  C   UNL     1       5.745  -1.632  10.593  1.00  0.00     0.029 A 
ATOM     63  C   UNL     1       6.763  -2.334  11.371  1.00  0.00     0.049 A 
ATOM     64  H   UNL     1       8.821  -1.915  11.424  1.00  0.00     0.167 HD
ATOM     65  C   UNL     1       8.977   3.476  13.750  1.00  0.00     0.037 A 
ATOM     66  C   UNL     1       6.537  -3.034  12.517  1.00  0.00     0.037 A 
ATOM     67  C   UNL     1       7.572   3.653  13.958  1.00  0.00     0.049 A 
ATOM     68  C   UNL     1       6.407  -1.907  13.512  1.00  0.00     0.074 A 
ATOM     69  C   UNL     1       6.572   4.494  13.519  1.00  0.00     0.029 A 
ATOM     70  N   UNL     1       6.929   2.754  14.778  1.00  0.00    -0.354 N 
ATOM     71  N   UNL     1       5.345  -1.171  13.710  1.00  0.00    -0.248 NA
ATOM     72  C   UNL     1       7.644  -1.354  14.071  1.00  0.00     0.031 C 
ATOM     73  C   UNL     1       5.351   3.774  13.718  1.00  0.00     0.029 A 
ATOM     74  C   UNL     1       5.699   2.520  14.216  1.00  0.00     0.049 A 
ATOM     75  H   UNL     1       7.283   2.356  15.606  1.00  0.00     0.167 HD
ATOM     76  C   UNL     1       5.826   0.055  14.175  1.00  0.00     0.074 A 
ATOM     77  C   UNL     1       7.244  -0.135  14.402  1.00  0.00     0.031 C 
ATOM     78  C   UNL     1       5.095   1.207  14.171  1.00  0.00     0.037 A 
BRANCH  65  79
ATOM     79  C   UNL     1       9.938   4.097  14.681  1.00  0.00     0.058 A 
ATOM     80  C   UNL     1      10.134   3.501  15.935  1.00  0.00     0.135 A 
ATOM     81  C   UNL     1      10.521   5.345  14.438  1.00  0.00     0.135 A 
ATOM     82  F   UNL     1       9.573   2.310  16.205  1.00  0.00    -0.206 F 
ATOM     83  C   UNL     1      10.852   4.137  16.936  1.00  0.00     0.059 A 
ATOM     84  C   UNL     1      11.250   6.003  15.427  1.00  0.00     0.059 A 
ATOM     85  F   UNL     1      10.350   5.953  13.254  1.00  0.00    -0.206 F 
ATOM     86  C   UNL     1      11.391   5.398  16.678  1.00  0.00     0.060 A 
BRANCH  86  87
ATOM     87  S   UNL     1      12.238   6.245  18.029  1.00  0.00     0.124 S 
ATOM     88  O   UNL     1      11.163   6.402  19.003  1.00  0.00    -0.237 OA
ATOM     89  O   UNL     1      13.278   5.284  18.379  1.00  0.00    -0.237 OA
ATOM     90  O   UNL     1      12.711   7.480  17.413  1.00  0.00    -0.744 OA
ENDBRANCH  86  87
ENDBRANCH  65  79
BRANCH  66  91
ATOM     91  C   UNL     1       7.435  -4.221  12.723  1.00  0.00     0.058 A 
ATOM     92  C   UNL     1       7.583  -5.138  11.659  1.00  0.00     0.135 A 
ATOM     93  C   UNL     1       8.167  -4.510  13.886  1.00  0.00     0.135 A 
ATOM     94  F   UNL     1       6.823  -5.026  10.557  1.00  0.00    -0.206 F 
ATOM     95  C   UNL     1       8.518  -6.170  11.683  1.00  0.00     0.059 A 
ATOM     96  C   UNL     1       9.129  -5.521  13.927  1.00  0.00     0.059 A 
ATOM     97  F   UNL     1       7.988  -3.803  15.010  1.00  0.00    -0.206 F 
ATOM     98  C   UNL     1       9.323  -6.322  12.806  1.00  0.00     0.060 A 
BRANCH  98  99
ATOM     99  S   UNL     1      10.662  -7.530  12.744  1.00  0.00     0.124 S 
ATOM    100  O   UNL     1       9.930  -8.788  12.638  1.00  0.00    -0.237 OA
ATOM    101  O   UNL     1      11.383  -7.112  11.546  1.00  0.00    -0.237 OA
ATOM    102  O   UNL     1      11.370  -7.316  14.002  1.00  0.00    -0.744 OA
ENDBRANCH  98  99
ENDBRANCH  66  91
BRANCH  78 103
ATOM    103  C   UNL     1       3.645   1.064  13.858  1.00  0.00     0.058 A 
ATOM    104  C   UNL     1       2.774   0.517  14.811  1.00  0.00     0.135 A 
ATOM    105  C   UNL     1       3.094   1.528  12.653  1.00  0.00     0.135 A 
ATOM    106  F   UNL     1       3.249   0.066  15.984  1.00  0.00    -0.206 F 
ATOM    107  C   UNL     1       1.401   0.470  14.596  1.00  0.00     0.059 A 
ATOM    108  C   UNL     1       1.721   1.507  12.425  1.00  0.00     0.059 A 
ATOM    109  F   UNL     1       3.876   2.047  11.691  1.00  0.00    -0.206 F 
ATOM    110  C   UNL     1       0.882   0.985  13.408  1.00  0.00     0.060 A 
BRANCH 110 111
ATOM    111  S   UNL     1      -0.909   1.042  13.198  1.00  0.00     0.124 S 
ATOM    112  O   UNL     1      -1.240  -0.368  13.028  1.00  0.00    -0.237 OA
ATOM    113  O   UNL     1      -1.348   1.653  14.450  1.00  0.00    -0.237 OA
ATOM    114  O   UNL     1      -1.083   1.874  12.011  1.00  0.00    -0.744 OA
ENDBRANCH 110 111
ENDBRANCH  78 103
ENDBRANCH  52  53
ENDBRANCH  45  47
ENDBRANCH  44  45
ENDBRANCH  43  44
ENDBRANCH  42  43
ENDBRANCH  41  42
ENDBRANCH  40  41
ENDBRANCH  39  40
ENDBRANCH  38  39
ENDBRANCH   1  38
TORSDOF 29
