REMARK SMILES COc1ccccc1[C@@H]1CN(C(=O)c2cc(C(C)C)nc(N)n2)C[C@H]1C(=O)OCCOCCOCCOCCOC(=O)c1ccc(-c2c3nc(c(-c4c(F)cc(S(=O)(=O)[O-])cc4F)c4ccc([nH]4)c(-c4c(F)cc(S(=O)(=O)[O-])cc4F)c4nc(c(-c5c(F)cc(S(=O)(=O)[O-])cc5F)c5ccc2[nH]5)C=C4)C=C3)cc1
REMARK SMILES IDX 34 1 33 2 32 3 31 4 30 5 29 6 28 7 26 8 27 9 25 10 9 11
REMARK SMILES IDX 10 12 11 13 24 14 8 15 3 16 4 17 5 18 7 19 6 20 2 21 1 22
REMARK SMILES IDX 12 23 13 24 14 25 15 26 23 27 16 28 21 29 20 30 17 31 18 32
REMARK SMILES IDX 19 33 22 34 35 37 36 38 37 39 38 40 39 41 40 42 41 43 42 44
REMARK SMILES IDX 43 45 44 46 108 47 45 48 107 49 46 50 47 51 48 52 101 53
REMARK SMILES IDX 49 54 106 55 100 56 102 57 50 58 105 59 99 60 98 61 51 63
REMARK SMILES IDX 85 64 64 65 84 66 65 67 68 68 83 69 103 70 66 71 67 72 82 74
REMARK SMILES IDX 104 75 69 76 52 77 53 78 62 79 54 80 55 81 61 82 63 83 56 84
REMARK SMILES IDX 57 85 58 86 59 87 60 88 86 89 87 90 96 91 88 92 89 93 95 94
REMARK SMILES IDX 97 95 90 96 91 97 92 98 93 99 94 100 70 101 71 102 80 103
REMARK SMILES IDX 72 104 73 105 79 106 81 107 74 108 75 109 76 110 77 111
REMARK SMILES IDX 78 112
REMARK H PARENT 22 35 22 36 102 62 68 73
REMARK Flexibility Score: inf
ROOT
ATOM      1  O   UNL     1       3.895  -2.049   3.846  1.00  0.00    -0.377 OA
ENDROOT
BRANCH   1   2
ATOM      2  C   UNL     1       2.505  -1.926   3.641  1.00  0.00     0.188 C 
BRANCH   2   3
ATOM      3  C   UNL     1       1.744  -3.189   3.230  1.00  0.00     0.188 C 
BRANCH   3   4
ATOM      4  O   UNL     1       2.341  -4.465   3.352  1.00  0.00    -0.376 OA
BRANCH   4   5
ATOM      5  C   UNL     1       3.677  -4.693   2.926  1.00  0.00     0.202 C 
BRANCH   5   6
ATOM      6  C   UNL     1       4.269  -4.102   1.629  1.00  0.00     0.261 C 
BRANCH   6   7
ATOM      7  O   UNL     1       4.069  -2.692   1.372  1.00  0.00    -0.463 OA
BRANCH   7   8
ATOM      8  C   UNL     1       3.144  -2.405   0.436  1.00  0.00     0.311 C 
ATOM      9  O   UNL     1       2.520  -3.264  -0.187  1.00  0.00    -0.252 OA
BRANCH   8  10
ATOM     10  C   UNL     1       2.916  -0.942   0.110  1.00  0.00     0.128 C 
ATOM     11  C   UNL     1       3.182   0.313   0.992  1.00  0.00     0.058 C 
ATOM     12  C   UNL     1       3.578   1.379  -0.028  1.00  0.00     0.129 C 
ATOM     13  N   UNL     1       4.240   0.637  -1.076  1.00  0.00    -0.336 N 
ATOM     14  C   UNL     1       3.721  -0.706  -1.165  1.00  0.00     0.136 C 
BRANCH  11  15
ATOM     15  C   UNL     1       2.106   0.930   1.899  1.00  0.00    -0.000 A 
ATOM     16  C   UNL     1       0.758   1.181   1.577  1.00  0.00     0.122 A 
ATOM     17  C   UNL     1      -0.138   1.649   2.557  1.00  0.00     0.047 A 
ATOM     18  C   UNL     1       0.310   2.003   3.828  1.00  0.00     0.004 A 
ATOM     19  C   UNL     1       2.544   1.383   3.168  1.00  0.00     0.008 A 
ATOM     20  C   UNL     1       1.665   1.933   4.108  1.00  0.00     0.001 A 
BRANCH  16  21
ATOM     21  O   UNL     1       0.336   1.397   0.288  1.00  0.00    -0.496 OA
ATOM     22  C   UNL     1      -0.079   0.265  -0.455  1.00  0.00     0.278 C 
ENDBRANCH  16  21
ENDBRANCH  11  15
BRANCH  13  23
ATOM     23  C   UNL     1       5.120   1.109  -2.034  1.00  0.00     0.272 C 
ATOM     24  O   UNL     1       5.478   0.435  -2.995  1.00  0.00    -0.267 OA
BRANCH  23  25
ATOM     25  C   UNL     1       5.644   2.486  -1.865  1.00  0.00     0.134 A 
ATOM     26  C   UNL     1       6.348   2.804  -0.724  1.00  0.00     0.058 A 
ATOM     27  N   UNL     1       5.338   3.354  -2.845  1.00  0.00    -0.208 NA
ATOM     28  C   UNL     1       6.677   4.131  -0.587  1.00  0.00     0.049 A 
ATOM     29  C   UNL     1       5.753   4.597  -2.649  1.00  0.00     0.220 A 
ATOM     30  N   UNL     1       6.387   5.032  -1.553  1.00  0.00    -0.218 NA
BRANCH  28  31
ATOM     31  C   UNL     1       7.322   4.662   0.678  1.00  0.00     0.032 C 
ATOM     32  C   UNL     1       6.336   4.623   1.851  1.00  0.00     0.014 C 
ATOM     33  C   UNL     1       8.612   3.919   1.028  1.00  0.00     0.014 C 
ENDBRANCH  28  31
BRANCH  29  34
ATOM     34  N   UNL     1       5.528   5.491  -3.658  1.00  0.00    -0.368 N 
ATOM     35  H   UNL     1       5.817   6.427  -3.560  1.00  0.00     0.159 HD
ATOM     36  H   UNL     1       5.076   5.199  -4.482  1.00  0.00     0.159 HD
ENDBRANCH  29  34
ENDBRANCH  23  25
ENDBRANCH  13  23
ENDBRANCH   8  10
ENDBRANCH   7   8
ENDBRANCH   6   7
ENDBRANCH   5   6
ENDBRANCH   4   5
ENDBRANCH   3   4
ENDBRANCH   2   3
ENDBRANCH   1   2
BRANCH   1  37
ATOM     37  C   UNL     1       4.368  -2.335   5.152  1.00  0.00     0.188 C 
BRANCH  37  38
ATOM     38  C   UNL     1       3.419  -3.019   6.149  1.00  0.00     0.188 C 
BRANCH  38  39
ATOM     39  O   UNL     1       2.127  -2.432   6.218  1.00  0.00    -0.376 OA
BRANCH  39  40
ATOM     40  C   UNL     1       1.873  -1.459   7.220  1.00  0.00     0.202 C 
BRANCH  40  41
ATOM     41  C   UNL     1       2.653  -0.137   7.156  1.00  0.00     0.261 C 
BRANCH  41  42
ATOM     42  O   UNL     1       4.082  -0.208   7.248  1.00  0.00    -0.460 OA
BRANCH  42  43
ATOM     43  C   UNL     1       4.620  -0.829   8.316  1.00  0.00     0.338 C 
ATOM     44  O   UNL     1       4.024  -1.286   9.277  1.00  0.00    -0.246 OA
BRANCH  43  45
ATOM     45  C   UNL     1       6.050  -1.052   8.020  1.00  0.00     0.060 A 
ATOM     46  C   UNL     1       6.541  -2.364   8.015  1.00  0.00     0.016 A 
ATOM     47  C   UNL     1       6.896   0.023   7.734  1.00  0.00     0.016 A 
ATOM     48  C   UNL     1       7.892  -2.601   7.771  1.00  0.00     0.010 A 
ATOM     49  C   UNL     1       8.254  -0.214   7.511  1.00  0.00     0.010 A 
ATOM     50  C   UNL     1       8.764  -1.523   7.570  1.00  0.00    -0.014 A 
BRANCH  50  51
ATOM     51  C   UNL     1      10.227  -1.747   7.650  1.00  0.00     0.031 A 
ATOM     52  C   UNL     1      10.912  -1.467   8.960  1.00  0.00     0.074 A 
ATOM     53  C   UNL     1      10.923  -2.216   6.600  1.00  0.00     0.049 A 
ATOM     54  N   UNL     1      12.177  -1.561   9.274  1.00  0.00    -0.248 NA
ATOM     55  C   UNL     1      10.050  -1.015  10.065  1.00  0.00     0.031 C 
ATOM     56  C   UNL     1      10.358  -2.567   5.298  1.00  0.00     0.029 A 
ATOM     57  N   UNL     1      12.264  -2.476   6.468  1.00  0.00    -0.354 N 
ATOM     58  C   UNL     1      12.264  -1.171  10.605  1.00  0.00     0.074 A 
ATOM     59  C   UNL     1      10.931  -0.807  11.030  1.00  0.00     0.031 C 
ATOM     60  C   UNL     1      11.350  -2.992   4.495  1.00  0.00     0.029 A 
ATOM     61  C   UNL     1      12.620  -2.911   5.214  1.00  0.00     0.049 A 
ATOM     62  H   UNL     1      12.910  -2.361   7.202  1.00  0.00     0.167 HD
ATOM     63  C   UNL     1      13.357  -1.127  11.404  1.00  0.00     0.037 A 
ATOM     64  C   UNL     1      13.837  -3.193   4.704  1.00  0.00     0.037 A 
ATOM     65  C   UNL     1      14.680  -1.489  10.968  1.00  0.00     0.049 A 
ATOM     66  C   UNL     1      15.051  -3.067   5.590  1.00  0.00     0.074 A 
ATOM     67  C   UNL     1      15.853  -1.503  11.700  1.00  0.00     0.029 A 
ATOM     68  N   UNL     1      15.008  -1.887   9.679  1.00  0.00    -0.354 N 
ATOM     69  N   UNL     1      15.119  -2.724   6.856  1.00  0.00    -0.248 NA
ATOM     70  C   UNL     1      16.354  -3.368   4.980  1.00  0.00     0.031 C 
ATOM     71  C   UNL     1      16.900  -1.845  10.838  1.00  0.00     0.029 A 
ATOM     72  C   UNL     1      16.370  -2.114   9.586  1.00  0.00     0.049 A 
ATOM     73  H   UNL     1      14.366  -1.992   8.940  1.00  0.00     0.167 HD
ATOM     74  C   UNL     1      16.465  -2.801   7.201  1.00  0.00     0.074 A 
ATOM     75  C   UNL     1      17.174  -3.230   6.013  1.00  0.00     0.031 C 
ATOM     76  C   UNL     1      17.060  -2.546   8.394  1.00  0.00     0.037 A 
BRANCH  63  77
ATOM     77  C   UNL     1      13.171  -0.629  12.812  1.00  0.00     0.058 A 
ATOM     78  C   UNL     1      12.461  -1.364  13.776  1.00  0.00     0.135 A 
ATOM     79  C   UNL     1      13.721   0.602  13.204  1.00  0.00     0.135 A 
ATOM     80  F   UNL     1      11.895  -2.537  13.452  1.00  0.00    -0.206 F 
ATOM     81  C   UNL     1      12.274  -0.879  15.067  1.00  0.00     0.059 A 
ATOM     82  C   UNL     1      13.575   1.090  14.499  1.00  0.00     0.059 A 
ATOM     83  F   UNL     1      14.404   1.349  12.323  1.00  0.00    -0.206 F 
ATOM     84  C   UNL     1      12.834   0.350  15.418  1.00  0.00     0.060 A 
BRANCH  84  85
ATOM     85  S   UNL     1      12.574   0.969  17.094  1.00  0.00     0.124 S 
ATOM     86  O   UNL     1      11.156   1.318  17.058  1.00  0.00    -0.237 OA
ATOM     87  O   UNL     1      12.921  -0.189  17.910  1.00  0.00    -0.237 OA
ATOM     88  O   UNL     1      13.494   2.098  17.187  1.00  0.00    -0.744 OA
ENDBRANCH  84  85
ENDBRANCH  63  77
BRANCH  64  89
ATOM     89  C   UNL     1      13.967  -3.625   3.286  1.00  0.00     0.058 A 
ATOM     90  C   UNL     1      14.357  -4.932   2.959  1.00  0.00     0.135 A 
ATOM     91  C   UNL     1      13.695  -2.742   2.228  1.00  0.00     0.135 A 
ATOM     92  F   UNL     1      14.643  -5.810   3.933  1.00  0.00    -0.206 F 
ATOM     93  C   UNL     1      14.480  -5.348   1.638  1.00  0.00     0.059 A 
ATOM     94  C   UNL     1      13.783  -3.143   0.899  1.00  0.00     0.059 A 
ATOM     95  F   UNL     1      13.311  -1.482   2.486  1.00  0.00    -0.206 F 
ATOM     96  C   UNL     1      14.183  -4.447   0.614  1.00  0.00     0.060 A 
BRANCH  96  97
ATOM     97  S   UNL     1      14.283  -5.020  -1.096  1.00  0.00     0.124 S 
ATOM     98  O   UNL     1      15.722  -5.175  -1.271  1.00  0.00    -0.237 OA
ATOM     99  O   UNL     1      13.508  -6.256  -1.046  1.00  0.00    -0.237 OA
ATOM    100  O   UNL     1      13.668  -3.932  -1.851  1.00  0.00    -0.744 OA
ENDBRANCH  96  97
ENDBRANCH  64  89
BRANCH  76 101
ATOM    101  C   UNL     1      18.548  -2.761   8.492  1.00  0.00     0.058 A 
ATOM    102  C   UNL     1      19.466  -1.907   7.862  1.00  0.00     0.135 A 
ATOM    103  C   UNL     1      19.061  -3.803   9.283  1.00  0.00     0.135 A 
ATOM    104  F   UNL     1      19.031  -0.897   7.091  1.00  0.00    -0.206 F 
ATOM    105  C   UNL     1      20.839  -2.094   7.990  1.00  0.00     0.059 A 
ATOM    106  C   UNL     1      20.429  -3.989   9.452  1.00  0.00     0.059 A 
ATOM    107  F   UNL     1      18.228  -4.642   9.920  1.00  0.00    -0.206 F 
ATOM    108  C   UNL     1      21.311  -3.136   8.791  1.00  0.00     0.060 A 
BRANCH 108 109
ATOM    109  S   UNL     1      23.094  -3.345   8.976  1.00  0.00     0.124 S 
ATOM    110  O   UNL     1      23.469  -3.854   7.662  1.00  0.00    -0.237 OA
ATOM    111  O   UNL     1      23.536  -1.988   9.281  1.00  0.00    -0.237 OA
ATOM    112  O   UNL     1      23.213  -4.298  10.076  1.00  0.00    -0.744 OA
ENDBRANCH 108 109
ENDBRANCH  76 101
ENDBRANCH  50  51
ENDBRANCH  43  45
ENDBRANCH  42  43
ENDBRANCH  41  42
ENDBRANCH  40  41
ENDBRANCH  39  40
ENDBRANCH  38  39
ENDBRANCH  37  38
ENDBRANCH   1  37
TORSDOF 29
