REMARK SMILES Cc1ccc2c(c1)c(-c1ccnc3c(C)cccc13)c(C)n2CC(=O)OCCOCCOCCOCCOC(=O)c1ccc(-c2c3nc(c(-c4c(F)cc(S(=O)(=O)[O-])cc4F)c4ccc([nH]4)c(-c4c(F)cc(S(=O)(=O)[O-])cc4F)c4nc(c(-c5c(F)cc(S(=O)(=O)[O-])cc5F)c5ccc2[nH]5)C=C4)C=C3)cc1
REMARK SMILES IDX 33 1 32 2 31 3 30 4 29 5 28 6 27 7 26 8 24 9 25 10 23 11
REMARK SMILES IDX 22 12 1 13 2 14 3 15 7 16 4 17 6 18 5 19 8 20 20 21 21 22
REMARK SMILES IDX 9 23 10 24 19 25 11 26 13 27 18 28 12 29 14 30 17 31 15 32
REMARK SMILES IDX 16 33 34 34 35 35 36 36 37 37 38 38 39 39 40 40 41 41 42 42
REMARK SMILES IDX 106 43 43 44 105 45 44 46 45 47 46 48 99 49 47 50 104 51
REMARK SMILES IDX 98 52 100 53 48 54 103 55 97 56 96 57 49 59 83 60 62 61
REMARK SMILES IDX 82 62 63 63 66 64 81 65 101 66 64 67 65 68 80 70 102 71
REMARK SMILES IDX 67 72 50 73 51 74 60 75 52 76 53 77 59 78 61 79 54 80 55 81
REMARK SMILES IDX 56 82 57 83 58 84 84 85 85 86 94 87 86 88 87 89 93 90 95 91
REMARK SMILES IDX 88 92 89 93 90 94 91 95 92 96 68 97 69 98 78 99 70 100
REMARK SMILES IDX 71 101 77 102 79 103 72 104 73 105 74 106 75 107 76 108
REMARK H PARENT 100 58 66 69
REMARK Flexibility Score: inf
ROOT
ATOM      1  C   UNL     1      -2.572   7.581  -1.704  1.00  0.00     0.188 C 
ENDROOT
BRANCH   1   2
ATOM      2  O   UNL     1      -2.245   6.685  -2.746  1.00  0.00    -0.377 OA
BRANCH   2   3
ATOM      3  C   UNL     1      -1.459   7.155  -3.809  1.00  0.00     0.188 C 
BRANCH   3   4
ATOM      4  C   UNL     1      -2.182   7.557  -5.095  1.00  0.00     0.188 C 
BRANCH   4   5
ATOM      5  O   UNL     1      -3.593   7.577  -5.133  1.00  0.00    -0.376 OA
BRANCH   5   6
ATOM      6  C   UNL     1      -4.337   6.494  -4.573  1.00  0.00     0.202 C 
BRANCH   6   7
ATOM      7  C   UNL     1      -3.972   5.034  -4.917  1.00  0.00     0.261 C 
BRANCH   7   8
ATOM      8  O   UNL     1      -2.665   4.572  -4.468  1.00  0.00    -0.462 OA
BRANCH   8   9
ATOM      9  C   UNL     1      -1.781   4.236  -5.436  1.00  0.00     0.326 C 
ATOM     10  O   UNL     1      -2.006   4.365  -6.640  1.00  0.00    -0.250 OA
BRANCH   9  11
ATOM     11  C   UNL     1      -0.424   3.721  -5.008  1.00  0.00     0.244 C 
BRANCH  11  12
ATOM     12  N   UNL     1       0.034   3.781  -3.610  1.00  0.00    -0.333 N 
ATOM     13  C   UNL     1       0.730  -0.386   0.148  1.00  0.00     0.044 C 
ATOM     14  C   UNL     1       0.399   0.697  -0.835  1.00  0.00    -0.050 A 
ATOM     15  C   UNL     1      -0.382   0.435  -1.961  1.00  0.00     0.005 A 
ATOM     16  C   UNL     1       0.906   1.989  -0.634  1.00  0.00     0.014 A 
ATOM     17  C   UNL     1      -0.627   1.420  -2.926  1.00  0.00     0.027 A 
ATOM     18  C   UNL     1       0.717   2.983  -1.618  1.00  0.00     0.008 A 
ATOM     19  C   UNL     1      -0.024   2.678  -2.761  1.00  0.00     0.049 A 
ATOM     20  C   UNL     1       1.172   4.324  -1.749  1.00  0.00     0.011 A 
ATOM     21  C   UNL     1       0.943   4.699  -3.071  1.00  0.00     0.024 A 
ATOM     22  C   UNL     1       1.553   5.849  -3.809  1.00  0.00     0.065 C 
BRANCH  20  23
ATOM     23  C   UNL     1       1.926   5.133  -0.787  1.00  0.00    -0.005 A 
ATOM     24  C   UNL     1       3.275   5.380  -1.025  1.00  0.00     0.029 A 
ATOM     25  C   UNL     1       1.306   5.693   0.364  1.00  0.00     0.008 A 
ATOM     26  C   UNL     1       3.937   6.240  -0.177  1.00  0.00     0.112 A 
ATOM     27  C   UNL     1       2.066   6.597   1.151  1.00  0.00     0.074 A 
ATOM     28  C   UNL     1      -0.016   5.392   0.762  1.00  0.00     0.011 A 
ATOM     29  N   UNL     1       3.354   6.871   0.863  1.00  0.00    -0.256 NA
ATOM     30  C   UNL     1       1.457   7.218   2.254  1.00  0.00    -0.025 A 
ATOM     31  C   UNL     1      -0.566   5.940   1.915  1.00  0.00     0.001 A 
ATOM     32  C   UNL     1       2.144   8.329   3.008  1.00  0.00     0.047 C 
ATOM     33  C   UNL     1       0.151   6.878   2.639  1.00  0.00     0.005 A 
ENDBRANCH  20  23
ENDBRANCH  11  12
ENDBRANCH   9  11
ENDBRANCH   8   9
ENDBRANCH   7   8
ENDBRANCH   6   7
ENDBRANCH   5   6
ENDBRANCH   4   5
ENDBRANCH   3   4
ENDBRANCH   2   3
ENDBRANCH   1   2
BRANCH   1  34
ATOM     34  C   UNL     1      -2.538   9.083  -2.000  1.00  0.00     0.188 C 
BRANCH  34  35
ATOM     35  O   UNL     1      -1.245   9.678  -2.169  1.00  0.00    -0.376 OA
BRANCH  35  36
ATOM     36  C   UNL     1      -0.223   9.314  -1.234  1.00  0.00     0.202 C 
BRANCH  36  37
ATOM     37  C   UNL     1      -0.457   9.805   0.196  1.00  0.00     0.261 C 
BRANCH  37  38
ATOM     38  O   UNL     1      -1.496   9.024   0.797  1.00  0.00    -0.460 OA
BRANCH  38  39
ATOM     39  C   UNL     1      -2.246   9.648   1.733  1.00  0.00     0.338 C 
ATOM     40  O   UNL     1      -1.946  10.620   2.402  1.00  0.00    -0.246 OA
BRANCH  39  41
ATOM     41  C   UNL     1      -3.611   9.144   1.499  1.00  0.00     0.060 A 
ATOM     42  C   UNL     1      -3.869   7.772   1.469  1.00  0.00     0.016 A 
ATOM     43  C   UNL     1      -4.539  10.064   1.002  1.00  0.00     0.016 A 
ATOM     44  C   UNL     1      -5.006   7.309   0.824  1.00  0.00     0.010 A 
ATOM     45  C   UNL     1      -5.674   9.598   0.352  1.00  0.00     0.010 A 
ATOM     46  C   UNL     1      -5.874   8.220   0.206  1.00  0.00    -0.014 A 
BRANCH  46  47
ATOM     47  C   UNL     1      -7.053   7.681  -0.482  1.00  0.00     0.031 A 
ATOM     48  C   UNL     1      -8.001   6.936   0.404  1.00  0.00     0.074 A 
ATOM     49  C   UNL     1      -7.380   7.990  -1.755  1.00  0.00     0.049 A 
ATOM     50  N   UNL     1      -8.556   5.778   0.234  1.00  0.00    -0.248 NA
ATOM     51  C   UNL     1      -8.294   7.554   1.711  1.00  0.00     0.031 C 
ATOM     52  C   UNL     1      -6.714   8.950  -2.640  1.00  0.00     0.029 A 
ATOM     53  N   UNL     1      -8.487   7.632  -2.472  1.00  0.00    -0.354 N 
ATOM     54  C   UNL     1      -9.403   5.601   1.328  1.00  0.00     0.074 A 
ATOM     55  C   UNL     1      -9.101   6.653   2.264  1.00  0.00     0.031 C 
ATOM     56  C   UNL     1      -7.564   9.297  -3.631  1.00  0.00     0.029 A 
ATOM     57  C   UNL     1      -8.784   8.518  -3.503  1.00  0.00     0.049 A 
ATOM     58  H   UNL     1      -9.021   6.829  -2.278  1.00  0.00     0.167 HD
ATOM     59  C   UNL     1     -10.442   4.723   1.344  1.00  0.00     0.037 A 
ATOM     60  C   UNL     1      -9.992   8.701  -4.097  1.00  0.00     0.037 A 
ATOM     61  C   UNL     1     -10.322   3.700   0.348  1.00  0.00     0.049 A 
ATOM     62  C   UNL     1     -10.826   7.503  -3.815  1.00  0.00     0.074 A 
ATOM     63  C   UNL     1      -9.388   2.718   0.080  1.00  0.00     0.029 A 
ATOM     64  N   UNL     1     -11.110   3.771  -0.774  1.00  0.00    -0.354 N 
ATOM     65  N   UNL     1     -10.594   6.306  -4.281  1.00  0.00    -0.248 NA
ATOM     66  C   UNL     1     -11.707   7.558  -2.657  1.00  0.00     0.031 C 
ATOM     67  C   UNL     1      -9.348   2.622  -1.341  1.00  0.00     0.029 A 
ATOM     68  C   UNL     1     -10.282   3.529  -1.842  1.00  0.00     0.049 A 
ATOM     69  H   UNL     1     -12.076   3.958  -0.806  1.00  0.00     0.167 HD
ATOM     70  C   UNL     1     -10.950   5.446  -3.252  1.00  0.00     0.074 A 
ATOM     71  C   UNL     1     -11.708   6.269  -2.314  1.00  0.00     0.031 C 
ATOM     72  C   UNL     1     -10.379   4.213  -3.112  1.00  0.00     0.037 A 
BRANCH  59  73
ATOM     73  C   UNL     1     -11.715   4.989   2.101  1.00  0.00     0.058 A 
ATOM     74  C   UNL     1     -12.602   3.942   2.408  1.00  0.00     0.135 A 
ATOM     75  C   UNL     1     -12.204   6.298   2.318  1.00  0.00     0.135 A 
ATOM     76  F   UNL     1     -12.245   2.665   2.203  1.00  0.00    -0.206 F 
ATOM     77  C   UNL     1     -13.898   4.181   2.870  1.00  0.00     0.059 A 
ATOM     78  C   UNL     1     -13.467   6.558   2.832  1.00  0.00     0.059 A 
ATOM     79  F   UNL     1     -11.504   7.381   1.952  1.00  0.00    -0.206 F 
ATOM     80  C   UNL     1     -14.323   5.494   3.067  1.00  0.00     0.060 A 
BRANCH  80  81
ATOM     81  S   UNL     1     -16.028   5.811   3.556  1.00  0.00     0.124 S 
ATOM     82  O   UNL     1     -16.748   5.448   2.341  1.00  0.00    -0.237 OA
ATOM     83  O   UNL     1     -16.192   4.909   4.692  1.00  0.00    -0.237 OA
ATOM     84  O   UNL     1     -16.024   7.232   3.888  1.00  0.00    -0.744 OA
ENDBRANCH  80  81
ENDBRANCH  59  73
BRANCH  60  85
ATOM     85  C   UNL     1     -10.583  10.006  -4.515  1.00  0.00     0.058 A 
ATOM     86  C   UNL     1     -11.722  10.069  -5.338  1.00  0.00     0.135 A 
ATOM     87  C   UNL     1     -10.197  11.221  -3.907  1.00  0.00     0.135 A 
ATOM     88  F   UNL     1     -12.191   8.957  -5.925  1.00  0.00    -0.206 F 
ATOM     89  C   UNL     1     -12.445  11.255  -5.526  1.00  0.00     0.059 A 
ATOM     90  C   UNL     1     -10.885  12.416  -4.098  1.00  0.00     0.059 A 
ATOM     91  F   UNL     1      -9.188  11.270  -3.025  1.00  0.00    -0.206 F 
ATOM     92  C   UNL     1     -12.024  12.423  -4.889  1.00  0.00     0.060 A 
BRANCH  92  93
ATOM     93  S   UNL     1     -13.031  13.921  -4.999  1.00  0.00     0.124 S 
ATOM     94  O   UNL     1     -12.918  14.258  -6.413  1.00  0.00    -0.237 OA
ATOM     95  O   UNL     1     -14.337  13.444  -4.557  1.00  0.00    -0.237 OA
ATOM     96  O   UNL     1     -12.366  14.845  -4.083  1.00  0.00    -0.744 OA
ENDBRANCH  92  93
ENDBRANCH  60  85
BRANCH  72  97
ATOM     97  C   UNL     1      -9.568   3.648  -4.248  1.00  0.00     0.058 A 
ATOM     98  C   UNL     1      -8.409   4.248  -4.770  1.00  0.00     0.135 A 
ATOM     99  C   UNL     1      -9.884   2.359  -4.713  1.00  0.00     0.135 A 
ATOM    100  F   UNL     1      -7.963   5.422  -4.300  1.00  0.00    -0.206 F 
ATOM    101  C   UNL     1      -7.628   3.616  -5.739  1.00  0.00     0.059 A 
ATOM    102  C   UNL     1      -9.095   1.693  -5.648  1.00  0.00     0.059 A 
ATOM    103  F   UNL     1     -10.944   1.704  -4.211  1.00  0.00    -0.206 F 
ATOM    104  C   UNL     1      -7.972   2.333  -6.162  1.00  0.00     0.060 A 
BRANCH 104 105
ATOM    105  S   UNL     1      -6.886   1.484  -7.328  1.00  0.00     0.124 S 
ATOM    106  O   UNL     1      -7.042   2.288  -8.535  1.00  0.00    -0.237 OA
ATOM    107  O   UNL     1      -5.588   1.578  -6.663  1.00  0.00    -0.237 OA
ATOM    108  O   UNL     1      -7.445   0.137  -7.399  1.00  0.00    -0.744 OA
ENDBRANCH 104 105
ENDBRANCH  72  97
ENDBRANCH  46  47
ENDBRANCH  39  41
ENDBRANCH  38  39
ENDBRANCH  37  38
ENDBRANCH  36  37
ENDBRANCH  35  36
ENDBRANCH  34  35
ENDBRANCH   1  34
TORSDOF 25
