REMARK SMILES CS(=O)(=O)c1ccc(/C=C(/C(=O)OCCOCCOCCOCCOC(=O)c2ccc(-c3c4nc(c(-c5c(F)cc(S(=O)(=O)[O-])cc5F)c5ccc([nH]5)c(-c5c(F)cc(S(=O)(=O)[O-])cc5F)c5nc(c(-c6c(F)cc(S(=O)(=O)[O-])cc6F)c6ccc3[nH]6)C=C5)C=C4)cc2)c2cccc(Br)c2)cc1
REMARK SMILES IDX 20 1 19 2 18 3 17 4 16 5 15 6 14 7 13 8 11 9 12 10 10 11
REMARK SMILES IDX 9 12 8 13 5 14 6 15 102 16 7 17 101 18 2 19 1 20 3 21 4 22
REMARK SMILES IDX 94 23 95 24 100 25 96 26 98 27 97 28 99 29 21 30 22 31 23 32
REMARK SMILES IDX 24 33 25 34 26 35 27 36 28 37 29 38 93 39 30 40 92 41 31 42
REMARK SMILES IDX 32 43 33 44 86 45 34 46 91 47 85 48 87 49 35 50 90 51 84 52
REMARK SMILES IDX 83 53 36 55 70 56 49 57 69 58 50 59 53 60 68 61 88 62 51 63
REMARK SMILES IDX 52 64 67 66 89 67 54 68 37 69 38 70 47 71 39 72 40 73 46 74
REMARK SMILES IDX 48 75 41 76 42 77 43 78 44 79 45 80 71 81 72 82 81 83 73 84
REMARK SMILES IDX 74 85 80 86 82 87 75 88 76 89 77 90 78 91 79 92 55 93 56 94
REMARK SMILES IDX 65 95 57 96 58 97 64 98 66 99 59 100 60 101 61 102 62 103
REMARK SMILES IDX 63 104
REMARK H PARENT 87 54 53 65
REMARK Flexibility Score: inf
ROOT
ATOM      1  C   UNL     1       6.258   2.030  -9.589  1.00  0.00     0.188 C 
ENDROOT
BRANCH   1   2
ATOM      2  O   UNL     1       5.504   1.456  -8.528  1.00  0.00    -0.377 OA
BRANCH   2   3
ATOM      3  C   UNL     1       5.407   0.045  -8.429  1.00  0.00     0.188 C 
BRANCH   3   4
ATOM      4  C   UNL     1       5.151  -0.788  -9.704  1.00  0.00     0.188 C 
BRANCH   4   5
ATOM      5  O   UNL     1       5.061  -0.022 -10.893  1.00  0.00    -0.376 OA
BRANCH   5   6
ATOM      6  C   UNL     1       3.776   0.118 -11.474  1.00  0.00     0.202 C 
BRANCH   6   7
ATOM      7  C   UNL     1       2.719   0.882 -10.662  1.00  0.00     0.261 C 
BRANCH   7   8
ATOM      8  O   UNL     1       2.585   0.485  -9.286  1.00  0.00    -0.460 OA
BRANCH   8   9
ATOM      9  C   UNL     1       1.994  -0.705  -9.032  1.00  0.00     0.338 C 
ATOM     10  O   UNL     1       1.538  -1.462  -9.876  1.00  0.00    -0.246 OA
BRANCH   9  11
ATOM     11  C   UNL     1       2.114  -1.054  -7.572  1.00  0.00     0.067 C 
ATOM     12  C   UNL     1       2.028  -0.064  -6.649  1.00  0.00     0.024 C 
BRANCH  12  13
ATOM     13  C   UNL     1       1.914  -0.180  -5.175  1.00  0.00    -0.025 A 
ATOM     14  C   UNL     1       1.136  -0.586  -2.513  1.00  0.00     0.067 A 
ATOM     15  C   UNL     1       2.051  -1.452  -3.104  1.00  0.00     0.021 A 
ATOM     16  C   UNL     1       0.703   0.554  -3.191  1.00  0.00     0.021 A 
ATOM     17  C   UNL     1       2.470  -1.218  -4.415  1.00  0.00     0.009 A 
ATOM     18  C   UNL     1       1.102   0.757  -4.516  1.00  0.00     0.009 A 
BRANCH  14  19
ATOM     19  S   UNL     1       0.402  -1.009  -0.954  1.00  0.00     0.175 S 
ATOM     20  C   UNL     1       1.067   0.177   0.176  1.00  0.00     0.163 C 
ATOM     21  O   UNL     1       0.905  -2.314  -0.565  1.00  0.00    -0.224 OA
ATOM     22  O   UNL     1      -1.024  -0.773  -1.074  1.00  0.00    -0.224 OA
ENDBRANCH  14  19
ENDBRANCH  12  13
BRANCH  11  23
ATOM     23  C   UNL     1       2.308  -2.478  -7.222  1.00  0.00    -0.010 A 
ATOM     24  C   UNL     1       3.596  -3.043  -7.271  1.00  0.00     0.009 A 
ATOM     25  C   UNL     1       1.250  -3.251  -6.737  1.00  0.00     0.024 A 
ATOM     26  C   UNL     1       3.829  -4.349  -6.842  1.00  0.00     0.002 A 
ATOM     27  C   UNL     1       1.493  -4.551  -6.290  1.00  0.00     0.018 A 
ATOM     28  C   UNL     1       2.774  -5.104  -6.343  1.00  0.00     0.016 A 
ATOM     29  Br  UNL     1       0.078  -5.562  -5.550  1.00  0.00    -0.051 Br
ENDBRANCH  11  23
ENDBRANCH   9  11
ENDBRANCH   8   9
ENDBRANCH   7   8
ENDBRANCH   6   7
ENDBRANCH   5   6
ENDBRANCH   4   5
ENDBRANCH   3   4
ENDBRANCH   2   3
ENDBRANCH   1   2
BRANCH   1  30
ATOM     30  C   UNL     1       7.467   1.273 -10.186  1.00  0.00     0.188 C 
BRANCH  30  31
ATOM     31  O   UNL     1       7.870   0.120  -9.460  1.00  0.00    -0.376 OA
BRANCH  31  32
ATOM     32  C   UNL     1       9.047   0.226  -8.677  1.00  0.00     0.202 C 
BRANCH  32  33
ATOM     33  C   UNL     1       8.986   1.188  -7.483  1.00  0.00     0.261 C 
BRANCH  33  34
ATOM     34  O   UNL     1       8.674   2.555  -7.791  1.00  0.00    -0.460 OA
BRANCH  34  35
ATOM     35  C   UNL     1       9.525   3.225  -8.599  1.00  0.00     0.338 C 
ATOM     36  O   UNL     1      10.559   2.806  -9.089  1.00  0.00    -0.246 OA
BRANCH  35  37
ATOM     37  C   UNL     1       8.877   4.505  -8.951  1.00  0.00     0.060 A 
ATOM     38  C   UNL     1       8.577   4.778 -10.293  1.00  0.00     0.016 A 
ATOM     39  C   UNL     1       8.530   5.412  -7.948  1.00  0.00     0.016 A 
ATOM     40  C   UNL     1       7.940   5.972 -10.635  1.00  0.00     0.010 A 
ATOM     41  C   UNL     1       7.918   6.617  -8.295  1.00  0.00     0.010 A 
ATOM     42  C   UNL     1       7.642   6.913  -9.642  1.00  0.00    -0.014 A 
BRANCH  42  43
ATOM     43  C   UNL     1       7.209   8.280 -10.018  1.00  0.00     0.031 A 
ATOM     44  C   UNL     1       8.248   9.367 -10.064  1.00  0.00     0.074 A 
ATOM     45  C   UNL     1       5.924   8.553 -10.307  1.00  0.00     0.049 A 
ATOM     46  N   UNL     1       8.102  10.646 -10.286  1.00  0.00    -0.248 NA
ATOM     47  C   UNL     1       9.639   8.951  -9.822  1.00  0.00     0.031 C 
ATOM     48  C   UNL     1       4.837   7.577 -10.334  1.00  0.00     0.029 A 
ATOM     49  N   UNL     1       5.317   9.744 -10.620  1.00  0.00    -0.354 N 
ATOM     50  C   UNL     1       9.378  11.190 -10.204  1.00  0.00     0.074 A 
ATOM     51  C   UNL     1      10.282  10.107  -9.883  1.00  0.00     0.031 C 
ATOM     52  C   UNL     1       3.689   8.213 -10.630  1.00  0.00     0.029 A 
ATOM     53  C   UNL     1       3.955   9.644 -10.775  1.00  0.00     0.049 A 
ATOM     54  H   UNL     1       5.810  10.590 -10.723  1.00  0.00     0.167 HD
ATOM     55  C   UNL     1       9.762  12.475 -10.386  1.00  0.00     0.037 A 
ATOM     56  C   UNL     1       3.029  10.603 -10.982  1.00  0.00     0.037 A 
ATOM     57  C   UNL     1       8.854  13.549 -10.697  1.00  0.00     0.049 A 
ATOM     58  C   UNL     1       3.469  12.040 -11.102  1.00  0.00     0.074 A 
ATOM     59  C   UNL     1       9.145  14.883 -10.916  1.00  0.00     0.029 A 
ATOM     60  N   UNL     1       7.479  13.413 -10.819  1.00  0.00    -0.354 N 
ATOM     61  N   UNL     1       4.682  12.541 -11.048  1.00  0.00    -0.248 NA
ATOM     62  C   UNL     1       2.417  13.045 -11.313  1.00  0.00     0.031 C 
ATOM     63  C   UNL     1       7.940  15.565 -11.114  1.00  0.00     0.029 A 
ATOM     64  C   UNL     1       6.904  14.646 -11.081  1.00  0.00     0.049 A 
ATOM     65  H   UNL     1       6.985  12.566 -10.733  1.00  0.00     0.167 HD
ATOM     66  C   UNL     1       4.539  13.912 -11.245  1.00  0.00     0.074 A 
ATOM     67  C   UNL     1       3.125  14.159 -11.433  1.00  0.00     0.031 C 
ATOM     68  C   UNL     1       5.492  14.877 -11.270  1.00  0.00     0.037 A 
BRANCH  55  69
ATOM     69  C   UNL     1      11.222  12.797 -10.220  1.00  0.00     0.058 A 
ATOM     70  C   UNL     1      12.185  12.371 -11.149  1.00  0.00     0.135 A 
ATOM     71  C   UNL     1      11.659  13.568  -9.131  1.00  0.00     0.135 A 
ATOM     72  F   UNL     1      11.826  11.613 -12.197  1.00  0.00    -0.206 F 
ATOM     73  C   UNL     1      13.533  12.679 -10.991  1.00  0.00     0.059 A 
ATOM     74  C   UNL     1      12.998  13.913  -8.969  1.00  0.00     0.059 A 
ATOM     75  F   UNL     1      10.782  13.995  -8.209  1.00  0.00    -0.206 F 
ATOM     76  C   UNL     1      13.929  13.452  -9.898  1.00  0.00     0.060 A 
BRANCH  76  77
ATOM     77  S   UNL     1      15.680  13.850  -9.714  1.00  0.00     0.124 S 
ATOM     78  O   UNL     1      16.236  12.553  -9.341  1.00  0.00    -0.237 OA
ATOM     79  O   UNL     1      16.031  14.330 -11.046  1.00  0.00    -0.237 OA
ATOM     80  O   UNL     1      15.691  14.862  -8.662  1.00  0.00    -0.744 OA
ENDBRANCH  76  77
ENDBRANCH  55  69
BRANCH  56  81
ATOM     81  C   UNL     1       1.587  10.241 -11.068  1.00  0.00     0.058 A 
ATOM     82  C   UNL     1       0.876  10.368 -12.270  1.00  0.00     0.135 A 
ATOM     83  C   UNL     1       0.889   9.766  -9.946  1.00  0.00     0.135 A 
ATOM     84  F   UNL     1       1.493  10.832 -13.368  1.00  0.00    -0.206 F 
ATOM     85  C   UNL     1      -0.476  10.050 -12.356  1.00  0.00     0.059 A 
ATOM     86  C   UNL     1      -0.455   9.414 -10.013  1.00  0.00     0.059 A 
ATOM     87  F   UNL     1       1.523   9.620  -8.771  1.00  0.00    -0.206 F 
ATOM     88  C   UNL     1      -1.132   9.568 -11.222  1.00  0.00     0.060 A 
BRANCH  88  89
ATOM     89  S   UNL     1      -2.872   9.104 -11.359  1.00  0.00     0.124 S 
ATOM     90  O   UNL     1      -3.515  10.407 -11.482  1.00  0.00    -0.237 OA
ATOM     91  O   UNL     1      -2.872   8.275 -12.560  1.00  0.00    -0.237 OA
ATOM     92  O   UNL     1      -3.127   8.389 -10.112  1.00  0.00    -0.744 OA
ENDBRANCH  88  89
ENDBRANCH  56  81
BRANCH  68  93
ATOM     93  C   UNL     1       5.047  16.290 -11.543  1.00  0.00     0.058 A 
ATOM     94  C   UNL     1       4.331  17.038 -10.596  1.00  0.00     0.135 A 
ATOM     95  C   UNL     1       5.393  16.922 -12.750  1.00  0.00     0.135 A 
ATOM     96  F   UNL     1       3.970  16.483  -9.428  1.00  0.00    -0.206 F 
ATOM     97  C   UNL     1       3.950  18.354 -10.845  1.00  0.00     0.059 A 
ATOM     98  C   UNL     1       5.051  18.246 -13.007  1.00  0.00     0.059 A 
ATOM     99  F   UNL     1       6.089  16.258 -13.686  1.00  0.00    -0.206 F 
ATOM    100  C   UNL     1       4.318  18.950 -12.053  1.00  0.00     0.060 A 
BRANCH 100 101
ATOM    101  S   UNL     1       3.845  20.667 -12.350  1.00  0.00     0.124 S 
ATOM    102  O   UNL     1       2.408  20.542 -12.572  1.00  0.00    -0.237 OA
ATOM    103  O   UNL     1       4.239  21.318 -11.104  1.00  0.00    -0.237 OA
ATOM    104  O   UNL     1       4.631  21.040 -13.522  1.00  0.00    -0.744 OA
ENDBRANCH 100 101
ENDBRANCH  68  93
ENDBRANCH  42  43
ENDBRANCH  35  37
ENDBRANCH  34  35
ENDBRANCH  33  34
ENDBRANCH  32  33
ENDBRANCH  31  32
ENDBRANCH  30  31
ENDBRANCH   1  30
TORSDOF 26
