REMARK SMILES CSCCC(=O)N1[C@H](C)CCC[C@@H]1C(=O)OCCOCCOCCOCCOC(=O)c1ccc(-c2c3nc(c(-c4c(F)cc(S(=O)(=O)[O-])cc4F)c4ccc([nH]4)c(-c4c(F)cc(S(=O)(=O)[O-])cc4F)c4nc(c(-c5c(F)cc(S(=O)(=O)[O-])cc5F)c5ccc2[nH]5)C=C4)C=C3)cc1
REMARK SMILES IDX 21 1 20 2 19 3 18 4 17 5 16 6 14 7 15 8 13 9 7 10 8 11 9 12
REMARK SMILES IDX 10 13 12 14 11 15 5 16 6 17 4 18 3 19 2 20 1 21 22 22 23 23
REMARK SMILES IDX 24 24 25 25 26 26 27 27 28 28 29 29 30 30 31 31 32 32 96 33
REMARK SMILES IDX 33 34 95 35 34 36 35 37 36 38 89 39 37 40 94 41 88 42 90 43
REMARK SMILES IDX 38 44 93 45 87 46 86 47 39 49 73 50 52 51 72 52 53 53 56 54
REMARK SMILES IDX 71 55 91 56 54 57 55 58 70 60 92 61 57 62 40 63 41 64 50 65
REMARK SMILES IDX 42 66 43 67 49 68 51 69 44 70 45 71 46 72 47 73 48 74 74 75
REMARK SMILES IDX 75 76 84 77 76 78 77 79 83 80 85 81 78 82 79 83 80 84 81 85
REMARK SMILES IDX 82 86 58 87 59 88 68 89 60 90 61 91 67 92 69 93 62 94 63 95
REMARK SMILES IDX 64 96 65 97 66 98
REMARK H PARENT 90 48 56 59
REMARK Flexibility Score: inf
ROOT
ATOM      1  C   UNL     1      -1.552  -2.830  -3.835  1.00  0.00     0.188 C 
ENDROOT
BRANCH   1   2
ATOM      2  C   UNL     1      -2.924  -3.270  -3.299  1.00  0.00     0.188 C 
BRANCH   2   3
ATOM      3  O   UNL     1      -4.042  -2.400  -3.339  1.00  0.00    -0.376 OA
BRANCH   3   4
ATOM      4  C   UNL     1      -3.960  -1.080  -2.820  1.00  0.00     0.202 C 
BRANCH   4   5
ATOM      5  C   UNL     1      -3.199  -0.782  -1.530  1.00  0.00     0.261 C 
BRANCH   5   6
ATOM      6  O   UNL     1      -1.808  -1.147  -1.542  1.00  0.00    -0.462 OA
BRANCH   6   7
ATOM      7  C   UNL     1      -1.404  -2.109  -0.678  1.00  0.00     0.328 C 
ATOM      8  O   UNL     1      -2.175  -2.732   0.049  1.00  0.00    -0.250 OA
BRANCH   7   9
ATOM      9  C   UNL     1       0.129  -2.196  -0.525  1.00  0.00     0.195 C 
ATOM     10  N   UNL     1       0.437  -1.297   0.584  1.00  0.00    -0.326 N 
ATOM     11  C   UNL     1       0.418   0.143   0.270  1.00  0.00     0.083 C 
ATOM     12  C   UNL     1      -0.832   0.905   0.696  1.00  0.00     0.031 C 
ATOM     13  C   UNL     1       0.796   0.445  -1.197  1.00  0.00     0.025 C 
ATOM     14  C   UNL     1       1.148  -2.001  -1.657  1.00  0.00     0.037 C 
ATOM     15  C   UNL     1       1.757  -0.602  -1.733  1.00  0.00     0.005 C 
BRANCH  10  16
ATOM     16  C   UNL     1       0.915  -1.860   1.752  1.00  0.00     0.224 C 
ATOM     17  O   UNL     1       1.391  -2.999   1.776  1.00  0.00    -0.275 OA
BRANCH  16  18
ATOM     18  C   UNL     1       0.775  -1.090   3.044  1.00  0.00     0.111 C 
BRANCH  18  19
ATOM     19  C   UNL     1       2.036  -0.371   3.506  1.00  0.00     0.079 C 
BRANCH  19  20
ATOM     20  S   UNL     1       2.063   1.433   3.194  1.00  0.00    -0.165 SA
ATOM     21  C   UNL     1       3.198   1.519   1.771  1.00  0.00     0.085 C 
ENDBRANCH  19  20
ENDBRANCH  18  19
ENDBRANCH  16  18
ENDBRANCH  10  16
ENDBRANCH   7   9
ENDBRANCH   6   7
ENDBRANCH   5   6
ENDBRANCH   4   5
ENDBRANCH   3   4
ENDBRANCH   2   3
ENDBRANCH   1   2
BRANCH   1  22
ATOM     22  O   UNL     1      -1.360  -1.437  -3.996  1.00  0.00    -0.377 OA
BRANCH  22  23
ATOM     23  C   UNL     1      -1.688  -0.851  -5.252  1.00  0.00     0.188 C 
BRANCH  23  24
ATOM     24  C   UNL     1      -2.762  -1.536  -6.117  1.00  0.00     0.188 C 
BRANCH  24  25
ATOM     25  O   UNL     1      -2.581  -2.936  -6.259  1.00  0.00    -0.376 OA
BRANCH  25  26
ATOM     26  C   UNL     1      -1.820  -3.437  -7.347  1.00  0.00     0.202 C 
BRANCH  26  27
ATOM     27  C   UNL     1      -0.373  -2.951  -7.542  1.00  0.00     0.261 C 
BRANCH  27  28
ATOM     28  O   UNL     1      -0.169  -1.544  -7.744  1.00  0.00    -0.460 OA
BRANCH  28  29
ATOM     29  C   UNL     1      -0.897  -0.908  -8.680  1.00  0.00     0.338 C 
ATOM     30  O   UNL     1      -1.695  -1.407  -9.462  1.00  0.00    -0.246 OA
BRANCH  29  31
ATOM     31  C   UNL     1      -0.719   0.541  -8.475  1.00  0.00     0.060 A 
ATOM     32  C   UNL     1      -1.836   1.343  -8.199  1.00  0.00     0.016 A 
ATOM     33  C   UNL     1       0.553   1.107  -8.579  1.00  0.00     0.016 A 
ATOM     34  C   UNL     1      -1.691   2.726  -8.084  1.00  0.00     0.010 A 
ATOM     35  C   UNL     1       0.693   2.492  -8.490  1.00  0.00     0.010 A 
ATOM     36  C   UNL     1      -0.435   3.308  -8.290  1.00  0.00    -0.014 A 
BRANCH  36  37
ATOM     37  C   UNL     1      -0.326   4.761  -8.555  1.00  0.00     0.031 A 
ATOM     38  C   UNL     1      -0.258   5.203  -9.993  1.00  0.00     0.074 A 
ATOM     39  C   UNL     1      -0.272   5.661  -7.559  1.00  0.00     0.049 A 
ATOM     40  N   UNL     1      -0.021   6.388 -10.488  1.00  0.00    -0.248 NA
ATOM     41  C   UNL     1      -0.479   4.159 -11.009  1.00  0.00     0.031 C 
ATOM     42  C   UNL     1      -0.391   5.357  -6.134  1.00  0.00     0.029 A 
ATOM     43  N   UNL     1      -0.083   7.020  -7.600  1.00  0.00    -0.354 N 
ATOM     44  C   UNL     1      -0.040   6.228 -11.869  1.00  0.00     0.074 A 
ATOM     45  C   UNL     1      -0.292   4.830 -12.135  1.00  0.00     0.031 C 
ATOM     46  C   UNL     1      -0.247   6.497  -5.434  1.00  0.00     0.029 A 
ATOM     47  C   UNL     1       0.018   7.599  -6.358  1.00  0.00     0.049 A 
ATOM     48  H   UNL     1      -0.024   7.530  -8.440  1.00  0.00     0.167 HD
ATOM     49  C   UNL     1       0.138   7.166 -12.828  1.00  0.00     0.037 A 
ATOM     50  C   UNL     1       0.325   8.866  -6.013  1.00  0.00     0.037 A 
ATOM     51  C   UNL     1       0.384   8.555 -12.550  1.00  0.00     0.049 A 
ATOM     52  C   UNL     1       0.595   9.880  -7.098  1.00  0.00     0.074 A 
ATOM     53  C   UNL     1       0.563   9.592 -13.447  1.00  0.00     0.029 A 
ATOM     54  N   UNL     1       0.493   9.101 -11.279  1.00  0.00    -0.354 N 
ATOM     55  N   UNL     1       0.570   9.722  -8.401  1.00  0.00    -0.248 NA
ATOM     56  C   UNL     1       0.934  11.244  -6.668  1.00  0.00     0.031 C 
ATOM     57  C   UNL     1       0.841  10.753 -12.720  1.00  0.00     0.029 A 
ATOM     58  C   UNL     1       0.761  10.455 -11.369  1.00  0.00     0.049 A 
ATOM     59  H   UNL     1       0.394   8.598 -10.438  1.00  0.00     0.167 HD
ATOM     60  C   UNL     1       0.843  10.975  -8.944  1.00  0.00     0.074 A 
ATOM     61  C   UNL     1       1.034  11.878  -7.829  1.00  0.00     0.031 C 
ATOM     62  C   UNL     1       0.920  11.346 -10.246  1.00  0.00     0.037 A 
BRANCH  49  63
ATOM     63  C   UNL     1       0.112   6.717 -14.263  1.00  0.00     0.058 A 
ATOM     64  C   UNL     1      -1.072   6.301 -14.892  1.00  0.00     0.135 A 
ATOM     65  C   UNL     1       1.287   6.745 -15.032  1.00  0.00     0.135 A 
ATOM     66  F   UNL     1      -2.219   6.231 -14.198  1.00  0.00    -0.206 F 
ATOM     67  C   UNL     1      -1.087   5.911 -16.227  1.00  0.00     0.059 A 
ATOM     68  C   UNL     1       1.289   6.390 -16.377  1.00  0.00     0.059 A 
ATOM     69  F   UNL     1       2.449   7.127 -14.478  1.00  0.00    -0.206 F 
ATOM     70  C   UNL     1       0.099   5.964 -16.963  1.00  0.00     0.060 A 
BRANCH  70  71
ATOM     71  S   UNL     1       0.057   5.477 -18.700  1.00  0.00     0.124 S 
ATOM     72  O   UNL     1      -0.138   4.035 -18.594  1.00  0.00    -0.237 OA
ATOM     73  O   UNL     1      -1.082   6.235 -19.207  1.00  0.00    -0.237 OA
ATOM     74  O   UNL     1       1.361   5.898 -19.204  1.00  0.00    -0.744 OA
ENDBRANCH  70  71
ENDBRANCH  49  63
BRANCH  50  75
ATOM     75  C   UNL     1       0.412   9.251  -4.577  1.00  0.00     0.058 A 
ATOM     76  C   UNL     1      -0.510  10.142  -4.010  1.00  0.00     0.135 A 
ATOM     77  C   UNL     1       1.427   8.748  -3.748  1.00  0.00     0.135 A 
ATOM     78  F   UNL     1      -1.492  10.661  -4.763  1.00  0.00    -0.206 F 
ATOM     79  C   UNL     1      -0.420  10.537  -2.679  1.00  0.00     0.059 A 
ATOM     80  C   UNL     1       1.521   9.104  -2.406  1.00  0.00     0.059 A 
ATOM     81  F   UNL     1       2.331   7.884  -4.237  1.00  0.00    -0.206 F 
ATOM     82  C   UNL     1       0.599  10.009  -1.883  1.00  0.00     0.060 A 
BRANCH  82  83
ATOM     83  S   UNL     1       0.681  10.498  -0.147  1.00  0.00     0.124 S 
ATOM     84  O   UNL     1       1.119  11.885  -0.253  1.00  0.00    -0.237 OA
ATOM     85  O   UNL     1      -0.696  10.293   0.291  1.00  0.00    -0.237 OA
ATOM     86  O   UNL     1       1.657   9.569   0.416  1.00  0.00    -0.744 OA
ENDBRANCH  82  83
ENDBRANCH  50  75
BRANCH  62  87
ATOM     87  C   UNL     1       1.147  12.802 -10.553  1.00  0.00     0.058 A 
ATOM     88  C   UNL     1       2.388  13.425 -10.349  1.00  0.00     0.135 A 
ATOM     89  C   UNL     1       0.122  13.561 -11.145  1.00  0.00     0.135 A 
ATOM     90  F   UNL     1       3.399  12.748  -9.783  1.00  0.00    -0.206 F 
ATOM     91  C   UNL     1       2.600  14.753 -10.707  1.00  0.00     0.059 A 
ATOM     92  C   UNL     1       0.322  14.879 -11.540  1.00  0.00     0.059 A 
ATOM     93  F   UNL     1      -1.081  13.011 -11.373  1.00  0.00    -0.206 F 
ATOM     94  C   UNL     1       1.563  15.469 -11.309  1.00  0.00     0.060 A 
BRANCH  94  95
ATOM     95  S   UNL     1       1.871  17.174 -11.819  1.00  0.00     0.124 S 
ATOM     96  O   UNL     1       1.932  17.860 -10.533  1.00  0.00    -0.237 OA
ATOM     97  O   UNL     1       3.136  17.059 -12.538  1.00  0.00    -0.237 OA
ATOM     98  O   UNL     1       0.713  17.496 -12.649  1.00  0.00    -0.744 OA
ENDBRANCH  94  95
ENDBRANCH  62  87
ENDBRANCH  36  37
ENDBRANCH  29  31
ENDBRANCH  28  29
ENDBRANCH  27  28
ENDBRANCH  26  27
ENDBRANCH  25  26
ENDBRANCH  24  25
ENDBRANCH  23  24
ENDBRANCH  22  23
ENDBRANCH   1  22
TORSDOF 27
