REMARK SMILES Cc1cc(SC[C@H]([NH3+])C(=O)OCCOCCOCCOCCOC(=O)c2ccc(-c3c4nc(c(-c5c(F)cc(S(=O)(=O)[O-])cc5F)c5ccc([nH]5)c(-c5c(F)cc(S(=O)(=O)[O-])cc5F)c5nc(c(-c6c(F)cc(S(=O)(=O)[O-])cc6F)c6ccc3[nH]6)C=C5)C=C4)cc2)ccc1N
REMARK SMILES IDX 16 1 15 2 14 3 13 4 12 5 11 6 9 7 10 8 7 9 6 10 5 11 4 12
REMARK SMILES IDX 1 13 2 14 3 15 94 16 93 17 92 18 95 19 8 22 17 26 18 27
REMARK SMILES IDX 19 28 20 29 21 30 22 31 23 32 24 33 25 34 26 35 27 36 91 37
REMARK SMILES IDX 28 38 90 39 29 40 30 41 31 42 84 43 32 44 89 45 83 46 85 47
REMARK SMILES IDX 33 48 88 49 82 50 81 51 34 53 68 54 47 55 67 56 48 57 51 58
REMARK SMILES IDX 66 59 86 60 49 61 50 62 65 64 87 65 52 66 35 67 36 68 45 69
REMARK SMILES IDX 37 70 38 71 44 72 46 73 39 74 40 75 41 76 42 77 43 78 69 79
REMARK SMILES IDX 70 80 79 81 71 82 72 83 78 84 80 85 73 86 74 87 75 88 76 89
REMARK SMILES IDX 77 90 53 91 54 92 63 93 55 94 56 95 62 96 64 97 57 98 58 99
REMARK SMILES IDX 59 100 60 101 61 102
REMARK H PARENT 95 20 95 21 8 23 8 24 8 25 85 52 51 63
REMARK Flexibility Score: inf
ROOT
ATOM      1  C   UNL     1      -4.678   5.444  -0.262  1.00  0.00     0.188 C 
ENDROOT
BRANCH   1   2
ATOM      2  C   UNL     1      -4.593   6.017   1.162  1.00  0.00     0.188 C 
BRANCH   2   3
ATOM      3  O   UNL     1      -3.850   7.215   1.318  1.00  0.00    -0.376 OA
BRANCH   3   4
ATOM      4  C   UNL     1      -2.431   7.189   1.268  1.00  0.00     0.202 C 
BRANCH   4   5
ATOM      5  C   UNL     1      -1.784   6.247   0.258  1.00  0.00     0.261 C 
BRANCH   5   6
ATOM      6  O   UNL     1      -1.576   4.881   0.620  1.00  0.00    -0.459 OA
BRANCH   6   7
ATOM      7  C   UNL     1      -1.619   4.399   1.883  1.00  0.00     0.365 C 
ATOM      8  O   UNL     1      -2.053   4.945   2.885  1.00  0.00    -0.245 OA
BRANCH   7   9
ATOM      9  C   UNL     1      -1.031   3.002   1.883  1.00  0.00     0.302 C 
BRANCH   9  10
ATOM     10  C   UNL     1       0.445   3.112   1.451  1.00  0.00     0.152 C 
BRANCH  10  11
ATOM     11  S   UNL     1       1.569   3.952   2.663  1.00  0.00    -0.119 SA
BRANCH  11  12
ATOM     12  C   UNL     1       1.250   5.712   2.498  1.00  0.00     0.008 A 
ATOM     13  C   UNL     1       0.972   8.531  -0.085  1.00  0.00     0.046 C 
ATOM     14  C   UNL     1       1.028   7.820   1.248  1.00  0.00    -0.027 A 
ATOM     15  C   UNL     1       1.302   6.424   1.295  1.00  0.00     0.020 A 
ATOM     16  C   UNL     1       0.739   8.516   2.433  1.00  0.00     0.034 A 
ATOM     17  C   UNL     1       0.779   7.815   3.639  1.00  0.00     0.027 A 
ATOM     18  C   UNL     1       1.018   6.434   3.672  1.00  0.00     0.017 A 
BRANCH  16  19
ATOM     19  N   UNL     1       0.470   9.876   2.447  1.00  0.00    -0.399 N 
ATOM     20  H   UNL     1       0.439  10.380   1.602  1.00  0.00     0.156 HD
ATOM     21  H   UNL     1       0.310  10.337   3.302  1.00  0.00     0.156 HD
ENDBRANCH  16  19
ENDBRANCH  11  12
ENDBRANCH  10  11
ENDBRANCH   9  10
BRANCH   9  22
ATOM     22  N   UNL     1      -1.828   2.141   0.962  1.00  0.00    -0.345 N 
ATOM     23  H   UNL     1      -1.814   2.542   0.025  1.00  0.00     0.345 HD
ATOM     24  H   UNL     1      -2.791   2.088   1.295  1.00  0.00     0.345 HD
ATOM     25  H   UNL     1      -1.425   1.204   0.938  1.00  0.00     0.345 HD
ENDBRANCH   9  22
ENDBRANCH   7   9
ENDBRANCH   6   7
ENDBRANCH   5   6
ENDBRANCH   4   5
ENDBRANCH   3   4
ENDBRANCH   2   3
ENDBRANCH   1   2
BRANCH   1  26
ATOM     26  O   UNL     1      -4.850   6.290  -1.393  1.00  0.00    -0.377 OA
BRANCH  26  27
ATOM     27  C   UNL     1      -4.417   7.641  -1.370  1.00  0.00     0.188 C 
BRANCH  27  28
ATOM     28  C   UNL     1      -5.372   8.626  -0.690  1.00  0.00     0.188 C 
BRANCH  28  29
ATOM     29  O   UNL     1      -6.435   7.981  -0.001  1.00  0.00    -0.376 OA
BRANCH  29  30
ATOM     30  C   UNL     1      -7.664   7.901  -0.710  1.00  0.00     0.202 C 
BRANCH  30  31
ATOM     31  C   UNL     1      -7.713   6.951  -1.919  1.00  0.00     0.261 C 
BRANCH  31  32
ATOM     32  O   UNL     1      -6.848   7.236  -3.037  1.00  0.00    -0.460 OA
BRANCH  32  33
ATOM     33  C   UNL     1      -6.856   8.464  -3.594  1.00  0.00     0.338 C 
ATOM     34  O   UNL     1      -7.580   9.398  -3.295  1.00  0.00    -0.246 OA
BRANCH  33  35
ATOM     35  C   UNL     1      -5.699   8.561  -4.519  1.00  0.00     0.060 A 
ATOM     36  C   UNL     1      -4.832   9.659  -4.410  1.00  0.00     0.016 A 
ATOM     37  C   UNL     1      -5.449   7.566  -5.469  1.00  0.00     0.016 A 
ATOM     38  C   UNL     1      -3.741   9.784  -5.277  1.00  0.00     0.010 A 
ATOM     39  C   UNL     1      -4.375   7.707  -6.355  1.00  0.00     0.010 A 
ATOM     40  C   UNL     1      -3.538   8.836  -6.289  1.00  0.00    -0.014 A 
BRANCH  40  41
ATOM     41  C   UNL     1      -2.645   9.151  -7.435  1.00  0.00     0.031 A 
ATOM     42  C   UNL     1      -3.271   9.808  -8.639  1.00  0.00     0.074 A 
ATOM     43  C   UNL     1      -1.329   8.872  -7.431  1.00  0.00     0.049 A 
ATOM     44  N   UNL     1      -2.738  10.120  -9.791  1.00  0.00    -0.248 NA
ATOM     45  C   UNL     1      -4.699  10.156  -8.523  1.00  0.00     0.031 C 
ATOM     46  C   UNL     1      -0.589   8.278  -6.320  1.00  0.00     0.029 A 
ATOM     47  N   UNL     1      -0.380   9.043  -8.412  1.00  0.00    -0.354 N 
ATOM     48  C   UNL     1      -3.762  10.697 -10.535  1.00  0.00     0.074 A 
ATOM     49  C   UNL     1      -4.953  10.665  -9.717  1.00  0.00     0.031 C 
ATOM     50  C   UNL     1       0.697   8.118  -6.688  1.00  0.00     0.029 A 
ATOM     51  C   UNL     1       0.865   8.568  -8.071  1.00  0.00     0.049 A 
ATOM     52  H   UNL     1      -0.575   9.467  -9.279  1.00  0.00     0.167 HD
ATOM     53  C   UNL     1      -3.716  11.214 -11.785  1.00  0.00     0.037 A 
ATOM     54  C   UNL     1       1.998   8.485  -8.800  1.00  0.00     0.037 A 
ATOM     55  C   UNL     1      -2.536  11.232 -12.607  1.00  0.00     0.049 A 
ATOM     56  C   UNL     1       2.005   8.990 -10.225  1.00  0.00     0.074 A 
ATOM     57  C   UNL     1      -2.389  11.732 -13.888  1.00  0.00     0.029 A 
ATOM     58  N   UNL     1      -1.304  10.717 -12.233  1.00  0.00    -0.354 N 
ATOM     59  N   UNL     1       1.036   9.552 -10.909  1.00  0.00    -0.248 NA
ATOM     60  C   UNL     1       3.261   8.847 -10.979  1.00  0.00     0.031 C 
ATOM     61  C   UNL     1      -1.080  11.477 -14.308  1.00  0.00     0.029 A 
ATOM     62  C   UNL     1      -0.397  10.869 -13.267  1.00  0.00     0.049 A 
ATOM     63  H   UNL     1      -1.105  10.306 -11.361  1.00  0.00     0.167 HD
ATOM     64  C   UNL     1       1.575   9.860 -12.156  1.00  0.00     0.074 A 
ATOM     65  C   UNL     1       2.956   9.427 -12.132  1.00  0.00     0.031 C 
ATOM     66  C   UNL     1       0.982  10.450 -13.223  1.00  0.00     0.037 A 
BRANCH  53  67
ATOM     67  C   UNL     1      -4.989  11.780 -12.346  1.00  0.00     0.058 A 
ATOM     68  C   UNL     1      -5.531  12.986 -11.873  1.00  0.00     0.135 A 
ATOM     69  C   UNL     1      -5.666  11.119 -13.383  1.00  0.00     0.135 A 
ATOM     70  F   UNL     1      -4.936  13.646 -10.866  1.00  0.00    -0.206 F 
ATOM     71  C   UNL     1      -6.711  13.506 -12.393  1.00  0.00     0.059 A 
ATOM     72  C   UNL     1      -6.833  11.635 -13.938  1.00  0.00     0.059 A 
ATOM     73  F   UNL     1      -5.195   9.959 -13.866  1.00  0.00    -0.206 F 
ATOM     74  C   UNL     1      -7.355  12.822 -13.427  1.00  0.00     0.060 A 
BRANCH  74  75
ATOM     75  S   UNL     1      -8.881  13.514 -14.097  1.00  0.00     0.124 S 
ATOM     76  O   UNL     1      -9.820  13.255 -13.010  1.00  0.00    -0.237 OA
ATOM     77  O   UNL     1      -8.524  14.914 -14.304  1.00  0.00    -0.237 OA
ATOM     78  O   UNL     1      -9.101  12.739 -15.314  1.00  0.00    -0.744 OA
ENDBRANCH  74  75
ENDBRANCH  53  67
BRANCH  54  79
ATOM     79  C   UNL     1       3.229   7.884  -8.214  1.00  0.00     0.058 A 
ATOM     80  C   UNL     1       4.368   8.663  -7.959  1.00  0.00     0.135 A 
ATOM     81  C   UNL     1       3.304   6.511  -7.929  1.00  0.00     0.135 A 
ATOM     82  F   UNL     1       4.356   9.977  -8.231  1.00  0.00    -0.206 F 
ATOM     83  C   UNL     1       5.541   8.103  -7.460  1.00  0.00     0.059 A 
ATOM     84  C   UNL     1       4.457   5.933  -7.404  1.00  0.00     0.059 A 
ATOM     85  F   UNL     1       2.244   5.719  -8.151  1.00  0.00    -0.206 F 
ATOM     86  C   UNL     1       5.574   6.735  -7.184  1.00  0.00     0.060 A 
BRANCH  86  87
ATOM     87  S   UNL     1       7.088   6.025  -6.498  1.00  0.00     0.124 S 
ATOM     88  O   UNL     1       7.971   6.040  -7.658  1.00  0.00    -0.237 OA
ATOM     89  O   UNL     1       7.413   6.970  -5.434  1.00  0.00    -0.237 OA
ATOM     90  O   UNL     1       6.662   4.705  -6.044  1.00  0.00    -0.744 OA
ENDBRANCH  86  87
ENDBRANCH  54  79
BRANCH  66  91
ATOM     91  C   UNL     1       1.824  10.715 -14.442  1.00  0.00     0.058 A 
ATOM     92  C   UNL     1       2.227   9.684 -15.305  1.00  0.00     0.135 A 
ATOM     93  C   UNL     1       2.164  12.033 -14.794  1.00  0.00     0.135 A 
ATOM     94  F   UNL     1       1.932   8.407 -15.015  1.00  0.00    -0.206 F 
ATOM     95  C   UNL     1       2.950   9.948 -16.464  1.00  0.00     0.059 A 
ATOM     96  C   UNL     1       2.862  12.322 -15.962  1.00  0.00     0.059 A 
ATOM     97  F   UNL     1       1.793  13.059 -14.011  1.00  0.00    -0.206 F 
ATOM     98  C   UNL     1       3.259  11.271 -16.787  1.00  0.00     0.060 A 
BRANCH  98  99
ATOM     99  S   UNL     1       4.155  11.603 -18.320  1.00  0.00     0.124 S 
ATOM    100  O   UNL     1       5.499  11.148 -17.979  1.00  0.00    -0.237 OA
ATOM    101  O   UNL     1       3.434  10.782 -19.288  1.00  0.00    -0.237 OA
ATOM    102  O   UNL     1       4.007  13.044 -18.496  1.00  0.00    -0.744 OA
ENDBRANCH  98  99
ENDBRANCH  66  91
ENDBRANCH  40  41
ENDBRANCH  33  35
ENDBRANCH  32  33
ENDBRANCH  31  32
ENDBRANCH  30  31
ENDBRANCH  29  30
ENDBRANCH  28  29
ENDBRANCH  27  28
ENDBRANCH  26  27
ENDBRANCH   1  26
TORSDOF 28
