REMARK SMILES Cc1cc(C)c2c(c1)C=C(C(=O)OCCOCCOCCOCCOC(=O)c1ccc(-c3c4nc(c(-c5c(F)cc(S(=O)(=O)[O-])cc5F)c5ccc([nH]5)c(-c5c(F)cc(S(=O)(=O)[O-])cc5F)c5nc(c(-c6c(F)cc(S(=O)(=O)[O-])cc6F)c6ccc3[nH]6)C=C5)C=C4)cc1)[C@@H](C(F)(F)F)O2
REMARK SMILES IDX 20 1 19 2 18 3 17 4 16 5 15 6 14 7 13 8 11 9 12 10 10 11
REMARK SMILES IDX 1 12 2 13 3 14 8 15 4 16 7 17 5 18 6 19 9 20 99 21 94 22
REMARK SMILES IDX 95 23 96 24 97 25 98 26 21 27 22 28 23 29 24 30 25 31 26 32
REMARK SMILES IDX 27 33 28 34 29 35 93 36 30 37 92 38 31 39 32 40 33 41 86 42
REMARK SMILES IDX 34 43 91 44 85 45 87 46 35 47 90 48 84 49 83 50 36 52 70 53
REMARK SMILES IDX 49 54 69 55 50 56 53 57 68 58 88 59 51 60 52 61 67 63 89 64
REMARK SMILES IDX 54 65 37 66 38 67 47 68 39 69 40 70 46 71 48 72 41 73 42 74
REMARK SMILES IDX 43 75 44 76 45 77 71 78 72 79 81 80 73 81 74 82 80 83 82 84
REMARK SMILES IDX 75 85 76 86 77 87 78 88 79 89 55 90 56 91 65 92 57 93 58 94
REMARK SMILES IDX 64 95 66 96 59 97 60 98 61 99 62 100 63 101
REMARK H PARENT 87 51 53 62
REMARK Flexibility Score: inf
ROOT
ATOM      1  C   UNL     1      -2.249  -5.513   7.794  1.00  0.00     0.188 C 
ENDROOT
BRANCH   1   2
ATOM      2  O   UNL     1      -2.150  -5.239   6.395  1.00  0.00    -0.377 OA
BRANCH   2   3
ATOM      3  C   UNL     1      -1.890  -3.907   5.987  1.00  0.00     0.188 C 
BRANCH   3   4
ATOM      4  C   UNL     1      -3.118  -2.984   6.075  1.00  0.00     0.188 C 
BRANCH   4   5
ATOM      5  O   UNL     1      -4.179  -3.537   6.845  1.00  0.00    -0.376 OA
BRANCH   5   6
ATOM      6  C   UNL     1      -5.284  -4.107   6.158  1.00  0.00     0.202 C 
BRANCH   6   7
ATOM      7  C   UNL     1      -5.047  -5.312   5.234  1.00  0.00     0.261 C 
BRANCH   7   8
ATOM      8  O   UNL     1      -3.995  -5.165   4.271  1.00  0.00    -0.460 OA
BRANCH   8   9
ATOM      9  C   UNL     1      -4.170  -4.282   3.271  1.00  0.00     0.338 C 
ATOM     10  O   UNL     1      -5.154  -3.592   3.066  1.00  0.00    -0.246 OA
BRANCH   9  11
ATOM     11  C   UNL     1      -2.881  -4.154   2.555  1.00  0.00     0.087 C 
ATOM     12  C   UNL     1       0.906   0.023   0.060  1.00  0.00     0.044 C 
ATOM     13  C   UNL     1       0.448  -1.339   0.489  1.00  0.00    -0.050 A 
ATOM     14  C   UNL     1       1.135  -2.482   0.063  1.00  0.00     0.010 A 
ATOM     15  C   UNL     1      -0.723  -1.491   1.241  1.00  0.00     0.015 A 
ATOM     16  C   UNL     1       0.687  -3.765   0.413  1.00  0.00    -0.008 A 
ATOM     17  C   UNL     1      -1.194  -2.765   1.579  1.00  0.00     0.018 A 
ATOM     18  C   UNL     1       1.430  -4.979  -0.072  1.00  0.00     0.048 C 
ATOM     19  C   UNL     1      -0.469  -3.897   1.199  1.00  0.00     0.130 A 
ATOM     20  C   UNL     1      -2.466  -2.914   2.267  1.00  0.00     0.027 C 
ATOM     21  O   UNL     1      -0.836  -5.168   1.538  1.00  0.00    -0.475 OA
ATOM     22  C   UNL     1      -2.073  -5.394   2.267  1.00  0.00     0.316 C 
BRANCH  22  23
ATOM     23  C   UNL     1      -2.880  -6.448   1.495  1.00  0.00     0.430 C 
ATOM     24  F   UNL     1      -2.118  -7.524   1.190  1.00  0.00    -0.167 F 
ATOM     25  F   UNL     1      -3.938  -6.902   2.204  1.00  0.00    -0.167 F 
ATOM     26  F   UNL     1      -3.360  -5.948   0.331  1.00  0.00    -0.167 F 
ENDBRANCH  22  23
ENDBRANCH   9  11
ENDBRANCH   8   9
ENDBRANCH   7   8
ENDBRANCH   6   7
ENDBRANCH   5   6
ENDBRANCH   4   5
ENDBRANCH   3   4
ENDBRANCH   2   3
ENDBRANCH   1   2
BRANCH   1  27
ATOM     27  C   UNL     1      -2.387  -4.392   8.853  1.00  0.00     0.188 C 
BRANCH  27  28
ATOM     28  O   UNL     1      -1.584  -3.241   8.607  1.00  0.00    -0.376 OA
BRANCH  28  29
ATOM     29  C   UNL     1      -0.459  -3.054   9.453  1.00  0.00     0.202 C 
BRANCH  29  30
ATOM     30  C   UNL     1       0.720  -3.987   9.150  1.00  0.00     0.261 C 
BRANCH  30  31
ATOM     31  O   UNL     1       0.455  -5.387   9.330  1.00  0.00    -0.460 OA
BRANCH  31  32
ATOM     32  C   UNL     1       0.085  -5.796  10.563  1.00  0.00     0.338 C 
ATOM     33  O   UNL     1       0.003  -5.117  11.571  1.00  0.00    -0.246 OA
BRANCH  32  34
ATOM     34  C   UNL     1      -0.402  -7.184  10.438  1.00  0.00     0.060 A 
ATOM     35  C   UNL     1      -1.717  -7.481  10.820  1.00  0.00     0.016 A 
ATOM     36  C   UNL     1       0.431  -8.180   9.922  1.00  0.00     0.016 A 
ATOM     37  C   UNL     1      -2.193  -8.787  10.711  1.00  0.00     0.010 A 
ATOM     38  C   UNL     1      -0.039  -9.492   9.838  1.00  0.00     0.010 A 
ATOM     39  C   UNL     1      -1.342  -9.806  10.262  1.00  0.00    -0.014 A 
BRANCH  39  40
ATOM     40  C   UNL     1      -1.734 -11.222  10.454  1.00  0.00     0.031 A 
ATOM     41  C   UNL     1      -1.297 -11.904  11.721  1.00  0.00     0.074 A 
ATOM     42  C   UNL     1      -2.482 -11.878   9.550  1.00  0.00     0.049 A 
ATOM     43  N   UNL     1      -1.505 -13.131  12.117  1.00  0.00    -0.248 NA
ATOM     44  C   UNL     1      -0.522 -11.087  12.672  1.00  0.00     0.031 C 
ATOM     45  C   UNL     1      -3.002 -11.311   8.307  1.00  0.00     0.029 A 
ATOM     46  N   UNL     1      -2.937 -13.174   9.544  1.00  0.00    -0.354 N 
ATOM     47  C   UNL     1      -0.902 -13.230  13.365  1.00  0.00     0.074 A 
ATOM     48  C   UNL     1      -0.282 -11.954  13.643  1.00  0.00     0.031 C 
ATOM     49  C   UNL     1      -3.705 -12.256   7.658  1.00  0.00     0.029 A 
ATOM     50  C   UNL     1      -3.663 -13.502   8.425  1.00  0.00     0.049 A 
ATOM     51  H   UNL     1      -2.759 -13.809  10.275  1.00  0.00     0.167 HD
ATOM     52  C   UNL     1      -0.880 -14.284  14.212  1.00  0.00     0.037 A 
ATOM     53  C   UNL     1      -4.218 -14.676   8.060  1.00  0.00     0.037 A 
ATOM     54  C   UNL     1      -1.484 -15.557  13.927  1.00  0.00     0.049 A 
ATOM     55  C   UNL     1      -4.087 -15.870   8.973  1.00  0.00     0.074 A 
ATOM     56  C   UNL     1      -1.516 -16.689  14.721  1.00  0.00     0.029 A 
ATOM     57  N   UNL     1      -2.152 -15.870  12.753  1.00  0.00    -0.354 N 
ATOM     58  N   UNL     1      -3.533 -15.946  10.160  1.00  0.00    -0.248 NA
ATOM     59  C   UNL     1      -4.651 -17.142   8.494  1.00  0.00     0.031 C 
ATOM     60  C   UNL     1      -2.161 -17.703  14.006  1.00  0.00     0.029 A 
ATOM     61  C   UNL     1      -2.573 -17.188  12.787  1.00  0.00     0.049 A 
ATOM     62  H   UNL     1      -2.304 -15.247  12.005  1.00  0.00     0.167 HD
ATOM     63  C   UNL     1      -3.696 -17.264  10.576  1.00  0.00     0.074 A 
ATOM     64  C   UNL     1      -4.414 -17.948   9.521  1.00  0.00     0.031 C 
ATOM     65  C   UNL     1      -3.287 -17.855  11.726  1.00  0.00     0.037 A 
BRANCH  52  66
ATOM     66  C   UNL     1      -0.170 -14.106  15.523  1.00  0.00     0.058 A 
ATOM     67  C   UNL     1      -0.715 -13.317  16.549  1.00  0.00     0.135 A 
ATOM     68  C   UNL     1       1.049 -14.755  15.770  1.00  0.00     0.135 A 
ATOM     69  F   UNL     1      -1.867 -12.655  16.354  1.00  0.00    -0.206 F 
ATOM     70  C   UNL     1      -0.067 -13.166  17.769  1.00  0.00     0.059 A 
ATOM     71  C   UNL     1       1.703 -14.638  16.992  1.00  0.00     0.059 A 
ATOM     72  F   UNL     1       1.617 -15.513  14.818  1.00  0.00    -0.206 F 
ATOM     73  C   UNL     1       1.141 -13.833  17.983  1.00  0.00     0.060 A 
BRANCH  73  74
ATOM     74  S   UNL     1       1.959 -13.636  19.579  1.00  0.00     0.124 S 
ATOM     75  O   UNL     1       2.394 -12.244  19.513  1.00  0.00    -0.237 OA
ATOM     76  O   UNL     1       0.878 -13.918  20.518  1.00  0.00    -0.237 OA
ATOM     77  O   UNL     1       3.028 -14.628  19.540  1.00  0.00    -0.744 OA
ENDBRANCH  73  74
ENDBRANCH  52  66
BRANCH  53  78
ATOM     78  C   UNL     1      -4.947 -14.788   6.767  1.00  0.00     0.058 A 
ATOM     79  C   UNL     1      -6.337 -14.973   6.736  1.00  0.00     0.135 A 
ATOM     80  C   UNL     1      -4.271 -14.716   5.539  1.00  0.00     0.135 A 
ATOM     81  F   UNL     1      -7.027 -15.065   7.883  1.00  0.00    -0.206 F 
ATOM     82  C   UNL     1      -7.031 -15.087   5.535  1.00  0.00     0.059 A 
ATOM     83  C   UNL     1      -4.946 -14.803   4.324  1.00  0.00     0.059 A 
ATOM     84  F   UNL     1      -2.941 -14.539   5.513  1.00  0.00    -0.206 F 
ATOM     85  C   UNL     1      -6.327 -14.995   4.333  1.00  0.00     0.060 A 
BRANCH  85  86
ATOM     86  S   UNL     1      -7.249 -15.091   2.783  1.00  0.00     0.124 S 
ATOM     87  O   UNL     1      -7.665 -16.489   2.773  1.00  0.00    -0.237 OA
ATOM     88  O   UNL     1      -8.309 -14.111   3.000  1.00  0.00    -0.237 OA
ATOM     89  O   UNL     1      -6.257 -14.721   1.778  1.00  0.00    -0.744 OA
ENDBRANCH  85  86
ENDBRANCH  53  78
BRANCH  65  90
ATOM     90  C   UNL     1      -3.599 -19.314  11.920  1.00  0.00     0.058 A 
ATOM     91  C   UNL     1      -2.895 -20.309  11.226  1.00  0.00     0.135 A 
ATOM     92  C   UNL     1      -4.537 -19.723  12.882  1.00  0.00     0.135 A 
ATOM     93  F   UNL     1      -1.992 -19.972  10.292  1.00  0.00    -0.206 F 
ATOM     94  C   UNL     1      -3.112 -21.661  11.476  1.00  0.00     0.059 A 
ATOM     95  C   UNL     1      -4.751 -21.069  13.167  1.00  0.00     0.059 A 
ATOM     96  F   UNL     1      -5.229 -18.811  13.583  1.00  0.00    -0.206 F 
ATOM     97  C   UNL     1      -4.036 -22.030  12.456  1.00  0.00     0.060 A 
BRANCH  97  98
ATOM     98  S   UNL     1      -4.257 -23.787  12.812  1.00  0.00     0.124 S 
ATOM     99  O   UNL     1      -4.936 -24.250  11.607  1.00  0.00    -0.237 OA
ATOM    100  O   UNL     1      -2.881 -24.244  12.980  1.00  0.00    -0.237 OA
ATOM    101  O   UNL     1      -5.065 -23.790  14.028  1.00  0.00    -0.744 OA
ENDBRANCH  97  98
ENDBRANCH  65  90
ENDBRANCH  39  40
ENDBRANCH  32  34
ENDBRANCH  31  32
ENDBRANCH  30  31
ENDBRANCH  29  30
ENDBRANCH  28  29
ENDBRANCH  27  28
ENDBRANCH   1  27
TORSDOF 24
