REMARK SMILES C[C@@H](CNc1cccc(F)c1C(=O)OCCOCCOCCOCCOC(=O)c1ccc(-c2c3nc(c(-c4c(F)cc(S(=O)(=O)[O-])cc4F)c4ccc([nH]4)c(-c4c(F)cc(S(=O)(=O)[O-])cc4F)c4nc(c(-c5c(F)cc(S(=O)(=O)[O-])cc5F)c5ccc2[nH]5)C=C4)C=C3)cc1)[NH+]1CCCCC1
REMARK SMILES IDX 19 1 18 2 17 3 16 4 15 5 14 6 12 7 13 8 11 9 5 10 6 11 7 12
REMARK SMILES IDX 9 13 8 14 10 15 4 16 3 18 2 19 1 20 95 21 96 22 100 23 97 25
REMARK SMILES IDX 99 26 98 27 20 28 21 29 22 30 23 31 24 32 25 33 26 34 27 35
REMARK SMILES IDX 28 36 29 37 30 38 94 39 31 40 93 41 32 42 33 43 34 44 87 45
REMARK SMILES IDX 35 46 92 47 86 48 88 49 36 50 91 51 85 52 84 53 37 55 71 56
REMARK SMILES IDX 50 57 70 58 51 59 54 60 69 61 89 62 52 63 53 64 68 66 90 67
REMARK SMILES IDX 55 68 38 69 39 70 48 71 40 72 41 73 47 74 49 75 42 76 43 77
REMARK SMILES IDX 44 78 45 79 46 80 72 81 73 82 82 83 74 84 75 85 81 86 83 87
REMARK SMILES IDX 76 88 77 89 78 90 79 91 80 92 56 93 57 94 66 95 58 96 59 97
REMARK SMILES IDX 65 98 67 99 60 100 61 101 62 102 63 103 64 104
REMARK H PARENT 4 17 95 24 88 54 54 65
REMARK Flexibility Score: inf
ROOT
ATOM      1  C   UNL     1      -0.597  -0.712  -5.385  1.00  0.00     0.188 C 
ENDROOT
BRANCH   1   2
ATOM      2  C   UNL     1      -0.385  -1.414  -4.024  1.00  0.00     0.188 C 
BRANCH   2   3
ATOM      3  O   UNL     1      -1.331  -2.417  -3.677  1.00  0.00    -0.376 OA
BRANCH   3   4
ATOM      4  C   UNL     1      -2.343  -2.084  -2.743  1.00  0.00     0.202 C 
BRANCH   4   5
ATOM      5  C   UNL     1      -3.491  -1.215  -3.299  1.00  0.00     0.261 C 
BRANCH   5   6
ATOM      6  O   UNL     1      -3.109   0.062  -3.847  1.00  0.00    -0.460 OA
BRANCH   6   7
ATOM      7  C   UNL     1      -2.461   0.857  -2.974  1.00  0.00     0.343 C 
ATOM      8  O   UNL     1      -2.188   0.523  -1.834  1.00  0.00    -0.246 OA
BRANCH   7   9
ATOM      9  C   UNL     1      -1.899   2.087  -3.543  1.00  0.00     0.118 A 
ATOM     10  C   UNL     1      -0.620   2.532  -3.104  1.00  0.00     0.052 A 
ATOM     11  C   UNL     1      -0.121   3.716  -3.661  1.00  0.00     0.027 A 
ATOM     12  C   UNL     1      -0.880   4.458  -4.575  1.00  0.00     0.005 A 
ATOM     13  C   UNL     1      -2.652   2.835  -4.443  1.00  0.00     0.139 A 
ATOM     14  C   UNL     1      -2.149   4.022  -4.957  1.00  0.00     0.040 A 
ATOM     15  F   UNL     1      -3.888   2.455  -4.795  1.00  0.00    -0.206 F 
BRANCH  10  16
ATOM     16  N   UNL     1       0.110   1.804  -2.154  1.00  0.00    -0.378 N 
ATOM     17  H   UNL     1       0.117   0.822  -2.218  1.00  0.00     0.160 HD
BRANCH  16  18
ATOM     18  C   UNL     1       0.861   2.440  -1.070  1.00  0.00     0.177 C 
BRANCH  18  19
ATOM     19  C   UNL     1       0.525   1.795   0.337  1.00  0.00     0.200 C 
ATOM     20  C   UNL     1       1.197   0.406   0.421  1.00  0.00     0.077 C 
BRANCH  19  21
ATOM     21  N   UNL     1      -0.894   1.844   0.816  1.00  0.00    -0.331 N 
ATOM     22  C   UNL     1      -1.653   2.992   0.323  1.00  0.00     0.262 C 
ATOM     23  C   UNL     1      -1.608   0.567   0.904  1.00  0.00     0.262 C 
ATOM     24  H   UNL     1      -0.794   2.043   1.811  1.00  0.00     0.348 HD
ATOM     25  C   UNL     1      -3.115   3.045   0.748  1.00  0.00     0.062 C 
ATOM     26  C   UNL     1      -3.146   0.581   1.000  1.00  0.00     0.062 C 
ATOM     27  C   UNL     1      -3.832   1.772   0.349  1.00  0.00     0.012 C 
ENDBRANCH  19  21
ENDBRANCH  18  19
ENDBRANCH  16  18
ENDBRANCH  10  16
ENDBRANCH   7   9
ENDBRANCH   6   7
ENDBRANCH   5   6
ENDBRANCH   4   5
ENDBRANCH   3   4
ENDBRANCH   2   3
ENDBRANCH   1   2
BRANCH   1  28
ATOM     28  O   UNL     1      -1.303  -1.316  -6.460  1.00  0.00    -0.377 OA
BRANCH  28  29
ATOM     29  C   UNL     1      -1.782  -2.640  -6.316  1.00  0.00     0.188 C 
BRANCH  29  30
ATOM     30  C   UNL     1      -0.705  -3.722  -6.123  1.00  0.00     0.188 C 
BRANCH  30  31
ATOM     31  O   UNL     1       0.622  -3.201  -6.071  1.00  0.00    -0.376 OA
BRANCH  31  32
ATOM     32  C   UNL     1       1.388  -3.325  -7.261  1.00  0.00     0.202 C 
BRANCH  32  33
ATOM     33  C   UNL     1       0.929  -2.474  -8.455  1.00  0.00     0.261 C 
BRANCH  33  34
ATOM     34  O   UNL     1      -0.383  -2.759  -8.967  1.00  0.00    -0.460 OA
BRANCH  34  35
ATOM     35  C   UNL     1      -0.655  -4.021  -9.366  1.00  0.00     0.338 C 
ATOM     36  O   UNL     1       0.118  -4.959  -9.421  1.00  0.00    -0.246 OA
BRANCH  35  37
ATOM     37  C   UNL     1      -2.124  -4.126  -9.516  1.00  0.00     0.060 A 
ATOM     38  C   UNL     1      -2.807  -5.125  -8.808  1.00  0.00     0.016 A 
ATOM     39  C   UNL     1      -2.826  -3.208 -10.302  1.00  0.00     0.016 A 
ATOM     40  C   UNL     1      -4.195  -5.227  -8.912  1.00  0.00     0.010 A 
ATOM     41  C   UNL     1      -4.210  -3.333 -10.434  1.00  0.00     0.010 A 
ATOM     42  C   UNL     1      -4.894  -4.365  -9.769  1.00  0.00    -0.014 A 
BRANCH  42  43
ATOM     43  C   UNL     1      -6.269  -4.716 -10.193  1.00  0.00     0.031 A 
ATOM     44  C   UNL     1      -6.406  -5.595 -11.409  1.00  0.00     0.074 A 
ATOM     45  C   UNL     1      -7.358  -4.298  -9.524  1.00  0.00     0.049 A 
ATOM     46  N   UNL     1      -7.484  -5.996 -12.027  1.00  0.00    -0.248 NA
ATOM     47  C   UNL     1      -5.151  -6.093 -12.005  1.00  0.00     0.031 C 
ATOM     48  C   UNL     1      -7.351  -3.499  -8.301  1.00  0.00     0.029 A 
ATOM     49  N   UNL     1      -8.691  -4.495  -9.788  1.00  0.00    -0.354 N 
ATOM     50  C   UNL     1      -7.040  -6.800 -13.069  1.00  0.00     0.074 A 
ATOM     51  C   UNL     1      -5.597  -6.808 -13.026  1.00  0.00     0.031 C 
ATOM     52  C   UNL     1      -8.622  -3.269  -7.922  1.00  0.00     0.029 A 
ATOM     53  C   UNL     1      -9.533  -3.877  -8.893  1.00  0.00     0.049 A 
ATOM     54  H   UNL     1      -9.015  -5.030 -10.549  1.00  0.00     0.167 HD
ATOM     55  C   UNL     1      -7.772  -7.482 -13.977  1.00  0.00     0.037 A 
ATOM     56  C   UNL     1     -10.880  -3.799  -8.878  1.00  0.00     0.037 A 
ATOM     57  C   UNL     1      -9.207  -7.460 -14.031  1.00  0.00     0.049 A 
ATOM     58  C   UNL     1     -11.670  -4.475  -9.974  1.00  0.00     0.074 A 
ATOM     59  C   UNL     1     -10.041  -8.088 -14.938  1.00  0.00     0.029 A 
ATOM     60  N   UNL     1     -10.019  -6.775 -13.141  1.00  0.00    -0.354 N 
ATOM     61  N   UNL     1     -11.238  -5.217 -10.966  1.00  0.00    -0.248 NA
ATOM     62  C   UNL     1     -13.130  -4.296  -9.953  1.00  0.00     0.031 C 
ATOM     63  C   UNL     1     -11.360  -7.755 -14.616  1.00  0.00     0.029 A 
ATOM     64  C   UNL     1     -11.346  -6.957 -13.483  1.00  0.00     0.049 A 
ATOM     65  H   UNL     1      -9.699  -6.240 -12.379  1.00  0.00     0.167 HD
ATOM     66  C   UNL     1     -12.373  -5.619 -11.665  1.00  0.00     0.074 A 
ATOM     67  C   UNL     1     -13.511  -5.043 -10.981  1.00  0.00     0.031 C 
ATOM     68  C   UNL     1     -12.466  -6.395 -12.772  1.00  0.00     0.037 A 
BRANCH  55  69
ATOM     69  C   UNL     1      -7.038  -8.311 -14.989  1.00  0.00     0.058 A 
ATOM     70  C   UNL     1      -6.978  -7.912 -16.332  1.00  0.00     0.135 A 
ATOM     71  C   UNL     1      -6.460  -9.541 -14.638  1.00  0.00     0.135 A 
ATOM     72  F   UNL     1      -7.498  -6.735 -16.713  1.00  0.00    -0.206 F 
ATOM     73  C   UNL     1      -6.399  -8.722 -17.302  1.00  0.00     0.059 A 
ATOM     74  C   UNL     1      -5.857 -10.358 -15.589  1.00  0.00     0.059 A 
ATOM     75  F   UNL     1      -6.462  -9.948 -13.359  1.00  0.00    -0.206 F 
ATOM     76  C   UNL     1      -5.852  -9.949 -16.922  1.00  0.00     0.060 A 
BRANCH  76  77
ATOM     77  S   UNL     1      -5.122 -10.996 -18.198  1.00  0.00     0.124 S 
ATOM     78  O   UNL     1      -6.297 -11.398 -18.964  1.00  0.00    -0.237 OA
ATOM     79  O   UNL     1      -4.211 -10.073 -18.867  1.00  0.00    -0.237 OA
ATOM     80  O   UNL     1      -4.475 -12.059 -17.435  1.00  0.00    -0.744 OA
ENDBRANCH  76  77
ENDBRANCH  55  69
BRANCH  56  81
ATOM     81  C   UNL     1     -11.584  -3.045  -7.804  1.00  0.00     0.058 A 
ATOM     82  C   UNL     1     -11.504  -1.647  -7.719  1.00  0.00     0.135 A 
ATOM     83  C   UNL     1     -12.390  -3.708  -6.865  1.00  0.00     0.135 A 
ATOM     84  F   UNL     1     -10.751  -0.961  -8.592  1.00  0.00    -0.206 F 
ATOM     85  C   UNL     1     -12.188  -0.934  -6.739  1.00  0.00     0.059 A 
ATOM     86  C   UNL     1     -13.105  -3.016  -5.891  1.00  0.00     0.059 A 
ATOM     87  F   UNL     1     -12.517  -5.043  -6.917  1.00  0.00    -0.206 F 
ATOM     88  C   UNL     1     -12.988  -1.628  -5.830  1.00  0.00     0.060 A 
BRANCH  88  89
ATOM     89  S   UNL     1     -13.897  -0.682  -4.588  1.00  0.00     0.124 S 
ATOM     90  O   UNL     1     -12.822  -0.265  -3.694  1.00  0.00    -0.237 OA
ATOM     91  O   UNL     1     -14.503   0.376  -5.390  1.00  0.00    -0.237 OA
ATOM     92  O   UNL     1     -14.831  -1.659  -4.036  1.00  0.00    -0.744 OA
ENDBRANCH  88  89
ENDBRANCH  56  81
BRANCH  68  93
ATOM     93  C   UNL     1     -13.837  -6.713 -13.302  1.00  0.00     0.058 A 
ATOM     94  C   UNL     1     -14.353  -8.014 -13.192  1.00  0.00     0.135 A 
ATOM     95  C   UNL     1     -14.588  -5.764 -14.012  1.00  0.00     0.135 A 
ATOM     96  F   UNL     1     -13.669  -8.961 -12.530  1.00  0.00    -0.206 F 
ATOM     97  C   UNL     1     -15.557  -8.371 -13.789  1.00  0.00     0.059 A 
ATOM     98  C   UNL     1     -15.808  -6.093 -14.596  1.00  0.00     0.059 A 
ATOM     99  F   UNL     1     -14.140  -4.505 -14.139  1.00  0.00    -0.206 F 
ATOM    100  C   UNL     1     -16.274  -7.404 -14.496  1.00  0.00     0.060 A 
BRANCH 100 101
ATOM    101  S   UNL     1     -17.831  -7.886 -15.271  1.00  0.00     0.124 S 
ATOM    102  O   UNL     1     -17.370  -8.721 -16.376  1.00  0.00    -0.237 OA
ATOM    103  O   UNL     1     -18.513  -8.587 -14.187  1.00  0.00    -0.237 OA
ATOM    104  O   UNL     1     -18.428  -6.610 -15.655  1.00  0.00    -0.744 OA
ENDBRANCH 100 101
ENDBRANCH  68  93
ENDBRANCH  42  43
ENDBRANCH  35  37
ENDBRANCH  34  35
ENDBRANCH  33  34
ENDBRANCH  32  33
ENDBRANCH  31  32
ENDBRANCH  30  31
ENDBRANCH  29  30
ENDBRANCH  28  29
ENDBRANCH   1  28
TORSDOF 27
