REMARK SMILES O=C(OCCOCCOCCOCCOC(=O)c1ccc(C[NH2+][C@@H]2CCCC[C@H]2O)nc1)c1ccc(-c2c3nc(c(-c4c(F)cc(S(=O)(=O)[O-])cc4F)c4ccc([nH]4)c(-c4c(F)cc(S(=O)(=O)[O-])cc4F)c4nc(c(-c5c(F)cc(S(=O)(=O)[O-])cc5F)c5ccc2[nH]5)C=C4)C=C3)cc1
REMARK SMILES IDX 10 1 9 2 8 3 7 4 6 5 5 6 4 7 3 8 2 9 1 10 33 11 34 12 98 13
REMARK SMILES IDX 35 14 97 15 36 16 37 17 38 18 91 19 39 20 96 21 90 22 92 23
REMARK SMILES IDX 40 24 95 25 89 26 88 27 41 29 75 30 54 31 74 32 55 33 58 34
REMARK SMILES IDX 73 35 93 36 56 37 57 38 72 40 94 41 59 42 42 43 43 44 52 45
REMARK SMILES IDX 44 46 45 47 51 48 53 49 46 50 47 51 48 52 49 53 50 54 76 55
REMARK SMILES IDX 77 56 86 57 78 58 79 59 85 60 87 61 80 62 81 63 82 64 83 65
REMARK SMILES IDX 84 66 60 67 61 68 70 69 62 70 63 71 69 72 71 73 64 74 65 75
REMARK SMILES IDX 66 76 67 77 68 78 11 79 12 80 13 81 14 82 15 83 16 84 17 85
REMARK SMILES IDX 18 86 19 87 32 88 20 89 31 90 21 91 22 92 23 93 24 96 25 97
REMARK SMILES IDX 29 98 26 99 28 100 27 101 30 102
REMARK H PARENT 92 28 58 39 23 94 23 95 30 103
REMARK Flexibility Score: inf
ROOT
ATOM      1  C   UNL     1       8.674  -7.771   4.501  1.00  0.00     0.188 C 
ENDROOT
BRANCH   1   2
ATOM      2  O   UNL     1       8.728  -6.496   5.135  1.00  0.00    -0.377 OA
BRANCH   2   3
ATOM      3  C   UNL     1       8.182  -6.409   6.450  1.00  0.00     0.188 C 
BRANCH   3   4
ATOM      4  C   UNL     1       6.757  -6.939   6.606  1.00  0.00     0.188 C 
BRANCH   4   5
ATOM      5  O   UNL     1       6.699  -8.350   6.387  1.00  0.00    -0.376 OA
BRANCH   5   6
ATOM      6  C   UNL     1       5.579  -8.801   5.625  1.00  0.00     0.202 C 
BRANCH   6   7
ATOM      7  C   UNL     1       4.301  -9.008   6.441  1.00  0.00     0.261 C 
BRANCH   7   8
ATOM      8  O   UNL     1       4.131  -7.994   7.441  1.00  0.00    -0.460 OA
BRANCH   8   9
ATOM      9  C   UNL     1       4.550  -8.021   8.731  1.00  0.00     0.338 C 
ATOM     10  O   UNL     1       4.289  -7.048   9.439  1.00  0.00    -0.246 OA
BRANCH   9  11
ATOM     11  C   UNL     1       5.303  -9.159   9.357  1.00  0.00     0.060 A 
ATOM     12  C   UNL     1       6.055 -10.121   8.678  1.00  0.00     0.016 A 
ATOM     13  C   UNL     1       5.282  -9.225  10.762  1.00  0.00     0.016 A 
ATOM     14  C   UNL     1       6.689 -11.161   9.344  1.00  0.00     0.010 A 
ATOM     15  C   UNL     1       5.933 -10.256  11.447  1.00  0.00     0.010 A 
ATOM     16  C   UNL     1       6.602 -11.250  10.727  1.00  0.00    -0.014 A 
BRANCH  16  17
ATOM     17  C   UNL     1       7.021 -12.513  11.357  1.00  0.00     0.031 A 
ATOM     18  C   UNL     1       5.944 -13.500  11.694  1.00  0.00     0.074 A 
ATOM     19  C   UNL     1       8.325 -12.811  11.480  1.00  0.00     0.049 A 
ATOM     20  N   UNL     1       6.032 -14.650  12.302  1.00  0.00    -0.248 NA
ATOM     21  C   UNL     1       4.576 -13.146  11.271  1.00  0.00     0.031 C 
ATOM     22  C   UNL     1       9.431 -11.961  11.033  1.00  0.00     0.029 A 
ATOM     23  N   UNL     1       8.941 -13.920  11.992  1.00  0.00    -0.354 N 
ATOM     24  C   UNL     1       4.732 -15.137  12.366  1.00  0.00     0.074 A 
ATOM     25  C   UNL     1       3.872 -14.165  11.735  1.00  0.00     0.031 C 
ATOM     26  C   UNL     1      10.593 -12.584  11.291  1.00  0.00     0.029 A 
ATOM     27  C   UNL     1      10.313 -13.843  11.974  1.00  0.00     0.049 A 
ATOM     28  H   UNL     1       8.449 -14.699  12.340  1.00  0.00     0.167 HD
ATOM     29  C   UNL     1       4.303 -16.296  12.916  1.00  0.00     0.037 A 
ATOM     30  C   UNL     1      11.227 -14.685  12.493  1.00  0.00     0.037 A 
ATOM     31  C   UNL     1       5.194 -17.236  13.537  1.00  0.00     0.049 A 
ATOM     32  C   UNL     1      10.722 -15.923  13.188  1.00  0.00     0.074 A 
ATOM     33  C   UNL     1       4.894 -18.409  14.199  1.00  0.00     0.029 A 
ATOM     34  N   UNL     1       6.578 -17.097  13.564  1.00  0.00    -0.354 N 
ATOM     35  N   UNL     1       9.483 -16.341  13.328  1.00  0.00    -0.248 NA
ATOM     36  C   UNL     1      11.725 -16.794  13.811  1.00  0.00     0.031 C 
ATOM     37  C   UNL     1       6.094 -18.959  14.664  1.00  0.00     0.029 A 
ATOM     38  C   UNL     1       7.146 -18.156  14.245  1.00  0.00     0.049 A 
ATOM     39  H   UNL     1       7.078 -16.353  13.157  1.00  0.00     0.167 HD
ATOM     40  C   UNL     1       9.558 -17.532  14.039  1.00  0.00     0.074 A 
ATOM     41  C   UNL     1      10.967 -17.773  14.289  1.00  0.00     0.031 C 
ATOM     42  C   UNL     1       8.561 -18.353  14.455  1.00  0.00     0.037 A 
BRANCH  29  43
ATOM     43  C   UNL     1       2.820 -16.537  12.935  1.00  0.00     0.058 A 
ATOM     44  C   UNL     1       2.095 -16.838  11.771  1.00  0.00     0.135 A 
ATOM     45  C   UNL     1       2.103 -16.407  14.135  1.00  0.00     0.135 A 
ATOM     46  F   UNL     1       2.724 -16.938  10.589  1.00  0.00    -0.206 F 
ATOM     47  C   UNL     1       0.708 -16.966  11.789  1.00  0.00     0.059 A 
ATOM     48  C   UNL     1       0.720 -16.555  14.182  1.00  0.00     0.059 A 
ATOM     49  F   UNL     1       2.743 -16.104  15.275  1.00  0.00    -0.206 F 
ATOM     50  C   UNL     1       0.029 -16.815  13.000  1.00  0.00     0.060 A 
BRANCH  50  51
ATOM     51  S   UNL     1      -1.772 -16.950  13.005  1.00  0.00     0.124 S 
ATOM     52  O   UNL     1      -2.159 -15.694  12.368  1.00  0.00    -0.237 OA
ATOM     53  O   UNL     1      -1.998 -18.156  12.216  1.00  0.00    -0.237 OA
ATOM     54  O   UNL     1      -2.100 -17.061  14.423  1.00  0.00    -0.744 OA
ENDBRANCH  50  51
ENDBRANCH  29  43
BRANCH  30  55
ATOM     55  C   UNL     1      12.678 -14.358  12.424  1.00  0.00     0.058 A 
ATOM     56  C   UNL     1      13.572 -15.134  11.672  1.00  0.00     0.135 A 
ATOM     57  C   UNL     1      13.201 -13.244  13.102  1.00  0.00     0.135 A 
ATOM     58  F   UNL     1      13.130 -16.215  11.011  1.00  0.00    -0.206 F 
ATOM     59  C   UNL     1      14.929 -14.825  11.601  1.00  0.00     0.059 A 
ATOM     60  C   UNL     1      14.547 -12.899  13.025  1.00  0.00     0.059 A 
ATOM     61  F   UNL     1      12.393 -12.460  13.833  1.00  0.00    -0.206 F 
ATOM     62  C   UNL     1      15.407 -13.702  12.280  1.00  0.00     0.060 A 
BRANCH  62  63
ATOM     63  S   UNL     1      17.159 -13.281  12.146  1.00  0.00     0.124 S 
ATOM     64  O   UNL     1      17.774 -14.316  12.969  1.00  0.00    -0.237 OA
ATOM     65  O   UNL     1      17.392 -13.386  10.709  1.00  0.00    -0.237 OA
ATOM     66  O   UNL     1      17.221 -11.926  12.685  1.00  0.00    -0.744 OA
ENDBRANCH  62  63
ENDBRANCH  30  55
BRANCH  42  67
ATOM     67  C   UNL     1       8.965 -19.599  15.186  1.00  0.00     0.058 A 
ATOM     68  C   UNL     1       9.399 -19.560  16.519  1.00  0.00     0.135 A 
ATOM     69  C   UNL     1       8.838 -20.851  14.565  1.00  0.00     0.135 A 
ATOM     70  F   UNL     1       9.540 -18.384  17.151  1.00  0.00    -0.206 F 
ATOM     71  C   UNL     1       9.709 -20.725  17.210  1.00  0.00     0.059 A 
ATOM     72  C   UNL     1       9.117 -22.030  15.245  1.00  0.00     0.059 A 
ATOM     73  F   UNL     1       8.414 -20.936  13.294  1.00  0.00    -0.206 F 
ATOM     74  C   UNL     1       9.560 -21.955  16.565  1.00  0.00     0.060 A 
BRANCH  74  75
ATOM     75  S   UNL     1       9.915 -23.463  17.489  1.00  0.00     0.124 S 
ATOM     76  O   UNL     1      11.374 -23.453  17.518  1.00  0.00    -0.237 OA
ATOM     77  O   UNL     1       9.253 -23.212  18.765  1.00  0.00    -0.237 OA
ATOM     78  O   UNL     1       9.310 -24.512  16.673  1.00  0.00    -0.744 OA
ENDBRANCH  74  75
ENDBRANCH  42  67
ENDBRANCH  16  17
ENDBRANCH   9  11
ENDBRANCH   8   9
ENDBRANCH   7   8
ENDBRANCH   6   7
ENDBRANCH   5   6
ENDBRANCH   4   5
ENDBRANCH   3   4
ENDBRANCH   2   3
ENDBRANCH   1   2
BRANCH   1  79
ATOM     79  C   UNL     1       9.322  -8.989   5.197  1.00  0.00     0.188 C 
BRANCH  79  80
ATOM     80  O   UNL     1       9.916  -8.720   6.459  1.00  0.00    -0.376 OA
BRANCH  80  81
ATOM     81  C   UNL     1      11.341  -8.711   6.479  1.00  0.00     0.202 C 
BRANCH  81  82
ATOM     82  C   UNL     1      11.965  -7.437   5.892  1.00  0.00     0.261 C 
BRANCH  82  83
ATOM     83  O   UNL     1      11.684  -7.219   4.497  1.00  0.00    -0.460 OA
BRANCH  83  84
ATOM     84  C   UNL     1      12.164  -8.124   3.618  1.00  0.00     0.339 C 
ATOM     85  O   UNL     1      12.899  -9.066   3.854  1.00  0.00    -0.246 OA
BRANCH  84  86
ATOM     86  C   UNL     1      11.461  -7.927   2.341  1.00  0.00     0.078 A 
ATOM     87  C   UNL     1      11.216  -6.670   1.786  1.00  0.00     0.019 A 
ATOM     88  C   UNL     1      10.897  -9.037   1.735  1.00  0.00     0.127 A 
ATOM     89  C   UNL     1      10.414  -6.572   0.647  1.00  0.00     0.031 A 
ATOM     90  N   UNL     1      10.122  -8.966   0.629  1.00  0.00    -0.254 NA
ATOM     91  C   UNL     1       9.885  -7.736   0.092  1.00  0.00     0.094 A 
BRANCH  91  92
ATOM     92  C   UNL     1       9.027  -7.674  -1.168  1.00  0.00     0.318 C 
BRANCH  92  93
ATOM     93  N   UNL     1       8.976  -8.976  -1.827  1.00  0.00    -0.337 N 
ATOM     94  H   UNL     1       8.251  -9.528  -1.368  1.00  0.00     0.346 HD
ATOM     95  H   UNL     1       9.916  -9.362  -1.741  1.00  0.00     0.346 HD
BRANCH  93  96
ATOM     96  C   UNL     1       8.688  -8.964  -3.258  1.00  0.00     0.211 C 
ATOM     97  C   UNL     1       7.778 -10.177  -3.529  1.00  0.00     0.068 C 
ATOM     98  C   UNL     1       9.955  -9.049  -4.152  1.00  0.00     0.172 C 
ATOM     99  C   UNL     1       8.508 -11.510  -3.352  1.00  0.00     0.006 C 
ATOM    100  C   UNL     1      10.684 -10.395  -4.028  1.00  0.00     0.038 C 
ATOM    101  C   UNL     1       9.749 -11.588  -4.235  1.00  0.00     0.003 C 
BRANCH  98 102
ATOM    102  O   UNL     1       9.574  -8.843  -5.519  1.00  0.00    -0.387 OA
ATOM    103  H   UNL     1       8.961  -9.543  -5.792  1.00  0.00     0.211 HD
ENDBRANCH  98 102
ENDBRANCH  93  96
ENDBRANCH  92  93
ENDBRANCH  91  92
ENDBRANCH  84  86
ENDBRANCH  83  84
ENDBRANCH  82  83
ENDBRANCH  81  82
ENDBRANCH  80  81
ENDBRANCH  79  80
ENDBRANCH   1  79
TORSDOF 27
