REMARK SMILES C[C@H]([C@@H]1CCCO1)n1c(SCC(=O)OCCOCCOCCOCCOC(=O)c2ccc(-c3c4nc(c(-c5c(F)cc(S(=O)(=O)[O-])cc5F)c5ccc([nH]5)c(-c5c(F)cc(S(=O)(=O)[O-])cc5F)c5nc(c(-c6c(F)cc(S(=O)(=O)[O-])cc6F)c6ccc3[nH]6)C=C5)C=C4)cc2)nc2cnccc21
REMARK SMILES IDX 19 1 18 2 17 3 16 4 15 5 14 6 12 7 13 8 11 9 10 10 9 11 8 12
REMARK SMILES IDX 101 13 95 14 96 15 100 16 97 17 99 18 98 19 2 20 1 21 3 22
REMARK SMILES IDX 4 23 7 24 5 25 6 26 20 27 21 28 22 29 23 30 24 31 25 32
REMARK SMILES IDX 26 33 27 34 28 35 29 36 30 37 94 38 31 39 93 40 32 41 33 42
REMARK SMILES IDX 34 43 87 44 35 45 92 46 86 47 88 48 36 49 91 50 85 51 84 52
REMARK SMILES IDX 37 54 71 55 50 56 70 57 51 58 54 59 69 60 89 61 52 62 53 63
REMARK SMILES IDX 68 65 90 66 55 67 38 68 39 69 48 70 40 71 41 72 47 73 49 74
REMARK SMILES IDX 42 75 43 76 44 77 45 78 46 79 72 80 73 81 82 82 74 83 75 84
REMARK SMILES IDX 81 85 83 86 76 87 77 88 78 89 79 90 80 91 56 92 57 93 66 94
REMARK SMILES IDX 58 95 59 96 65 97 67 98 60 99 61 100 62 101 63 102 64 103
REMARK H PARENT 88 53 54 64
REMARK Flexibility Score: inf
ROOT
ATOM      1  C   UNL     1      -1.059   2.318   2.197  1.00  0.00     0.188 C 
ENDROOT
BRANCH   1   2
ATOM      2  C   UNL     1       0.282   1.579   2.272  1.00  0.00     0.188 C 
BRANCH   2   3
ATOM      3  O   UNL     1       1.289   2.124   3.104  1.00  0.00    -0.376 OA
BRANCH   3   4
ATOM      4  C   UNL     1       2.144   3.170   2.669  1.00  0.00     0.202 C 
BRANCH   4   5
ATOM      5  C   UNL     1       1.632   4.312   1.783  1.00  0.00     0.261 C 
BRANCH   5   6
ATOM      6  O   UNL     1       0.726   3.972   0.721  1.00  0.00    -0.463 OA
BRANCH   6   7
ATOM      7  C   UNL     1       1.084   3.048  -0.208  1.00  0.00     0.316 C 
ATOM      8  O   UNL     1       2.181   2.514  -0.252  1.00  0.00    -0.251 OA
BRANCH   7   9
ATOM      9  C   UNL     1      -0.084   2.803  -1.145  1.00  0.00     0.200 C 
BRANCH   9  10
ATOM     10  S   UNL     1      -0.915   1.219  -1.384  1.00  0.00    -0.076 SA
BRANCH  10  11
ATOM     11  C   UNL     1      -1.406   0.122  -0.125  1.00  0.00     0.170 A 
ATOM     12  N   UNL     1      -0.756  -0.974   0.464  1.00  0.00    -0.313 N 
ATOM     13  C   UNL     1      -1.742  -1.651   1.221  1.00  0.00     0.072 A 
ATOM     14  N   UNL     1      -2.710   0.053   0.106  1.00  0.00    -0.221 NA
ATOM     15  C   UNL     1      -2.938  -1.022   0.922  1.00  0.00     0.108 A 
ATOM     16  C   UNL     1      -1.693  -2.730   2.120  1.00  0.00     0.049 A 
ATOM     17  C   UNL     1      -4.125  -1.517   1.482  1.00  0.00     0.141 A 
ATOM     18  C   UNL     1      -2.909  -3.118   2.666  1.00  0.00     0.113 A 
ATOM     19  N   UNL     1      -4.098  -2.556   2.363  1.00  0.00    -0.262 NA
BRANCH  12  20
ATOM     20  C   UNL     1       0.594  -1.565   0.449  1.00  0.00     0.116 C 
ATOM     21  C   UNL     1       1.425  -1.309   1.722  1.00  0.00     0.034 C 
BRANCH  20  22
ATOM     22  C   UNL     1       1.488  -1.591  -0.810  1.00  0.00     0.141 C 
ATOM     23  C   UNL     1       1.879  -0.268  -1.413  1.00  0.00     0.036 C 
ATOM     24  O   UNL     1       0.857  -2.378  -1.834  1.00  0.00    -0.376 OA
ATOM     25  C   UNL     1       1.389  -0.336  -2.843  1.00  0.00     0.031 C 
ATOM     26  C   UNL     1       0.401  -1.483  -2.845  1.00  0.00     0.160 C 
ENDBRANCH  20  22
ENDBRANCH  12  20
ENDBRANCH  10  11
ENDBRANCH   9  10
ENDBRANCH   7   9
ENDBRANCH   6   7
ENDBRANCH   5   6
ENDBRANCH   4   5
ENDBRANCH   3   4
ENDBRANCH   2   3
ENDBRANCH   1   2
BRANCH   1  27
ATOM     27  O   UNL     1      -1.700   2.499   3.429  1.00  0.00    -0.377 OA
BRANCH  27  28
ATOM     28  C   UNL     1      -0.826   2.653   4.512  1.00  0.00     0.188 C 
BRANCH  28  29
ATOM     29  C   UNL     1      -0.604   1.443   5.418  1.00  0.00     0.188 C 
BRANCH  29  30
ATOM     30  O   UNL     1      -0.916   0.141   4.978  1.00  0.00    -0.376 OA
BRANCH  30  31
ATOM     31  C   UNL     1      -2.188  -0.143   4.422  1.00  0.00     0.202 C 
BRANCH  31  32
ATOM     32  C   UNL     1      -3.539   0.537   4.758  1.00  0.00     0.261 C 
BRANCH  32  33
ATOM     33  O   UNL     1      -3.475   1.905   5.156  1.00  0.00    -0.460 OA
BRANCH  33  34
ATOM     34  C   UNL     1      -4.071   2.310   6.298  1.00  0.00     0.338 C 
ATOM     35  O   UNL     1      -4.854   1.684   6.995  1.00  0.00    -0.246 OA
BRANCH  34  36
ATOM     36  C   UNL     1      -3.299   3.505   6.717  1.00  0.00     0.060 A 
ATOM     37  C   UNL     1      -3.156   4.599   5.854  1.00  0.00     0.016 A 
ATOM     38  C   UNL     1      -2.362   3.268   7.740  1.00  0.00     0.016 A 
ATOM     39  C   UNL     1      -1.960   5.323   5.908  1.00  0.00     0.010 A 
ATOM     40  C   UNL     1      -1.152   3.965   7.761  1.00  0.00     0.010 A 
ATOM     41  C   UNL     1      -0.906   4.933   6.789  1.00  0.00    -0.014 A 
BRANCH  41  42
ATOM     42  C   UNL     1       0.330   5.744   6.778  1.00  0.00     0.031 A 
ATOM     43  C   UNL     1      -0.076   7.144   7.029  1.00  0.00     0.074 A 
ATOM     44  C   UNL     1       1.640   5.397   6.709  1.00  0.00     0.049 A 
ATOM     45  N   UNL     1      -0.035   8.139   6.209  1.00  0.00    -0.248 NA
ATOM     46  C   UNL     1      -0.913   7.362   8.227  1.00  0.00     0.031 C 
ATOM     47  C   UNL     1       2.220   4.052   6.729  1.00  0.00     0.029 A 
ATOM     48  N   UNL     1       2.767   6.196   6.706  1.00  0.00    -0.354 N 
ATOM     49  C   UNL     1      -0.654   9.170   6.902  1.00  0.00     0.074 A 
ATOM     50  C   UNL     1      -1.392   8.578   7.986  1.00  0.00     0.031 C 
ATOM     51  C   UNL     1       3.548   4.132   6.982  1.00  0.00     0.029 A 
ATOM     52  C   UNL     1       3.947   5.528   7.050  1.00  0.00     0.049 A 
ATOM     53  H   UNL     1       2.741   7.154   6.482  1.00  0.00     0.167 HD
ATOM     54  C   UNL     1      -0.228  10.450   6.777  1.00  0.00     0.037 A 
ATOM     55  C   UNL     1       5.136   6.074   7.437  1.00  0.00     0.037 A 
ATOM     56  C   UNL     1       0.589  10.639   5.617  1.00  0.00     0.049 A 
ATOM     57  C   UNL     1       5.165   7.479   6.962  1.00  0.00     0.074 A 
ATOM     58  C   UNL     1       0.375  10.786   4.265  1.00  0.00     0.029 A 
ATOM     59  N   UNL     1       1.898  10.281   5.793  1.00  0.00    -0.354 N 
ATOM     60  N   UNL     1       5.224   7.821   5.705  1.00  0.00    -0.248 NA
ATOM     61  C   UNL     1       4.800   8.549   7.885  1.00  0.00     0.031 C 
ATOM     62  C   UNL     1       1.582  10.384   3.623  1.00  0.00     0.029 A 
ATOM     63  C   UNL     1       2.513  10.029   4.596  1.00  0.00     0.049 A 
ATOM     64  H   UNL     1       2.341  10.212   6.669  1.00  0.00     0.167 HD
ATOM     65  C   UNL     1       4.503   8.996   5.639  1.00  0.00     0.074 A 
ATOM     66  C   UNL     1       4.410   9.477   7.010  1.00  0.00     0.031 C 
ATOM     67  C   UNL     1       3.764   9.302   4.538  1.00  0.00     0.037 A 
BRANCH  54  68
ATOM     68  C   UNL     1      -0.159  11.349   7.976  1.00  0.00     0.058 A 
ATOM     69  C   UNL     1      -0.142  12.740   7.823  1.00  0.00     0.135 A 
ATOM     70  C   UNL     1       0.116  10.862   9.278  1.00  0.00     0.135 A 
ATOM     71  F   UNL     1      -0.311  13.291   6.611  1.00  0.00    -0.206 F 
ATOM     72  C   UNL     1       0.096  13.592   8.902  1.00  0.00     0.059 A 
ATOM     73  C   UNL     1       0.279  11.687  10.376  1.00  0.00     0.059 A 
ATOM     74  F   UNL     1       0.327   9.559   9.516  1.00  0.00    -0.206 F 
ATOM     75  C   UNL     1       0.288  13.055  10.176  1.00  0.00     0.060 A 
BRANCH  75  76
ATOM     76  S   UNL     1       0.601  14.150  11.568  1.00  0.00     0.124 S 
ATOM     77  O   UNL     1       1.925  14.665  11.243  1.00  0.00    -0.237 OA
ATOM     78  O   UNL     1      -0.503  15.098  11.456  1.00  0.00    -0.237 OA
ATOM     79  O   UNL     1       0.534  13.256  12.721  1.00  0.00    -0.744 OA
ENDBRANCH  75  76
ENDBRANCH  54  68
BRANCH  55  80
ATOM     80  C   UNL     1       6.134   5.585   8.447  1.00  0.00     0.058 A 
ATOM     81  C   UNL     1       7.378   6.230   8.632  1.00  0.00     0.135 A 
ATOM     82  C   UNL     1       5.767   4.679   9.460  1.00  0.00     0.135 A 
ATOM     83  F   UNL     1       7.827   7.109   7.722  1.00  0.00    -0.206 F 
ATOM     84  C   UNL     1       8.155   6.059   9.788  1.00  0.00     0.059 A 
ATOM     85  C   UNL     1       6.529   4.483  10.614  1.00  0.00     0.059 A 
ATOM     86  F   UNL     1       4.599   4.025   9.415  1.00  0.00    -0.206 F 
ATOM     87  C   UNL     1       7.701   5.207  10.792  1.00  0.00     0.060 A 
BRANCH  87  88
ATOM     88  S   UNL     1       8.559   5.157  12.386  1.00  0.00     0.124 S 
ATOM     89  O   UNL     1       9.822   4.518  12.034  1.00  0.00    -0.237 OA
ATOM     90  O   UNL     1       8.635   6.571  12.737  1.00  0.00    -0.237 OA
ATOM     91  O   UNL     1       7.668   4.357  13.224  1.00  0.00    -0.744 OA
ENDBRANCH  87  88
ENDBRANCH  55  80
BRANCH  67  92
ATOM     92  C   UNL     1       4.208   8.752   3.218  1.00  0.00     0.058 A 
ATOM     93  C   UNL     1       4.203   7.397   2.856  1.00  0.00     0.135 A 
ATOM     94  C   UNL     1       4.578   9.685   2.234  1.00  0.00     0.135 A 
ATOM     95  F   UNL     1       3.788   6.449   3.712  1.00  0.00    -0.206 F 
ATOM     96  C   UNL     1       4.568   6.990   1.571  1.00  0.00     0.059 A 
ATOM     97  C   UNL     1       4.898   9.305   0.937  1.00  0.00     0.059 A 
ATOM     98  F   UNL     1       4.577  10.998   2.518  1.00  0.00    -0.206 F 
ATOM     99  C   UNL     1       4.893   7.953   0.614  1.00  0.00     0.060 A 
BRANCH  99 100
ATOM    100  S   UNL     1       5.227   7.425  -1.079  1.00  0.00     0.124 S 
ATOM    101  O   UNL     1       6.452   6.649  -0.922  1.00  0.00    -0.237 OA
ATOM    102  O   UNL     1       4.026   6.658  -1.401  1.00  0.00    -0.237 OA
ATOM    103  O   UNL     1       5.370   8.681  -1.809  1.00  0.00    -0.744 OA
ENDBRANCH  99 100
ENDBRANCH  67  92
ENDBRANCH  41  42
ENDBRANCH  34  36
ENDBRANCH  33  34
ENDBRANCH  32  33
ENDBRANCH  31  32
ENDBRANCH  30  31
ENDBRANCH  29  30
ENDBRANCH  28  29
ENDBRANCH  27  28
ENDBRANCH   1  27
TORSDOF 27
