REMARK SMILES CSCc1ccc(C(=O)N[C@H]2C=C[C@@H](C(=O)OCCOCCOCCOCCOC(=O)c3ccc(-c4c5nc(c(-c6c(F)cc(S(=O)(=O)[O-])cc6F)c6ccc([nH]6)c(-c6c(F)cc(S(=O)(=O)[O-])cc6F)c6nc(c(-c7c(F)cc(S(=O)(=O)[O-])cc7F)c7ccc4[nH]7)C=C6)C=C5)cc3)C2)o1
REMARK SMILES IDX 22 1 21 2 20 3 19 4 18 5 17 6 15 7 16 8 14 9 11 10 12 11
REMARK SMILES IDX 98 12 13 13 10 14 8 15 9 16 7 18 4 19 5 20 99 21 6 22 3 23
REMARK SMILES IDX 2 24 1 25 23 26 24 27 25 28 26 29 27 30 28 31 29 32 30 33
REMARK SMILES IDX 31 34 32 35 33 36 97 37 34 38 96 39 35 40 36 41 37 42 90 43
REMARK SMILES IDX 38 44 95 45 89 46 91 47 39 48 94 49 88 50 87 51 40 53 74 54
REMARK SMILES IDX 53 55 73 56 54 57 57 58 72 59 92 60 55 61 56 62 71 64 93 65
REMARK SMILES IDX 58 66 41 67 42 68 51 69 43 70 44 71 50 72 52 73 45 74 46 75
REMARK SMILES IDX 47 76 48 77 49 78 75 79 76 80 85 81 77 82 78 83 84 84 86 85
REMARK SMILES IDX 79 86 80 87 81 88 82 89 83 90 59 91 60 92 69 93 61 94 62 95
REMARK SMILES IDX 68 96 70 97 63 98 64 99 65 100 66 101 67 102
REMARK H PARENT 10 17 91 52 57 63
REMARK Flexibility Score: inf
ROOT
ATOM      1  C   UNL     1      -1.800  -7.109   7.284  1.00  0.00     0.188 C 
ENDROOT
BRANCH   1   2
ATOM      2  C   UNL     1      -0.771  -8.247   7.322  1.00  0.00     0.188 C 
BRANCH   2   3
ATOM      3  O   UNL     1      -0.461  -8.932   8.524  1.00  0.00    -0.376 OA
BRANCH   3   4
ATOM      4  C   UNL     1      -0.158  -8.233   9.726  1.00  0.00     0.202 C 
BRANCH   4   5
ATOM      5  C   UNL     1       0.804  -7.038   9.761  1.00  0.00     0.261 C 
BRANCH   5   6
ATOM      6  O   UNL     1       0.538  -6.033   8.778  1.00  0.00    -0.463 OA
BRANCH   6   7
ATOM      7  C   UNL     1       1.467  -5.886   7.811  1.00  0.00     0.312 C 
ATOM      8  O   UNL     1       2.521  -6.513   7.747  1.00  0.00    -0.252 OA
BRANCH   7   9
ATOM      9  C   UNL     1       1.043  -4.914   6.726  1.00  0.00     0.124 C 
ATOM     10  C   UNL     1       0.083  -2.808   6.107  1.00  0.00     0.106 C 
ATOM     11  C   UNL     1       1.547  -2.661   6.347  1.00  0.00    -0.006 C 
ATOM     12  C   UNL     1      -0.230  -4.064   6.901  1.00  0.00     0.048 C 
ATOM     13  C   UNL     1       2.096  -3.847   6.622  1.00  0.00    -0.014 C 
BRANCH  10  14
ATOM     14  N   UNL     1      -0.632  -1.627   6.468  1.00  0.00    -0.343 N 
ATOM     15  C   UNL     1      -0.764  -0.466   5.730  1.00  0.00     0.287 C 
ATOM     16  O   UNL     1      -1.515   0.394   6.197  1.00  0.00    -0.266 OA
ATOM     17  H   UNL     1      -1.084  -1.642   7.343  1.00  0.00     0.164 HD
BRANCH  15  18
ATOM     18  C   UNL     1      -0.017  -0.278   4.486  1.00  0.00     0.191 A 
ATOM     19  C   UNL     1       0.719   0.959   2.794  1.00  0.00     0.114 A 
ATOM     20  C   UNL     1       1.369  -0.247   2.699  1.00  0.00     0.047 A 
ATOM     21  O   UNL     1      -0.106   0.958   3.879  1.00  0.00    -0.455 OA
ATOM     22  C   UNL     1       0.837  -1.056   3.717  1.00  0.00     0.056 A 
BRANCH  19  23
ATOM     23  C   UNL     1       0.794   2.197   1.988  1.00  0.00     0.144 C 
BRANCH  23  24
ATOM     24  S   UNL     1      -0.053   2.059   0.373  1.00  0.00    -0.157 SA
ATOM     25  C   UNL     1       0.745   0.582  -0.311  1.00  0.00     0.085 C 
ENDBRANCH  23  24
ENDBRANCH  19  23
ENDBRANCH  15  18
ENDBRANCH  10  14
ENDBRANCH   7   9
ENDBRANCH   6   7
ENDBRANCH   5   6
ENDBRANCH   4   5
ENDBRANCH   3   4
ENDBRANCH   2   3
ENDBRANCH   1   2
BRANCH   1  26
ATOM     26  O   UNL     1      -2.031  -6.461   8.516  1.00  0.00    -0.377 OA
BRANCH  26  27
ATOM     27  C   UNL     1      -3.179  -6.858   9.263  1.00  0.00     0.188 C 
BRANCH  27  28
ATOM     28  C   UNL     1      -3.678  -8.314   9.139  1.00  0.00     0.188 C 
BRANCH  28  29
ATOM     29  O   UNL     1      -3.811  -8.780   7.802  1.00  0.00    -0.376 OA
BRANCH  29  30
ATOM     30  C   UNL     1      -5.081  -8.693   7.172  1.00  0.00     0.202 C 
BRANCH  30  31
ATOM     31  C   UNL     1      -5.676  -7.293   6.933  1.00  0.00     0.261 C 
BRANCH  31  32
ATOM     32  O   UNL     1      -5.922  -6.494   8.101  1.00  0.00    -0.460 OA
BRANCH  32  33
ATOM     33  C   UNL     1      -6.724  -7.013   9.051  1.00  0.00     0.338 C 
ATOM     34  O   UNL     1      -7.336  -8.071   8.991  1.00  0.00    -0.246 OA
BRANCH  33  35
ATOM     35  C   UNL     1      -6.586  -6.204  10.277  1.00  0.00     0.060 A 
ATOM     36  C   UNL     1      -6.177  -6.845  11.453  1.00  0.00     0.016 A 
ATOM     37  C   UNL     1      -6.884  -4.839  10.283  1.00  0.00     0.016 A 
ATOM     38  C   UNL     1      -6.131  -6.139  12.652  1.00  0.00     0.010 A 
ATOM     39  C   UNL     1      -6.854  -4.134  11.492  1.00  0.00     0.010 A 
ATOM     40  C   UNL     1      -6.526  -4.795  12.689  1.00  0.00    -0.014 A 
BRANCH  40  41
ATOM     41  C   UNL     1      -6.791  -4.170  14.010  1.00  0.00     0.031 A 
ATOM     42  C   UNL     1      -8.215  -4.100  14.498  1.00  0.00     0.074 A 
ATOM     43  C   UNL     1      -5.783  -3.754  14.798  1.00  0.00     0.049 A 
ATOM     44  N   UNL     1      -8.682  -3.660  15.638  1.00  0.00    -0.248 NA
ATOM     45  C   UNL     1      -9.251  -4.597  13.578  1.00  0.00     0.031 C 
ATOM     46  C   UNL     1      -4.364  -3.803  14.450  1.00  0.00     0.029 A 
ATOM     47  N   UNL     1      -5.803  -3.216  16.060  1.00  0.00    -0.354 N 
ATOM     48  C   UNL     1     -10.061  -3.827  15.572  1.00  0.00     0.074 A 
ATOM     49  C   UNL     1     -10.360  -4.370  14.265  1.00  0.00     0.031 C 
ATOM     50  C   UNL     1      -3.647  -3.316  15.478  1.00  0.00     0.029 A 
ATOM     51  C   UNL     1      -4.556  -2.897  16.544  1.00  0.00     0.049 A 
ATOM     52  H   UNL     1      -6.632  -3.072  16.571  1.00  0.00     0.167 HD
ATOM     53  C   UNL     1     -10.994  -3.566  16.519  1.00  0.00     0.037 A 
ATOM     54  C   UNL     1      -4.194  -2.325  17.709  1.00  0.00     0.037 A 
ATOM     55  C   UNL     1     -10.690  -3.022  17.818  1.00  0.00     0.049 A 
ATOM     56  C   UNL     1      -5.256  -1.989  18.726  1.00  0.00     0.074 A 
ATOM     57  C   UNL     1     -11.561  -2.732  18.854  1.00  0.00     0.029 A 
ATOM     58  N   UNL     1      -9.420  -2.675  18.256  1.00  0.00    -0.354 N 
ATOM     59  N   UNL     1      -6.553  -2.178  18.662  1.00  0.00    -0.248 NA
ATOM     60  C   UNL     1      -4.802  -1.373  19.980  1.00  0.00     0.031 C 
ATOM     61  C   UNL     1     -10.825  -2.156  19.895  1.00  0.00     0.029 A 
ATOM     62  C   UNL     1      -9.487  -2.151  19.537  1.00  0.00     0.049 A 
ATOM     63  H   UNL     1      -8.593  -2.786  17.734  1.00  0.00     0.167 HD
ATOM     64  C   UNL     1      -7.065  -1.735  19.878  1.00  0.00     0.074 A 
ATOM     65  C   UNL     1      -5.934  -1.285  20.664  1.00  0.00     0.031 C 
ATOM     66  C   UNL     1      -8.352  -1.705  20.309  1.00  0.00     0.037 A 
BRANCH  53  67
ATOM     67  C   UNL     1     -12.434  -3.837  16.175  1.00  0.00     0.058 A 
ATOM     68  C   UNL     1     -12.930  -5.143  16.023  1.00  0.00     0.135 A 
ATOM     69  C   UNL     1     -13.341  -2.775  16.025  1.00  0.00     0.135 A 
ATOM     70  F   UNL     1     -12.105  -6.197  16.133  1.00  0.00    -0.206 F 
ATOM     71  C   UNL     1     -14.264  -5.384  15.710  1.00  0.00     0.059 A 
ATOM     72  C   UNL     1     -14.686  -2.993  15.743  1.00  0.00     0.059 A 
ATOM     73  F   UNL     1     -12.922  -1.506  16.154  1.00  0.00    -0.206 F 
ATOM     74  C   UNL     1     -15.136  -4.301  15.575  1.00  0.00     0.060 A 
BRANCH  74  75
ATOM     75  S   UNL     1     -16.866  -4.632  15.180  1.00  0.00     0.124 S 
ATOM     76  O   UNL     1     -16.768  -5.083  13.795  1.00  0.00    -0.237 OA
ATOM     77  O   UNL     1     -17.217  -5.658  16.157  1.00  0.00    -0.237 OA
ATOM     78  O   UNL     1     -17.513  -3.338  15.373  1.00  0.00    -0.744 OA
ENDBRANCH  74  75
ENDBRANCH  53  67
BRANCH  54  79
ATOM     79  C   UNL     1      -2.760  -2.032  17.982  1.00  0.00     0.058 A 
ATOM     80  C   UNL     1      -2.052  -2.711  18.984  1.00  0.00     0.135 A 
ATOM     81  C   UNL     1      -2.070  -1.056  17.245  1.00  0.00     0.135 A 
ATOM     82  F   UNL     1      -2.668  -3.645  19.725  1.00  0.00    -0.206 F 
ATOM     83  C   UNL     1      -0.718  -2.424  19.258  1.00  0.00     0.059 A 
ATOM     84  C   UNL     1      -0.728  -0.772  17.479  1.00  0.00     0.059 A 
ATOM     85  F   UNL     1      -2.697  -0.382  16.268  1.00  0.00    -0.206 F 
ATOM     86  C   UNL     1      -0.063  -1.455  18.496  1.00  0.00     0.060 A 
BRANCH  86  87
ATOM     87  S   UNL     1       1.682  -1.129  18.825  1.00  0.00     0.124 S 
ATOM     88  O   UNL     1       1.617  -0.441  20.109  1.00  0.00    -0.237 OA
ATOM     89  O   UNL     1       2.244  -2.476  18.848  1.00  0.00    -0.237 OA
ATOM     90  O   UNL     1       2.090  -0.307  17.689  1.00  0.00    -0.744 OA
ENDBRANCH  86  87
ENDBRANCH  54  79
BRANCH  66  91
ATOM     91  C   UNL     1      -8.602  -1.209  21.710  1.00  0.00     0.058 A 
ATOM     92  C   UNL     1      -8.416   0.135  22.070  1.00  0.00     0.135 A 
ATOM     93  C   UNL     1      -9.052  -2.094  22.705  1.00  0.00     0.135 A 
ATOM     94  F   UNL     1      -7.988   1.026  21.161  1.00  0.00    -0.206 F 
ATOM     95  C   UNL     1      -8.616   0.574  23.376  1.00  0.00     0.059 A 
ATOM     96  C   UNL     1      -9.294  -1.669  24.008  1.00  0.00     0.059 A 
ATOM     97  F   UNL     1      -9.265  -3.387  22.416  1.00  0.00    -0.206 F 
ATOM     98  C   UNL     1      -9.051  -0.338  24.339  1.00  0.00     0.060 A 
BRANCH  98  99
ATOM     99  S   UNL     1      -9.297   0.240  26.032  1.00  0.00     0.124 S 
ATOM    100  O   UNL     1      -7.920   0.414  26.485  1.00  0.00    -0.237 OA
ATOM    101  O   UNL     1     -10.059   1.469  25.835  1.00  0.00    -0.237 OA
ATOM    102  O   UNL     1     -10.032  -0.853  26.662  1.00  0.00    -0.744 OA
ENDBRANCH  98  99
ENDBRANCH  66  91
ENDBRANCH  40  41
ENDBRANCH  33  35
ENDBRANCH  32  33
ENDBRANCH  31  32
ENDBRANCH  30  31
ENDBRANCH  29  30
ENDBRANCH  28  29
ENDBRANCH  27  28
ENDBRANCH  26  27
ENDBRANCH   1  26
TORSDOF 27
