REMARK SMILES O=C(OCCOCCOCCOCCOC(=O)c1cnccc1C(=O)N1CCC(Cc2ccccc2)CC1)c1ccc(-c2c3nc(c(-c4c(F)cc(S(=O)(=O)[O-])cc4F)c4ccc([nH]4)c(-c4c(F)cc(S(=O)(=O)[O-])cc4F)c4nc(c(-c5c(F)cc(S(=O)(=O)[O-])cc5F)c5ccc2[nH]5)C=C4)C=C3)cc1
REMARK SMILES IDX 9 1 8 2 7 3 6 4 5 5 4 6 3 7 2 8 1 9 39 10 40 11 104 12 41 13
REMARK SMILES IDX 103 14 42 15 43 16 44 17 97 18 45 19 102 20 96 21 98 22
REMARK SMILES IDX 46 23 101 24 95 25 94 26 47 28 81 29 60 30 80 31 61 32 64 33
REMARK SMILES IDX 79 34 99 35 62 36 63 37 78 39 100 40 65 41 48 42 49 43 58 44
REMARK SMILES IDX 50 45 51 46 57 47 59 48 52 49 53 50 54 51 55 52 56 53 82 54
REMARK SMILES IDX 83 55 92 56 84 57 85 58 91 59 93 60 86 61 87 62 88 63 89 64
REMARK SMILES IDX 90 65 66 66 67 67 76 68 68 69 69 70 75 71 77 72 70 73 71 74
REMARK SMILES IDX 72 75 73 76 74 77 10 78 11 79 12 80 13 81 14 82 15 83 16 84
REMARK SMILES IDX 17 85 18 86 19 87 23 88 20 89 22 90 21 91 24 92 25 93 26 94
REMARK SMILES IDX 27 95 38 96 28 97 37 98 29 99 30 100 31 101 32 102 36 103
REMARK SMILES IDX 33 104 35 105 34 106
REMARK H PARENT 98 27 64 38
REMARK Flexibility Score: inf
ROOT
ATOM      1  O   UNL     1       2.875  -2.128  -3.102  1.00  0.00    -0.377 OA
ENDROOT
BRANCH   1   2
ATOM      2  C   UNL     1       2.034  -1.270  -2.322  1.00  0.00     0.188 C 
BRANCH   2   3
ATOM      3  C   UNL     1       2.271  -1.296  -0.808  1.00  0.00     0.188 C 
BRANCH   3   4
ATOM      4  O   UNL     1       3.552  -0.751  -0.511  1.00  0.00    -0.376 OA
BRANCH   4   5
ATOM      5  C   UNL     1       4.316  -1.392   0.501  1.00  0.00     0.202 C 
BRANCH   5   6
ATOM      6  C   UNL     1       3.995  -0.905   1.909  1.00  0.00     0.261 C 
BRANCH   6   7
ATOM      7  O   UNL     1       2.623  -0.514   2.045  1.00  0.00    -0.460 OA
BRANCH   7   8
ATOM      8  C   UNL     1       2.091   0.715   1.829  1.00  0.00     0.338 C 
ATOM      9  O   UNL     1       0.885   0.862   2.033  1.00  0.00    -0.246 OA
BRANCH   8  10
ATOM     10  C   UNL     1       2.866   1.918   1.382  1.00  0.00     0.060 A 
ATOM     11  C   UNL     1       4.010   1.908   0.580  1.00  0.00     0.016 A 
ATOM     12  C   UNL     1       2.333   3.170   1.737  1.00  0.00     0.016 A 
ATOM     13  C   UNL     1       4.630   3.080   0.171  1.00  0.00     0.010 A 
ATOM     14  C   UNL     1       2.946   4.359   1.330  1.00  0.00     0.010 A 
ATOM     15  C   UNL     1       4.117   4.309   0.566  1.00  0.00    -0.014 A 
BRANCH  15  16
ATOM     16  C   UNL     1       4.963   5.495   0.361  1.00  0.00     0.031 A 
ATOM     17  C   UNL     1       5.750   5.981   1.540  1.00  0.00     0.074 A 
ATOM     18  C   UNL     1       5.134   6.005  -0.871  1.00  0.00     0.049 A 
ATOM     19  N   UNL     1       6.510   7.033   1.655  1.00  0.00    -0.248 NA
ATOM     20  C   UNL     1       5.679   5.153   2.759  1.00  0.00     0.031 C 
ATOM     21  C   UNL     1       4.527   5.476  -2.095  1.00  0.00     0.029 A 
ATOM     22  N   UNL     1       5.888   7.061  -1.302  1.00  0.00    -0.354 N 
ATOM     23  C   UNL     1       6.977   7.013   2.964  1.00  0.00     0.074 A 
ATOM     24  C   UNL     1       6.419   5.848   3.607  1.00  0.00     0.031 C 
ATOM     25  C   UNL     1       4.940   6.211  -3.142  1.00  0.00     0.029 A 
ATOM     26  C   UNL     1       5.779   7.299  -2.652  1.00  0.00     0.049 A 
ATOM     27  H   UNL     1       6.455   7.600  -0.704  1.00  0.00     0.167 HD
ATOM     28  C   UNL     1       7.793   7.905   3.569  1.00  0.00     0.037 A 
ATOM     29  C   UNL     1       6.271   8.316  -3.386  1.00  0.00     0.037 A 
ATOM     30  C   UNL     1       8.326   9.050   2.886  1.00  0.00     0.049 A 
ATOM     31  C   UNL     1       7.086   9.361  -2.668  1.00  0.00     0.074 A 
ATOM     32  C   UNL     1       9.099  10.078   3.388  1.00  0.00     0.029 A 
ATOM     33  N   UNL     1       8.131   9.312   1.534  1.00  0.00    -0.354 N 
ATOM     34  N   UNL     1       7.449   9.395  -1.405  1.00  0.00    -0.248 NA
ATOM     35  C   UNL     1       7.541  10.510  -3.457  1.00  0.00     0.031 C 
ATOM     36  C   UNL     1       9.333  10.985   2.348  1.00  0.00     0.029 A 
ATOM     37  C   UNL     1       8.752  10.494   1.186  1.00  0.00     0.049 A 
ATOM     38  H   UNL     1       7.624   8.737   0.916  1.00  0.00     0.167 HD
ATOM     39  C   UNL     1       8.188  10.561  -1.250  1.00  0.00     0.074 A 
ATOM     40  C   UNL     1       8.233  11.194  -2.556  1.00  0.00     0.031 C 
ATOM     41  C   UNL     1       8.772  11.073  -0.137  1.00  0.00     0.037 A 
BRANCH  28  42
ATOM     42  C   UNL     1       8.060   7.706   5.034  1.00  0.00     0.058 A 
ATOM     43  C   UNL     1       8.866   6.662   5.516  1.00  0.00     0.135 A 
ATOM     44  C   UNL     1       7.448   8.547   5.978  1.00  0.00     0.135 A 
ATOM     45  F   UNL     1       9.443   5.803   4.661  1.00  0.00    -0.206 F 
ATOM     46  C   UNL     1       9.030   6.440   6.881  1.00  0.00     0.059 A 
ATOM     47  C   UNL     1       7.618   8.360   7.346  1.00  0.00     0.059 A 
ATOM     48  F   UNL     1       6.651   9.549   5.573  1.00  0.00    -0.206 F 
ATOM     49  C   UNL     1       8.397   7.292   7.788  1.00  0.00     0.060 A 
BRANCH  49  50
ATOM     50  S   UNL     1       8.598   6.979   9.555  1.00  0.00     0.124 S 
ATOM     51  O   UNL     1       7.780   5.782   9.734  1.00  0.00    -0.237 OA
ATOM     52  O   UNL     1      10.039   6.784   9.675  1.00  0.00    -0.237 OA
ATOM     53  O   UNL     1       8.078   8.192  10.178  1.00  0.00    -0.744 OA
ENDBRANCH  49  50
ENDBRANCH  28  42
BRANCH  29  54
ATOM     54  C   UNL     1       5.954   8.425  -4.837  1.00  0.00     0.058 A 
ATOM     55  C   UNL     1       6.952   8.331  -5.818  1.00  0.00     0.135 A 
ATOM     56  C   UNL     1       4.633   8.624  -5.277  1.00  0.00     0.135 A 
ATOM     57  F   UNL     1       8.232   8.151  -5.457  1.00  0.00    -0.206 F 
ATOM     58  C   UNL     1       6.658   8.441  -7.176  1.00  0.00     0.059 A 
ATOM     59  C   UNL     1       4.310   8.708  -6.628  1.00  0.00     0.059 A 
ATOM     60  F   UNL     1       3.633   8.716  -4.386  1.00  0.00    -0.206 F 
ATOM     61  C   UNL     1       5.332   8.626  -7.571  1.00  0.00     0.060 A 
BRANCH  61  62
ATOM     62  S   UNL     1       4.954   8.726  -9.335  1.00  0.00     0.124 S 
ATOM     63  O   UNL     1       5.501  10.034  -9.679  1.00  0.00    -0.237 OA
ATOM     64  O   UNL     1       5.672   7.572  -9.867  1.00  0.00    -0.237 OA
ATOM     65  O   UNL     1       3.498   8.621  -9.373  1.00  0.00    -0.744 OA
ENDBRANCH  61  62
ENDBRANCH  29  54
BRANCH  41  66
ATOM     66  C   UNL     1       9.533  12.355  -0.299  1.00  0.00     0.058 A 
ATOM     67  C   UNL     1       8.876  13.584  -0.459  1.00  0.00     0.135 A 
ATOM     68  C   UNL     1      10.934  12.357  -0.218  1.00  0.00     0.135 A 
ATOM     69  F   UNL     1       7.537  13.629  -0.548  1.00  0.00    -0.206 F 
ATOM     70  C   UNL     1       9.586  14.774  -0.551  1.00  0.00     0.059 A 
ATOM     71  C   UNL     1      11.662  13.538  -0.278  1.00  0.00     0.059 A 
ATOM     72  F   UNL     1      11.604  11.205  -0.052  1.00  0.00    -0.206 F 
ATOM     73  C   UNL     1      10.979  14.740  -0.455  1.00  0.00     0.060 A 
BRANCH  73  74
ATOM     74  S   UNL     1      11.887  16.297  -0.527  1.00  0.00     0.124 S 
ATOM     75  O   UNL     1      11.798  16.621  -1.947  1.00  0.00    -0.237 OA
ATOM     76  O   UNL     1      11.113  17.151   0.368  1.00  0.00    -0.237 OA
ATOM     77  O   UNL     1      13.217  15.937  -0.046  1.00  0.00    -0.744 OA
ENDBRANCH  73  74
ENDBRANCH  41  66
ENDBRANCH  15  16
ENDBRANCH   8  10
ENDBRANCH   7   8
ENDBRANCH   6   7
ENDBRANCH   5   6
ENDBRANCH   4   5
ENDBRANCH   3   4
ENDBRANCH   2   3
ENDBRANCH   1   2
BRANCH   1  78
ATOM     78  C   UNL     1       4.262  -2.160  -2.769  1.00  0.00     0.188 C 
BRANCH  78  79
ATOM     79  C   UNL     1       5.106  -0.867  -2.909  1.00  0.00     0.188 C 
BRANCH  79  80
ATOM     80  O   UNL     1       4.338   0.320  -2.893  1.00  0.00    -0.376 OA
BRANCH  80  81
ATOM     81  C   UNL     1       4.169   1.015  -4.116  1.00  0.00     0.202 C 
BRANCH  81  82
ATOM     82  C   UNL     1       3.736   0.259  -5.379  1.00  0.00     0.261 C 
BRANCH  82  83
ATOM     83  O   UNL     1       4.025  -1.145  -5.443  1.00  0.00    -0.460 OA
BRANCH  83  84
ATOM     84  C   UNL     1       5.152  -1.547  -6.058  1.00  0.00     0.340 C 
ATOM     85  O   UNL     1       6.051  -0.834  -6.480  1.00  0.00    -0.246 OA
BRANCH  84  86
ATOM     86  C   UNL     1       5.230  -3.010  -6.044  1.00  0.00     0.091 A 
ATOM     87  C   UNL     1       6.393  -3.501  -5.443  1.00  0.00     0.127 A 
ATOM     88  C   UNL     1       4.243  -3.925  -6.423  1.00  0.00     0.057 A 
ATOM     89  N   UNL     1       6.617  -4.801  -5.137  1.00  0.00    -0.264 NA
ATOM     90  C   UNL     1       4.483  -5.285  -6.122  1.00  0.00     0.035 A 
ATOM     91  C   UNL     1       5.646  -5.666  -5.473  1.00  0.00     0.112 A 
BRANCH  88  92
ATOM     92  C   UNL     1       2.861  -3.645  -6.932  1.00  0.00     0.254 C 
ATOM     93  O   UNL     1       2.019  -4.527  -6.723  1.00  0.00    -0.269 OA
ATOM     94  N   UNL     1       2.462  -2.449  -7.535  1.00  0.00    -0.339 N 
ATOM     95  C   UNL     1       1.205  -1.918  -7.002  1.00  0.00     0.120 C 
ATOM     96  C   UNL     1       3.266  -1.645  -8.458  1.00  0.00     0.120 C 
ATOM     97  C   UNL     1       0.511  -0.844  -7.824  1.00  0.00     0.025 C 
ATOM     98  C   UNL     1       2.483  -0.628  -9.281  1.00  0.00     0.025 C 
ATOM     99  C   UNL     1       1.506   0.163  -8.397  1.00  0.00    -0.003 C 
BRANCH  99 100
ATOM    100  C   UNL     1       0.843   1.290  -9.205  1.00  0.00     0.039 C 
BRANCH 100 101
ATOM    101  C   UNL     1      -0.230   2.063  -8.475  1.00  0.00    -0.048 A 
ATOM    102  C   UNL     1      -1.563   1.971  -8.900  1.00  0.00     0.004 A 
ATOM    103  C   UNL     1       0.078   2.908  -7.399  1.00  0.00     0.004 A 
ATOM    104  C   UNL     1      -2.564   2.717  -8.276  1.00  0.00     0.000 A 
ATOM    105  C   UNL     1      -0.926   3.653  -6.775  1.00  0.00     0.000 A 
ATOM    106  C   UNL     1      -2.245   3.561  -7.216  1.00  0.00     0.000 A 
ENDBRANCH 100 101
ENDBRANCH  99 100
ENDBRANCH  88  92
ENDBRANCH  84  86
ENDBRANCH  83  84
ENDBRANCH  82  83
ENDBRANCH  81  82
ENDBRANCH  80  81
ENDBRANCH  79  80
ENDBRANCH  78  79
ENDBRANCH   1  78
TORSDOF 26
