REMARK SMILES CN(C(=O)C[N@@H+](CC(=O)OCCOCCOCCOCCOC(=O)c1ccc(-c2c3nc(c(-c4c(F)cc(S(=O)(=O)[O-])cc4F)c4ccc([nH]4)c(-c4c(F)cc(S(=O)(=O)[O-])cc4F)c4nc(c(-c5c(F)cc(S(=O)(=O)[O-])cc5F)c5ccc2[nH]5)C=C4)C=C3)cc1)C(C)(C)C)c1ccccc1
REMARK SMILES IDX 15 1 14 2 13 3 12 4 11 5 10 6 8 7 9 8 7 9 6 10 5 12 3 13
REMARK SMILES IDX 4 14 2 15 1 16 95 17 96 18 100 19 97 20 99 21 98 22 91 23
REMARK SMILES IDX 92 24 93 25 94 26 16 27 17 28 18 29 19 30 20 31 21 32 22 33
REMARK SMILES IDX 23 34 24 35 25 36 26 37 90 38 27 39 89 40 28 41 29 42 30 43
REMARK SMILES IDX 83 44 31 45 88 46 82 47 84 48 32 49 87 50 81 51 80 52 33 54
REMARK SMILES IDX 67 55 46 56 66 57 47 58 50 59 65 60 85 61 48 62 49 63 64 65
REMARK SMILES IDX 86 66 51 67 34 68 35 69 44 70 36 71 37 72 43 73 45 74 38 75
REMARK SMILES IDX 39 76 40 77 41 78 42 79 68 80 69 81 78 82 70 83 71 84 77 85
REMARK SMILES IDX 79 86 72 87 73 88 74 89 75 90 76 91 52 92 53 93 62 94 54 95
REMARK SMILES IDX 55 96 61 97 63 98 56 99 57 100 58 101 59 102 60 103
REMARK H PARENT 6 11 84 53 50 64
REMARK Flexibility Score: inf
ROOT
ATOM      1  C   UNL     1      -0.113   3.852  -6.603  1.00  0.00     0.188 C 
ENDROOT
BRANCH   1   2
ATOM      2  C   UNL     1      -0.205   2.416  -7.140  1.00  0.00     0.188 C 
BRANCH   2   3
ATOM      3  O   UNL     1      -1.503   2.017  -7.585  1.00  0.00    -0.376 OA
BRANCH   3   4
ATOM      4  C   UNL     1      -2.576   2.229  -6.672  1.00  0.00     0.202 C 
BRANCH   4   5
ATOM      5  C   UNL     1      -2.684   1.284  -5.459  1.00  0.00     0.261 C 
BRANCH   5   6
ATOM      6  O   UNL     1      -1.515   1.114  -4.615  1.00  0.00    -0.459 OA
BRANCH   6   7
ATOM      7  C   UNL     1      -0.903  -0.095  -4.690  1.00  0.00     0.361 C 
ATOM      8  O   UNL     1      -1.166  -0.919  -5.569  1.00  0.00    -0.245 OA
BRANCH   7   9
ATOM      9  C   UNL     1       0.119  -0.478  -3.600  1.00  0.00     0.387 C 
BRANCH   9  10
ATOM     10  N   UNL     1       0.517   0.408  -2.456  1.00  0.00    -0.314 N 
ATOM     11  H   UNL     1       1.086  -0.120  -1.794  1.00  0.00     0.349 HD
BRANCH  10  12
ATOM     12  C   UNL     1      -0.699   0.789  -1.688  1.00  0.00     0.365 C 
BRANCH  12  13
ATOM     13  C   UNL     1      -0.487   1.575  -0.392  1.00  0.00     0.281 C 
ATOM     14  O   UNL     1      -0.971   2.713  -0.345  1.00  0.00    -0.268 OA
BRANCH  13  15
ATOM     15  N   UNL     1       0.279   1.003   0.640  1.00  0.00    -0.311 N 
ATOM     16  C   UNL     1       0.783  -0.367   0.582  1.00  0.00     0.153 C 
BRANCH  15  17
ATOM     17  C   UNL     1       0.754   1.841   1.714  1.00  0.00     0.043 A 
ATOM     18  C   UNL     1      -0.038   2.867   2.248  1.00  0.00     0.026 A 
ATOM     19  C   UNL     1       2.069   1.714   2.191  1.00  0.00     0.026 A 
ATOM     20  C   UNL     1       0.475   3.768   3.184  1.00  0.00     0.002 A 
ATOM     21  C   UNL     1       2.591   2.630   3.112  1.00  0.00     0.002 A 
ATOM     22  C   UNL     1       1.796   3.661   3.604  1.00  0.00     0.000 A 
ENDBRANCH  15  17
ENDBRANCH  13  15
ENDBRANCH  12  13
ENDBRANCH  10  12
BRANCH  10  23
ATOM     23  C   UNL     1       1.584   1.411  -2.725  1.00  0.00     0.090 C 
ATOM     24  C   UNL     1       1.047   2.615  -3.460  1.00  0.00     0.078 C 
ATOM     25  C   UNL     1       2.313   1.978  -1.479  1.00  0.00     0.078 C 
ATOM     26  C   UNL     1       2.737   0.830  -3.591  1.00  0.00     0.078 C 
ENDBRANCH  10  23
ENDBRANCH   9  10
ENDBRANCH   7   9
ENDBRANCH   6   7
ENDBRANCH   5   6
ENDBRANCH   4   5
ENDBRANCH   3   4
ENDBRANCH   2   3
ENDBRANCH   1   2
BRANCH   1  27
ATOM     27  O   UNL     1      -0.741   3.917  -5.328  1.00  0.00    -0.377 OA
BRANCH  27  28
ATOM     28  C   UNL     1      -1.178   5.172  -4.826  1.00  0.00     0.188 C 
BRANCH  28  29
ATOM     29  C   UNL     1      -0.563   6.446  -5.420  1.00  0.00     0.188 C 
BRANCH  29  30
ATOM     30  O   UNL     1       0.858   6.581  -5.443  1.00  0.00    -0.376 OA
BRANCH  30  31
ATOM     31  C   UNL     1       1.600   5.998  -4.380  1.00  0.00     0.202 C 
BRANCH  31  32
ATOM     32  C   UNL     1       1.709   6.782  -3.074  1.00  0.00     0.261 C 
BRANCH  32  33
ATOM     33  O   UNL     1       0.475   6.759  -2.344  1.00  0.00    -0.460 OA
BRANCH  33  34
ATOM     34  C   UNL     1      -0.270   7.879  -2.464  1.00  0.00     0.338 C 
ATOM     35  O   UNL     1       0.008   8.889  -3.085  1.00  0.00    -0.246 OA
BRANCH  34  36
ATOM     36  C   UNL     1      -1.592   7.648  -1.864  1.00  0.00     0.060 A 
ATOM     37  C   UNL     1      -2.715   7.853  -2.674  1.00  0.00     0.016 A 
ATOM     38  C   UNL     1      -1.727   7.348  -0.507  1.00  0.00     0.016 A 
ATOM     39  C   UNL     1      -3.985   7.816  -2.118  1.00  0.00     0.010 A 
ATOM     40  C   UNL     1      -3.002   7.337   0.057  1.00  0.00     0.010 A 
ATOM     41  C   UNL     1      -4.125   7.618  -0.740  1.00  0.00    -0.014 A 
BRANCH  41  42
ATOM     42  C   UNL     1      -5.429   7.927  -0.119  1.00  0.00     0.031 A 
ATOM     43  C   UNL     1      -5.619   9.288   0.489  1.00  0.00     0.074 A 
ATOM     44  C   UNL     1      -6.430   7.034  -0.160  1.00  0.00     0.049 A 
ATOM     45  N   UNL     1      -6.655   9.778   1.115  1.00  0.00    -0.248 NA
ATOM     46  C   UNL     1      -4.487  10.223   0.374  1.00  0.00     0.031 C 
ATOM     47  C   UNL     1      -6.355   5.713  -0.784  1.00  0.00     0.029 A 
ATOM     48  N   UNL     1      -7.702   7.102   0.341  1.00  0.00    -0.354 N 
ATOM     49  C   UNL     1      -6.296  11.070   1.482  1.00  0.00     0.074 A 
ATOM     50  C   UNL     1      -4.940  11.282   1.028  1.00  0.00     0.031 C 
ATOM     51  C   UNL     1      -7.529   5.084  -0.608  1.00  0.00     0.029 A 
ATOM     52  C   UNL     1      -8.418   5.943   0.171  1.00  0.00     0.049 A 
ATOM     53  H   UNL     1      -8.068   7.904   0.779  1.00  0.00     0.167 HD
ATOM     54  C   UNL     1      -7.037  11.992   2.139  1.00  0.00     0.037 A 
ATOM     55  C   UNL     1      -9.640   5.608   0.629  1.00  0.00     0.037 A 
ATOM     56  C   UNL     1      -8.386  11.754   2.584  1.00  0.00     0.049 A 
ATOM     57  C   UNL     1     -10.421   6.627   1.416  1.00  0.00     0.074 A 
ATOM     58  C   UNL     1      -9.239  12.617   3.246  1.00  0.00     0.029 A 
ATOM     59  N   UNL     1      -9.072  10.558   2.420  1.00  0.00    -0.354 N 
ATOM     60  N   UNL     1     -10.082   7.851   1.748  1.00  0.00    -0.248 NA
ATOM     61  C   UNL     1     -11.752   6.223   1.886  1.00  0.00     0.031 C 
ATOM     62  C   UNL     1     -10.418  11.923   3.538  1.00  0.00     0.029 A 
ATOM     63  C   UNL     1     -10.327  10.649   2.997  1.00  0.00     0.049 A 
ATOM     64  H   UNL     1      -8.718   9.762   1.961  1.00  0.00     0.167 HD
ATOM     65  C   UNL     1     -11.166   8.373   2.445  1.00  0.00     0.074 A 
ATOM     66  C   UNL     1     -12.177   7.334   2.473  1.00  0.00     0.031 C 
ATOM     67  C   UNL     1     -11.316   9.598   3.010  1.00  0.00     0.037 A 
BRANCH  54  68
ATOM     68  C   UNL     1      -6.389  13.312   2.457  1.00  0.00     0.058 A 
ATOM     69  C   UNL     1      -6.082  14.254   1.462  1.00  0.00     0.135 A 
ATOM     70  C   UNL     1      -6.086  13.647   3.788  1.00  0.00     0.135 A 
ATOM     71  F   UNL     1      -6.328  13.980   0.171  1.00  0.00    -0.206 F 
ATOM     72  C   UNL     1      -5.473  15.467   1.771  1.00  0.00     0.059 A 
ATOM     73  C   UNL     1      -5.505  14.866   4.123  1.00  0.00     0.059 A 
ATOM     74  F   UNL     1      -6.351  12.782   4.779  1.00  0.00    -0.206 F 
ATOM     75  C   UNL     1      -5.189  15.764   3.106  1.00  0.00     0.060 A 
BRANCH  75  76
ATOM     76  S   UNL     1      -4.404  17.344   3.491  1.00  0.00     0.124 S 
ATOM     77  O   UNL     1      -3.056  17.135   2.973  1.00  0.00    -0.237 OA
ATOM     78  O   UNL     1      -5.230  18.291   2.748  1.00  0.00    -0.237 OA
ATOM     79  O   UNL     1      -4.510  17.431   4.945  1.00  0.00    -0.744 OA
ENDBRANCH  75  76
ENDBRANCH  54  68
BRANCH  55  80
ATOM     80  C   UNL     1     -10.174   4.244   0.375  1.00  0.00     0.058 A 
ATOM     81  C   UNL     1     -11.267   4.035  -0.478  1.00  0.00     0.135 A 
ATOM     82  C   UNL     1      -9.583   3.116   0.968  1.00  0.00     0.135 A 
ATOM     83  F   UNL     1     -11.872   5.080  -1.062  1.00  0.00    -0.206 F 
ATOM     84  C   UNL     1     -11.761   2.758  -0.727  1.00  0.00     0.059 A 
ATOM     85  C   UNL     1     -10.041   1.829   0.712  1.00  0.00     0.059 A 
ATOM     86  F   UNL     1      -8.527   3.260   1.784  1.00  0.00    -0.206 F 
ATOM     87  C   UNL     1     -11.137   1.660  -0.132  1.00  0.00     0.060 A 
BRANCH  87  88
ATOM     88  S   UNL     1     -11.750   0.004  -0.510  1.00  0.00     0.124 S 
ATOM     89  O   UNL     1     -13.022  -0.008   0.203  1.00  0.00    -0.237 OA
ATOM     90  O   UNL     1     -11.834   0.036  -1.966  1.00  0.00    -0.237 OA
ATOM     91  O   UNL     1     -10.714  -0.870   0.032  1.00  0.00    -0.744 OA
ENDBRANCH  87  88
ENDBRANCH  55  80
BRANCH  67  92
ATOM     92  C   UNL     1     -12.634   9.896   3.673  1.00  0.00     0.058 A 
ATOM     93  C   UNL     1     -13.004   9.297   4.887  1.00  0.00     0.135 A 
ATOM     94  C   UNL     1     -13.514  10.834   3.110  1.00  0.00     0.135 A 
ATOM     95  F   UNL     1     -12.202   8.389   5.466  1.00  0.00    -0.206 F 
ATOM     96  C   UNL     1     -14.214   9.595   5.504  1.00  0.00     0.059 A 
ATOM     97  C   UNL     1     -14.713  11.173   3.726  1.00  0.00     0.059 A 
ATOM     98  F   UNL     1     -13.202  11.447   1.956  1.00  0.00    -0.206 F 
ATOM     99  C   UNL     1     -15.062  10.537   4.917  1.00  0.00     0.060 A 
BRANCH  99 100
ATOM    100  S   UNL     1     -16.616  10.935   5.742  1.00  0.00     0.124 S 
ATOM    101  O   UNL     1     -17.397   9.727   5.495  1.00  0.00    -0.237 OA
ATOM    102  O   UNL     1     -16.192  11.145   7.122  1.00  0.00    -0.237 OA
ATOM    103  O   UNL     1     -17.076  12.132   5.044  1.00  0.00    -0.744 OA
ENDBRANCH  99 100
ENDBRANCH  67  92
ENDBRANCH  41  42
ENDBRANCH  34  36
ENDBRANCH  33  34
ENDBRANCH  32  33
ENDBRANCH  31  32
ENDBRANCH  30  31
ENDBRANCH  29  30
ENDBRANCH  28  29
ENDBRANCH  27  28
ENDBRANCH   1  27
TORSDOF 29
