REMARK SMILES O=C(COc1ccccc1Br)Nc1ccc(C(=O)OCCOCCOCCOCCOC(=O)c2ccc(-c3c4nc(c(-c5c(F)cc(S(=O)(=O)[O-])cc5F)c5ccc([nH]5)c(-c5c(F)cc(S(=O)(=O)[O-])cc5F)c5nc(c(-c6c(F)cc(S(=O)(=O)[O-])cc6F)c6ccc3[nH]6)C=C5)C=C4)cc2)c(O)c1
REMARK SMILES IDX 24 1 23 2 22 3 21 4 20 5 19 6 17 7 18 8 16 9 13 10 14 11
REMARK SMILES IDX 102 12 15 13 100 14 12 15 1 16 2 17 3 19 4 20 5 21 6 22
REMARK SMILES IDX 10 23 7 24 9 25 11 26 8 27 101 28 25 30 26 31 27 32 28 33
REMARK SMILES IDX 29 34 30 35 31 36 32 37 33 38 34 39 35 40 99 41 36 42 98 43
REMARK SMILES IDX 37 44 38 45 39 46 92 47 40 48 97 49 91 50 93 51 41 52 96 53
REMARK SMILES IDX 90 54 89 55 42 57 76 58 55 59 75 60 56 61 59 62 74 63 94 64
REMARK SMILES IDX 57 65 58 66 73 68 95 69 60 70 43 71 44 72 53 73 45 74 46 75
REMARK SMILES IDX 52 76 54 77 47 78 48 79 49 80 50 81 51 82 77 83 78 84 87 85
REMARK SMILES IDX 79 86 80 87 86 88 88 89 81 90 82 91 83 92 84 93 85 94 61 95
REMARK SMILES IDX 62 96 71 97 63 98 64 99 70 100 72 101 65 102 66 103 67 104
REMARK SMILES IDX 68 105 69 106
REMARK H PARENT 12 18 101 29 93 56 59 67
REMARK Flexibility Score: inf
ROOT
ATOM      1  C   UNL     1      -1.113  -4.064   4.157  1.00  0.00     0.188 C 
ENDROOT
BRANCH   1   2
ATOM      2  C   UNL     1      -1.751  -5.173   3.299  1.00  0.00     0.188 C 
BRANCH   2   3
ATOM      3  O   UNL     1      -2.173  -6.300   4.045  1.00  0.00    -0.376 OA
BRANCH   3   4
ATOM      4  C   UNL     1      -1.295  -7.381   4.315  1.00  0.00     0.202 C 
BRANCH   4   5
ATOM      5  C   UNL     1       0.218  -7.242   4.573  1.00  0.00     0.261 C 
BRANCH   5   6
ATOM      6  O   UNL     1       0.924  -6.196   3.899  1.00  0.00    -0.460 OA
BRANCH   6   7
ATOM      7  C   UNL     1       1.145  -6.344   2.575  1.00  0.00     0.341 C 
ATOM      8  O   UNL     1       0.818  -7.290   1.883  1.00  0.00    -0.246 OA
BRANCH   7   9
ATOM      9  C   UNL     1       1.661  -5.053   2.060  1.00  0.00     0.101 A 
ATOM     10  C   UNL     1       2.502  -2.591   1.001  1.00  0.00     0.045 A 
ATOM     11  C   UNL     1       1.533  -3.340   0.336  1.00  0.00     0.027 A 
ATOM     12  C   UNL     1       3.043  -3.073   2.200  1.00  0.00     0.073 A 
ATOM     13  C   UNL     1       1.134  -4.580   0.850  1.00  0.00     0.022 A 
ATOM     14  C   UNL     1       2.584  -4.266   2.753  1.00  0.00     0.132 A 
BRANCH  10  15
ATOM     15  N   UNL     1       2.915  -1.310   0.606  1.00  0.00    -0.323 N 
ATOM     16  O   UNL     1       1.429  -0.730  -1.106  1.00  0.00    -0.271 OA
ATOM     17  C   UNL     1       2.304  -0.451  -0.293  1.00  0.00     0.262 C 
ATOM     18  H   UNL     1       3.745  -0.980   1.020  1.00  0.00     0.170 HD
BRANCH  17  19
ATOM     19  C   UNL     1       2.846   0.977  -0.153  1.00  0.00     0.329 C 
BRANCH  19  20
ATOM     20  O   UNL     1       3.455   1.151   1.134  1.00  0.00    -0.483 OA
BRANCH  20  21
ATOM     21  C   UNL     1       2.820   2.077   1.919  1.00  0.00     0.134 A 
ATOM     22  C   UNL     1       3.390   3.353   1.961  1.00  0.00     0.047 A 
ATOM     23  C   UNL     1       1.764   1.764   2.785  1.00  0.00     0.060 A 
ATOM     24  C   UNL     1       2.903   4.312   2.851  1.00  0.00     0.004 A 
ATOM     25  C   UNL     1       1.282   2.729   3.674  1.00  0.00     0.019 A 
ATOM     26  Br  UNL     1       0.934   0.067   2.877  1.00  0.00    -0.047 Br
ATOM     27  C   UNL     1       1.853   3.998   3.711  1.00  0.00     0.001 A 
ENDBRANCH  20  21
ENDBRANCH  19  20
ENDBRANCH  17  19
ENDBRANCH  10  15
BRANCH  14  28
ATOM     28  O   UNL     1       3.048  -4.564   4.004  1.00  0.00    -0.507 OA
ATOM     29  H   UNL     1       2.776  -5.353   4.429  1.00  0.00     0.293 HD
ENDBRANCH  14  28
ENDBRANCH   7   9
ENDBRANCH   6   7
ENDBRANCH   5   6
ENDBRANCH   4   5
ENDBRANCH   3   4
ENDBRANCH   2   3
ENDBRANCH   1   2
BRANCH   1  30
ATOM     30  O   UNL     1      -0.696  -4.523   5.434  1.00  0.00    -0.377 OA
BRANCH  30  31
ATOM     31  C   UNL     1      -1.678  -4.614   6.470  1.00  0.00     0.188 C 
BRANCH  31  32
ATOM     32  C   UNL     1      -3.189  -4.758   6.157  1.00  0.00     0.188 C 
BRANCH  32  33
ATOM     33  O   UNL     1      -3.636  -3.979   5.055  1.00  0.00    -0.376 OA
BRANCH  33  34
ATOM     34  C   UNL     1      -4.412  -2.823   5.308  1.00  0.00     0.202 C 
BRANCH  34  35
ATOM     35  C   UNL     1      -3.694  -1.656   5.998  1.00  0.00     0.261 C 
BRANCH  35  36
ATOM     36  O   UNL     1      -3.057  -1.963   7.245  1.00  0.00    -0.460 OA
BRANCH  36  37
ATOM     37  C   UNL     1      -3.853  -2.340   8.268  1.00  0.00     0.338 C 
ATOM     38  O   UNL     1      -5.071  -2.427   8.254  1.00  0.00    -0.246 OA
BRANCH  37  39
ATOM     39  C   UNL     1      -2.984  -2.816   9.362  1.00  0.00     0.060 A 
ATOM     40  C   UNL     1      -3.129  -4.129   9.827  1.00  0.00     0.016 A 
ATOM     41  C   UNL     1      -2.023  -1.969   9.921  1.00  0.00     0.016 A 
ATOM     42  C   UNL     1      -2.341  -4.585  10.885  1.00  0.00     0.010 A 
ATOM     43  C   UNL     1      -1.247  -2.422  10.990  1.00  0.00     0.010 A 
ATOM     44  C   UNL     1      -1.428  -3.719  11.502  1.00  0.00    -0.014 A 
BRANCH  44  45
ATOM     45  C   UNL     1      -0.810  -4.098  12.796  1.00  0.00     0.031 A 
ATOM     46  C   UNL     1      -1.412  -3.549  14.062  1.00  0.00     0.074 A 
ATOM     47  C   UNL     1       0.246  -4.929  12.853  1.00  0.00     0.049 A 
ATOM     48  N   UNL     1      -1.030  -3.706  15.303  1.00  0.00    -0.248 NA
ATOM     49  C   UNL     1      -2.608  -2.705  13.903  1.00  0.00     0.031 C 
ATOM     50  C   UNL     1       0.890  -5.559  11.702  1.00  0.00     0.029 A 
ATOM     51  N   UNL     1       0.965  -5.382  13.932  1.00  0.00    -0.354 N 
ATOM     52  C   UNL     1      -1.934  -2.981  16.071  1.00  0.00     0.074 A 
ATOM     53  C   UNL     1      -2.857  -2.349  15.154  1.00  0.00     0.031 C 
ATOM     54  C   UNL     1       1.913  -6.316  12.137  1.00  0.00     0.029 A 
ATOM     55  C   UNL     1       2.018  -6.196  13.591  1.00  0.00     0.049 A 
ATOM     56  H   UNL     1       0.746  -5.145  14.862  1.00  0.00     0.167 HD
ATOM     57  C   UNL     1      -1.998  -2.862  17.419  1.00  0.00     0.037 A 
ATOM     58  C   UNL     1       2.966  -6.763  14.364  1.00  0.00     0.037 A 
ATOM     59  C   UNL     1      -1.067  -3.484  18.325  1.00  0.00     0.049 A 
ATOM     60  C   UNL     1       2.929  -6.545  15.856  1.00  0.00     0.074 A 
ATOM     61  C   UNL     1      -1.044  -3.428  19.707  1.00  0.00     0.029 A 
ATOM     62  N   UNL     1       0.012  -4.266  17.939  1.00  0.00    -0.354 N 
ATOM     63  N   UNL     1       2.061  -5.870  16.573  1.00  0.00    -0.248 NA
ATOM     64  C   UNL     1       4.000  -7.171  16.645  1.00  0.00     0.031 C 
ATOM     65  C   UNL     1       0.083  -4.128  20.153  1.00  0.00     0.029 A 
ATOM     66  C   UNL     1       0.724  -4.677  19.054  1.00  0.00     0.049 A 
ATOM     67  H   UNL     1       0.239  -4.496  17.009  1.00  0.00     0.167 HD
ATOM     68  C   UNL     1       2.461  -6.021  17.898  1.00  0.00     0.074 A 
ATOM     69  C   UNL     1       3.642  -6.858  17.883  1.00  0.00     0.031 C 
ATOM     70  C   UNL     1       1.898  -5.516  19.026  1.00  0.00     0.037 A 
BRANCH  57  71
ATOM     71  C   UNL     1      -3.095  -2.000  17.986  1.00  0.00     0.058 A 
ATOM     72  C   UNL     1      -4.447  -2.376  17.913  1.00  0.00     0.135 A 
ATOM     73  C   UNL     1      -2.789  -0.784  18.618  1.00  0.00     0.135 A 
ATOM     74  F   UNL     1      -4.800  -3.519  17.304  1.00  0.00    -0.206 F 
ATOM     75  C   UNL     1      -5.457  -1.559  18.412  1.00  0.00     0.059 A 
ATOM     76  C   UNL     1      -3.781   0.033  19.154  1.00  0.00     0.059 A 
ATOM     77  F   UNL     1      -1.515  -0.373  18.715  1.00  0.00    -0.206 F 
ATOM     78  C   UNL     1      -5.114  -0.355  19.028  1.00  0.00     0.060 A 
BRANCH  78  79
ATOM     79  S   UNL     1      -6.438   0.699  19.657  1.00  0.00     0.124 S 
ATOM     80  O   UNL     1      -7.033   1.188  18.417  1.00  0.00    -0.237 OA
ATOM     81  O   UNL     1      -7.250  -0.243  20.420  1.00  0.00    -0.237 OA
ATOM     82  O   UNL     1      -5.730   1.699  20.449  1.00  0.00    -0.744 OA
ENDBRANCH  78  79
ENDBRANCH  57  71
BRANCH  58  83
ATOM     83  C   UNL     1       4.032  -7.597  13.744  1.00  0.00     0.058 A 
ATOM     84  C   UNL     1       4.092  -8.980  13.972  1.00  0.00     0.135 A 
ATOM     85  C   UNL     1       5.013  -7.031  12.914  1.00  0.00     0.135 A 
ATOM     86  F   UNL     1       3.188  -9.568  14.770  1.00  0.00    -0.206 F 
ATOM     87  C   UNL     1       5.089  -9.771  13.408  1.00  0.00     0.059 A 
ATOM     88  C   UNL     1       6.002  -7.804  12.315  1.00  0.00     0.059 A 
ATOM     89  F   UNL     1       4.999  -5.713  12.659  1.00  0.00    -0.206 F 
ATOM     90  C   UNL     1       6.036  -9.174  12.574  1.00  0.00     0.060 A 
BRANCH  90  91
ATOM     91  S   UNL     1       7.288 -10.221  11.801  1.00  0.00     0.124 S 
ATOM     92  O   UNL     1       8.118 -10.582  12.944  1.00  0.00    -0.237 OA
ATOM     93  O   UNL     1       6.477 -11.294  11.234  1.00  0.00    -0.237 OA
ATOM     94  O   UNL     1       7.911  -9.333  10.823  1.00  0.00    -0.744 OA
ENDBRANCH  90  91
ENDBRANCH  58  83
BRANCH  70  95
ATOM     95  C   UNL     1       2.524  -5.891  20.345  1.00  0.00     0.058 A 
ATOM     96  C   UNL     1       3.778  -5.399  20.741  1.00  0.00     0.135 A 
ATOM     97  C   UNL     1       1.835  -6.722  21.244  1.00  0.00     0.135 A 
ATOM     98  F   UNL     1       4.482  -4.603  19.921  1.00  0.00    -0.206 F 
ATOM     99  C   UNL     1       4.341  -5.747  21.966  1.00  0.00     0.059 A 
ATOM    100  C   UNL     1       2.364  -7.055  22.488  1.00  0.00     0.059 A 
ATOM    101  F   UNL     1       0.626  -7.210  20.925  1.00  0.00    -0.206 F 
ATOM    102  C   UNL     1       3.626  -6.575  22.833  1.00  0.00     0.060 A 
BRANCH 102 103
ATOM    103  S   UNL     1       4.361  -7.000  24.426  1.00  0.00     0.124 S 
ATOM    104  O   UNL     1       5.419  -7.921  24.025  1.00  0.00    -0.237 OA
ATOM    105  O   UNL     1       4.805  -5.701  24.922  1.00  0.00    -0.237 OA
ATOM    106  O   UNL     1       3.253  -7.601  25.163  1.00  0.00    -0.744 OA
ENDBRANCH 102 103
ENDBRANCH  70  95
ENDBRANCH  44  45
ENDBRANCH  37  39
ENDBRANCH  36  37
ENDBRANCH  35  36
ENDBRANCH  34  35
ENDBRANCH  33  34
ENDBRANCH  32  33
ENDBRANCH  31  32
ENDBRANCH  30  31
ENDBRANCH   1  30
TORSDOF 28
