REMARK SMILES N#Cc1ccc(/C=C/C(=O)N[C@H]2C=C[C@H](C(=O)OCCOCCOCCOCCOC(=O)c3ccc(-c4c5nc(c(-c6c(F)cc(S(=O)(=O)[O-])cc6F)c6ccc([nH]6)c(-c6c(F)cc(S(=O)(=O)[O-])cc6F)c6nc(c(-c7c(F)cc(S(=O)(=O)[O-])cc7F)c7ccc4[nH]7)C=C6)C=C5)cc3)C2)cc1
REMARK SMILES IDX 23 1 22 2 21 3 20 4 19 5 18 6 16 7 17 8 15 9 12 10 13 11
REMARK SMILES IDX 99 12 14 13 11 14 9 15 10 16 8 18 7 19 6 20 3 21 4 22 101 23
REMARK SMILES IDX 5 24 100 25 2 26 1 27 24 28 25 29 26 30 27 31 28 32 29 33
REMARK SMILES IDX 30 34 31 35 32 36 33 37 34 38 98 39 35 40 97 41 36 42 37 43
REMARK SMILES IDX 38 44 91 45 39 46 96 47 90 48 92 49 40 50 95 51 89 52 88 53
REMARK SMILES IDX 41 55 75 56 54 57 74 58 55 59 58 60 73 61 93 62 56 63 57 64
REMARK SMILES IDX 72 66 94 67 59 68 42 69 43 70 52 71 44 72 45 73 51 74 53 75
REMARK SMILES IDX 46 76 47 77 48 78 49 79 50 80 76 81 77 82 86 83 78 84 79 85
REMARK SMILES IDX 85 86 87 87 80 88 81 89 82 90 83 91 84 92 60 93 61 94 70 95
REMARK SMILES IDX 62 96 63 97 69 98 71 99 64 100 65 101 66 102 67 103 68 104
REMARK H PARENT 11 17 92 54 58 65
REMARK Flexibility Score: inf
ROOT
ATOM      1  C   UNL     1       3.306  -2.992   3.828  1.00  0.00     0.188 C 
ENDROOT
BRANCH   1   2
ATOM      2  C   UNL     1       2.519  -2.247   2.730  1.00  0.00     0.188 C 
BRANCH   2   3
ATOM      3  O   UNL     1       1.216  -2.676   2.390  1.00  0.00    -0.376 OA
BRANCH   3   4
ATOM      4  C   UNL     1       0.994  -3.933   1.770  1.00  0.00     0.202 C 
BRANCH   4   5
ATOM      5  C   UNL     1       2.070  -4.794   1.072  1.00  0.00     0.261 C 
BRANCH   5   6
ATOM      6  O   UNL     1       3.435  -4.599   1.466  1.00  0.00    -0.463 OA
BRANCH   6   7
ATOM      7  C   UNL     1       4.274  -4.019   0.566  1.00  0.00     0.312 C 
ATOM      8  O   UNL     1       3.947  -3.674  -0.562  1.00  0.00    -0.252 OA
BRANCH   7   9
ATOM      9  C   UNL     1       5.624  -3.684   1.224  1.00  0.00     0.124 C 
ATOM     10  C   UNL     1       6.234  -1.658   0.083  1.00  0.00     0.106 C 
ATOM     11  C   UNL     1       7.213  -2.736  -0.247  1.00  0.00    -0.006 C 
ATOM     12  C   UNL     1       5.755  -2.170   1.436  1.00  0.00     0.048 C 
ATOM     13  C   UNL     1       6.817  -3.889   0.325  1.00  0.00    -0.014 C 
BRANCH  10  14
ATOM     14  N   UNL     1       6.753  -0.327   0.166  1.00  0.00    -0.346 N 
ATOM     15  C   UNL     1       6.088   0.865   0.201  1.00  0.00     0.244 C 
ATOM     16  O   UNL     1       6.759   1.893   0.328  1.00  0.00    -0.270 OA
ATOM     17  H   UNL     1       7.735  -0.261   0.204  1.00  0.00     0.164 HD
BRANCH  15  18
ATOM     18  C   UNL     1       4.592   1.029   0.126  1.00  0.00     0.072 C 
ATOM     19  C   UNL     1       3.624   0.127  -0.095  1.00  0.00     0.014 C 
BRANCH  19  20
ATOM     20  C   UNL     1       2.155   0.285  -0.136  1.00  0.00    -0.025 A 
ATOM     21  C   UNL     1      -0.674   0.316  -0.115  1.00  0.00     0.052 A 
ATOM     22  C   UNL     1       0.056   1.503   0.025  1.00  0.00     0.020 A 
ATOM     23  C   UNL     1       0.007  -0.883  -0.297  1.00  0.00     0.020 A 
ATOM     24  C   UNL     1       1.462   1.488   0.019  1.00  0.00     0.009 A 
ATOM     25  C   UNL     1       1.403  -0.891  -0.318  1.00  0.00     0.009 A 
BRANCH  21  26
ATOM     26  C   UNL     1      -2.104   0.318  -0.073  1.00  0.00     0.099 C 
ATOM     27  N   UNL     1      -3.269   0.310  -0.047  1.00  0.00    -0.192 NA
ENDBRANCH  21  26
ENDBRANCH  19  20
ENDBRANCH  15  18
ENDBRANCH  10  14
ENDBRANCH   7   9
ENDBRANCH   6   7
ENDBRANCH   5   6
ENDBRANCH   4   5
ENDBRANCH   3   4
ENDBRANCH   2   3
ENDBRANCH   1   2
BRANCH   1  28
ATOM     28  O   UNL     1       2.846  -4.299   4.086  1.00  0.00    -0.377 OA
BRANCH  28  29
ATOM     29  C   UNL     1       1.709  -4.449   4.929  1.00  0.00     0.188 C 
BRANCH  29  30
ATOM     30  C   UNL     1       0.764  -3.256   5.228  1.00  0.00     0.188 C 
BRANCH  30  31
ATOM     31  O   UNL     1       1.397  -1.990   5.305  1.00  0.00    -0.376 OA
BRANCH  31  32
ATOM     32  C   UNL     1       1.718  -1.430   6.565  1.00  0.00     0.202 C 
BRANCH  32  33
ATOM     33  C   UNL     1       2.609  -2.215   7.541  1.00  0.00     0.261 C 
BRANCH  33  34
ATOM     34  O   UNL     1       2.294  -3.598   7.741  1.00  0.00    -0.460 OA
BRANCH  34  35
ATOM     35  C   UNL     1       1.124  -3.888   8.353  1.00  0.00     0.338 C 
ATOM     36  O   UNL     1       0.307  -3.091   8.773  1.00  0.00    -0.246 OA
BRANCH  35  37
ATOM     37  C   UNL     1       0.908  -5.349   8.236  1.00  0.00     0.060 A 
ATOM     38  C   UNL     1      -0.208  -5.822   7.531  1.00  0.00     0.016 A 
ATOM     39  C   UNL     1       1.820  -6.246   8.795  1.00  0.00     0.016 A 
ATOM     40  C   UNL     1      -0.437  -7.194   7.418  1.00  0.00     0.010 A 
ATOM     41  C   UNL     1       1.575  -7.619   8.704  1.00  0.00     0.010 A 
ATOM     42  C   UNL     1       0.426  -8.098   8.049  1.00  0.00    -0.014 A 
BRANCH  42  43
ATOM     43  C   UNL     1       0.023  -9.517   8.209  1.00  0.00     0.031 A 
ATOM     44  C   UNL     1      -0.554  -9.947   9.531  1.00  0.00     0.074 A 
ATOM     45  C   UNL     1       0.153 -10.404   7.207  1.00  0.00     0.049 A 
ATOM     46  N   UNL     1      -0.927 -11.133   9.932  1.00  0.00    -0.248 NA
ATOM     47  C   UNL     1      -0.723  -8.888  10.540  1.00  0.00     0.031 C 
ATOM     48  C   UNL     1       0.645 -10.098   5.866  1.00  0.00     0.029 A 
ATOM     49  N   UNL     1      -0.115 -11.749   7.172  1.00  0.00    -0.354 N 
ATOM     50  C   UNL     1      -1.356 -10.970  11.245  1.00  0.00     0.074 A 
ATOM     51  C   UNL     1      -1.161  -9.577  11.582  1.00  0.00     0.031 C 
ATOM     52  C   UNL     1       0.643 -11.227   5.136  1.00  0.00     0.029 A 
ATOM     53  C   UNL     1       0.190 -12.341   5.970  1.00  0.00     0.049 A 
ATOM     54  H   UNL     1      -0.491 -12.244   7.936  1.00  0.00     0.167 HD
ATOM     55  C   UNL     1      -1.869 -11.896  12.090  1.00  0.00     0.037 A 
ATOM     56  C   UNL     1       0.127 -13.634   5.595  1.00  0.00     0.037 A 
ATOM     57  C   UNL     1      -2.046 -13.283  11.746  1.00  0.00     0.049 A 
ATOM     58  C   UNL     1      -0.359 -14.666   6.581  1.00  0.00     0.074 A 
ATOM     59  C   UNL     1      -2.579 -14.300  12.519  1.00  0.00     0.029 A 
ATOM     60  N   UNL     1      -1.675 -13.855  10.537  1.00  0.00    -0.354 N 
ATOM     61  N   UNL     1      -0.789 -14.499   7.810  1.00  0.00    -0.248 NA
ATOM     62  C   UNL     1      -0.368 -16.064   6.128  1.00  0.00     0.031 C 
ATOM     63  C   UNL     1      -2.456 -15.498  11.808  1.00  0.00     0.029 A 
ATOM     64  C   UNL     1      -1.926 -15.217  10.558  1.00  0.00     0.049 A 
ATOM     65  H   UNL     1      -1.289 -13.364   9.775  1.00  0.00     0.167 HD
ATOM     66  C   UNL     1      -1.157 -15.764   8.262  1.00  0.00     0.074 A 
ATOM     67  C   UNL     1      -0.902 -16.683   7.172  1.00  0.00     0.031 C 
ATOM     68  C   UNL     1      -1.668 -16.127   9.466  1.00  0.00     0.037 A 
BRANCH  55  69
ATOM     69  C   UNL     1      -2.217 -11.441  13.485  1.00  0.00     0.058 A 
ATOM     70  C   UNL     1      -3.250 -10.524  13.741  1.00  0.00     0.135 A 
ATOM     71  C   UNL     1      -1.488 -11.922  14.586  1.00  0.00     0.135 A 
ATOM     72  F   UNL     1      -3.973 -10.019  12.729  1.00  0.00    -0.206 F 
ATOM     73  C   UNL     1      -3.506 -10.055  15.026  1.00  0.00     0.059 A 
ATOM     74  C   UNL     1      -1.754 -11.498  15.884  1.00  0.00     0.059 A 
ATOM     75  F   UNL     1      -0.491 -12.803  14.406  1.00  0.00    -0.206 F 
ATOM     76  C   UNL     1      -2.748 -10.543  16.091  1.00  0.00     0.060 A 
BRANCH  76  77
ATOM     77  S   UNL     1      -3.063  -9.893  17.744  1.00  0.00     0.124 S 
ATOM     78  O   UNL     1      -2.549  -8.532  17.624  1.00  0.00    -0.237 OA
ATOM     79  O   UNL     1      -4.513 -10.015  17.854  1.00  0.00    -0.237 OA
ATOM     80  O   UNL     1      -2.294 -10.779  18.612  1.00  0.00    -0.744 OA
ENDBRANCH  76  77
ENDBRANCH  55  69
BRANCH  56  81
ATOM     81  C   UNL     1       0.511 -14.024   4.211  1.00  0.00     0.058 A 
ATOM     82  C   UNL     1      -0.455 -14.476   3.300  1.00  0.00     0.135 A 
ATOM     83  C   UNL     1       1.838 -13.933   3.763  1.00  0.00     0.135 A 
ATOM     84  F   UNL     1      -1.735 -14.598   3.686  1.00  0.00    -0.206 F 
ATOM     85  C   UNL     1      -0.123 -14.820   1.995  1.00  0.00     0.059 A 
ATOM     86  C   UNL     1       2.191 -14.244   2.453  1.00  0.00     0.059 A 
ATOM     87  F   UNL     1       2.801 -13.503   4.593  1.00  0.00    -0.206 F 
ATOM     88  C   UNL     1       1.202 -14.688   1.576  1.00  0.00     0.060 A 
BRANCH  88  89
ATOM     89  S   UNL     1       1.600 -15.052  -0.147  1.00  0.00     0.124 S 
ATOM     90  O   UNL     1       1.399 -16.495  -0.199  1.00  0.00    -0.237 OA
ATOM     91  O   UNL     1       0.617 -14.242  -0.860  1.00  0.00    -0.237 OA
ATOM     92  O   UNL     1       2.983 -14.602  -0.275  1.00  0.00    -0.744 OA
ENDBRANCH  88  89
ENDBRANCH  56  81
BRANCH  68  93
ATOM     93  C   UNL     1      -2.033 -17.577   9.664  1.00  0.00     0.058 A 
ATOM     94  C   UNL     1      -1.063 -18.587   9.755  1.00  0.00     0.135 A 
ATOM     95  C   UNL     1      -3.379 -17.952   9.821  1.00  0.00     0.135 A 
ATOM     96  F   UNL     1       0.238 -18.291   9.606  1.00  0.00    -0.206 F 
ATOM     97  C   UNL     1      -1.414 -19.918   9.966  1.00  0.00     0.059 A 
ATOM     98  C   UNL     1      -3.750 -19.269  10.071  1.00  0.00     0.059 A 
ATOM     99  F   UNL     1      -4.351 -17.028   9.755  1.00  0.00    -0.206 F 
ATOM    100  C   UNL     1      -2.760 -20.248  10.130  1.00  0.00     0.060 A 
BRANCH 100 101
ATOM    101  S   UNL     1      -3.196 -21.972  10.440  1.00  0.00     0.124 S 
ATOM    102  O   UNL     1      -2.909 -22.587   9.149  1.00  0.00    -0.237 OA
ATOM    103  O   UNL     1      -2.291 -22.329  11.528  1.00  0.00    -0.237 OA
ATOM    104  O   UNL     1      -4.609 -21.907  10.803  1.00  0.00    -0.744 OA
ENDBRANCH 100 101
ENDBRANCH  68  93
ENDBRANCH  42  43
ENDBRANCH  35  37
ENDBRANCH  34  35
ENDBRANCH  33  34
ENDBRANCH  32  33
ENDBRANCH  31  32
ENDBRANCH  30  31
ENDBRANCH  29  30
ENDBRANCH  28  29
ENDBRANCH   1  28
TORSDOF 27
