REMARK SMILES CC(=O)c1cc2c(cc1NC(=O)/C=C/C(=O)OCCOCCOCCOCCOC(=O)c1ccc(-c3c4nc(c(-c5c(F)cc(S(=O)(=O)[O-])cc5F)c5ccc([nH]5)c(-c5c(F)cc(S(=O)(=O)[O-])cc5F)c5nc(c(-c6c(F)cc(S(=O)(=O)[O-])cc6F)c6ccc3[nH]6)C=C5)C=C4)cc1)OCO2
REMARK SMILES IDX 23 1 22 2 21 3 20 4 19 5 18 6 17 7 15 8 16 9 14 10 13 11
REMARK SMILES IDX 11 12 10 13 12 15 9 16 4 17 5 18 6 19 8 20 7 21 100 22 98 23
REMARK SMILES IDX 99 24 2 25 1 26 3 27 24 28 25 29 26 30 27 31 28 32 29 33
REMARK SMILES IDX 30 34 31 35 32 36 33 37 97 38 34 39 96 40 35 41 36 42 37 43
REMARK SMILES IDX 90 44 38 45 95 46 89 47 91 48 39 49 94 50 88 51 87 52 40 54
REMARK SMILES IDX 74 55 53 56 73 57 54 58 57 59 72 60 92 61 55 62 56 63 71 65
REMARK SMILES IDX 93 66 58 67 41 68 42 69 51 70 43 71 44 72 50 73 52 74 45 75
REMARK SMILES IDX 46 76 47 77 48 78 49 79 75 80 76 81 85 82 77 83 78 84 84 85
REMARK SMILES IDX 86 86 79 87 80 88 81 89 82 90 83 91 59 92 60 93 69 94 61 95
REMARK SMILES IDX 62 96 68 97 70 98 63 99 64 100 65 101 66 102 67 103
REMARK H PARENT 10 14 91 53 57 64
REMARK Flexibility Score: inf
ROOT
ATOM      1  O   UNL     1      -2.507   1.708   8.005  1.00  0.00    -0.377 OA
ENDROOT
BRANCH   1   2
ATOM      2  C   UNL     1      -1.392   1.931   7.156  1.00  0.00     0.188 C 
BRANCH   2   3
ATOM      3  C   UNL     1      -0.144   2.742   7.585  1.00  0.00     0.188 C 
BRANCH   3   4
ATOM      4  O   UNL     1      -0.246   3.411   8.827  1.00  0.00    -0.376 OA
BRANCH   4   5
ATOM      5  C   UNL     1      -0.295   4.826   8.804  1.00  0.00     0.202 C 
BRANCH   5   6
ATOM      6  C   UNL     1      -1.520   5.451   8.123  1.00  0.00     0.261 C 
BRANCH   6   7
ATOM      7  O   UNL     1      -1.767   5.001   6.777  1.00  0.00    -0.460 OA
BRANCH   7   8
ATOM      8  C   UNL     1      -1.053   5.587   5.790  1.00  0.00     0.331 C 
ATOM      9  O   UNL     1      -0.183   6.431   5.942  1.00  0.00    -0.247 OA
BRANCH   8  10
ATOM     10  C   UNL     1      -1.329   4.974   4.468  1.00  0.00     0.099 C 
ATOM     11  C   UNL     1      -2.262   4.037   4.234  1.00  0.00     0.079 C 
BRANCH  11  12
ATOM     12  C   UNL     1      -2.403   3.339   2.933  1.00  0.00     0.248 C 
ATOM     13  N   UNL     1      -1.359   2.707   2.309  1.00  0.00    -0.322 N 
ATOM     14  H   UNL     1      -1.581   2.407   1.398  1.00  0.00     0.170 HD
ATOM     15  O   UNL     1      -3.516   3.322   2.407  1.00  0.00    -0.270 OA
BRANCH  13  16
ATOM     16  C   UNL     1      -0.031   2.389   2.685  1.00  0.00     0.056 A 
ATOM     17  C   UNL     1       0.910   1.946   1.717  1.00  0.00     0.045 A 
ATOM     18  C   UNL     1       2.280   1.827   2.026  1.00  0.00     0.064 A 
ATOM     19  C   UNL     1       2.670   2.077   3.320  1.00  0.00     0.166 A 
ATOM     20  C   UNL     1       0.407   2.481   4.001  1.00  0.00     0.077 A 
ATOM     21  C   UNL     1       1.748   2.359   4.288  1.00  0.00     0.167 A 
ATOM     22  O   UNL     1       3.937   2.046   3.809  1.00  0.00    -0.454 OA
ATOM     23  O   UNL     1       2.307   2.514   5.515  1.00  0.00    -0.454 OA
ATOM     24  C   UNL     1       3.705   2.406   5.191  1.00  0.00     0.468 C 
BRANCH  17  25
ATOM     25  C   UNL     1       0.455   1.521   0.370  1.00  0.00     0.162 C 
ATOM     26  C   UNL     1       0.976   0.203  -0.147  1.00  0.00     0.093 C 
ATOM     27  O   UNL     1      -0.388   2.179  -0.231  1.00  0.00    -0.294 OA
ENDBRANCH  17  25
ENDBRANCH  13  16
ENDBRANCH  11  12
ENDBRANCH   8  10
ENDBRANCH   7   8
ENDBRANCH   6   7
ENDBRANCH   5   6
ENDBRANCH   4   5
ENDBRANCH   3   4
ENDBRANCH   2   3
ENDBRANCH   1   2
BRANCH   1  28
ATOM     28  C   UNL     1      -2.360   1.896   9.401  1.00  0.00     0.188 C 
BRANCH  28  29
ATOM     29  C   UNL     1      -1.224   1.120  10.097  1.00  0.00     0.188 C 
BRANCH  29  30
ATOM     30  O   UNL     1      -0.376   0.426   9.188  1.00  0.00    -0.376 OA
BRANCH  30  31
ATOM     31  C   UNL     1      -0.523  -0.982   9.117  1.00  0.00     0.202 C 
BRANCH  31  32
ATOM     32  C   UNL     1      -1.875  -1.556   8.661  1.00  0.00     0.261 C 
BRANCH  32  33
ATOM     33  O   UNL     1      -3.050  -1.047   9.307  1.00  0.00    -0.460 OA
BRANCH  33  34
ATOM     34  C   UNL     1      -3.236  -1.347  10.609  1.00  0.00     0.338 C 
ATOM     35  O   UNL     1      -2.501  -2.016  11.319  1.00  0.00    -0.246 OA
BRANCH  34  36
ATOM     36  C   UNL     1      -4.384  -0.545  11.086  1.00  0.00     0.060 A 
ATOM     37  C   UNL     1      -4.184   0.393  12.110  1.00  0.00     0.016 A 
ATOM     38  C   UNL     1      -5.640  -0.680  10.489  1.00  0.00     0.016 A 
ATOM     39  C   UNL     1      -5.247   1.183  12.551  1.00  0.00     0.010 A 
ATOM     40  C   UNL     1      -6.709   0.090  10.952  1.00  0.00     0.010 A 
ATOM     41  C   UNL     1      -6.524   1.004  12.005  1.00  0.00    -0.014 A 
BRANCH  41  42
ATOM     42  C   UNL     1      -7.699   1.611  12.677  1.00  0.00     0.031 A 
ATOM     43  C   UNL     1      -8.485   0.758  13.634  1.00  0.00     0.074 A 
ATOM     44  C   UNL     1      -8.052   2.891  12.463  1.00  0.00     0.049 A 
ATOM     45  N   UNL     1      -9.567   1.043  14.309  1.00  0.00    -0.248 NA
ATOM     46  C   UNL     1      -7.978  -0.608  13.853  1.00  0.00     0.031 C 
ATOM     47  C   UNL     1      -7.354   3.824  11.582  1.00  0.00     0.029 A 
ATOM     48  N   UNL     1      -9.101   3.620  12.965  1.00  0.00    -0.354 N 
ATOM     49  C   UNL     1      -9.871  -0.104  15.032  1.00  0.00     0.074 A 
ATOM     50  C   UNL     1      -8.885  -1.103  14.679  1.00  0.00     0.031 C 
ATOM     51  C   UNL     1      -8.009   4.998  11.586  1.00  0.00     0.029 A 
ATOM     52  C   UNL     1      -9.188   4.889  12.446  1.00  0.00     0.049 A 
ATOM     53  H   UNL     1      -9.732   3.266  13.633  1.00  0.00     0.167 HD
ATOM     54  C   UNL     1     -10.873  -0.305  15.921  1.00  0.00     0.037 A 
ATOM     55  C   UNL     1     -10.127   5.841  12.623  1.00  0.00     0.037 A 
ATOM     56  C   UNL     1     -11.864   0.687  16.249  1.00  0.00     0.049 A 
ATOM     57  C   UNL     1     -11.279   5.577  13.560  1.00  0.00     0.074 A 
ATOM     58  C   UNL     1     -12.920   0.587  17.136  1.00  0.00     0.029 A 
ATOM     59  N   UNL     1     -11.929   1.956  15.691  1.00  0.00    -0.354 N 
ATOM     60  N   UNL     1     -11.543   4.499  14.262  1.00  0.00    -0.248 NA
ATOM     61  C   UNL     1     -12.255   6.661  13.739  1.00  0.00     0.031 C 
ATOM     62  C   UNL     1     -13.657   1.775  17.072  1.00  0.00     0.029 A 
ATOM     63  C   UNL     1     -13.023   2.641  16.195  1.00  0.00     0.049 A 
ATOM     64  H   UNL     1     -11.291   2.317  15.033  1.00  0.00     0.167 HD
ATOM     65  C   UNL     1     -12.701   4.782  14.980  1.00  0.00     0.074 A 
ATOM     66  C   UNL     1     -13.077   6.139  14.640  1.00  0.00     0.031 C 
ATOM     67  C   UNL     1     -13.389   3.993  15.844  1.00  0.00     0.037 A 
BRANCH  54  68
ATOM     68  C   UNL     1     -10.957  -1.662  16.567  1.00  0.00     0.058 A 
ATOM     69  C   UNL     1      -9.988  -2.109  17.480  1.00  0.00     0.135 A 
ATOM     70  C   UNL     1     -12.017  -2.532  16.263  1.00  0.00     0.135 A 
ATOM     71  F   UNL     1      -8.941  -1.327  17.794  1.00  0.00    -0.206 F 
ATOM     72  C   UNL     1     -10.041  -3.384  18.034  1.00  0.00     0.059 A 
ATOM     73  C   UNL     1     -12.109  -3.799  16.831  1.00  0.00     0.059 A 
ATOM     74  F   UNL     1     -12.971  -2.159  15.396  1.00  0.00    -0.206 F 
ATOM     75  C   UNL     1     -11.104  -4.224  17.699  1.00  0.00     0.060 A 
BRANCH  75  76
ATOM     76  S   UNL     1     -11.147  -5.883  18.408  1.00  0.00     0.124 S 
ATOM     77  O   UNL     1     -10.060  -6.537  17.685  1.00  0.00    -0.237 OA
ATOM     78  O   UNL     1     -10.900  -5.624  19.823  1.00  0.00    -0.237 OA
ATOM     79  O   UNL     1     -12.489  -6.358  18.085  1.00  0.00    -0.744 OA
ENDBRANCH  75  76
ENDBRANCH  54  68
BRANCH  55  80
ATOM     80  C   UNL     1     -10.023   7.124  11.877  1.00  0.00     0.058 A 
ATOM     81  C   UNL     1      -9.730   8.330  12.530  1.00  0.00     0.135 A 
ATOM     82  C   UNL     1     -10.192   7.162  10.483  1.00  0.00     0.135 A 
ATOM     83  F   UNL     1      -9.577   8.351  13.863  1.00  0.00    -0.206 F 
ATOM     84  C   UNL     1      -9.607   9.527  11.830  1.00  0.00     0.059 A 
ATOM     85  C   UNL     1     -10.046   8.341   9.758  1.00  0.00     0.059 A 
ATOM     86  F   UNL     1     -10.469   6.035   9.808  1.00  0.00    -0.206 F 
ATOM     87  C   UNL     1      -9.756   9.520  10.442  1.00  0.00     0.060 A 
BRANCH  87  88
ATOM     88  S   UNL     1      -9.509  11.063   9.537  1.00  0.00     0.124 S 
ATOM     89  O   UNL     1     -10.694  11.823   9.920  1.00  0.00    -0.237 OA
ATOM     90  O   UNL     1      -8.242  11.537  10.085  1.00  0.00    -0.237 OA
ATOM     91  O   UNL     1      -9.458  10.632   8.143  1.00  0.00    -0.744 OA
ENDBRANCH  87  88
ENDBRANCH  55  80
BRANCH  67  92
ATOM     92  C   UNL     1     -14.605   4.582  16.511  1.00  0.00     0.058 A 
ATOM     93  C   UNL     1     -15.790   4.839  15.804  1.00  0.00     0.135 A 
ATOM     94  C   UNL     1     -14.599   4.847  17.891  1.00  0.00     0.135 A 
ATOM     95  F   UNL     1     -15.852   4.609  14.482  1.00  0.00    -0.206 F 
ATOM     96  C   UNL     1     -16.915   5.364  16.434  1.00  0.00     0.059 A 
ATOM     97  C   UNL     1     -15.722   5.341  18.548  1.00  0.00     0.059 A 
ATOM     98  F   UNL     1     -13.497   4.608  18.621  1.00  0.00    -0.206 F 
ATOM     99  C   UNL     1     -16.871   5.610  17.807  1.00  0.00     0.060 A 
BRANCH  99 100
ATOM    100  S   UNL     1     -18.345   6.268  18.616  1.00  0.00     0.124 S 
ATOM    101  O   UNL     1     -18.363   7.641  18.122  1.00  0.00    -0.237 OA
ATOM    102  O   UNL     1     -19.398   5.396  18.104  1.00  0.00    -0.237 OA
ATOM    103  O   UNL     1     -18.050   6.117  20.038  1.00  0.00    -0.744 OA
ENDBRANCH  99 100
ENDBRANCH  67  92
ENDBRANCH  41  42
ENDBRANCH  34  36
ENDBRANCH  33  34
ENDBRANCH  32  33
ENDBRANCH  31  32
ENDBRANCH  30  31
ENDBRANCH  29  30
ENDBRANCH  28  29
ENDBRANCH   1  28
TORSDOF 26
