REMARK SMILES C[C@H]1[C@H](C(=O)OCCOCCOCCOCCOC(=O)c2ccc(-c3c4nc(c(-c5c(F)cc(S(=O)(=O)[O-])cc5F)c5ccc([nH]5)c(-c5c(F)cc(S(=O)(=O)[O-])cc5F)c5nc(c(-c6c(F)cc(S(=O)(=O)[O-])cc6F)c6ccc3[nH]6)C=C5)C=C4)cc2)CC[N@@H+]1Cc1ccc(Br)cc1F
REMARK SMILES IDX 13 1 12 2 11 3 10 4 9 5 8 6 7 7 6 8 4 9 5 10 3 11 1 12 2 13
REMARK SMILES IDX 89 14 87 15 88 16 90 18 91 19 92 20 97 21 93 22 96 23 98 24
REMARK SMILES IDX 94 25 95 26 14 27 15 28 16 29 17 30 18 31 19 32 20 33 21 34
REMARK SMILES IDX 22 35 86 36 23 37 85 38 24 39 25 40 26 41 79 42 27 43 84 44
REMARK SMILES IDX 78 45 80 46 28 47 83 48 77 49 76 50 29 52 63 53 42 54 62 55
REMARK SMILES IDX 43 56 46 57 61 58 81 59 44 60 45 61 60 63 82 64 47 65 30 66
REMARK SMILES IDX 31 67 40 68 32 69 33 70 39 71 41 72 34 73 35 74 36 75 37 76
REMARK SMILES IDX 38 77 64 78 65 79 74 80 66 81 67 82 73 83 75 84 68 85 69 86
REMARK SMILES IDX 70 87 71 88 72 89 48 90 49 91 58 92 50 93 51 94 57 95 59 96
REMARK SMILES IDX 52 97 53 98 54 99 55 100 56 101
REMARK H PARENT 89 17 80 51 46 62
REMARK Flexibility Score: inf
ROOT
ATOM      1  C   UNL     1       2.597   2.285   4.271  1.00  0.00     0.188 C 
ENDROOT
BRANCH   1   2
ATOM      2  O   UNL     1       2.825   1.696   3.011  1.00  0.00    -0.377 OA
BRANCH   2   3
ATOM      3  C   UNL     1       1.918   2.094   2.017  1.00  0.00     0.188 C 
BRANCH   3   4
ATOM      4  C   UNL     1       1.772   3.550   1.564  1.00  0.00     0.188 C 
BRANCH   4   5
ATOM      5  O   UNL     1       1.131   4.510   2.384  1.00  0.00    -0.376 OA
BRANCH   5   6
ATOM      6  C   UNL     1      -0.036   4.248   3.139  1.00  0.00     0.202 C 
BRANCH   6   7
ATOM      7  C   UNL     1      -1.226   3.411   2.633  1.00  0.00     0.261 C 
BRANCH   7   8
ATOM      8  O   UNL     1      -0.926   2.249   1.840  1.00  0.00    -0.463 OA
BRANCH   8   9
ATOM      9  C   UNL     1      -1.123   2.362   0.509  1.00  0.00     0.315 C 
ATOM     10  O   UNL     1      -1.586   3.367  -0.024  1.00  0.00    -0.252 OA
BRANCH   9  11
ATOM     11  C   UNL     1      -0.737   1.143  -0.325  1.00  0.00     0.162 C 
ATOM     12  C   UNL     1       1.397  -0.161  -0.721  1.00  0.00     0.076 C 
ATOM     13  C   UNL     1       0.174   0.019   0.203  1.00  0.00     0.195 C 
ATOM     14  N   UNL     1      -0.578  -1.236   0.129  1.00  0.00    -0.328 N 
ATOM     15  C   UNL     1      -2.010   0.441  -0.776  1.00  0.00     0.083 C 
ATOM     16  C   UNL     1      -1.677  -1.038  -0.800  1.00  0.00     0.263 C 
ATOM     17  H   UNL     1       0.028  -1.966  -0.245  1.00  0.00     0.348 HD
BRANCH  14  18
ATOM     18  C   UNL     1      -0.892  -1.885   1.409  1.00  0.00     0.302 C 
BRANCH  18  19
ATOM     19  C   UNL     1      -1.519  -1.057   2.507  1.00  0.00     0.042 A 
ATOM     20  C   UNL     1      -0.777  -0.698   3.648  1.00  0.00     0.014 A 
ATOM     21  C   UNL     1      -2.860  -0.667   2.450  1.00  0.00     0.133 A 
ATOM     22  C   UNL     1      -1.360   0.053   4.674  1.00  0.00     0.016 A 
ATOM     23  C   UNL     1      -3.442   0.107   3.449  1.00  0.00     0.055 A 
ATOM     24  F   UNL     1      -3.625  -1.043   1.416  1.00  0.00    -0.206 F 
ATOM     25  C   UNL     1      -2.687   0.463   4.561  1.00  0.00     0.020 A 
ATOM     26  Br  UNL     1      -3.462   1.525   5.918  1.00  0.00    -0.051 Br
ENDBRANCH  18  19
ENDBRANCH  14  18
ENDBRANCH   9  11
ENDBRANCH   8   9
ENDBRANCH   7   8
ENDBRANCH   6   7
ENDBRANCH   5   6
ENDBRANCH   4   5
ENDBRANCH   3   4
ENDBRANCH   2   3
ENDBRANCH   1   2
BRANCH   1  27
ATOM     27  C   UNL     1       3.545   3.459   4.473  1.00  0.00     0.188 C 
BRANCH  27  28
ATOM     28  O   UNL     1       4.329   3.806   3.347  1.00  0.00    -0.376 OA
BRANCH  28  29
ATOM     29  C   UNL     1       5.295   2.930   2.779  1.00  0.00     0.202 C 
BRANCH  29  30
ATOM     30  C   UNL     1       5.598   1.450   3.134  1.00  0.00     0.261 C 
BRANCH  30  31
ATOM     31  O   UNL     1       5.061   0.861   4.317  1.00  0.00    -0.460 OA
BRANCH  31  32
ATOM     32  C   UNL     1       5.617   1.218   5.488  1.00  0.00     0.338 C 
ATOM     33  O   UNL     1       6.537   2.000   5.655  1.00  0.00    -0.246 OA
BRANCH  32  34
ATOM     34  C   UNL     1       4.776   0.648   6.564  1.00  0.00     0.060 A 
ATOM     35  C   UNL     1       4.201   1.530   7.487  1.00  0.00     0.016 A 
ATOM     36  C   UNL     1       4.541  -0.728   6.657  1.00  0.00     0.016 A 
ATOM     37  C   UNL     1       3.443   1.037   8.543  1.00  0.00     0.010 A 
ATOM     38  C   UNL     1       3.806  -1.227   7.737  1.00  0.00     0.010 A 
ATOM     39  C   UNL     1       3.302  -0.346   8.711  1.00  0.00    -0.014 A 
BRANCH  39  40
ATOM     40  C   UNL     1       2.880  -0.841  10.043  1.00  0.00     0.031 A 
ATOM     41  C   UNL     1       3.961  -1.216  11.023  1.00  0.00     0.074 A 
ATOM     42  C   UNL     1       1.587  -0.860  10.409  1.00  0.00     0.049 A 
ATOM     43  N   UNL     1       3.857  -1.615  12.263  1.00  0.00    -0.248 NA
ATOM     44  C   UNL     1       5.349  -1.120  10.538  1.00  0.00     0.031 C 
ATOM     45  C   UNL     1       0.461  -0.470   9.562  1.00  0.00     0.029 A 
ATOM     46  N   UNL     1       1.007  -1.213  11.600  1.00  0.00    -0.354 N 
ATOM     47  C   UNL     1       5.160  -1.817  12.704  1.00  0.00     0.074 A 
ATOM     48  C   UNL     1       6.036  -1.538  11.588  1.00  0.00     0.031 C 
ATOM     49  C   UNL     1      -0.679  -0.611  10.262  1.00  0.00     0.029 A 
ATOM     50  C   UNL     1      -0.364  -1.120  11.597  1.00  0.00     0.049 A 
ATOM     51  H   UNL     1       1.524  -1.507  12.385  1.00  0.00     0.167 HD
ATOM     52  C   UNL     1       5.591  -2.188  13.932  1.00  0.00     0.037 A 
ATOM     53  C   UNL     1      -1.257  -1.423  12.560  1.00  0.00     0.037 A 
ATOM     54  C   UNL     1       4.713  -2.466  15.037  1.00  0.00     0.049 A 
ATOM     55  C   UNL     1      -0.757  -1.900  13.901  1.00  0.00     0.074 A 
ATOM     56  C   UNL     1       5.044  -2.845  16.325  1.00  0.00     0.029 A 
ATOM     57  N   UNL     1       3.327  -2.404  14.982  1.00  0.00    -0.354 N 
ATOM     58  N   UNL     1       0.479  -2.070  14.312  1.00  0.00    -0.248 NA
ATOM     59  C   UNL     1      -1.773  -2.213  14.915  1.00  0.00     0.031 C 
ATOM     60  C   UNL     1       3.858  -3.068  17.032  1.00  0.00     0.029 A 
ATOM     61  C   UNL     1       2.788  -2.762  16.206  1.00  0.00     0.049 A 
ATOM     62  H   UNL     1       2.805  -2.143  14.189  1.00  0.00     0.167 HD
ATOM     63  C   UNL     1       0.388  -2.477  15.640  1.00  0.00     0.074 A 
ATOM     64  C   UNL     1      -1.023  -2.513  15.966  1.00  0.00     0.031 C 
ATOM     65  C   UNL     1       1.379  -2.789  16.514  1.00  0.00     0.037 A 
BRANCH  52  66
ATOM     66  C   UNL     1       7.074  -2.345  14.131  1.00  0.00     0.058 A 
ATOM     67  C   UNL     1       7.945  -1.244  14.140  1.00  0.00     0.135 A 
ATOM     68  C   UNL     1       7.630  -3.619  14.336  1.00  0.00     0.135 A 
ATOM     69  F   UNL     1       7.473  -0.005  13.924  1.00  0.00    -0.206 F 
ATOM     70  C   UNL     1       9.316  -1.401  14.318  1.00  0.00     0.059 A 
ATOM     71  C   UNL     1       8.993  -3.797  14.548  1.00  0.00     0.059 A 
ATOM     72  F   UNL     1       6.845  -4.707  14.329  1.00  0.00    -0.206 F 
ATOM     73  C   UNL     1       9.830  -2.683  14.524  1.00  0.00     0.060 A 
BRANCH  73  74
ATOM     74  S   UNL     1      11.609  -2.870  14.765  1.00  0.00     0.124 S 
ATOM     75  O   UNL     1      12.117  -2.588  13.426  1.00  0.00    -0.237 OA
ATOM     76  O   UNL     1      11.893  -1.858  15.777  1.00  0.00    -0.237 OA
ATOM     77  O   UNL     1      11.749  -4.253  15.210  1.00  0.00    -0.744 OA
ENDBRANCH  73  74
ENDBRANCH  52  66
BRANCH  53  78
ATOM     78  C   UNL     1      -2.716  -1.289  12.293  1.00  0.00     0.058 A 
ATOM     79  C   UNL     1      -3.495  -0.329  12.955  1.00  0.00     0.135 A 
ATOM     80  C   UNL     1      -3.362  -2.133  11.375  1.00  0.00     0.135 A 
ATOM     81  F   UNL     1      -2.929   0.494  13.850  1.00  0.00    -0.206 F 
ATOM     82  C   UNL     1      -4.865  -0.220  12.731  1.00  0.00     0.059 A 
ATOM     83  C   UNL     1      -4.723  -2.024  11.112  1.00  0.00     0.059 A 
ATOM     84  F   UNL     1      -2.661  -3.063  10.708  1.00  0.00    -0.206 F 
ATOM     85  C   UNL     1      -5.469  -1.071  11.803  1.00  0.00     0.060 A 
BRANCH  85  86
ATOM     86  S   UNL     1      -7.238  -0.891  11.486  1.00  0.00     0.124 S 
ATOM     87  O   UNL     1      -7.813  -1.408  12.722  1.00  0.00    -0.237 OA
ATOM     88  O   UNL     1      -7.364   0.547  11.274  1.00  0.00    -0.237 OA
ATOM     89  O   UNL     1      -7.451  -1.713  10.299  1.00  0.00    -0.744 OA
ENDBRANCH  85  86
ENDBRANCH  53  78
BRANCH  65  90
ATOM     90  C   UNL     1       0.977  -3.150  17.920  1.00  0.00     0.058 A 
ATOM     91  C   UNL     1       0.310  -4.349  18.220  1.00  0.00     0.135 A 
ATOM     92  C   UNL     1       1.294  -2.295  18.989  1.00  0.00     0.135 A 
ATOM     93  F   UNL     1      -0.017  -5.204  17.238  1.00  0.00    -0.206 F 
ATOM     94  C   UNL     1      -0.070  -4.664  19.521  1.00  0.00     0.059 A 
ATOM     95  C   UNL     1       0.956  -2.607  20.302  1.00  0.00     0.059 A 
ATOM     96  F   UNL     1       1.947  -1.144  18.764  1.00  0.00    -0.206 F 
ATOM     97  C   UNL     1       0.255  -3.784  20.555  1.00  0.00     0.060 A 
BRANCH  97  98
ATOM     98  S   UNL     1      -0.244  -4.204  22.238  1.00  0.00     0.124 S 
ATOM     99  O   UNL     1      -1.683  -3.972  22.184  1.00  0.00    -0.237 OA
ATOM    100  O   UNL     1       0.170  -5.600  22.348  1.00  0.00    -0.237 OA
ATOM    101  O   UNL     1       0.513  -3.266  23.062  1.00  0.00    -0.744 OA
ENDBRANCH  97  98
ENDBRANCH  65  90
ENDBRANCH  39  40
ENDBRANCH  32  34
ENDBRANCH  31  32
ENDBRANCH  30  31
ENDBRANCH  29  30
ENDBRANCH  28  29
ENDBRANCH  27  28
ENDBRANCH   1  27
TORSDOF 25
