REMARK SMILES CC(C)[NH2+][C@]1(C(=O)OCCOCCOCCOCCOC(=O)c2ccc(-c3c4nc(c(-c5c(F)cc(S(=O)(=O)[O-])cc5F)c5ccc([nH]5)c(-c5c(F)cc(S(=O)(=O)[O-])cc5F)c5nc(c(-c6c(F)cc(S(=O)(=O)[O-])cc6F)c6ccc3[nH]6)C=C5)C=C4)cc2)CCC[C@H]([N@H+](C)C2CCCCC2)C1
REMARK SMILES IDX 15 1 14 2 13 3 12 4 11 5 10 6 9 7 8 8 6 9 7 10 5 11 89 12
REMARK SMILES IDX 101 13 90 14 92 15 91 16 4 17 2 20 1 21 3 22 93 23 94 24
REMARK SMILES IDX 95 26 96 27 100 28 97 29 99 30 98 31 16 32 17 33 18 34 19 35
REMARK SMILES IDX 20 36 21 37 22 38 23 39 24 40 88 41 25 42 87 43 26 44 27 45
REMARK SMILES IDX 28 46 81 47 29 48 86 49 80 50 82 51 30 52 85 53 79 54 78 55
REMARK SMILES IDX 31 57 65 58 44 59 64 60 45 61 48 62 63 63 83 64 46 65 47 66
REMARK SMILES IDX 62 68 84 69 49 70 32 71 33 72 42 73 34 74 35 75 41 76 43 77
REMARK SMILES IDX 36 78 37 79 38 80 39 81 40 82 66 83 67 84 76 85 68 86 69 87
REMARK SMILES IDX 75 88 77 89 70 90 71 91 72 92 73 93 74 94 50 95 51 96 60 97
REMARK SMILES IDX 52 98 53 99 59 100 61 101 54 102 55 103 56 104 57 105 58 106
REMARK H PARENT 4 18 4 19 93 25 82 56 48 67
REMARK Flexibility Score: inf
ROOT
ATOM      1  C   UNL     1       1.837  -2.442  -0.672  1.00  0.00     0.188 C 
ENDROOT
BRANCH   1   2
ATOM      2  O   UNL     1       1.337  -2.491   0.656  1.00  0.00    -0.377 OA
BRANCH   2   3
ATOM      3  C   UNL     1      -0.064  -2.606   0.817  1.00  0.00     0.188 C 
BRANCH   3   4
ATOM      4  C   UNL     1      -0.990  -1.601   0.096  1.00  0.00     0.188 C 
BRANCH   4   5
ATOM      5  O   UNL     1      -0.418  -1.019  -1.068  1.00  0.00    -0.376 OA
BRANCH   5   6
ATOM      6  C   UNL     1      -0.274   0.402  -1.095  1.00  0.00     0.202 C 
BRANCH   6   7
ATOM      7  C   UNL     1       0.593   1.069  -0.007  1.00  0.00     0.261 C 
BRANCH   7   8
ATOM      8  O   UNL     1       0.161   0.700   1.311  1.00  0.00    -0.459 OA
BRANCH   8   9
ATOM      9  C   UNL     1      -0.500   1.560   2.138  1.00  0.00     0.368 C 
ATOM     10  O   UNL     1      -0.689   2.740   1.877  1.00  0.00    -0.245 OA
BRANCH   9  11
ATOM     11  C   UNL     1      -1.167   0.754   3.346  1.00  0.00     0.200 C 
ATOM     12  C   UNL     1      -0.510  -0.682   3.379  1.00  0.00     0.081 C 
ATOM     13  C   UNL     1      -0.875   1.302   4.729  1.00  0.00     0.146 C 
ATOM     14  C   UNL     1      -0.309  -1.553   4.636  1.00  0.00     0.013 C 
ATOM     15  C   UNL     1      -1.354   0.364   5.899  1.00  0.00     0.190 C 
ATOM     16  C   UNL     1      -0.429  -0.844   5.955  1.00  0.00     0.065 C 
BRANCH  11  17
ATOM     17  N   UNL     1      -2.632   0.701   3.031  1.00  0.00    -0.330 N 
ATOM     18  H   UNL     1      -2.707   0.325   2.086  1.00  0.00     0.347 HD
ATOM     19  H   UNL     1      -3.000   0.157   3.811  1.00  0.00     0.347 HD
BRANCH  17  20
ATOM     20  C   UNL     1      -3.483   1.910   3.065  1.00  0.00     0.176 C 
ATOM     21  C   UNL     1      -4.844   1.529   2.436  1.00  0.00     0.075 C 
ATOM     22  C   UNL     1      -3.841   2.529   4.424  1.00  0.00     0.075 C 
ENDBRANCH  17  20
ENDBRANCH  11  17
BRANCH  15  23
ATOM     23  N   UNL     1      -2.831   0.123   6.087  1.00  0.00    -0.332 N 
ATOM     24  C   UNL     1      -3.179   0.628   7.429  1.00  0.00     0.333 C 
ATOM     25  H   UNL     1      -3.225   0.620   5.288  1.00  0.00     0.348 HD
BRANCH  23  26
ATOM     26  C   UNL     1      -3.514  -1.206   5.804  1.00  0.00     0.184 C 
ATOM     27  C   UNL     1      -5.033  -1.177   6.210  1.00  0.00     0.065 C 
ATOM     28  C   UNL     1      -3.560  -1.666   4.332  1.00  0.00     0.065 C 
ATOM     29  C   UNL     1      -5.882  -2.402   5.816  1.00  0.00     0.006 C 
ATOM     30  C   UNL     1      -4.232  -3.007   4.079  1.00  0.00     0.006 C 
ATOM     31  C   UNL     1      -5.705  -2.859   4.377  1.00  0.00     0.000 C 
ENDBRANCH  23  26
ENDBRANCH  15  23
ENDBRANCH   9  11
ENDBRANCH   8   9
ENDBRANCH   7   8
ENDBRANCH   6   7
ENDBRANCH   5   6
ENDBRANCH   4   5
ENDBRANCH   3   4
ENDBRANCH   2   3
ENDBRANCH   1   2
BRANCH   1  32
ATOM     32  C   UNL     1       1.225  -3.353  -1.766  1.00  0.00     0.188 C 
BRANCH  32  33
ATOM     33  O   UNL     1       0.015  -4.024  -1.434  1.00  0.00    -0.376 OA
BRANCH  33  34
ATOM     34  C   UNL     1       0.107  -5.425  -1.182  1.00  0.00     0.202 C 
BRANCH  34  35
ATOM     35  C   UNL     1       0.859  -5.885   0.086  1.00  0.00     0.261 C 
BRANCH  35  36
ATOM     36  O   UNL     1       2.193  -5.384   0.236  1.00  0.00    -0.460 OA
BRANCH  36  37
ATOM     37  C   UNL     1       3.090  -5.806  -0.686  1.00  0.00     0.338 C 
ATOM     38  O   UNL     1       2.887  -6.573  -1.599  1.00  0.00    -0.246 OA
BRANCH  37  39
ATOM     39  C   UNL     1       4.324  -5.007  -0.520  1.00  0.00     0.060 A 
ATOM     40  C   UNL     1       4.760  -4.232  -1.603  1.00  0.00     0.016 A 
ATOM     41  C   UNL     1       5.039  -5.020   0.679  1.00  0.00     0.016 A 
ATOM     42  C   UNL     1       5.927  -3.480  -1.497  1.00  0.00     0.010 A 
ATOM     43  C   UNL     1       6.235  -4.301   0.769  1.00  0.00     0.010 A 
ATOM     44  C   UNL     1       6.698  -3.556  -0.331  1.00  0.00    -0.014 A 
BRANCH  44  45
ATOM     45  C   UNL     1       8.094  -3.062  -0.371  1.00  0.00     0.031 A 
ATOM     46  C   UNL     1       9.175  -4.050  -0.720  1.00  0.00     0.074 A 
ATOM     47  C   UNL     1       8.394  -1.769  -0.160  1.00  0.00     0.049 A 
ATOM     48  N   UNL     1      10.465  -3.871  -0.816  1.00  0.00    -0.248 NA
ATOM     49  C   UNL     1       8.735  -5.428  -1.001  1.00  0.00     0.031 C 
ATOM     50  C   UNL     1       7.429  -0.712   0.135  1.00  0.00     0.029 A 
ATOM     51  N   UNL     1       9.608  -1.127  -0.161  1.00  0.00    -0.354 N 
ATOM     52  C   UNL     1      10.991  -5.109  -1.165  1.00  0.00     0.074 A 
ATOM     53  C   UNL     1       9.886  -6.039  -1.233  1.00  0.00     0.031 C 
ATOM     54  C   UNL     1       8.091   0.447   0.302  1.00  0.00     0.029 A 
ATOM     55  C   UNL     1       9.527   0.208   0.154  1.00  0.00     0.049 A 
ATOM     56  H   UNL     1      10.457  -1.581  -0.368  1.00  0.00     0.167 HD
ATOM     57  C   UNL     1      12.279  -5.440  -1.415  1.00  0.00     0.037 A 
ATOM     58  C   UNL     1      10.503   1.123   0.324  1.00  0.00     0.037 A 
ATOM     59  C   UNL     1      13.375  -4.511  -1.336  1.00  0.00     0.049 A 
ATOM     60  C   UNL     1      11.941   0.713   0.117  1.00  0.00     0.074 A 
ATOM     61  C   UNL     1      14.717  -4.744  -1.578  1.00  0.00     0.029 A 
ATOM     62  N   UNL     1      13.258  -3.176  -0.978  1.00  0.00    -0.354 N 
ATOM     63  N   UNL     1      12.426  -0.456  -0.235  1.00  0.00    -0.248 NA
ATOM     64  C   UNL     1      12.965   1.747   0.323  1.00  0.00     0.031 C 
ATOM     65  C   UNL     1      15.419  -3.566  -1.307  1.00  0.00     0.029 A 
ATOM     66  C   UNL     1      14.508  -2.579  -0.964  1.00  0.00     0.049 A 
ATOM     67  H   UNL     1      12.412  -2.720  -0.765  1.00  0.00     0.167 HD
ATOM     68  C   UNL     1      13.805  -0.287  -0.323  1.00  0.00     0.074 A 
ATOM     69  C   UNL     1      14.076   1.098   0.002  1.00  0.00     0.031 C 
ATOM     70  C   UNL     1      14.761  -1.195  -0.646  1.00  0.00     0.037 A 
BRANCH  57  71
ATOM     71  C   UNL     1      12.576  -6.873  -1.760  1.00  0.00     0.058 A 
ATOM     72  C   UNL     1      12.186  -7.439  -2.985  1.00  0.00     0.135 A 
ATOM     73  C   UNL     1      13.286  -7.686  -0.861  1.00  0.00     0.135 A 
ATOM     74  F   UNL     1      11.483  -6.715  -3.871  1.00  0.00    -0.206 F 
ATOM     75  C   UNL     1      12.471  -8.764  -3.297  1.00  0.00     0.059 A 
ATOM     76  C   UNL     1      13.609  -9.004  -1.165  1.00  0.00     0.059 A 
ATOM     77  F   UNL     1      13.676  -7.199   0.327  1.00  0.00    -0.206 F 
ATOM     78  C   UNL     1      13.186  -9.538  -2.381  1.00  0.00     0.060 A 
BRANCH  78  79
ATOM     79  S   UNL     1      13.561 -11.251  -2.809  1.00  0.00     0.124 S 
ATOM     80  O   UNL     1      12.242 -11.870  -2.720  1.00  0.00    -0.237 OA
ATOM     81  O   UNL     1      14.111 -11.122  -4.155  1.00  0.00    -0.237 OA
ATOM     82  O   UNL     1      14.515 -11.658  -1.782  1.00  0.00    -0.744 OA
ENDBRANCH  78  79
ENDBRANCH  57  71
BRANCH  58  83
ATOM     83  C   UNL     1      10.161   2.514   0.729  1.00  0.00     0.058 A 
ATOM     84  C   UNL     1      10.365   3.598  -0.137  1.00  0.00     0.135 A 
ATOM     85  C   UNL     1       9.631   2.788   2.001  1.00  0.00     0.135 A 
ATOM     86  F   UNL     1      10.883   3.393  -1.357  1.00  0.00    -0.206 F 
ATOM     87  C   UNL     1      10.072   4.904   0.246  1.00  0.00     0.059 A 
ATOM     88  C   UNL     1       9.302   4.081   2.396  1.00  0.00     0.059 A 
ATOM     89  F   UNL     1       9.411   1.787   2.868  1.00  0.00    -0.206 F 
ATOM     90  C   UNL     1       9.536   5.134   1.514  1.00  0.00     0.060 A 
BRANCH  90  91
ATOM     91  S   UNL     1       9.111   6.827   1.980  1.00  0.00     0.124 S 
ATOM     92  O   UNL     1      10.430   7.427   2.144  1.00  0.00    -0.237 OA
ATOM     93  O   UNL     1       8.342   7.277   0.824  1.00  0.00    -0.237 OA
ATOM     94  O   UNL     1       8.340   6.653   3.208  1.00  0.00    -0.744 OA
ENDBRANCH  90  91
ENDBRANCH  58  83
BRANCH  70  95
ATOM     95  C   UNL     1      16.188  -0.716  -0.713  1.00  0.00     0.058 A 
ATOM     96  C   UNL     1      16.913  -0.374   0.439  1.00  0.00     0.135 A 
ATOM     97  C   UNL     1      16.857  -0.655  -1.947  1.00  0.00     0.135 A 
ATOM     98  F   UNL     1      16.323  -0.412   1.645  1.00  0.00    -0.206 F 
ATOM     99  C   UNL     1      18.240   0.039   0.368  1.00  0.00     0.059 A 
ATOM    100  C   UNL     1      18.193  -0.277  -2.039  1.00  0.00     0.059 A 
ATOM    101  F   UNL     1      16.217  -0.985  -3.081  1.00  0.00    -0.206 F 
ATOM    102  C   UNL     1      18.872   0.082  -0.876  1.00  0.00     0.060 A 
BRANCH 102 103
ATOM    103  S   UNL     1      20.602   0.593  -0.952  1.00  0.00     0.124 S 
ATOM    104  O   UNL     1      20.498   2.024  -0.682  1.00  0.00    -0.237 OA
ATOM    105  O   UNL     1      21.210  -0.209   0.105  1.00  0.00    -0.237 OA
ATOM    106  O   UNL     1      21.004   0.239  -2.309  1.00  0.00    -0.744 OA
ENDBRANCH 102 103
ENDBRANCH  70  95
ENDBRANCH  44  45
ENDBRANCH  37  39
ENDBRANCH  36  37
ENDBRANCH  35  36
ENDBRANCH  34  35
ENDBRANCH  33  34
ENDBRANCH  32  33
ENDBRANCH   1  32
TORSDOF 27
