REMARK SMILES O=C(OCCOCCOCCOCCOC(=O)c1ccc(-c2c3nc(c(-c4c(F)cc(S(=O)(=O)[O-])cc4F)c4ccc([nH]4)c(-c4c(F)cc(S(=O)(=O)[O-])cc4F)c4nc(c(-c5c(F)cc(S(=O)(=O)[O-])cc5F)c5ccc2[nH]5)C=C4)C=C3)cc1)C1=Cc2cc(Cl)cc(-c3ccc(Cl)cc3)c2O[C@@H]1C(F)(F)F
REMARK SMILES IDX 10 1 9 2 8 3 7 4 6 5 5 6 4 7 3 8 2 9 1 10 84 11 85 12 101 13
REMARK SMILES IDX 86 14 100 15 87 16 99 17 88 18 91 19 89 20 90 21 102 22
REMARK SMILES IDX 103 23 104 24 105 25 92 26 93 27 98 28 94 29 97 30 95 31
REMARK SMILES IDX 96 32 11 33 12 34 13 35 14 36 15 37 16 38 17 39 18 40 19 41
REMARK SMILES IDX 83 42 20 43 82 44 21 45 22 46 23 47 76 48 24 49 81 50 75 51
REMARK SMILES IDX 77 52 25 53 80 54 74 55 73 56 26 58 60 59 39 60 59 61 40 62
REMARK SMILES IDX 43 63 58 64 78 65 41 66 42 67 57 69 79 70 44 71 27 72 28 73
REMARK SMILES IDX 37 74 29 75 30 76 36 77 38 78 31 79 32 80 33 81 34 82 35 83
REMARK SMILES IDX 61 84 62 85 71 86 63 87 64 88 70 89 72 90 65 91 66 92 67 93
REMARK SMILES IDX 68 94 69 95 45 96 46 97 55 98 47 99 48 100 54 101 56 102
REMARK SMILES IDX 49 103 50 104 51 105 52 106 53 107
REMARK H PARENT 77 57 43 68
REMARK Flexibility Score: inf
ROOT
ATOM      1  C   UNL     1       3.651  -1.529   3.587  1.00  0.00     0.188 C 
ENDROOT
BRANCH   1   2
ATOM      2  O   UNL     1       2.373  -2.117   3.574  1.00  0.00    -0.377 OA
BRANCH   2   3
ATOM      3  C   UNL     1       1.644  -1.630   2.485  1.00  0.00     0.188 C 
BRANCH   3   4
ATOM      4  C   UNL     1       2.164  -2.258   1.206  1.00  0.00     0.188 C 
BRANCH   4   5
ATOM      5  O   UNL     1       3.514  -2.100   0.659  1.00  0.00    -0.376 OA
BRANCH   5   6
ATOM      6  C   UNL     1       4.321  -0.960  -0.221  1.00  0.00     0.202 C 
BRANCH   6   7
ATOM      7  C   UNL     1       3.619   1.030  -0.785  1.00  0.00     0.261 C 
BRANCH   7   8
ATOM      8  O   UNL     1       2.729   1.369  -1.975  1.00  0.00    -0.460 OA
BRANCH   8   9
ATOM      9  C   UNL     1       2.943   0.564  -3.022  1.00  0.00     0.338 C 
ATOM     10  O   UNL     1       2.306   0.469  -4.041  1.00  0.00    -0.246 OA
BRANCH   9  11
ATOM     11  C   UNL     1       3.784  -0.393  -2.325  1.00  0.00     0.087 C 
ATOM     12  C   UNL     1       5.160   0.045  -2.123  1.00  0.00     0.027 C 
ATOM     13  C   UNL     1       2.505  -0.685  -0.923  1.00  0.00     0.316 C 
ATOM     14  C   UNL     1       5.818   0.612  -0.551  1.00  0.00     0.019 A 
ATOM     15  O   UNL     1       3.142   0.059   0.775  1.00  0.00    -0.475 OA
ATOM     16  C   UNL     1       7.125   1.026  -0.544  1.00  0.00     0.032 A 
ATOM     17  C   UNL     1       4.840   0.785   0.879  1.00  0.00     0.135 A 
ATOM     18  C   UNL     1       7.574   1.572   0.660  1.00  0.00     0.042 A 
ATOM     19  C   UNL     1       5.365   1.448   1.998  1.00  0.00     0.026 A 
ATOM     20  Cl  UNL     1       9.233   2.065   0.735  1.00  0.00    -0.084 Cl
ATOM     21  C   UNL     1       6.755   1.779   1.829  1.00  0.00     0.033 A 
BRANCH  13  22
ATOM     22  C   UNL     1       2.262  -2.266  -1.541  1.00  0.00     0.430 C 
ATOM     23  F   UNL     1       1.420  -3.120  -0.930  1.00  0.00    -0.167 F 
ATOM     24  F   UNL     1       1.689  -2.103  -2.778  1.00  0.00    -0.167 F 
ATOM     25  F   UNL     1       3.405  -2.957  -1.795  1.00  0.00    -0.167 F 
ENDBRANCH  13  22
BRANCH  19  26
ATOM     26  C   UNL     1       4.769   1.901   3.255  1.00  0.00    -0.015 A 
ATOM     27  C   UNL     1       4.410   3.235   3.506  1.00  0.00     0.010 A 
ATOM     28  C   UNL     1       4.759   1.069   4.359  1.00  0.00     0.010 A 
ATOM     29  C   UNL     1       3.834   3.624   4.731  1.00  0.00     0.021 A 
ATOM     30  C   UNL     1       4.006   1.381   5.489  1.00  0.00     0.021 A 
ATOM     31  C   UNL     1       3.544   2.664   5.686  1.00  0.00     0.041 A 
ATOM     32  Cl  UNL     1       2.687   3.043   7.122  1.00  0.00    -0.084 Cl
ENDBRANCH  19  26
ENDBRANCH   9  11
ENDBRANCH   8   9
ENDBRANCH   7   8
ENDBRANCH   6   7
ENDBRANCH   5   6
ENDBRANCH   4   5
ENDBRANCH   3   4
ENDBRANCH   2   3
ENDBRANCH   1   2
BRANCH   1  33
ATOM     33  C   UNL     1       4.845  -2.453   3.412  1.00  0.00     0.188 C 
BRANCH  33  34
ATOM     34  O   UNL     1       4.516  -3.753   2.998  1.00  0.00    -0.376 OA
BRANCH  34  35
ATOM     35  C   UNL     1       3.891  -4.634   3.922  1.00  0.00     0.202 C 
BRANCH  35  36
ATOM     36  C   UNL     1       3.182  -4.196   5.227  1.00  0.00     0.261 C 
BRANCH  36  37
ATOM     37  O   UNL     1       3.750  -3.136   6.016  1.00  0.00    -0.460 OA
BRANCH  37  38
ATOM     38  C   UNL     1       5.017  -3.261   6.467  1.00  0.00     0.338 C 
ATOM     39  O   UNL     1       5.754  -4.215   6.309  1.00  0.00    -0.246 OA
BRANCH  38  40
ATOM     40  C   UNL     1       5.434  -1.926   6.979  1.00  0.00     0.060 A 
ATOM     41  C   UNL     1       6.648  -1.369   6.544  1.00  0.00     0.016 A 
ATOM     42  C   UNL     1       4.612  -1.202   7.846  1.00  0.00     0.016 A 
ATOM     43  C   UNL     1       7.065  -0.112   7.009  1.00  0.00     0.010 A 
ATOM     44  C   UNL     1       5.026   0.057   8.306  1.00  0.00     0.010 A 
ATOM     45  C   UNL     1       6.279   0.591   7.931  1.00  0.00    -0.014 A 
BRANCH  45  46
ATOM     46  C   UNL     1       6.884   1.669   8.767  1.00  0.00     0.031 A 
ATOM     47  C   UNL     1       7.242   1.275  10.181  1.00  0.00     0.074 A 
ATOM     48  C   UNL     1       7.137   2.924   8.339  1.00  0.00     0.049 A 
ATOM     49  N   UNL     1       7.778   1.983  11.137  1.00  0.00    -0.248 NA
ATOM     50  C   UNL     1       6.934  -0.115  10.570  1.00  0.00     0.031 C 
ATOM     51  C   UNL     1       6.882   3.444   6.998  1.00  0.00     0.029 A 
ATOM     52  N   UNL     1       7.666   4.005   9.010  1.00  0.00    -0.354 N 
ATOM     53  C   UNL     1       7.867   1.123  12.225  1.00  0.00     0.074 A 
ATOM     54  C   UNL     1       7.230  -0.115  11.855  1.00  0.00     0.031 C 
ATOM     55  C   UNL     1       7.221   4.747   6.953  1.00  0.00     0.029 A 
ATOM     56  C   UNL     1       7.736   5.158   8.258  1.00  0.00     0.049 A 
ATOM     57  H   UNL     1       7.968   3.958   9.946  1.00  0.00     0.167 HD
ATOM     58  C   UNL     1       8.477   1.315  13.414  1.00  0.00     0.037 A 
ATOM     59  C   UNL     1       8.181   6.393   8.582  1.00  0.00     0.037 A 
ATOM     60  C   UNL     1       9.121   2.539  13.787  1.00  0.00     0.049 A 
ATOM     61  C   UNL     1       8.785   6.618   9.952  1.00  0.00     0.074 A 
ATOM     62  C   UNL     1       9.796   2.832  14.956  1.00  0.00     0.029 A 
ATOM     63  N   UNL     1       9.155   3.680  13.000  1.00  0.00    -0.354 N 
ATOM     64  N   UNL     1       8.933   5.768  10.942  1.00  0.00    -0.248 NA
ATOM     65  C   UNL     1       9.321   7.958  10.233  1.00  0.00     0.031 C 
ATOM     66  C   UNL     1      10.170   4.178  14.910  1.00  0.00     0.029 A 
ATOM     67  C   UNL     1       9.811   4.693  13.674  1.00  0.00     0.049 A 
ATOM     68  H   UNL     1       8.770   3.757  12.098  1.00  0.00     0.167 HD
ATOM     69  C   UNL     1       9.637   6.451  11.932  1.00  0.00     0.074 A 
ATOM     70  C   UNL     1       9.880   7.784  11.422  1.00  0.00     0.031 C 
ATOM     71  C   UNL     1      10.062   6.010  13.144  1.00  0.00     0.037 A 
BRANCH  58  72
ATOM     72  C   UNL     1       8.454   0.169  14.386  1.00  0.00     0.058 A 
ATOM     73  C   UNL     1       9.134  -1.036  14.134  1.00  0.00     0.135 A 
ATOM     74  C   UNL     1       7.718   0.270  15.576  1.00  0.00     0.135 A 
ATOM     75  F   UNL     1       9.824  -1.200  12.993  1.00  0.00    -0.206 F 
ATOM     76  C   UNL     1       9.053  -2.112  15.008  1.00  0.00     0.059 A 
ATOM     77  C   UNL     1       7.658  -0.780  16.485  1.00  0.00     0.059 A 
ATOM     78  F   UNL     1       7.037   1.391  15.858  1.00  0.00    -0.206 F 
ATOM     79  C   UNL     1       8.316  -1.972  16.185  1.00  0.00     0.060 A 
BRANCH  79  80
ATOM     80  S   UNL     1       8.236  -3.372  17.319  1.00  0.00     0.124 S 
ATOM     81  O   UNL     1       7.412  -4.312  16.565  1.00  0.00    -0.237 OA
ATOM     82  O   UNL     1       9.643  -3.733  17.460  1.00  0.00    -0.237 OA
ATOM     83  O   UNL     1       7.613  -2.808  18.512  1.00  0.00    -0.744 OA
ENDBRANCH  79  80
ENDBRANCH  58  72
BRANCH  59  84
ATOM     84  C   UNL     1       8.139   7.512   7.592  1.00  0.00     0.058 A 
ATOM     85  C   UNL     1       9.318   8.062   7.061  1.00  0.00     0.135 A 
ATOM     86  C   UNL     1       6.924   8.090   7.190  1.00  0.00     0.135 A 
ATOM     87  F   UNL     1      10.511   7.563   7.422  1.00  0.00    -0.206 F 
ATOM     88  C   UNL     1       9.299   9.152   6.194  1.00  0.00     0.059 A 
ATOM     89  C   UNL     1       6.876   9.164   6.301  1.00  0.00     0.059 A 
ATOM     90  F   UNL     1       5.763   7.607   7.658  1.00  0.00    -0.206 F 
ATOM     91  C   UNL     1       8.071   9.694   5.815  1.00  0.00     0.060 A 
BRANCH  91  92
ATOM     92  S   UNL     1       8.058  11.074   4.646  1.00  0.00     0.124 S 
ATOM     93  O   UNL     1       8.648  12.144   5.441  1.00  0.00    -0.237 OA
ATOM     94  O   UNL     1       8.882  10.555   3.559  1.00  0.00    -0.237 OA
ATOM     95  O   UNL     1       6.641  11.232   4.329  1.00  0.00    -0.744 OA
ENDBRANCH  91  92
ENDBRANCH  59  84
BRANCH  71  96
ATOM     96  C   UNL     1      10.907   6.938  13.977  1.00  0.00     0.058 A 
ATOM     97  C   UNL     1      10.396   8.111  14.554  1.00  0.00     0.135 A 
ATOM     98  C   UNL     1      12.248   6.609  14.246  1.00  0.00     0.135 A 
ATOM     99  F   UNL     1       9.122   8.472  14.338  1.00  0.00    -0.206 F 
ATOM    100  C   UNL     1      11.196   8.947  15.327  1.00  0.00     0.059 A 
ATOM    101  C   UNL     1      13.052   7.406  15.052  1.00  0.00     0.059 A 
ATOM    102  F   UNL     1      12.785   5.487  13.738  1.00  0.00    -0.206 F 
ATOM    103  C   UNL     1      12.523   8.585  15.570  1.00  0.00     0.060 A 
BRANCH 103 104
ATOM    104  S   UNL     1      13.547   9.676  16.578  1.00  0.00     0.124 S 
ATOM    105  O   UNL     1      13.733  10.813  15.684  1.00  0.00    -0.237 OA
ATOM    106  O   UNL     1      12.695   9.915  17.740  1.00  0.00    -0.237 OA
ATOM    107  O   UNL     1      14.742   8.879  16.838  1.00  0.00    -0.744 OA
ENDBRANCH 103 104
ENDBRANCH  71  96
ENDBRANCH  45  46
ENDBRANCH  38  40
ENDBRANCH  37  38
ENDBRANCH  36  37
ENDBRANCH  35  36
ENDBRANCH  34  35
ENDBRANCH  33  34
ENDBRANCH   1  33
TORSDOF 25
