REMARK SMILES Cc1ccc2nc(C(=O)OCCOCCOCCOCCOC(=O)c3ccc(-c4c5nc(c(-c6c(F)cc(S(=O)(=O)[O-])cc6F)c6ccc([nH]6)c(-c6c(F)cc(S(=O)(=O)[O-])cc6F)c6nc(c(-c7c(F)cc(S(=O)(=O)[O-])cc7F)c7ccc4[nH]7)C=C6)C=C5)cc3)cc(N3CCOCC3)c2c1
REMARK SMILES IDX 17 1 16 2 15 3 14 4 13 5 12 6 11 7 10 8 8 9 9 10 7 11 1 12
REMARK SMILES IDX 2 13 3 14 100 15 4 16 99 17 5 18 92 19 6 20 91 21 93 22
REMARK SMILES IDX 94 23 98 24 95 25 97 26 96 27 18 28 19 29 20 30 21 31 22 32
REMARK SMILES IDX 23 33 24 34 25 35 26 36 90 37 27 38 89 39 28 40 29 41 30 42
REMARK SMILES IDX 83 43 31 44 88 45 82 46 84 47 32 48 87 49 81 50 80 51 33 53
REMARK SMILES IDX 67 54 46 55 66 56 47 57 50 58 65 59 85 60 48 61 49 62 64 64
REMARK SMILES IDX 86 65 51 66 34 67 35 68 44 69 36 70 37 71 43 72 45 73 38 74
REMARK SMILES IDX 39 75 40 76 41 77 42 78 68 79 69 80 78 81 70 82 71 83 77 84
REMARK SMILES IDX 79 85 72 86 73 87 74 88 75 89 76 90 52 91 53 92 62 93 54 94
REMARK SMILES IDX 55 95 61 96 63 97 56 98 57 99 58 100 59 101 60 102
REMARK H PARENT 84 52 50 63
REMARK Flexibility Score: inf
ROOT
ATOM      1  C   UNL     1      -6.429   0.390   2.680  1.00  0.00     0.188 C 
ENDROOT
BRANCH   1   2
ATOM      2  O   UNL     1      -5.145   0.049   2.156  1.00  0.00    -0.377 OA
BRANCH   2   3
ATOM      3  C   UNL     1      -4.170   1.060   1.954  1.00  0.00     0.188 C 
BRANCH   3   4
ATOM      4  C   UNL     1      -4.547   2.261   1.062  1.00  0.00     0.188 C 
BRANCH   4   5
ATOM      5  O   UNL     1      -5.941   2.387   0.844  1.00  0.00    -0.376 OA
BRANCH   5   6
ATOM      6  C   UNL     1      -6.490   2.037  -0.412  1.00  0.00     0.202 C 
BRANCH   6   7
ATOM      7  C   UNL     1      -6.244   0.642  -1.014  1.00  0.00     0.261 C 
BRANCH   7   8
ATOM      8  O   UNL     1      -4.943   0.081  -0.813  1.00  0.00    -0.459 OA
BRANCH   8   9
ATOM      9  C   UNL     1      -3.947   0.564  -1.589  1.00  0.00     0.357 C 
ATOM     10  O   UNL     1      -4.066   1.390  -2.479  1.00  0.00    -0.244 OA
BRANCH   9  11
ATOM     11  C   UNL     1      -2.649   0.056  -1.050  1.00  0.00     0.151 A 
ATOM     12  C   UNL     1       3.640  -0.538   0.073  1.00  0.00     0.044 C 
ATOM     13  C   UNL     1       2.206  -0.115  -0.025  1.00  0.00    -0.050 A 
ATOM     14  C   UNL     1       1.842   1.222  -0.116  1.00  0.00     0.005 A 
ATOM     15  C   UNL     1       1.199  -1.085  -0.078  1.00  0.00     0.016 A 
ATOM     16  C   UNL     1       0.509   1.561  -0.360  1.00  0.00     0.029 A 
ATOM     17  C   UNL     1      -0.167  -0.756  -0.255  1.00  0.00     0.024 A 
ATOM     18  C   UNL     1      -0.481   0.598  -0.495  1.00  0.00     0.073 A 
ATOM     19  C   UNL     1      -1.224  -1.716  -0.277  1.00  0.00     0.049 A 
ATOM     20  N   UNL     1      -1.690   1.001  -0.892  1.00  0.00    -0.241 NA
ATOM     21  C   UNL     1      -2.482  -1.277  -0.704  1.00  0.00     0.062 A 
BRANCH  19  22
ATOM     22  N   UNL     1      -1.016  -3.045   0.071  1.00  0.00    -0.366 N 
ATOM     23  C   UNL     1      -0.414  -3.413   1.368  1.00  0.00     0.145 C 
ATOM     24  C   UNL     1      -1.790  -4.148  -0.521  1.00  0.00     0.145 C 
ATOM     25  C   UNL     1       0.479  -4.649   1.154  1.00  0.00     0.181 C 
ATOM     26  C   UNL     1      -0.864  -5.371  -0.659  1.00  0.00     0.181 C 
ATOM     27  O   UNL     1      -0.266  -5.745   0.596  1.00  0.00    -0.378 OA
ENDBRANCH  19  22
ENDBRANCH   9  11
ENDBRANCH   8   9
ENDBRANCH   7   8
ENDBRANCH   6   7
ENDBRANCH   5   6
ENDBRANCH   4   5
ENDBRANCH   3   4
ENDBRANCH   2   3
ENDBRANCH   1   2
BRANCH   1  28
ATOM     28  C   UNL     1      -6.713   1.741   3.383  1.00  0.00     0.188 C 
BRANCH  28  29
ATOM     29  O   UNL     1      -5.559   2.483   3.741  1.00  0.00    -0.376 OA
BRANCH  29  30
ATOM     30  C   UNL     1      -5.208   2.541   5.110  1.00  0.00     0.202 C 
BRANCH  30  31
ATOM     31  C   UNL     1      -4.831   1.217   5.788  1.00  0.00     0.261 C 
BRANCH  31  32
ATOM     32  O   UNL     1      -5.790   0.155   5.682  1.00  0.00    -0.460 OA
BRANCH  32  33
ATOM     33  C   UNL     1      -6.979   0.329   6.297  1.00  0.00     0.338 C 
ATOM     34  O   UNL     1      -7.335   1.301   6.945  1.00  0.00    -0.246 OA
BRANCH  33  35
ATOM     35  C   UNL     1      -7.856  -0.789   5.895  1.00  0.00     0.060 A 
ATOM     36  C   UNL     1      -9.040  -0.516   5.195  1.00  0.00     0.016 A 
ATOM     37  C   UNL     1      -7.499  -2.105   6.196  1.00  0.00     0.016 A 
ATOM     38  C   UNL     1      -9.887  -1.562   4.824  1.00  0.00     0.010 A 
ATOM     39  C   UNL     1      -8.357  -3.148   5.841  1.00  0.00     0.010 A 
ATOM     40  C   UNL     1      -9.571  -2.879   5.183  1.00  0.00    -0.014 A 
BRANCH  40  41
ATOM     41  C   UNL     1     -10.590  -3.949   5.050  1.00  0.00     0.031 A 
ATOM     42  C   UNL     1     -11.376  -4.340   6.272  1.00  0.00     0.074 A 
ATOM     43  C   UNL     1     -10.820  -4.557   3.872  1.00  0.00     0.049 A 
ATOM     44  N   UNL     1     -12.270  -5.282   6.420  1.00  0.00    -0.248 NA
ATOM     45  C   UNL     1     -11.110  -3.564   7.494  1.00  0.00     0.031 C 
ATOM     46  C   UNL     1     -10.153  -4.239   2.611  1.00  0.00     0.029 A 
ATOM     47  N   UNL     1     -11.677  -5.581   3.552  1.00  0.00    -0.354 N 
ATOM     48  C   UNL     1     -12.666  -5.219   7.751  1.00  0.00     0.074 A 
ATOM     49  C   UNL     1     -11.890  -4.170   8.375  1.00  0.00     0.031 C 
ATOM     50  C   UNL     1     -10.618  -5.062   1.654  1.00  0.00     0.029 A 
ATOM     51  C   UNL     1     -11.587  -5.987   2.242  1.00  0.00     0.049 A 
ATOM     52  H   UNL     1     -12.298  -5.986   4.200  1.00  0.00     0.167 HD
ATOM     53  C   UNL     1     -13.598  -5.963   8.393  1.00  0.00     0.037 A 
ATOM     54  C   UNL     1     -12.197  -7.005   1.601  1.00  0.00     0.037 A 
ATOM     55  C   UNL     1     -14.361  -7.010   7.766  1.00  0.00     0.049 A 
ATOM     56  C   UNL     1     -13.176  -7.872   2.353  1.00  0.00     0.074 A 
ATOM     57  C   UNL     1     -15.342  -7.811   8.323  1.00  0.00     0.029 A 
ATOM     58  N   UNL     1     -14.219  -7.413   6.445  1.00  0.00    -0.354 N 
ATOM     59  N   UNL     1     -13.562  -7.787   3.605  1.00  0.00    -0.248 NA
ATOM     60  C   UNL     1     -13.803  -8.971   1.606  1.00  0.00     0.031 C 
ATOM     61  C   UNL     1     -15.748  -8.739   7.358  1.00  0.00     0.029 A 
ATOM     62  C   UNL     1     -15.071  -8.472   6.178  1.00  0.00     0.049 A 
ATOM     63  H   UNL     1     -13.603  -7.005   5.794  1.00  0.00     0.167 HD
ATOM     64  C   UNL     1     -14.499  -8.801   3.786  1.00  0.00     0.074 A 
ATOM     65  C   UNL     1     -14.628  -9.478   2.512  1.00  0.00     0.031 C 
ATOM     66  C   UNL     1     -15.193  -9.137   4.903  1.00  0.00     0.037 A 
BRANCH  53  67
ATOM     67  C   UNL     1     -13.814  -5.692   9.858  1.00  0.00     0.058 A 
ATOM     68  C   UNL     1     -14.403  -4.503  10.317  1.00  0.00     0.135 A 
ATOM     69  C   UNL     1     -13.438  -6.646  10.818  1.00  0.00     0.135 A 
ATOM     70  F   UNL     1     -14.765  -3.547   9.446  1.00  0.00    -0.206 F 
ATOM     71  C   UNL     1     -14.578  -4.253  11.675  1.00  0.00     0.059 A 
ATOM     72  C   UNL     1     -13.633  -6.432  12.179  1.00  0.00     0.059 A 
ATOM     73  F   UNL     1     -12.868  -7.800  10.438  1.00  0.00    -0.206 F 
ATOM     74  C   UNL     1     -14.188  -5.224  12.598  1.00  0.00     0.060 A 
BRANCH  74  75
ATOM     75  S   UNL     1     -14.414  -4.881  14.356  1.00  0.00     0.124 S 
ATOM     76  O   UNL     1     -13.395  -3.862  14.587  1.00  0.00    -0.237 OA
ATOM     77  O   UNL     1     -15.797  -4.417  14.407  1.00  0.00    -0.237 OA
ATOM     78  O   UNL     1     -14.165  -6.172  14.990  1.00  0.00    -0.744 OA
ENDBRANCH  74  75
ENDBRANCH  53  67
BRANCH  54  79
ATOM     79  C   UNL     1     -11.896  -7.265   0.166  1.00  0.00     0.058 A 
ATOM     80  C   UNL     1     -12.860  -7.052  -0.829  1.00  0.00     0.135 A 
ATOM     81  C   UNL     1     -10.633  -7.727  -0.239  1.00  0.00     0.135 A 
ATOM     82  F   UNL     1     -14.088  -6.627  -0.493  1.00  0.00    -0.206 F 
ATOM     83  C   UNL     1     -12.588  -7.290  -2.173  1.00  0.00     0.059 A 
ATOM     84  C   UNL     1     -10.327  -7.945  -1.578  1.00  0.00     0.059 A 
ATOM     85  F   UNL     1      -9.671  -7.943   0.672  1.00  0.00    -0.206 F 
ATOM     86  C   UNL     1     -11.314  -7.729  -2.538  1.00  0.00     0.060 A 
BRANCH  86  87
ATOM     87  S   UNL     1     -10.951  -7.967  -4.292  1.00  0.00     0.124 S 
ATOM     88  O   UNL     1     -11.739  -9.155  -4.598  1.00  0.00    -0.237 OA
ATOM     89  O   UNL     1     -11.427  -6.716  -4.873  1.00  0.00    -0.237 OA
ATOM     90  O   UNL     1      -9.502  -8.147  -4.313  1.00  0.00    -0.744 OA
ENDBRANCH  86  87
ENDBRANCH  54  79
BRANCH  66  91
ATOM     91  C   UNL     1     -16.188 -10.264   4.796  1.00  0.00     0.058 A 
ATOM     92  C   UNL     1     -15.785 -11.601   4.653  1.00  0.00     0.135 A 
ATOM     93  C   UNL     1     -17.566 -10.005   4.900  1.00  0.00     0.135 A 
ATOM     94  F   UNL     1     -14.483 -11.906   4.545  1.00  0.00    -0.206 F 
ATOM     95  C   UNL     1     -16.712 -12.637   4.590  1.00  0.00     0.059 A 
ATOM     96  C   UNL     1     -18.508 -11.028   4.872  1.00  0.00     0.059 A 
ATOM     97  F   UNL     1     -18.008  -8.746   5.050  1.00  0.00    -0.206 F 
ATOM     98  C   UNL     1     -18.072 -12.341   4.704  1.00  0.00     0.060 A 
BRANCH  98  99
ATOM     99  S   UNL     1     -19.261 -13.699   4.654  1.00  0.00     0.124 S 
ATOM    100  O   UNL     1     -19.205 -14.087   3.248  1.00  0.00    -0.237 OA
ATOM    101  O   UNL     1     -18.685 -14.651   5.598  1.00  0.00    -0.237 OA
ATOM    102  O   UNL     1     -20.509 -13.075   5.084  1.00  0.00    -0.744 OA
ENDBRANCH  98  99
ENDBRANCH  66  91
ENDBRANCH  40  41
ENDBRANCH  33  35
ENDBRANCH  32  33
ENDBRANCH  31  32
ENDBRANCH  30  31
ENDBRANCH  29  30
ENDBRANCH  28  29
ENDBRANCH   1  28
TORSDOF 24
