REMARK SMILES COc1cc(-c2ccc(NC(=O)CCC(=O)OCCOCCOCCOCCOC(=O)c3ccc(-c4c5nc(c(-c6c(F)cc(S(=O)(=O)[O-])cc6F)c6ccc([nH]6)c(-c6c(F)cc(S(=O)(=O)[O-])cc6F)c6nc(c(-c7c(F)cc(S(=O)(=O)[O-])cc7F)c7ccc4[nH]7)C=C6)C=C5)cc3)c(OC)c2)ccc1N
REMARK SMILES IDX 22 1 21 2 20 3 19 4 18 5 17 6 15 7 16 8 14 9 13 10 11 11
REMARK SMILES IDX 10 12 12 14 9 15 6 16 7 17 101 18 8 19 98 20 5 21 3 22 4 23
REMARK SMILES IDX 104 24 103 25 102 26 2 27 1 28 105 29 99 32 100 33 23 34
REMARK SMILES IDX 24 35 25 36 26 37 27 38 28 39 29 40 30 41 31 42 32 43 33 44
REMARK SMILES IDX 97 45 34 46 96 47 35 48 36 49 37 50 90 51 38 52 95 53 89 54
REMARK SMILES IDX 91 55 39 56 94 57 88 58 87 59 40 61 74 62 53 63 73 64 54 65
REMARK SMILES IDX 57 66 72 67 92 68 55 69 56 70 71 72 93 73 58 74 41 75 42 76
REMARK SMILES IDX 51 77 43 78 44 79 50 80 52 81 45 82 46 83 47 84 48 85 49 86
REMARK SMILES IDX 75 87 76 88 85 89 77 90 78 91 84 92 86 93 79 94 80 95 81 96
REMARK SMILES IDX 82 97 83 98 59 99 60 100 69 101 61 102 62 103 68 104 70 105
REMARK SMILES IDX 63 106 64 107 65 108 66 109 67 110
REMARK H PARENT 10 13 105 30 105 31 91 60 57 71
REMARK Flexibility Score: inf
ROOT
ATOM      1  C   UNL     1      -1.683  -7.885  -2.100  1.00  0.00     0.188 C 
ENDROOT
BRANCH   1   2
ATOM      2  C   UNL     1      -1.626  -6.672  -1.143  1.00  0.00     0.188 C 
BRANCH   2   3
ATOM      3  O   UNL     1      -1.765  -7.052   0.356  1.00  0.00    -0.376 OA
BRANCH   3   4
ATOM      4  C   UNL     1      -2.337  -6.459   2.192  1.00  0.00     0.202 C 
BRANCH   4   5
ATOM      5  C   UNL     1      -3.768  -5.393   2.569  1.00  0.00     0.261 C 
BRANCH   5   6
ATOM      6  O   UNL     1      -4.669  -4.605   1.505  1.00  0.00    -0.463 OA
BRANCH   6   7
ATOM      7  C   UNL     1      -5.248  -4.585   0.247  1.00  0.00     0.306 C 
ATOM      8  O   UNL     1      -5.680  -3.470  -0.097  1.00  0.00    -0.252 OA
BRANCH   7   9
ATOM      9  C   UNL     1      -5.492  -5.778  -0.907  1.00  0.00     0.132 C 
BRANCH   9  10
ATOM     10  C   UNL     1      -5.075  -7.317  -1.400  1.00  0.00     0.112 C 
BRANCH  10  11
ATOM     11  C   UNL     1      -4.639  -8.859  -0.847  1.00  0.00     0.225 C 
ATOM     12  N   UNL     1      -3.688  -9.242   0.119  1.00  0.00    -0.323 N 
ATOM     13  H   UNL     1      -3.473 -10.200   0.188  1.00  0.00     0.170 HD
ATOM     14  O   UNL     1      -5.133  -9.812  -1.482  1.00  0.00    -0.275 OA
BRANCH  12  15
ATOM     15  C   UNL     1      -3.021  -8.363   0.997  1.00  0.00     0.083 A 
ATOM     16  C   UNL     1      -0.785  -5.478   0.997  1.00  0.00    -0.014 A 
ATOM     17  C   UNL     1      -0.247  -7.104   1.580  1.00  0.00     0.011 A 
ATOM     18  C   UNL     1      -2.531  -5.298   0.528  1.00  0.00     0.057 A 
ATOM     19  C   UNL     1      -1.346  -8.531   1.555  1.00  0.00     0.031 A 
ATOM     20  C   UNL     1      -3.641  -6.808   0.639  1.00  0.00     0.142 A 
BRANCH  16  21
ATOM     21  C   UNL     1       0.232  -4.431   0.731  1.00  0.00    -0.014 A 
ATOM     22  C   UNL     1       1.036  -2.123   0.700  1.00  0.00     0.142 A 
ATOM     23  C   UNL     1       0.012  -3.066   0.937  1.00  0.00     0.057 A 
ATOM     24  C   UNL     1       2.320  -2.522   0.286  1.00  0.00     0.074 A 
ATOM     25  C   UNL     1       2.505  -3.864  -0.026  1.00  0.00     0.030 A 
ATOM     26  C   UNL     1       1.490  -4.797   0.219  1.00  0.00     0.011 A 
BRANCH  22  27
ATOM     27  O   UNL     1       0.740  -0.814   1.007  1.00  0.00    -0.495 OA
ATOM     28  C   UNL     1       0.816   0.043  -0.132  1.00  0.00     0.278 C 
ENDBRANCH  22  27
BRANCH  24  29
ATOM     29  N   UNL     1       3.365  -1.624   0.080  1.00  0.00    -0.396 N 
ATOM     30  H   UNL     1       3.245  -0.671   0.297  1.00  0.00     0.156 HD
ATOM     31  H   UNL     1       4.223  -1.942  -0.283  1.00  0.00     0.156 HD
ENDBRANCH  24  29
ENDBRANCH  16  21
BRANCH  20  32
ATOM     32  O   UNL     1      -5.011  -6.817   1.030  1.00  0.00    -0.495 OA
ATOM     33  C   UNL     1      -5.705  -7.854   1.740  1.00  0.00     0.278 C 
ENDBRANCH  20  32
ENDBRANCH  12  15
ENDBRANCH  10  11
ENDBRANCH   9  10
ENDBRANCH   7   9
ENDBRANCH   6   7
ENDBRANCH   5   6
ENDBRANCH   4   5
ENDBRANCH   3   4
ENDBRANCH   2   3
ENDBRANCH   1   2
BRANCH   1  34
ATOM     34  O   UNL     1      -0.708  -8.910  -2.064  1.00  0.00    -0.377 OA
BRANCH  34  35
ATOM     35  C   UNL     1       0.397  -8.727  -1.213  1.00  0.00     0.188 C 
BRANCH  35  36
ATOM     36  C   UNL     1       1.678  -8.173  -1.826  1.00  0.00     0.188 C 
BRANCH  36  37
ATOM     37  O   UNL     1       1.551  -7.317  -2.939  1.00  0.00    -0.376 OA
BRANCH  37  38
ATOM     38  C   UNL     1       0.999  -7.861  -4.133  1.00  0.00     0.202 C 
BRANCH  38  39
ATOM     39  C   UNL     1       1.125  -9.351  -4.550  1.00  0.00     0.261 C 
BRANCH  39  40
ATOM     40  O   UNL     1       0.931 -10.363  -3.541  1.00  0.00    -0.460 OA
BRANCH  40  41
ATOM     41  C   UNL     1       2.044 -11.011  -3.114  1.00  0.00     0.338 C 
ATOM     42  O   UNL     1       3.176 -10.853  -3.542  1.00  0.00    -0.246 OA
BRANCH  41  43
ATOM     43  C   UNL     1       1.771 -11.765  -1.862  1.00  0.00     0.060 A 
ATOM     44  C   UNL     1       2.526 -11.441  -0.721  1.00  0.00     0.016 A 
ATOM     45  C   UNL     1       0.850 -12.812  -1.808  1.00  0.00     0.016 A 
ATOM     46  C   UNL     1       2.407 -12.191   0.450  1.00  0.00     0.010 A 
ATOM     47  C   UNL     1       0.767 -13.599  -0.646  1.00  0.00     0.010 A 
ATOM     48  C   UNL     1       1.588 -13.325   0.467  1.00  0.00    -0.014 A 
BRANCH  48  49
ATOM     49  C   UNL     1       1.869 -14.367   1.496  1.00  0.00     0.031 A 
ATOM     50  C   UNL     1       2.851 -15.456   1.128  1.00  0.00     0.074 A 
ATOM     51  C   UNL     1       1.374 -14.308   2.747  1.00  0.00     0.049 A 
ATOM     52  N   UNL     1       3.311 -16.445   1.849  1.00  0.00    -0.248 NA
ATOM     53  C   UNL     1       3.394 -15.412  -0.241  1.00  0.00     0.031 C 
ATOM     54  C   UNL     1       0.467 -13.282   3.256  1.00  0.00     0.029 A 
ATOM     55  N   UNL     1       1.580 -15.137   3.825  1.00  0.00    -0.354 N 
ATOM     56  C   UNL     1       4.198 -17.133   1.026  1.00  0.00     0.074 A 
ATOM     57  C   UNL     1       4.181 -16.476  -0.261  1.00  0.00     0.031 C 
ATOM     58  C   UNL     1       0.189 -13.547   4.547  1.00  0.00     0.029 A 
ATOM     59  C   UNL     1       0.881 -14.771   4.952  1.00  0.00     0.049 A 
ATOM     60  H   UNL     1       2.174 -15.922   3.793  1.00  0.00     0.167 HD
ATOM     61  C   UNL     1       4.974 -18.205   1.314  1.00  0.00     0.037 A 
ATOM     62  C   UNL     1       0.803 -15.362   6.163  1.00  0.00     0.037 A 
ATOM     63  C   UNL     1       4.990 -18.869   2.590  1.00  0.00     0.049 A 
ATOM     64  C   UNL     1       1.615 -16.610   6.434  1.00  0.00     0.074 A 
ATOM     65  C   UNL     1       5.731 -19.973   2.976  1.00  0.00     0.029 A 
ATOM     66  N   UNL     1       4.229 -18.496   3.688  1.00  0.00    -0.354 N 
ATOM     67  N   UNL     1       2.454 -17.241   5.647  1.00  0.00    -0.248 NA
ATOM     68  C   UNL     1       1.476 -17.215   7.767  1.00  0.00     0.031 C 
ATOM     69  C   UNL     1       5.379 -20.299   4.290  1.00  0.00     0.029 A 
ATOM     70  C   UNL     1       4.469 -19.359   4.745  1.00  0.00     0.049 A 
ATOM     71  H   UNL     1       3.610 -17.732   3.712  1.00  0.00     0.167 HD
ATOM     72  C   UNL     1       2.971 -18.292   6.404  1.00  0.00     0.074 A 
ATOM     73  C   UNL     1       2.364 -18.197   7.715  1.00  0.00     0.031 C 
ATOM     74  C   UNL     1       3.866 -19.250   6.049  1.00  0.00     0.037 A 
BRANCH  61  75
ATOM     75  C   UNL     1       5.858 -18.740   0.220  1.00  0.00     0.058 A 
ATOM     76  C   UNL     1       6.990 -18.039  -0.225  1.00  0.00     0.135 A 
ATOM     77  C   UNL     1       5.592 -19.990  -0.361  1.00  0.00     0.135 A 
ATOM     78  F   UNL     1       7.277 -16.827   0.277  1.00  0.00    -0.206 F 
ATOM     79  C   UNL     1       7.820 -18.552  -1.217  1.00  0.00     0.059 A 
ATOM     80  C   UNL     1       6.426 -20.537  -1.333  1.00  0.00     0.059 A 
ATOM     81  F   UNL     1       4.518 -20.699   0.020  1.00  0.00    -0.206 F 
ATOM     82  C   UNL     1       7.533 -19.806  -1.760  1.00  0.00     0.060 A 
BRANCH  82  83
ATOM     83  S   UNL     1       8.641 -20.472  -3.020  1.00  0.00     0.124 S 
ATOM     84  O   UNL     1       8.352 -19.599  -4.154  1.00  0.00    -0.237 OA
ATOM     85  O   UNL     1       9.952 -20.298  -2.403  1.00  0.00    -0.237 OA
ATOM     86  O   UNL     1       8.198 -21.855  -3.166  1.00  0.00    -0.744 OA
ENDBRANCH  82  83
ENDBRANCH  61  75
BRANCH  62  87
ATOM     87  C   UNL     1      -0.082 -14.804   7.227  1.00  0.00     0.058 A 
ATOM     88  C   UNL     1       0.444 -14.291   8.424  1.00  0.00     0.135 A 
ATOM     89  C   UNL     1      -1.479 -14.828   7.093  1.00  0.00     0.135 A 
ATOM     90  F   UNL     1       1.773 -14.259   8.613  1.00  0.00    -0.206 F 
ATOM     91  C   UNL     1      -0.379 -13.853   9.458  1.00  0.00     0.059 A 
ATOM     92  C   UNL     1      -2.322 -14.366   8.099  1.00  0.00     0.059 A 
ATOM     93  F   UNL     1      -2.039 -15.302   5.968  1.00  0.00    -0.206 F 
ATOM     94  C   UNL     1      -1.763 -13.895   9.285  1.00  0.00     0.060 A 
BRANCH  94  95
ATOM     95  S   UNL     1      -2.824 -13.297  10.620  1.00  0.00     0.124 S 
ATOM     96  O   UNL     1      -2.676 -14.356  11.611  1.00  0.00    -0.237 OA
ATOM     97  O   UNL     1      -2.204 -12.018  10.951  1.00  0.00    -0.237 OA
ATOM     98  O   UNL     1      -4.136 -13.202   9.986  1.00  0.00    -0.744 OA
ENDBRANCH  94  95
ENDBRANCH  62  87
BRANCH  74  99
ATOM     99  C   UNL     1       4.285 -20.236   7.110  1.00  0.00     0.058 A 
ATOM    100  C   UNL     1       3.402 -21.197   7.628  1.00  0.00     0.135 A 
ATOM    101  C   UNL     1       5.598 -20.221   7.612  1.00  0.00     0.135 A 
ATOM    102  F   UNL     1       2.137 -21.262   7.183  1.00  0.00    -0.206 F 
ATOM    103  C   UNL     1       3.785 -22.064   8.647  1.00  0.00     0.059 A 
ATOM    104  C   UNL     1       6.014 -21.104   8.604  1.00  0.00     0.059 A 
ATOM    105  F   UNL     1       6.494 -19.340   7.139  1.00  0.00    -0.206 F 
ATOM    106  C   UNL     1       5.092 -22.003   9.135  1.00  0.00     0.060 A 
BRANCH 106 107
ATOM    107  S   UNL     1       5.569 -23.113  10.477  1.00  0.00     0.124 S 
ATOM    108  O   UNL     1       4.883 -22.508  11.614  1.00  0.00    -0.237 OA
ATOM    109  O   UNL     1       5.040 -24.396  10.026  1.00  0.00    -0.237 OA
ATOM    110  O   UNL     1       7.025 -23.015  10.498  1.00  0.00    -0.744 OA
ENDBRANCH 106 107
ENDBRANCH  74  99
ENDBRANCH  48  49
ENDBRANCH  41  43
ENDBRANCH  40  41
ENDBRANCH  39  40
ENDBRANCH  38  39
ENDBRANCH  37  38
ENDBRANCH  36  37
ENDBRANCH  35  36
ENDBRANCH  34  35
ENDBRANCH   1  34
TORSDOF 30
