REMARK SMILES Cc1ccc(S(=O)(=O)Nc2cc3c(cc2C(=O)OCCOCCOCCOCCOC(=O)c2ccc(-c4c5nc(c(-c6c(F)cc(S(=O)(=O)[O-])cc6F)c6ccc([nH]6)c(-c6c(F)cc(S(=O)(=O)[O-])cc6F)c6nc(c(-c7c(F)cc(S(=O)(=O)[O-])cc7F)c7ccc4[nH]7)C=C6)C=C5)cc2)OCCO3)s1
REMARK SMILES IDX 24 1 23 2 22 3 21 4 20 5 19 6 18 7 16 8 17 9 15 10 10 11
REMARK SMILES IDX 11 12 12 13 14 14 13 15 102 16 99 17 101 18 100 19 9 20 6 22
REMARK SMILES IDX 7 23 8 24 5 25 1 26 2 27 3 28 103 29 4 30 25 31 26 32 27 33
REMARK SMILES IDX 28 34 29 35 30 36 31 37 32 38 33 39 34 40 98 41 35 42 97 43
REMARK SMILES IDX 36 44 37 45 38 46 91 47 39 48 96 49 90 50 92 51 40 52 95 53
REMARK SMILES IDX 89 54 88 55 41 57 75 58 54 59 74 60 55 61 58 62 73 63 93 64
REMARK SMILES IDX 56 65 57 66 72 68 94 69 59 70 42 71 43 72 52 73 44 74 45 75
REMARK SMILES IDX 51 76 53 77 46 78 47 79 48 80 49 81 50 82 76 83 77 84 86 85
REMARK SMILES IDX 78 86 79 87 85 88 87 89 80 90 81 91 82 92 83 93 84 94 60 95
REMARK SMILES IDX 61 96 70 97 62 98 63 99 69 100 71 101 64 102 65 103 66 104
REMARK SMILES IDX 67 105 68 106
REMARK H PARENT 9 21 92 56 58 67
REMARK Flexibility Score: inf
ROOT
ATOM      1  O   UNL     1       0.706   0.884   2.606  1.00  0.00    -0.377 OA
ENDROOT
BRANCH   1   2
ATOM      2  C   UNL     1      -0.451   0.474   1.889  1.00  0.00     0.188 C 
BRANCH   2   3
ATOM      3  C   UNL     1      -1.696   1.139   2.472  1.00  0.00     0.188 C 
BRANCH   3   4
ATOM      4  O   UNL     1      -1.908   1.112   3.882  1.00  0.00    -0.376 OA
BRANCH   4   5
ATOM      5  C   UNL     1      -1.261   0.110   4.652  1.00  0.00     0.202 C 
BRANCH   5   6
ATOM      6  C   UNL     1      -1.921  -1.267   4.637  1.00  0.00     0.261 C 
BRANCH   6   7
ATOM      7  O   UNL     1      -2.135  -1.818   3.326  1.00  0.00    -0.460 OA
BRANCH   7   8
ATOM      8  C   UNL     1      -3.401  -1.689   2.858  1.00  0.00     0.340 C 
ATOM      9  O   UNL     1      -4.315  -1.066   3.376  1.00  0.00    -0.246 OA
BRANCH   8  10
ATOM     10  C   UNL     1      -3.612  -2.505   1.644  1.00  0.00     0.088 A 
ATOM     11  C   UNL     1      -4.455  -2.029   0.624  1.00  0.00     0.067 A 
ATOM     12  C   UNL     1      -5.034  -2.931  -0.269  1.00  0.00     0.078 A 
ATOM     13  C   UNL     1      -4.577  -4.245  -0.301  1.00  0.00     0.163 A 
ATOM     14  C   UNL     1      -3.143  -3.824   1.602  1.00  0.00     0.068 A 
ATOM     15  C   UNL     1      -3.578  -4.667   0.583  1.00  0.00     0.162 A 
ATOM     16  O   UNL     1      -5.083  -5.033  -1.303  1.00  0.00    -0.486 OA
ATOM     17  O   UNL     1      -2.990  -5.902   0.498  1.00  0.00    -0.486 OA
ATOM     18  C   UNL     1      -4.664  -6.396  -1.177  1.00  0.00     0.271 C 
ATOM     19  C   UNL     1      -3.194  -6.476  -0.800  1.00  0.00     0.271 C 
BRANCH  11  20
ATOM     20  N   UNL     1      -4.596  -0.615   0.402  1.00  0.00    -0.278 N 
ATOM     21  H   UNL     1      -4.986  -0.019   1.081  1.00  0.00     0.180 HD
BRANCH  20  22
ATOM     22  S   UNL     1      -4.047  -0.025  -1.115  1.00  0.00     0.271 S 
ATOM     23  O   UNL     1      -3.625   1.343  -0.909  1.00  0.00    -0.200 OA
ATOM     24  O   UNL     1      -5.067  -0.350  -2.090  1.00  0.00    -0.200 OA
BRANCH  22  25
ATOM     25  C   UNL     1      -2.619  -0.977  -1.621  1.00  0.00     0.140 A 
ATOM     26  C   UNL     1       1.122  -1.903  -1.079  1.00  0.00     0.056 C 
ATOM     27  C   UNL     1      -0.295  -1.766  -1.512  1.00  0.00     0.003 A 
ATOM     28  C   UNL     1      -1.145  -2.745  -1.977  1.00  0.00     0.016 A 
ATOM     29  S   UNL     1      -1.089  -0.253  -1.469  1.00  0.00    -0.127 S 
ATOM     30  C   UNL     1      -2.477  -2.257  -2.129  1.00  0.00     0.034 A 
ENDBRANCH  22  25
ENDBRANCH  20  22
ENDBRANCH  11  20
ENDBRANCH   8  10
ENDBRANCH   7   8
ENDBRANCH   6   7
ENDBRANCH   5   6
ENDBRANCH   4   5
ENDBRANCH   3   4
ENDBRANCH   2   3
ENDBRANCH   1   2
BRANCH   1  31
ATOM     31  C   UNL     1       1.905   0.853   1.844  1.00  0.00     0.188 C 
BRANCH  31  32
ATOM     32  C   UNL     1       1.940   2.027   0.863  1.00  0.00     0.188 C 
BRANCH  32  33
ATOM     33  O   UNL     1       1.458   1.583  -0.408  1.00  0.00    -0.376 OA
BRANCH  33  34
ATOM     34  C   UNL     1       2.044   2.254  -1.520  1.00  0.00     0.202 C 
BRANCH  34  35
ATOM     35  C   UNL     1       2.816   1.240  -2.378  1.00  0.00     0.261 C 
BRANCH  35  36
ATOM     36  O   UNL     1       3.647   0.352  -1.602  1.00  0.00    -0.460 OA
BRANCH  36  37
ATOM     37  C   UNL     1       4.612   0.949  -0.872  1.00  0.00     0.338 C 
ATOM     38  O   UNL     1       4.941   2.124  -0.929  1.00  0.00    -0.246 OA
BRANCH  37  39
ATOM     39  C   UNL     1       5.108   0.011   0.158  1.00  0.00     0.060 A 
ATOM     40  C   UNL     1       5.375   0.530   1.431  1.00  0.00     0.016 A 
ATOM     41  C   UNL     1       5.361  -1.336  -0.120  1.00  0.00     0.016 A 
ATOM     42  C   UNL     1       5.953  -0.275   2.409  1.00  0.00     0.010 A 
ATOM     43  C   UNL     1       5.962  -2.140   0.855  1.00  0.00     0.010 A 
ATOM     44  C   UNL     1       6.307  -1.594   2.103  1.00  0.00    -0.014 A 
BRANCH  44  45
ATOM     45  C   UNL     1       7.269  -2.285   2.994  1.00  0.00     0.031 A 
ATOM     46  C   UNL     1       8.736  -2.163   2.668  1.00  0.00     0.074 A 
ATOM     47  C   UNL     1       6.865  -2.933   4.101  1.00  0.00     0.049 A 
ATOM     48  N   UNL     1       9.773  -2.618   3.321  1.00  0.00    -0.248 NA
ATOM     49  C   UNL     1       9.077  -1.421   1.441  1.00  0.00     0.031 C 
ATOM     50  C   UNL     1       5.478  -3.085   4.535  1.00  0.00     0.029 A 
ATOM     51  N   UNL     1       7.594  -3.581   5.066  1.00  0.00    -0.354 N 
ATOM     52  C   UNL     1      10.884  -2.211   2.591  1.00  0.00     0.074 A 
ATOM     53  C   UNL     1      10.398  -1.506   1.427  1.00  0.00     0.031 C 
ATOM     54  C   UNL     1       5.455  -3.793   5.678  1.00  0.00     0.029 A 
ATOM     55  C   UNL     1       6.822  -4.155   6.048  1.00  0.00     0.049 A 
ATOM     56  H   UNL     1       8.577  -3.631   5.055  1.00  0.00     0.167 HD
ATOM     57  C   UNL     1      12.195  -2.397   2.871  1.00  0.00     0.037 A 
ATOM     58  C   UNL     1       7.185  -4.895   7.115  1.00  0.00     0.037 A 
ATOM     59  C   UNL     1      12.674  -3.104   4.028  1.00  0.00     0.049 A 
ATOM     60  C   UNL     1       8.651  -5.138   7.377  1.00  0.00     0.074 A 
ATOM     61  C   UNL     1      13.982  -3.339   4.413  1.00  0.00     0.029 A 
ATOM     62  N   UNL     1      11.861  -3.698   4.982  1.00  0.00    -0.354 N 
ATOM     63  N   UNL     1       9.693  -4.716   6.698  1.00  0.00    -0.248 NA
ATOM     64  C   UNL     1       8.992  -5.948   8.555  1.00  0.00     0.031 C 
ATOM     65  C   UNL     1      13.960  -4.117   5.574  1.00  0.00     0.029 A 
ATOM     66  C   UNL     1      12.639  -4.323   5.941  1.00  0.00     0.049 A 
ATOM     67  H   UNL     1      10.877  -3.679   4.978  1.00  0.00     0.167 HD
ATOM     68  C   UNL     1      10.810  -5.189   7.380  1.00  0.00     0.074 A 
ATOM     69  C   UNL     1      10.317  -5.915   8.532  1.00  0.00     0.031 C 
ATOM     70  C   UNL     1      12.126  -5.038   7.083  1.00  0.00     0.037 A 
BRANCH  57  71
ATOM     71  C   UNL     1      13.199  -1.850   1.897  1.00  0.00     0.058 A 
ATOM     72  C   UNL     1      13.447  -0.472   1.787  1.00  0.00     0.135 A 
ATOM     73  C   UNL     1      13.943  -2.717   1.082  1.00  0.00     0.135 A 
ATOM     74  F   UNL     1      12.744   0.403   2.525  1.00  0.00    -0.206 F 
ATOM     75  C   UNL     1      14.386   0.028   0.891  1.00  0.00     0.059 A 
ATOM     76  C   UNL     1      14.905  -2.241   0.197  1.00  0.00     0.059 A 
ATOM     77  F   UNL     1      13.737  -4.042   1.140  1.00  0.00    -0.206 F 
ATOM     78  C   UNL     1      15.112  -0.866   0.101  1.00  0.00     0.060 A 
BRANCH  78  79
ATOM     79  S   UNL     1      16.340  -0.204  -1.045  1.00  0.00     0.124 S 
ATOM     80  O   UNL     1      15.489   0.383  -2.076  1.00  0.00    -0.237 OA
ATOM     81  O   UNL     1      17.068   0.745  -0.208  1.00  0.00    -0.237 OA
ATOM     82  O   UNL     1      17.095  -1.384  -1.453  1.00  0.00    -0.744 OA
ENDBRANCH  78  79
ENDBRANCH  57  71
BRANCH  58  83
ATOM     83  C   UNL     1       6.148  -5.473   8.012  1.00  0.00     0.058 A 
ATOM     84  C   UNL     1       5.992  -5.032   9.335  1.00  0.00     0.135 A 
ATOM     85  C   UNL     1       5.303  -6.502   7.566  1.00  0.00     0.135 A 
ATOM     86  F   UNL     1       6.783  -4.059   9.814  1.00  0.00    -0.206 F 
ATOM     87  C   UNL     1       5.052  -5.601  10.189  1.00  0.00     0.059 A 
ATOM     88  C   UNL     1       4.338  -7.069   8.392  1.00  0.00     0.059 A 
ATOM     89  F   UNL     1       5.403  -6.956   6.306  1.00  0.00    -0.206 F 
ATOM     90  C   UNL     1       4.229  -6.620   9.707  1.00  0.00     0.060 A 
BRANCH  90  91
ATOM     91  S   UNL     1       2.987  -7.331  10.809  1.00  0.00     0.124 S 
ATOM     92  O   UNL     1       3.811  -8.145  11.695  1.00  0.00    -0.237 OA
ATOM     93  O   UNL     1       2.389  -6.141  11.406  1.00  0.00    -0.237 OA
ATOM     94  O   UNL     1       2.116  -8.070   9.899  1.00  0.00    -0.744 OA
ENDBRANCH  90  91
ENDBRANCH  58  83
BRANCH  70  95
ATOM     95  C   UNL     1      13.124  -5.644   8.030  1.00  0.00     0.058 A 
ATOM     96  C   UNL     1      13.325  -7.031   8.102  1.00  0.00     0.135 A 
ATOM     97  C   UNL     1      13.924  -4.822   8.841  1.00  0.00     0.135 A 
ATOM     98  F   UNL     1      12.585  -7.860   7.350  1.00  0.00    -0.206 F 
ATOM     99  C   UNL     1      14.262  -7.584   8.968  1.00  0.00     0.059 A 
ATOM    100  C   UNL     1      14.887  -5.352   9.693  1.00  0.00     0.059 A 
ATOM    101  F   UNL     1      13.784  -3.487   8.799  1.00  0.00    -0.206 F 
ATOM    102  C   UNL     1      15.038  -6.736   9.761  1.00  0.00     0.060 A 
BRANCH 102 103
ATOM    103  S   UNL     1      16.264  -7.466  10.867  1.00  0.00     0.124 S 
ATOM    104  O   UNL     1      15.420  -7.988  11.937  1.00  0.00    -0.237 OA
ATOM    105  O   UNL     1      16.900  -8.466  10.016  1.00  0.00    -0.237 OA
ATOM    106  O   UNL     1      17.109  -6.332  11.232  1.00  0.00    -0.744 OA
ENDBRANCH 102 103
ENDBRANCH  70  95
ENDBRANCH  44  45
ENDBRANCH  37  39
ENDBRANCH  36  37
ENDBRANCH  35  36
ENDBRANCH  34  35
ENDBRANCH  33  34
ENDBRANCH  32  33
ENDBRANCH  31  32
ENDBRANCH   1  31
TORSDOF 26
