REMARK SMILES NS(=O)(=O)c1ccc(-n2nc(NC(=O)NCCCC(=O)OCCOCCOCCOCCOC(=O)c3ccc(-c4c5nc(c(-c6c(F)cc(S(=O)(=O)[O-])cc6F)c6ccc([nH]6)c(-c6c(F)cc(S(=O)(=O)[O-])cc6F)c6nc(c(-c7c(F)cc(S(=O)(=O)[O-])cc7F)c7ccc4[nH]7)C=C6)C=C5)cc3)cc2-c2ccccc2)cc1
REMARK SMILES IDX 25 1 24 2 23 3 22 4 21 5 19 6 20 7 18 8 17 9 16 10 15 11
REMARK SMILES IDX 12 12 13 13 14 15 11 17 9 18 10 19 103 20 102 21 8 22 5 23
REMARK SMILES IDX 6 24 111 25 7 26 110 27 2 28 3 29 4 30 1 31 104 34 105 35
REMARK SMILES IDX 109 36 106 37 108 38 107 39 26 40 27 41 28 42 29 43 30 44
REMARK SMILES IDX 31 45 32 46 33 47 34 48 35 49 36 50 37 51 101 52 38 53
REMARK SMILES IDX 100 54 39 55 40 56 41 57 94 58 42 59 99 60 93 61 95 62 43 63
REMARK SMILES IDX 98 64 92 65 91 66 44 68 78 69 57 70 77 71 58 72 61 73 76 74
REMARK SMILES IDX 96 75 59 76 60 77 75 79 97 80 62 81 45 82 46 83 55 84 47 85
REMARK SMILES IDX 48 86 54 87 56 88 49 89 50 90 51 91 52 92 53 93 79 94 80 95
REMARK SMILES IDX 89 96 81 97 82 98 88 99 90 100 83 101 84 102 85 103 86 104
REMARK SMILES IDX 87 105 63 106 64 107 73 108 65 109 66 110 72 111 74 112
REMARK SMILES IDX 67 113 68 114 69 115 70 116 71 117
REMARK H PARENT 12 14 15 16 1 32 1 33 95 67 61 78
REMARK Flexibility Score: inf
ROOT
ATOM      1  C   UNL     1      -3.020   4.606  -0.652  1.00  0.00     0.188 C 
ENDROOT
BRANCH   1   2
ATOM      2  O   UNL     1      -4.217   4.923  -1.362  1.00  0.00    -0.376 OA
BRANCH   2   3
ATOM      3  C   UNL     1      -4.155   5.962  -2.324  1.00  0.00     0.202 C 
BRANCH   3   4
ATOM      4  C   UNL     1      -4.321   7.397  -1.751  1.00  0.00     0.261 C 
BRANCH   4   5
ATOM      5  O   UNL     1      -3.787   7.681  -0.427  1.00  0.00    -0.463 OA
BRANCH   5   6
ATOM      6  C   UNL     1      -4.477   7.194   0.631  1.00  0.00     0.305 C 
ATOM      7  O   UNL     1      -5.607   6.722   0.542  1.00  0.00    -0.252 OA
BRANCH   6   8
ATOM      8  C   UNL     1      -3.792   7.337   1.998  1.00  0.00     0.124 C 
BRANCH   8   9
ATOM      9  C   UNL     1      -2.301   7.200   2.330  1.00  0.00     0.033 C 
BRANCH   9  10
ATOM     10  C   UNL     1      -1.212   7.990   1.617  1.00  0.00     0.118 C 
BRANCH  10  11
ATOM     11  N   UNL     1      -1.154   9.402   1.819  1.00  0.00    -0.338 N 
ATOM     12  N   UNL     1       1.206   9.732   1.706  1.00  0.00    -0.291 N 
ATOM     13  C   UNL     1      -0.060  10.188   1.795  1.00  0.00     0.320 C 
ATOM     14  H   UNL     1       1.867  10.438   1.890  1.00  0.00     0.173 HD
ATOM     15  O   UNL     1      -0.229  11.398   1.990  1.00  0.00    -0.248 OA
ATOM     16  H   UNL     1      -2.012   9.852   1.995  1.00  0.00     0.165 HD
BRANCH  12  17
ATOM     17  C   UNL     1       1.808   8.519   1.420  1.00  0.00     0.157 A 
ATOM     18  N   UNL     1       2.247   6.484   0.870  1.00  0.00    -0.231 N 
ATOM     19  N   UNL     1       1.406   7.523   0.603  1.00  0.00    -0.149 NA
ATOM     20  C   UNL     1       3.292   6.905   1.697  1.00  0.00     0.076 A 
ATOM     21  C   UNL     1       3.049   8.219   2.008  1.00  0.00     0.078 A 
BRANCH  18  22
ATOM     22  C   UNL     1       2.021   5.138   0.368  1.00  0.00     0.065 A 
ATOM     23  C   UNL     1       1.469   1.692  -0.724  1.00  0.00     0.082 A 
ATOM     24  C   UNL     1       1.769   2.094   0.994  1.00  0.00     0.024 A 
ATOM     25  C   UNL     1       1.513   3.002  -1.938  1.00  0.00     0.024 A 
ATOM     26  C   UNL     1       2.004   3.782   1.526  1.00  0.00     0.030 A 
ATOM     27  C   UNL     1       1.713   4.766  -1.358  1.00  0.00     0.030 A 
BRANCH  23  28
ATOM     28  S   UNL     1       0.886   0.114  -1.208  1.00  0.00     0.238 S 
ATOM     29  O   UNL     1       1.505  -0.273  -2.449  1.00  0.00    -0.207 OA
ATOM     30  O   UNL     1      -0.542   0.080  -0.996  1.00  0.00    -0.207 OA
BRANCH  28  31
ATOM     31  N   UNL     1       1.547  -0.892  -0.037  1.00  0.00    -0.225 NA
ATOM     32  H   UNL     1       1.269  -1.856  -0.221  1.00  0.00     0.137 HD
ATOM     33  H   UNL     1       1.209  -0.610   0.883  1.00  0.00     0.137 HD
ENDBRANCH  28  31
ENDBRANCH  23  28
ENDBRANCH  18  22
BRANCH  20  34
ATOM     34  C   UNL     1       4.549   6.209   1.803  1.00  0.00     0.000 A 
ATOM     35  C   UNL     1       5.094   5.856   0.589  1.00  0.00     0.010 A 
ATOM     36  C   UNL     1       5.217   5.886   2.979  1.00  0.00     0.010 A 
ATOM     37  C   UNL     1       6.126   4.969   0.530  1.00  0.00     0.001 A 
ATOM     38  C   UNL     1       6.329   5.045   2.912  1.00  0.00     0.001 A 
ATOM     39  C   UNL     1       6.720   4.518   1.688  1.00  0.00     0.000 A 
ENDBRANCH  20  34
ENDBRANCH  12  17
ENDBRANCH  10  11
ENDBRANCH   9  10
ENDBRANCH   8   9
ENDBRANCH   6   8
ENDBRANCH   5   6
ENDBRANCH   4   5
ENDBRANCH   3   4
ENDBRANCH   2   3
ENDBRANCH   1   2
BRANCH   1  40
ATOM     40  C   UNL     1      -1.926   5.673  -0.561  1.00  0.00     0.188 C 
BRANCH  40  41
ATOM     41  O   UNL     1      -1.657   6.476  -1.686  1.00  0.00    -0.377 OA
BRANCH  41  42
ATOM     42  C   UNL     1      -0.740   5.939  -2.600  1.00  0.00     0.188 C 
BRANCH  42  43
ATOM     43  C   UNL     1      -0.622   4.406  -2.614  1.00  0.00     0.188 C 
BRANCH  43  44
ATOM     44  O   UNL     1      -0.510   3.609  -1.374  1.00  0.00    -0.376 OA
BRANCH  44  45
ATOM     45  C   UNL     1       0.671   3.549  -0.197  1.00  0.00     0.202 C 
BRANCH  45  46
ATOM     46  C   UNL     1       2.821   3.306  -0.451  1.00  0.00     0.261 C 
BRANCH  46  47
ATOM     47  O   UNL     1       3.740   4.031  -1.637  1.00  0.00    -0.460 OA
BRANCH  47  48
ATOM     48  C   UNL     1       3.740   3.746  -2.984  1.00  0.00     0.338 C 
ATOM     49  O   UNL     1       3.692   2.630  -3.478  1.00  0.00    -0.246 OA
BRANCH  48  50
ATOM     50  C   UNL     1       3.591   5.052  -3.826  1.00  0.00     0.060 A 
ATOM     51  C   UNL     1       4.412   4.974  -4.933  1.00  0.00     0.016 A 
ATOM     52  C   UNL     1       3.844   6.188  -3.086  1.00  0.00     0.016 A 
ATOM     53  C   UNL     1       5.763   5.107  -4.679  1.00  0.00     0.010 A 
ATOM     54  C   UNL     1       5.157   6.348  -2.763  1.00  0.00     0.010 A 
ATOM     55  C   UNL     1       6.115   5.572  -3.417  1.00  0.00    -0.014 A 
BRANCH  55  56
ATOM     56  C   UNL     1       7.476   5.686  -2.938  1.00  0.00     0.031 A 
ATOM     57  C   UNL     1       7.920   7.065  -3.235  1.00  0.00     0.074 A 
ATOM     58  C   UNL     1       8.188   4.779  -2.232  1.00  0.00     0.049 A 
ATOM     59  N   UNL     1       8.207   7.455  -4.439  1.00  0.00    -0.248 NA
ATOM     60  C   UNL     1       7.566   8.178  -2.328  1.00  0.00     0.031 C 
ATOM     61  C   UNL     1       7.864   3.448  -1.700  1.00  0.00     0.029 A 
ATOM     62  N   UNL     1       9.472   4.948  -1.796  1.00  0.00    -0.354 N 
ATOM     63  C   UNL     1       8.412   8.810  -4.304  1.00  0.00     0.074 A 
ATOM     64  C   UNL     1       7.589   9.197  -3.197  1.00  0.00     0.031 C 
ATOM     65  C   UNL     1       8.822   3.059  -0.809  1.00  0.00     0.029 A 
ATOM     66  C   UNL     1       9.924   4.005  -0.860  1.00  0.00     0.049 A 
ATOM     67  H   UNL     1      10.042   5.683  -2.118  1.00  0.00     0.167 HD
ATOM     68  C   UNL     1       9.575   9.359  -4.749  1.00  0.00     0.037 A 
ATOM     69  C   UNL     1      11.165   3.997  -0.279  1.00  0.00     0.037 A 
ATOM     70  C   UNL     1      10.279   8.415  -5.601  1.00  0.00     0.049 A 
ATOM     71  C   UNL     1      12.043   4.745  -1.229  1.00  0.00     0.074 A 
ATOM     72  C   UNL     1       9.959   7.719  -6.753  1.00  0.00     0.029 A 
ATOM     73  N   UNL     1      11.317   7.716  -5.023  1.00  0.00    -0.354 N 
ATOM     74  N   UNL     1      12.289   4.311  -2.441  1.00  0.00    -0.248 NA
ATOM     75  C   UNL     1      12.134   6.187  -1.049  1.00  0.00     0.031 C 
ATOM     76  C   UNL     1      10.498   6.408  -6.566  1.00  0.00     0.029 A 
ATOM     77  C   UNL     1      11.212   6.390  -5.368  1.00  0.00     0.049 A 
ATOM     78  H   UNL     1      12.021   8.105  -4.454  1.00  0.00     0.167 HD
ATOM     79  C   UNL     1      12.138   5.424  -3.259  1.00  0.00     0.074 A 
ATOM     80  C   UNL     1      12.069   6.561  -2.332  1.00  0.00     0.031 C 
ATOM     81  C   UNL     1      11.741   5.303  -4.564  1.00  0.00     0.037 A 
BRANCH  68  82
ATOM     82  C   UNL     1      10.273  10.505  -4.052  1.00  0.00     0.058 A 
ATOM     83  C   UNL     1      11.379  11.091  -4.693  1.00  0.00     0.135 A 
ATOM     84  C   UNL     1      10.074  10.907  -2.707  1.00  0.00     0.135 A 
ATOM     85  F   UNL     1      11.662  10.792  -5.971  1.00  0.00    -0.206 F 
ATOM     86  C   UNL     1      12.259  11.944  -4.029  1.00  0.00     0.059 A 
ATOM     87  C   UNL     1      10.909  11.790  -2.044  1.00  0.00     0.059 A 
ATOM     88  F   UNL     1       9.118  10.419  -1.915  1.00  0.00    -0.206 F 
ATOM     89  C   UNL     1      12.019  12.277  -2.700  1.00  0.00     0.060 A 
BRANCH  89  90
ATOM     90  S   UNL     1      13.179  13.319  -1.812  1.00  0.00     0.124 S 
ATOM     91  O   UNL     1      14.357  12.462  -1.760  1.00  0.00    -0.237 OA
ATOM     92  O   UNL     1      13.264  14.480  -2.691  1.00  0.00    -0.237 OA
ATOM     93  O   UNL     1      12.511  13.554  -0.534  1.00  0.00    -0.744 OA
ENDBRANCH  89  90
ENDBRANCH  68  82
BRANCH  69  94
ATOM     94  C   UNL     1      11.531   3.837   1.169  1.00  0.00     0.058 A 
ATOM     95  C   UNL     1      12.843   3.614   1.631  1.00  0.00     0.135 A 
ATOM     96  C   UNL     1      10.616   4.206   2.167  1.00  0.00     0.135 A 
ATOM     97  F   UNL     1      13.821   3.333   0.757  1.00  0.00    -0.206 F 
ATOM     98  C   UNL     1      13.205   3.740   2.991  1.00  0.00     0.059 A 
ATOM     99  C   UNL     1      10.932   4.309   3.524  1.00  0.00     0.059 A 
ATOM    100  F   UNL     1       9.398   4.616   1.820  1.00  0.00    -0.206 F 
ATOM    101  C   UNL     1      12.238   4.093   3.933  1.00  0.00     0.060 A 
BRANCH 101 102
ATOM    102  S   UNL     1      12.690   4.390   5.666  1.00  0.00     0.124 S 
ATOM    103  O   UNL     1      13.087   3.059   6.111  1.00  0.00    -0.237 OA
ATOM    104  O   UNL     1      13.764   5.369   5.544  1.00  0.00    -0.237 OA
ATOM    105  O   UNL     1      11.453   4.896   6.257  1.00  0.00    -0.744 OA
ENDBRANCH 101 102
ENDBRANCH  69  94
BRANCH  81 106
ATOM    106  C   UNL     1      11.689   3.914  -5.176  1.00  0.00     0.058 A 
ATOM    107  C   UNL     1      10.767   2.907  -4.828  1.00  0.00     0.135 A 
ATOM    108  C   UNL     1      12.507   3.654  -6.282  1.00  0.00     0.135 A 
ATOM    109  F   UNL     1       9.880   3.099  -3.848  1.00  0.00    -0.206 F 
ATOM    110  C   UNL     1      10.683   1.693  -5.522  1.00  0.00     0.059 A 
ATOM    111  C   UNL     1      12.428   2.464  -7.004  1.00  0.00     0.059 A 
ATOM    112  F   UNL     1      13.366   4.592  -6.710  1.00  0.00    -0.206 F 
ATOM    113  C   UNL     1      11.521   1.481  -6.613  1.00  0.00     0.060 A 
BRANCH 113 114
ATOM    114  S   UNL     1      11.387  -0.059  -7.550  1.00  0.00     0.124 S 
ATOM    115  O   UNL     1      11.887  -1.044  -6.598  1.00  0.00    -0.237 OA
ATOM    116  O   UNL     1       9.958  -0.129  -7.843  1.00  0.00    -0.237 OA
ATOM    117  O   UNL     1      12.241   0.175  -8.712  1.00  0.00    -0.744 OA
ENDBRANCH 113 114
ENDBRANCH  81 106
ENDBRANCH  55  56
ENDBRANCH  48  50
ENDBRANCH  47  48
ENDBRANCH  46  47
ENDBRANCH  45  46
ENDBRANCH  44  45
ENDBRANCH  43  44
ENDBRANCH  42  43
ENDBRANCH  41  42
ENDBRANCH  40  41
ENDBRANCH   1  40
TORSDOF 31
