REMARK SMILES Cc1cccc(-c2ncc(C[NH+]3CCC4(CC3)NC(=O)C[C@H]4C(=O)OCCOCCOCCOCCOC(=O)c3ccc(-c4c5nc(c(-c6c(F)cc(S(=O)(=O)[O-])cc6F)c6ccc([nH]6)c(-c6c(F)cc(S(=O)(=O)[O-])cc6F)c6nc(c(-c7c(F)cc(S(=O)(=O)[O-])cc7F)c7ccc4[nH]7)C=C6)C=C5)cc3)cn2)c1
REMARK SMILES IDX 31 1 30 2 29 3 28 4 27 5 26 6 25 7 23 8 24 9 22 10 12 11
REMARK SMILES IDX 13 12 17 13 14 15 16 16 15 17 18 18 19 19 21 21 20 22 11 23
REMARK SMILES IDX 10 24 7 25 8 26 107 27 9 28 106 29 6 30 1 31 2 32 3 33
REMARK SMILES IDX 108 34 4 35 5 36 32 37 33 38 34 39 35 40 36 41 37 42 38 43
REMARK SMILES IDX 39 44 40 45 41 46 105 47 42 48 104 49 43 50 44 51 45 52
REMARK SMILES IDX 98 53 46 54 103 55 97 56 99 57 47 58 102 59 96 60 95 61
REMARK SMILES IDX 48 63 82 64 61 65 81 66 62 67 65 68 80 69 100 70 63 71 64 72
REMARK SMILES IDX 79 74 101 75 66 76 49 77 50 78 59 79 51 80 52 81 58 82 60 83
REMARK SMILES IDX 53 84 54 85 55 86 56 87 57 88 83 89 84 90 93 91 85 92 86 93
REMARK SMILES IDX 92 94 94 95 87 96 88 97 89 98 90 99 91 100 67 101 68 102
REMARK SMILES IDX 77 103 69 104 70 105 76 106 78 107 71 108 72 109 73 110
REMARK SMILES IDX 74 111 75 112
REMARK H PARENT 12 14 18 20 99 62 65 73
REMARK Flexibility Score: inf
ROOT
ATOM      1  O   UNL     1      -2.625   6.853  -3.349  1.00  0.00    -0.377 OA
ENDROOT
BRANCH   1   2
ATOM      2  C   UNL     1      -2.393   7.609  -2.185  1.00  0.00     0.188 C 
BRANCH   2   3
ATOM      3  C   UNL     1      -2.279   9.132  -2.216  1.00  0.00     0.188 C 
BRANCH   3   4
ATOM      4  O   UNL     1      -1.188   9.771  -2.835  1.00  0.00    -0.376 OA
BRANCH   4   5
ATOM      5  C   UNL     1      -0.174   8.927  -3.317  1.00  0.00     0.202 C 
BRANCH   5   6
ATOM      6  C   UNL     1       0.966   8.619  -2.350  1.00  0.00     0.261 C 
BRANCH   6   7
ATOM      7  O   UNL     1       0.718   7.640  -1.324  1.00  0.00    -0.463 OA
BRANCH   7   8
ATOM      8  C   UNL     1       0.896   8.059  -0.053  1.00  0.00     0.311 C 
ATOM      9  O   UNL     1       0.844   9.230   0.303  1.00  0.00    -0.252 OA
BRANCH   8  10
ATOM     10  C   UNL     1       1.251   6.942   0.917  1.00  0.00     0.134 C 
ATOM     11  N   UNL     1      -2.732   6.639   1.705  1.00  0.00    -0.331 N 
ATOM     12  C   UNL     1      -1.762   7.003   2.714  1.00  0.00     0.264 C 
ATOM     13  C   UNL     1      -2.096   6.508   0.419  1.00  0.00     0.264 C 
ATOM     14  H   UNL     1      -3.345   7.452   1.751  1.00  0.00     0.348 HD
ATOM     15  C   UNL     1      -0.480   6.163   2.710  1.00  0.00     0.091 C 
ATOM     16  C   UNL     1      -0.888   5.595   0.291  1.00  0.00     0.091 C 
ATOM     17  C   UNL     1       0.178   5.898   1.328  1.00  0.00     0.064 C 
ATOM     18  N   UNL     1       0.974   4.685   1.459  1.00  0.00    -0.349 N 
ATOM     19  C   UNL     1       2.208   4.737   0.881  1.00  0.00     0.221 C 
ATOM     20  H   UNL     1       0.645   3.886   1.931  1.00  0.00     0.164 HD
ATOM     21  C   UNL     1       2.482   6.140   0.439  1.00  0.00     0.117 C 
ATOM     22  O   UNL     1       2.963   3.776   0.787  1.00  0.00    -0.275 OA
BRANCH  11  23
ATOM     23  C   UNL     1      -3.840   5.714   1.952  1.00  0.00     0.302 C 
BRANCH  23  24
ATOM     24  C   UNL     1      -3.533   4.272   1.684  1.00  0.00     0.043 A 
ATOM     25  C   UNL     1      -2.371   1.923   1.028  1.00  0.00     0.159 A 
ATOM     26  N   UNL     1      -2.277   2.330   2.311  1.00  0.00    -0.236 NA
ATOM     27  N   UNL     1      -3.098   2.528   0.083  1.00  0.00    -0.236 NA
ATOM     28  C   UNL     1      -2.890   3.489   2.611  1.00  0.00     0.124 A 
ATOM     29  C   UNL     1      -3.675   3.688   0.438  1.00  0.00     0.124 A 
BRANCH  25  30
ATOM     30  C   UNL     1      -1.537   0.798   0.625  1.00  0.00     0.019 A 
ATOM     31  C   UNL     1       2.169  -0.009   0.133  1.00  0.00     0.044 C 
ATOM     32  C   UNL     1       0.679  -0.161   0.215  1.00  0.00    -0.050 A 
ATOM     33  C   UNL     1       0.083  -1.407  -0.002  1.00  0.00     0.003 A 
ATOM     34  C   UNL     1      -0.139   0.932   0.530  1.00  0.00     0.015 A 
ATOM     35  C   UNL     1      -1.305  -1.546   0.045  1.00  0.00     0.001 A 
ATOM     36  C   UNL     1      -2.110  -0.447   0.344  1.00  0.00     0.012 A 
ENDBRANCH  25  30
ENDBRANCH  23  24
ENDBRANCH  11  23
ENDBRANCH   8  10
ENDBRANCH   7   8
ENDBRANCH   6   7
ENDBRANCH   5   6
ENDBRANCH   4   5
ENDBRANCH   3   4
ENDBRANCH   2   3
ENDBRANCH   1   2
BRANCH   1  37
ATOM     37  C   UNL     1      -3.194   5.552  -3.084  1.00  0.00     0.188 C 
BRANCH  37  38
ATOM     38  C   UNL     1      -4.695   5.614  -2.859  1.00  0.00     0.188 C 
BRANCH  38  39
ATOM     39  O   UNL     1      -5.013   6.977  -2.634  1.00  0.00    -0.376 OA
BRANCH  39  40
ATOM     40  C   UNL     1      -6.315   7.259  -2.205  1.00  0.00     0.202 C 
BRANCH  40  41
ATOM     41  C   UNL     1      -7.328   6.925  -3.292  1.00  0.00     0.261 C 
BRANCH  41  42
ATOM     42  O   UNL     1      -6.898   7.571  -4.513  1.00  0.00    -0.460 OA
BRANCH  42  43
ATOM     43  C   UNL     1      -6.710   6.734  -5.575  1.00  0.00     0.338 C 
ATOM     44  O   UNL     1      -7.582   6.017  -6.035  1.00  0.00    -0.246 OA
BRANCH  43  45
ATOM     45  C   UNL     1      -5.280   6.754  -6.032  1.00  0.00     0.060 A 
ATOM     46  C   UNL     1      -4.715   5.633  -6.671  1.00  0.00     0.016 A 
ATOM     47  C   UNL     1      -4.442   7.797  -5.666  1.00  0.00     0.016 A 
ATOM     48  C   UNL     1      -3.311   5.483  -6.799  1.00  0.00     0.010 A 
ATOM     49  C   UNL     1      -3.064   7.654  -5.820  1.00  0.00     0.010 A 
ATOM     50  C   UNL     1      -2.459   6.469  -6.308  1.00  0.00    -0.014 A 
BRANCH  50  51
ATOM     51  C   UNL     1      -0.987   6.353  -6.034  1.00  0.00     0.031 A 
ATOM     52  C   UNL     1      -0.114   7.543  -6.381  1.00  0.00     0.074 A 
ATOM     53  C   UNL     1      -0.536   5.446  -5.121  1.00  0.00     0.049 A 
ATOM     54  N   UNL     1       1.086   7.779  -5.960  1.00  0.00    -0.248 NA
ATOM     55  C   UNL     1      -0.577   8.607  -7.277  1.00  0.00     0.031 C 
ATOM     56  C   UNL     1       0.449   5.692  -4.063  1.00  0.00     0.029 A 
ATOM     57  N   UNL     1      -0.908   4.148  -4.827  1.00  0.00    -0.354 N 
ATOM     58  C   UNL     1       1.408   9.111  -6.228  1.00  0.00     0.074 A 
ATOM     59  C   UNL     1       0.373   9.539  -7.134  1.00  0.00     0.031 C 
ATOM     60  C   UNL     1       0.644   4.607  -3.302  1.00  0.00     0.029 A 
ATOM     61  C   UNL     1       0.049   3.517  -4.013  1.00  0.00     0.049 A 
ATOM     62  H   UNL     1      -1.736   3.721  -5.147  1.00  0.00     0.167 HD
ATOM     63  C   UNL     1       2.413   9.731  -5.514  1.00  0.00     0.037 A 
ATOM     64  C   UNL     1       0.793   2.502  -4.547  1.00  0.00     0.037 A 
ATOM     65  C   UNL     1       3.262   8.740  -4.792  1.00  0.00     0.049 A 
ATOM     66  C   UNL     1       2.220   2.948  -4.956  1.00  0.00     0.074 A 
ATOM     67  C   UNL     1       3.932   8.642  -3.578  1.00  0.00     0.029 A 
ATOM     68  N   UNL     1       3.449   7.488  -5.376  1.00  0.00    -0.354 N 
ATOM     69  N   UNL     1       2.758   4.120  -4.666  1.00  0.00    -0.248 NA
ATOM     70  C   UNL     1       3.150   2.140  -5.743  1.00  0.00     0.031 C 
ATOM     71  C   UNL     1       4.454   7.311  -3.438  1.00  0.00     0.029 A 
ATOM     72  C   UNL     1       4.192   6.626  -4.609  1.00  0.00     0.049 A 
ATOM     73  H   UNL     1       3.081   7.245  -6.257  1.00  0.00     0.167 HD
ATOM     74  C   UNL     1       3.976   4.281  -5.287  1.00  0.00     0.074 A 
ATOM     75  C   UNL     1       4.176   2.994  -5.938  1.00  0.00     0.031 C 
ATOM     76  C   UNL     1       4.717   5.444  -5.277  1.00  0.00     0.037 A 
BRANCH  63  77
ATOM     77  C   UNL     1       2.557  11.272  -5.307  1.00  0.00     0.058 A 
ATOM     78  C   UNL     1       3.682  11.819  -4.638  1.00  0.00     0.135 A 
ATOM     79  C   UNL     1       1.584  12.257  -5.625  1.00  0.00     0.135 A 
ATOM     80  F   UNL     1       4.726  11.055  -4.294  1.00  0.00    -0.206 F 
ATOM     81  C   UNL     1       3.816  13.177  -4.289  1.00  0.00     0.059 A 
ATOM     82  C   UNL     1       1.727  13.635  -5.346  1.00  0.00     0.059 A 
ATOM     83  F   UNL     1       0.416  11.938  -6.194  1.00  0.00    -0.206 F 
ATOM     84  C   UNL     1       2.841  14.088  -4.660  1.00  0.00     0.060 A 
BRANCH  84  85
ATOM     85  S   UNL     1       3.084  15.843  -4.287  1.00  0.00     0.124 S 
ATOM     86  O   UNL     1       2.953  15.875  -2.834  1.00  0.00    -0.237 OA
ATOM     87  O   UNL     1       4.428  16.089  -4.803  1.00  0.00    -0.237 OA
ATOM     88  O   UNL     1       2.011  16.504  -5.024  1.00  0.00    -0.744 OA
ENDBRANCH  84  85
ENDBRANCH  63  77
BRANCH  64  89
ATOM     89  C   UNL     1      -0.177   1.431  -5.030  1.00  0.00     0.058 A 
ATOM     90  C   UNL     1      -0.862   0.806  -3.952  1.00  0.00     0.135 A 
ATOM     91  C   UNL     1      -0.959   1.681  -6.178  1.00  0.00     0.135 A 
ATOM     92  F   UNL     1      -0.173   0.463  -2.853  1.00  0.00    -0.206 F 
ATOM     93  C   UNL     1      -2.260   0.778  -3.871  1.00  0.00     0.059 A 
ATOM     94  C   UNL     1      -2.369   1.645  -6.123  1.00  0.00     0.059 A 
ATOM     95  F   UNL     1      -0.394   2.241  -7.259  1.00  0.00    -0.206 F 
ATOM     96  C   UNL     1      -3.007   1.279  -4.933  1.00  0.00     0.060 A 
BRANCH  96  97
ATOM     97  S   UNL     1      -4.754   1.710  -4.642  1.00  0.00     0.124 S 
ATOM     98  O   UNL     1      -5.407   0.409  -4.689  1.00  0.00    -0.237 OA
ATOM     99  O   UNL     1      -4.711   2.365  -3.336  1.00  0.00    -0.237 OA
ATOM    100  O   UNL     1      -5.056   2.612  -5.747  1.00  0.00    -0.744 OA
ENDBRANCH  96  97
ENDBRANCH  64  89
BRANCH  76 101
ATOM    101  C   UNL     1       5.997   5.675  -6.074  1.00  0.00     0.058 A 
ATOM    102  C   UNL     1       6.966   4.691  -6.279  1.00  0.00     0.135 A 
ATOM    103  C   UNL     1       6.308   6.946  -6.640  1.00  0.00     0.135 A 
ATOM    104  F   UNL     1       6.913   3.527  -5.615  1.00  0.00    -0.206 F 
ATOM    105  C   UNL     1       8.042   4.881  -7.150  1.00  0.00     0.059 A 
ATOM    106  C   UNL     1       7.392   7.173  -7.474  1.00  0.00     0.059 A 
ATOM    107  F   UNL     1       5.571   8.042  -6.423  1.00  0.00    -0.206 F 
ATOM    108  C   UNL     1       8.220   6.114  -7.777  1.00  0.00     0.060 A 
BRANCH 108 109
ATOM    109  S   UNL     1       9.542   6.331  -8.974  1.00  0.00     0.124 S 
ATOM    110  O   UNL     1      10.677   5.716  -8.294  1.00  0.00    -0.237 OA
ATOM    111  O   UNL     1       9.015   5.597 -10.120  1.00  0.00    -0.237 OA
ATOM    112  O   UNL     1       9.626   7.778  -9.140  1.00  0.00    -0.744 OA
ENDBRANCH 108 109
ENDBRANCH  76 101
ENDBRANCH  50  51
ENDBRANCH  43  45
ENDBRANCH  42  43
ENDBRANCH  41  42
ENDBRANCH  40  41
ENDBRANCH  39  40
ENDBRANCH  38  39
ENDBRANCH  37  38
ENDBRANCH   1  37
TORSDOF 26
