REMARK SMILES O=C(C[NH+]1CCOCC1)Nc1nnc(SCC(=O)OCCOCCOCCOCCOC(=O)c2ccc(-c3c4nc(c(-c5c(F)cc(S(=O)(=O)[O-])cc5F)c5ccc([nH]5)c(-c5c(F)cc(S(=O)(=O)[O-])cc5F)c5nc(c(-c6c(F)cc(S(=O)(=O)[O-])cc6F)c6ccc3[nH]6)C=C5)C=C4)cc2)s1
REMARK SMILES IDX 24 1 23 2 22 3 21 4 20 5 19 6 17 7 18 8 16 9 15 10 14 11
REMARK SMILES IDX 11 12 12 13 100 14 13 15 10 16 1 17 2 18 3 20 4 21 5 22 9 23
REMARK SMILES IDX 6 25 8 26 7 27 25 28 26 29 27 30 28 31 29 32 30 33 31 34
REMARK SMILES IDX 32 35 33 36 34 37 35 38 99 39 36 40 98 41 37 42 38 43 39 44
REMARK SMILES IDX 92 45 40 46 97 47 91 48 93 49 41 50 96 51 90 52 89 53 42 55
REMARK SMILES IDX 76 56 55 57 75 58 56 59 59 60 74 61 94 62 57 63 58 64 73 66
REMARK SMILES IDX 95 67 60 68 43 69 44 70 53 71 45 72 46 73 52 74 54 75 47 76
REMARK SMILES IDX 48 77 49 78 50 79 51 80 77 81 78 82 87 83 79 84 80 85 86 86
REMARK SMILES IDX 88 87 81 88 82 89 83 90 84 91 85 92 61 93 62 94 71 95 63 96
REMARK SMILES IDX 64 97 70 98 72 99 65 100 66 101 67 102 68 103 69 104
REMARK H PARENT 10 19 4 24 93 54 59 65
REMARK Flexibility Score: inf
ROOT
ATOM      1  C   UNL     1      -1.128  -2.030   1.189  1.00  0.00     0.188 C 
ENDROOT
BRANCH   1   2
ATOM      2  C   UNL     1      -1.667  -2.065  -0.244  1.00  0.00     0.188 C 
BRANCH   2   3
ATOM      3  O   UNL     1      -3.025  -1.794  -0.520  1.00  0.00    -0.376 OA
BRANCH   3   4
ATOM      4  C   UNL     1      -3.987  -2.017   0.496  1.00  0.00     0.202 C 
BRANCH   4   5
ATOM      5  C   UNL     1      -4.152  -3.448   1.056  1.00  0.00     0.261 C 
BRANCH   5   6
ATOM      6  O   UNL     1      -2.956  -4.124   1.538  1.00  0.00    -0.463 OA
BRANCH   6   7
ATOM      7  C   UNL     1      -2.470  -5.143   0.784  1.00  0.00     0.316 C 
ATOM      8  O   UNL     1      -3.010  -5.519  -0.257  1.00  0.00    -0.251 OA
BRANCH   7   9
ATOM      9  C   UNL     1      -1.226  -5.874   1.283  1.00  0.00     0.200 C 
BRANCH   9  10
ATOM     10  S   UNL     1      -0.217  -5.232   2.627  1.00  0.00    -0.082 SA
BRANCH  10  11
ATOM     11  C   UNL     1       1.239  -4.470   1.962  1.00  0.00     0.176 A 
ATOM     12  C   UNL     1       2.802  -2.950   0.970  1.00  0.00     0.213 A 
ATOM     13  N   UNL     1       3.109  -3.230   2.217  1.00  0.00    -0.119 NA
ATOM     14  S   UNL     1       1.565  -3.967   0.342  1.00  0.00    -0.068 S 
ATOM     15  N   UNL     1       2.193  -4.095   2.795  1.00  0.00    -0.130 NA
BRANCH  12  16
ATOM     16  N   UNL     1       3.304  -1.824   0.333  1.00  0.00    -0.296 N 
ATOM     17  O   UNL     1       2.237  -1.934  -1.706  1.00  0.00    -0.268 OA
ATOM     18  C   UNL     1       2.873  -1.302  -0.861  1.00  0.00     0.281 C 
ATOM     19  H   UNL     1       4.043  -1.353   0.782  1.00  0.00     0.172 HD
BRANCH  18  20
ATOM     20  C   UNL     1       3.122   0.209  -1.089  1.00  0.00     0.364 C 
BRANCH  20  21
ATOM     21  N   UNL     1       4.038   0.901  -0.144  1.00  0.00    -0.323 N 
ATOM     22  C   UNL     1       3.912   2.388  -0.354  1.00  0.00     0.291 C 
ATOM     23  C   UNL     1       5.472   0.587  -0.343  1.00  0.00     0.291 C 
ATOM     24  H   UNL     1       3.764   0.585   0.786  1.00  0.00     0.348 HD
ATOM     25  C   UNL     1       4.538   2.903  -1.671  1.00  0.00     0.221 C 
ATOM     26  C   UNL     1       6.076   1.111  -1.657  1.00  0.00     0.221 C 
ATOM     27  O   UNL     1       5.917   2.526  -1.780  1.00  0.00    -0.370 OA
ENDBRANCH  20  21
ENDBRANCH  18  20
ENDBRANCH  12  16
ENDBRANCH  10  11
ENDBRANCH   9  10
ENDBRANCH   7   9
ENDBRANCH   6   7
ENDBRANCH   5   6
ENDBRANCH   4   5
ENDBRANCH   3   4
ENDBRANCH   2   3
ENDBRANCH   1   2
BRANCH   1  28
ATOM     28  O   UNL     1      -1.927  -1.544   2.239  1.00  0.00    -0.377 OA
BRANCH  28  29
ATOM     29  C   UNL     1      -1.719  -0.227   2.725  1.00  0.00     0.188 C 
BRANCH  29  30
ATOM     30  C   UNL     1      -1.074   0.752   1.748  1.00  0.00     0.188 C 
BRANCH  30  31
ATOM     31  O   UNL     1       0.348   0.763   1.587  1.00  0.00    -0.376 OA
BRANCH  31  32
ATOM     32  C   UNL     1       1.176  -0.122   2.333  1.00  0.00     0.202 C 
BRANCH  32  33
ATOM     33  C   UNL     1       2.324   0.584   3.038  1.00  0.00     0.261 C 
BRANCH  33  34
ATOM     34  O   UNL     1       1.802   1.166   4.229  1.00  0.00    -0.460 OA
BRANCH  34  35
ATOM     35  C   UNL     1       1.124   2.311   3.994  1.00  0.00     0.338 C 
ATOM     36  O   UNL     1       1.285   3.085   3.063  1.00  0.00    -0.246 OA
BRANCH  35  37
ATOM     37  C   UNL     1      -0.012   2.369   4.930  1.00  0.00     0.060 A 
ATOM     38  C   UNL     1      -1.150   3.063   4.505  1.00  0.00     0.016 A 
ATOM     39  C   UNL     1       0.028   1.754   6.188  1.00  0.00     0.016 A 
ATOM     40  C   UNL     1      -2.217   3.224   5.370  1.00  0.00     0.010 A 
ATOM     41  C   UNL     1      -1.037   1.927   7.065  1.00  0.00     0.010 A 
ATOM     42  C   UNL     1      -2.125   2.719   6.672  1.00  0.00    -0.014 A 
BRANCH  42  43
ATOM     43  C   UNL     1      -3.042   3.276   7.678  1.00  0.00     0.031 A 
ATOM     44  C   UNL     1      -2.570   4.468   8.459  1.00  0.00     0.074 A 
ATOM     45  C   UNL     1      -4.287   2.792   7.792  1.00  0.00     0.049 A 
ATOM     46  N   UNL     1      -3.214   5.195   9.329  1.00  0.00    -0.248 NA
ATOM     47  C   UNL     1      -1.182   4.907   8.219  1.00  0.00     0.031 C 
ATOM     48  C   UNL     1      -4.827   1.665   7.031  1.00  0.00     0.029 A 
ATOM     49  N   UNL     1      -5.325   3.200   8.582  1.00  0.00    -0.354 N 
ATOM     50  C   UNL     1      -2.316   6.175   9.736  1.00  0.00     0.074 A 
ATOM     51  C   UNL     1      -1.070   5.932   9.049  1.00  0.00     0.031 C 
ATOM     52  C   UNL     1      -6.106   1.472   7.394  1.00  0.00     0.029 A 
ATOM     53  C   UNL     1      -6.460   2.443   8.426  1.00  0.00     0.049 A 
ATOM     54  H   UNL     1      -5.265   3.962   9.202  1.00  0.00     0.167 HD
ATOM     55  C   UNL     1      -2.524   7.193  10.601  1.00  0.00     0.037 A 
ATOM     56  C   UNL     1      -7.641   2.531   9.063  1.00  0.00     0.037 A 
ATOM     57  C   UNL     1      -3.776   7.402  11.279  1.00  0.00     0.049 A 
ATOM     58  C   UNL     1      -7.830   3.638  10.066  1.00  0.00     0.074 A 
ATOM     59  C   UNL     1      -4.115   8.395  12.177  1.00  0.00     0.029 A 
ATOM     60  N   UNL     1      -4.893   6.588  11.136  1.00  0.00    -0.354 N 
ATOM     61  N   UNL     1      -6.984   4.575  10.430  1.00  0.00    -0.248 NA
ATOM     62  C   UNL     1      -9.133   3.709  10.735  1.00  0.00     0.031 C 
ATOM     63  C   UNL     1      -5.417   8.146  12.624  1.00  0.00     0.029 A 
ATOM     64  C   UNL     1      -5.914   7.038  11.954  1.00  0.00     0.049 A 
ATOM     65  H   UNL     1      -4.949   5.806  10.540  1.00  0.00     0.167 HD
ATOM     66  C   UNL     1      -7.659   5.359  11.359  1.00  0.00     0.074 A 
ATOM     67  C   UNL     1      -8.992   4.798  11.477  1.00  0.00     0.031 C 
ATOM     68  C   UNL     1      -7.225   6.443  12.053  1.00  0.00     0.037 A 
BRANCH  55  69
ATOM     69  C   UNL     1      -1.369   8.113  10.889  1.00  0.00     0.058 A 
ATOM     70  C   UNL     1      -0.871   9.011   9.930  1.00  0.00     0.135 A 
ATOM     71  C   UNL     1      -0.755   8.102  12.152  1.00  0.00     0.135 A 
ATOM     72  F   UNL     1      -1.400   9.045   8.696  1.00  0.00    -0.206 F 
ATOM     73  C   UNL     1       0.207   9.848  10.205  1.00  0.00     0.059 A 
ATOM     74  C   UNL     1       0.305   8.950  12.459  1.00  0.00     0.059 A 
ATOM     75  F   UNL     1      -1.179   7.254  13.102  1.00  0.00    -0.206 F 
ATOM     76  C   UNL     1       0.786   9.812  11.475  1.00  0.00     0.060 A 
BRANCH  76  77
ATOM     77  S   UNL     1       2.174  10.914  11.822  1.00  0.00     0.124 S 
ATOM     78  O   UNL     1       3.234  10.310  11.020  1.00  0.00    -0.237 OA
ATOM     79  O   UNL     1       1.675  12.200  11.347  1.00  0.00    -0.237 OA
ATOM     80  O   UNL     1       2.342  10.805  13.268  1.00  0.00    -0.744 OA
ENDBRANCH  76  77
ENDBRANCH  55  69
BRANCH  56  81
ATOM     81  C   UNL     1      -8.713   1.543   8.774  1.00  0.00     0.058 A 
ATOM     82  C   UNL     1      -9.903   1.917   8.133  1.00  0.00     0.135 A 
ATOM     83  C   UNL     1      -8.555   0.190   9.118  1.00  0.00     0.135 A 
ATOM     84  F   UNL     1     -10.105   3.198   7.787  1.00  0.00    -0.206 F 
ATOM     85  C   UNL     1     -10.904   0.991   7.856  1.00  0.00     0.059 A 
ATOM     86  C   UNL     1      -9.528  -0.759   8.825  1.00  0.00     0.059 A 
ATOM     87  F   UNL     1      -7.429  -0.224   9.719  1.00  0.00    -0.206 F 
ATOM     88  C   UNL     1     -10.704  -0.347   8.202  1.00  0.00     0.060 A 
BRANCH  88  89
ATOM     89  S   UNL     1     -11.986  -1.550   7.791  1.00  0.00     0.124 S 
ATOM     90  O   UNL     1     -13.037  -1.194   8.737  1.00  0.00    -0.237 OA
ATOM     91  O   UNL     1     -12.255  -1.242   6.390  1.00  0.00    -0.237 OA
ATOM     92  O   UNL     1     -11.332  -2.834   8.028  1.00  0.00    -0.744 OA
ENDBRANCH  88  89
ENDBRANCH  56  81
BRANCH  68  93
ATOM     93  C   UNL     1      -8.213   7.093  12.982  1.00  0.00     0.058 A 
ATOM     94  C   UNL     1      -8.636   6.468  14.165  1.00  0.00     0.135 A 
ATOM     95  C   UNL     1      -8.723   8.369  12.694  1.00  0.00     0.135 A 
ATOM     96  F   UNL     1      -8.178   5.247  14.486  1.00  0.00    -0.206 F 
ATOM     97  C   UNL     1      -9.568   7.064  15.006  1.00  0.00     0.059 A 
ATOM     98  C   UNL     1      -9.628   9.000  13.540  1.00  0.00     0.059 A 
ATOM     99  F   UNL     1      -8.337   9.019  11.585  1.00  0.00    -0.206 F 
ATOM    100  C   UNL     1     -10.061   8.329  14.683  1.00  0.00     0.060 A 
BRANCH 100 101
ATOM    101  S   UNL     1     -11.274   9.089  15.780  1.00  0.00     0.124 S 
ATOM    102  O   UNL     1     -12.467   8.302  15.487  1.00  0.00    -0.237 OA
ATOM    103  O   UNL     1     -10.681   8.877  17.096  1.00  0.00    -0.237 OA
ATOM    104  O   UNL     1     -11.313  10.479  15.333  1.00  0.00    -0.744 OA
ENDBRANCH 100 101
ENDBRANCH  68  93
ENDBRANCH  42  43
ENDBRANCH  35  37
ENDBRANCH  34  35
ENDBRANCH  33  34
ENDBRANCH  32  33
ENDBRANCH  31  32
ENDBRANCH  30  31
ENDBRANCH  29  30
ENDBRANCH  28  29
ENDBRANCH   1  28
TORSDOF 28
