REMARK SMILES CC(C)[NH2+][C@@]1(C(=O)OCCOCCOCCOCCOC(=O)c2ccc(-c3c4nc(c(-c5c(F)cc(S(=O)(=O)[O-])cc5F)c5ccc([nH]5)c(-c5c(F)cc(S(=O)(=O)[O-])cc5F)c5nc(c(-c6c(F)cc(S(=O)(=O)[O-])cc6F)c6ccc3[nH]6)C=C5)C=C4)cc2)CCC[C@@H]([NH+]2CCS(=O)CC2)C1
REMARK SMILES IDX 15 1 14 2 13 3 12 4 11 5 10 6 9 7 8 8 6 9 7 10 5 11 89 12
REMARK SMILES IDX 100 13 90 14 92 15 91 16 4 17 2 20 1 21 3 22 93 23 94 24
REMARK SMILES IDX 99 25 95 27 98 28 96 29 97 30 16 31 17 32 18 33 19 34 20 35
REMARK SMILES IDX 21 36 22 37 23 38 24 39 88 40 25 41 87 42 26 43 27 44 28 45
REMARK SMILES IDX 81 46 29 47 86 48 80 49 82 50 30 51 85 52 79 53 78 54 31 56
REMARK SMILES IDX 65 57 44 58 64 59 45 60 48 61 63 62 83 63 46 64 47 65 62 67
REMARK SMILES IDX 84 68 49 69 32 70 33 71 42 72 34 73 35 74 41 75 43 76 36 77
REMARK SMILES IDX 37 78 38 79 39 80 40 81 66 82 67 83 76 84 68 85 69 86 75 87
REMARK SMILES IDX 77 88 70 89 71 90 72 91 73 92 74 93 50 94 51 95 60 96 52 97
REMARK SMILES IDX 53 98 59 99 61 100 54 101 55 102 56 103 57 104 58 105
REMARK H PARENT 4 18 4 19 93 26 82 55 48 66
REMARK Flexibility Score: inf
ROOT
ATOM      1  C   UNL     1      -4.295   0.608   5.578  1.00  0.00     0.188 C 
ENDROOT
BRANCH   1   2
ATOM      2  O   UNL     1      -3.629  -0.040   4.498  1.00  0.00    -0.377 OA
BRANCH   2   3
ATOM      3  C   UNL     1      -3.284   0.737   3.372  1.00  0.00     0.188 C 
BRANCH   3   4
ATOM      4  C   UNL     1      -4.286   0.741   2.213  1.00  0.00     0.188 C 
BRANCH   4   5
ATOM      5  O   UNL     1      -5.586   0.200   2.356  1.00  0.00    -0.376 OA
BRANCH   5   6
ATOM      6  C   UNL     1      -5.820  -1.005   3.072  1.00  0.00     0.202 C 
BRANCH   6   7
ATOM      7  C   UNL     1      -5.001  -2.281   2.815  1.00  0.00     0.261 C 
BRANCH   7   8
ATOM      8  O   UNL     1      -3.571  -2.192   3.000  1.00  0.00    -0.459 OA
BRANCH   8   9
ATOM      9  C   UNL     1      -2.851  -2.174   1.857  1.00  0.00     0.368 C 
ATOM     10  O   UNL     1      -3.372  -2.175   0.740  1.00  0.00    -0.245 OA
BRANCH   9  11
ATOM     11  C   UNL     1      -1.279  -2.172   2.032  1.00  0.00     0.200 C 
ATOM     12  C   UNL     1      -0.889  -3.659   1.892  1.00  0.00     0.081 C 
ATOM     13  C   UNL     1      -0.613  -1.642   3.313  1.00  0.00     0.146 C 
ATOM     14  C   UNL     1      -1.238  -4.446   3.169  1.00  0.00     0.013 C 
ATOM     15  C   UNL     1      -0.766  -2.392   4.632  1.00  0.00     0.191 C 
ATOM     16  C   UNL     1      -0.517  -3.897   4.404  1.00  0.00     0.065 C 
BRANCH  11  17
ATOM     17  N   UNL     1      -0.822  -1.341   0.862  1.00  0.00    -0.330 N 
ATOM     18  H   UNL     1      -1.040  -1.890   0.030  1.00  0.00     0.347 HD
ATOM     19  H   UNL     1      -1.304  -0.462   1.048  1.00  0.00     0.347 HD
BRANCH  17  20
ATOM     20  C   UNL     1       0.547  -0.876   0.682  1.00  0.00     0.176 C 
ATOM     21  C   UNL     1       0.679  -0.527  -0.808  1.00  0.00     0.075 C 
ATOM     22  C   UNL     1       0.921   0.401   1.450  1.00  0.00     0.075 C 
ENDBRANCH  17  20
ENDBRANCH  11  17
BRANCH  15  23
ATOM     23  N   UNL     1       0.078  -1.833   5.726  1.00  0.00    -0.331 N 
ATOM     24  C   UNL     1       1.534  -2.011   5.722  1.00  0.00     0.276 C 
ATOM     25  C   UNL     1      -0.284  -0.504   6.243  1.00  0.00     0.276 C 
ATOM     26  H   UNL     1      -0.235  -2.539   6.393  1.00  0.00     0.348 HD
ATOM     27  C   UNL     1       2.360  -1.010   4.920  1.00  0.00     0.166 C 
ATOM     28  C   UNL     1       0.336   0.720   5.567  1.00  0.00     0.166 C 
ATOM     29  S   UNL     1       2.142   0.700   5.461  1.00  0.00     0.032 S 
ATOM     30  O   UNL     1       2.715   0.846   6.837  1.00  0.00    -0.259 OA
ENDBRANCH  15  23
ENDBRANCH   9  11
ENDBRANCH   8   9
ENDBRANCH   7   8
ENDBRANCH   6   7
ENDBRANCH   5   6
ENDBRANCH   4   5
ENDBRANCH   3   4
ENDBRANCH   2   3
ENDBRANCH   1   2
BRANCH   1  31
ATOM     31  C   UNL     1      -5.154   1.846   5.267  1.00  0.00     0.188 C 
BRANCH  31  32
ATOM     32  O   UNL     1      -4.460   2.850   4.532  1.00  0.00    -0.376 OA
BRANCH  32  33
ATOM     33  C   UNL     1      -3.844   3.906   5.259  1.00  0.00     0.202 C 
BRANCH  33  34
ATOM     34  C   UNL     1      -2.646   3.534   6.152  1.00  0.00     0.261 C 
BRANCH  34  35
ATOM     35  O   UNL     1      -2.922   2.667   7.265  1.00  0.00    -0.460 OA
BRANCH  35  36
ATOM     36  C   UNL     1      -3.894   3.056   8.120  1.00  0.00     0.338 C 
ATOM     37  O   UNL     1      -4.489   4.116   8.109  1.00  0.00    -0.246 OA
BRANCH  36  38
ATOM     38  C   UNL     1      -4.284   1.902   8.956  1.00  0.00     0.060 A 
ATOM     39  C   UNL     1      -5.634   1.532   8.971  1.00  0.00     0.016 A 
ATOM     40  C   UNL     1      -3.357   1.242   9.768  1.00  0.00     0.016 A 
ATOM     41  C   UNL     1      -6.079   0.561   9.863  1.00  0.00     0.010 A 
ATOM     42  C   UNL     1      -3.809   0.277  10.676  1.00  0.00     0.010 A 
ATOM     43  C   UNL     1      -5.182  -0.018  10.769  1.00  0.00    -0.014 A 
BRANCH  43  44
ATOM     44  C   UNL     1      -5.739  -0.708  11.960  1.00  0.00     0.031 A 
ATOM     45  C   UNL     1      -5.865   0.075  13.241  1.00  0.00     0.074 A 
ATOM     46  C   UNL     1      -6.216  -1.962  11.885  1.00  0.00     0.049 A 
ATOM     47  N   UNL     1      -6.382  -0.281  14.388  1.00  0.00    -0.248 NA
ATOM     48  C   UNL     1      -5.339   1.450  13.221  1.00  0.00     0.031 C 
ATOM     49  C   UNL     1      -6.184  -2.808  10.694  1.00  0.00     0.029 A 
ATOM     50  N   UNL     1      -6.827  -2.739  12.837  1.00  0.00    -0.354 N 
ATOM     51  C   UNL     1      -6.247   0.824  15.223  1.00  0.00     0.074 A 
ATOM     52  C   UNL     1      -5.556   1.843  14.466  1.00  0.00     0.031 C 
ATOM     53  C   UNL     1      -6.741  -3.996  10.991  1.00  0.00     0.029 A 
ATOM     54  C   UNL     1      -7.151  -3.999  12.395  1.00  0.00     0.049 A 
ATOM     55  H   UNL     1      -7.014  -2.424  13.750  1.00  0.00     0.167 HD
ATOM     56  C   UNL     1      -6.675   0.984  16.498  1.00  0.00     0.037 A 
ATOM     57  C   UNL     1      -7.702  -5.038  13.053  1.00  0.00     0.037 A 
ATOM     58  C   UNL     1      -7.348  -0.040  17.253  1.00  0.00     0.049 A 
ATOM     59  C   UNL     1      -8.125  -4.863  14.489  1.00  0.00     0.074 A 
ATOM     60  C   UNL     1      -7.819   0.015  18.552  1.00  0.00     0.029 A 
ATOM     61  N   UNL     1      -7.636  -1.312  16.777  1.00  0.00    -0.354 N 
ATOM     62  N   UNL     1      -8.012  -3.806  15.260  1.00  0.00    -0.248 NA
ATOM     63  C   UNL     1      -8.767  -6.013  15.138  1.00  0.00     0.031 C 
ATOM     64  C   UNL     1      -8.344  -1.240  18.880  1.00  0.00     0.029 A 
ATOM     65  C   UNL     1      -8.260  -2.058  17.764  1.00  0.00     0.049 A 
ATOM     66  H   UNL     1      -7.428  -1.637  15.872  1.00  0.00     0.167 HD
ATOM     67  C   UNL     1      -8.590  -4.156  16.477  1.00  0.00     0.074 A 
ATOM     68  C   UNL     1      -9.064  -5.518  16.332  1.00  0.00     0.031 C 
ATOM     69  C   UNL     1      -8.722  -3.417  17.608  1.00  0.00     0.037 A 
BRANCH  56  70
ATOM     70  C   UNL     1      -6.386   2.308  17.157  1.00  0.00     0.058 A 
ATOM     71  C   UNL     1      -7.014   3.495  16.744  1.00  0.00     0.135 A 
ATOM     72  C   UNL     1      -5.450   2.394  18.200  1.00  0.00     0.135 A 
ATOM     73  F   UNL     1      -7.904   3.476  15.738  1.00  0.00    -0.206 F 
ATOM     74  C   UNL     1      -6.689   4.726  17.307  1.00  0.00     0.059 A 
ATOM     75  C   UNL     1      -5.133   3.610  18.800  1.00  0.00     0.059 A 
ATOM     76  F   UNL     1      -4.819   1.293  18.636  1.00  0.00    -0.206 F 
ATOM     77  C   UNL     1      -5.740   4.773  18.330  1.00  0.00     0.060 A 
BRANCH  77  78
ATOM     78  S   UNL     1      -5.299   6.380  19.025  1.00  0.00     0.124 S 
ATOM     79  O   UNL     1      -4.509   6.958  17.942  1.00  0.00    -0.237 OA
ATOM     80  O   UNL     1      -6.605   6.991  19.252  1.00  0.00    -0.237 OA
ATOM     81  O   UNL     1      -4.553   6.036  20.231  1.00  0.00    -0.744 OA
ENDBRANCH  77  78
ENDBRANCH  56  70
BRANCH  57  82
ATOM     82  C   UNL     1      -7.876  -6.338  12.350  1.00  0.00     0.058 A 
ATOM     83  C   UNL     1      -9.143  -6.819  11.993  1.00  0.00     0.135 A 
ATOM     84  C   UNL     1      -6.759  -7.109  11.989  1.00  0.00     0.135 A 
ATOM     85  F   UNL     1     -10.243  -6.126  12.327  1.00  0.00    -0.206 F 
ATOM     86  C   UNL     1      -9.300  -8.016  11.300  1.00  0.00     0.059 A 
ATOM     87  C   UNL     1      -6.888  -8.295  11.274  1.00  0.00     0.059 A 
ATOM     88  F   UNL     1      -5.523  -6.689  12.301  1.00  0.00    -0.206 F 
ATOM     89  C   UNL     1      -8.164  -8.742  10.936  1.00  0.00     0.060 A 
BRANCH  89  90
ATOM     90  S   UNL     1      -8.372 -10.247   9.959  1.00  0.00     0.124 S 
ATOM     91  O   UNL     1      -8.932 -11.164  10.944  1.00  0.00    -0.237 OA
ATOM     92  O   UNL     1      -9.282  -9.803   8.907  1.00  0.00    -0.237 OA
ATOM     93  O   UNL     1      -7.014 -10.549   9.514  1.00  0.00    -0.744 OA
ENDBRANCH  89  90
ENDBRANCH  57  82
BRANCH  69  94
ATOM     94  C   UNL     1      -9.441  -4.050  18.771  1.00  0.00     0.058 A 
ATOM     95  C   UNL     1      -8.877  -5.099  19.514  1.00  0.00     0.135 A 
ATOM     96  C   UNL     1     -10.703  -3.575  19.166  1.00  0.00     0.135 A 
ATOM     97  F   UNL     1      -7.674  -5.593  19.181  1.00  0.00    -0.206 F 
ATOM     98  C   UNL     1      -9.555  -5.681  20.581  1.00  0.00     0.059 A 
ATOM     99  C   UNL     1     -11.385  -4.121  20.250  1.00  0.00     0.059 A 
ATOM    100  F   UNL     1     -11.284  -2.563  18.502  1.00  0.00    -0.206 F 
ATOM    101  C   UNL     1     -10.810  -5.187  20.940  1.00  0.00     0.060 A 
BRANCH 101 102
ATOM    102  S   UNL     1     -11.680  -5.949  22.326  1.00  0.00     0.124 S 
ATOM    103  O   UNL     1     -12.107  -7.217  21.743  1.00  0.00    -0.237 OA
ATOM    104  O   UNL     1     -10.634  -6.038  23.341  1.00  0.00    -0.237 OA
ATOM    105  O   UNL     1     -12.751  -5.001  22.619  1.00  0.00    -0.744 OA
ENDBRANCH 101 102
ENDBRANCH  69  94
ENDBRANCH  43  44
ENDBRANCH  36  38
ENDBRANCH  35  36
ENDBRANCH  34  35
ENDBRANCH  33  34
ENDBRANCH  32  33
ENDBRANCH  31  32
ENDBRANCH   1  31
TORSDOF 26
