REMARK SMILES Cc1coc2c(C)c3oc(=O)c(CCC(=O)N[C@H](CC(C)C)C(=O)OCCOCCOCCOCCOC(=O)c4ccc(-c5c6nc(c(-c7c(F)cc(S(=O)(=O)[O-])cc7F)c7ccc([nH]7)c(-c7c(F)cc(S(=O)(=O)[O-])cc7F)c7nc(c(-c8c(F)cc(S(=O)(=O)[O-])cc8F)c8ccc5[nH]8)C=C7)C=C6)cc4)c(C)c3cc12
REMARK SMILES IDX 30 1 29 2 28 3 27 4 26 5 25 6 23 7 24 8 18 9 17 10 15 11
REMARK SMILES IDX 16 12 14 14 13 15 12 16 1 17 2 18 3 19 110 20 4 21 5 22
REMARK SMILES IDX 109 23 6 24 108 25 7 26 8 27 106 28 9 29 107 30 10 31 11 32
REMARK SMILES IDX 19 33 20 34 21 35 22 36 31 37 32 38 33 39 34 40 35 41 36 42
REMARK SMILES IDX 37 43 38 44 39 45 40 46 41 47 105 48 42 49 104 50 43 51
REMARK SMILES IDX 44 52 45 53 98 54 46 55 103 56 97 57 99 58 47 59 102 60
REMARK SMILES IDX 96 61 95 62 48 64 82 65 61 66 81 67 62 68 65 69 80 70 100 71
REMARK SMILES IDX 63 72 64 73 79 75 101 76 66 77 49 78 50 79 59 80 51 81 52 82
REMARK SMILES IDX 58 83 60 84 53 85 54 86 55 87 56 88 57 89 83 90 84 91 93 92
REMARK SMILES IDX 85 93 86 94 92 95 94 96 87 97 88 98 89 99 90 100 91 101
REMARK SMILES IDX 67 102 68 103 77 104 69 105 70 106 76 107 78 108 71 109
REMARK SMILES IDX 72 110 73 111 74 112 75 113
REMARK H PARENT 17 13 99 63 65 74
REMARK Flexibility Score: inf
ROOT
ATOM      1  C   UNL     1       3.357   4.441   6.083  1.00  0.00     0.188 C 
ENDROOT
BRANCH   1   2
ATOM      2  C   UNL     1       2.602   5.424   5.196  1.00  0.00     0.188 C 
BRANCH   2   3
ATOM      3  O   UNL     1       1.215   5.593   5.497  1.00  0.00    -0.376 OA
BRANCH   3   4
ATOM      4  C   UNL     1       0.437   4.425   5.757  1.00  0.00     0.202 C 
BRANCH   4   5
ATOM      5  C   UNL     1       0.092   3.556   4.537  1.00  0.00     0.261 C 
BRANCH   5   6
ATOM      6  O   UNL     1       1.241   2.880   3.983  1.00  0.00    -0.462 OA
BRANCH   6   7
ATOM      7  C   UNL     1       1.697   3.325   2.797  1.00  0.00     0.328 C 
ATOM      8  O   UNL     1       1.100   4.148   2.099  1.00  0.00    -0.250 OA
BRANCH   7   9
ATOM      9  C   UNL     1       3.087   2.795   2.360  1.00  0.00     0.192 C 
BRANCH   9  10
ATOM     10  N   UNL     1       2.993   2.493   0.919  1.00  0.00    -0.343 N 
ATOM     11  C   UNL     1       3.797   1.888   0.011  1.00  0.00     0.221 C 
ATOM     12  O   UNL     1       3.576   2.110  -1.183  1.00  0.00    -0.275 OA
ATOM     13  H   UNL     1       2.147   2.804   0.523  1.00  0.00     0.164 HD
BRANCH  11  14
ATOM     14  C   UNL     1       4.858   0.893   0.422  1.00  0.00     0.105 C 
BRANCH  14  15
ATOM     15  C   UNL     1       6.338   1.312   0.656  1.00  0.00     0.053 C 
BRANCH  15  16
ATOM     16  C   UNL     1       6.674   2.631   1.348  1.00  0.00     0.042 A 
ATOM     17  C   UNL     1       5.857   9.348   0.223  1.00  0.00     0.048 C 
ATOM     18  C   UNL     1       6.227   8.795   1.548  1.00  0.00    -0.005 A 
ATOM     19  C   UNL     1       6.668   9.450   2.678  1.00  0.00     0.199 A 
ATOM     20  C   UNL     1       6.292   7.416   1.868  1.00  0.00     0.024 A 
ATOM     21  O   UNL     1       6.974   8.564   3.668  1.00  0.00    -0.464 OA
ATOM     22  C   UNL     1       6.794   7.312   3.155  1.00  0.00     0.140 A 
ATOM     23  C   UNL     1       6.022   6.256   1.139  1.00  0.00     0.024 A 
ATOM     24  C   UNL     1       7.087   6.100   3.786  1.00  0.00     0.036 A 
ATOM     25  C   UNL     1       6.478   5.035   1.624  1.00  0.00     0.022 A 
ATOM     26  C   UNL     1       7.522   6.000   5.214  1.00  0.00     0.052 C 
ATOM     27  C   UNL     1       6.992   4.984   2.921  1.00  0.00     0.145 A 
ATOM     28  C   UNL     1       6.390   3.825   0.797  1.00  0.00    -0.030 A 
ATOM     29  O   UNL     1       7.460   3.753   3.414  1.00  0.00    -0.422 OA
ATOM     30  C   UNL     1       5.957   3.993  -0.637  1.00  0.00     0.046 C 
ATOM     31  C   UNL     1       7.332   2.571   2.700  1.00  0.00     0.339 A 
ATOM     32  O   UNL     1       7.731   1.525   3.194  1.00  0.00    -0.246 OA
ENDBRANCH  15  16
ENDBRANCH  14  15
ENDBRANCH  11  14
ENDBRANCH   9  10
BRANCH   9  33
ATOM     33  C   UNL     1       4.064   1.992   3.236  1.00  0.00     0.040 C 
BRANCH  33  34
ATOM     34  C   UNL     1       3.941   0.586   3.859  1.00  0.00    -0.015 C 
ATOM     35  C   UNL     1       2.626  -0.136   3.707  1.00  0.00     0.007 C 
ATOM     36  C   UNL     1       5.089  -0.401   3.554  1.00  0.00     0.007 C 
ENDBRANCH  33  34
ENDBRANCH   9  33
ENDBRANCH   7   9
ENDBRANCH   6   7
ENDBRANCH   5   6
ENDBRANCH   4   5
ENDBRANCH   3   4
ENDBRANCH   2   3
ENDBRANCH   1   2
BRANCH   1  37
ATOM     37  O   UNL     1       2.995   3.101   5.771  1.00  0.00    -0.377 OA
BRANCH  37  38
ATOM     38  C   UNL     1       2.836   2.132   6.801  1.00  0.00     0.188 C 
BRANCH  38  39
ATOM     39  C   UNL     1       3.146   2.538   8.227  1.00  0.00     0.188 C 
BRANCH  39  40
ATOM     40  O   UNL     1       4.397   3.193   8.467  1.00  0.00    -0.376 OA
BRANCH  40  41
ATOM     41  C   UNL     1       5.532   2.918   7.642  1.00  0.00     0.202 C 
BRANCH  41  42
ATOM     42  C   UNL     1       6.454   1.852   8.185  1.00  0.00     0.261 C 
BRANCH  42  43
ATOM     43  O   UNL     1       5.860   0.605   7.875  1.00  0.00    -0.460 OA
BRANCH  43  44
ATOM     44  C   UNL     1       5.035   0.125   8.829  1.00  0.00     0.338 C 
ATOM     45  O   UNL     1       4.761   0.628   9.895  1.00  0.00    -0.246 OA
BRANCH  44  46
ATOM     46  C   UNL     1       4.629  -1.226   8.418  1.00  0.00     0.060 A 
ATOM     47  C   UNL     1       3.995  -1.940   9.430  1.00  0.00     0.016 A 
ATOM     48  C   UNL     1       5.395  -1.839   7.417  1.00  0.00     0.016 A 
ATOM     49  C   UNL     1       4.481  -3.193   9.685  1.00  0.00     0.010 A 
ATOM     50  C   UNL     1       5.896  -3.080   7.685  1.00  0.00     0.010 A 
ATOM     51  C   UNL     1       5.518  -3.682   8.878  1.00  0.00    -0.014 A 
BRANCH  51  52
ATOM     52  C   UNL     1       6.072  -4.969   9.204  1.00  0.00     0.031 A 
ATOM     53  C   UNL     1       5.106  -6.017   8.832  1.00  0.00     0.074 A 
ATOM     54  C   UNL     1       7.314  -5.143   9.688  1.00  0.00     0.049 A 
ATOM     55  N   UNL     1       4.273  -6.606   9.623  1.00  0.00    -0.248 NA
ATOM     56  C   UNL     1       4.784  -6.169   7.401  1.00  0.00     0.031 C 
ATOM     57  C   UNL     1       8.391  -4.165   9.845  1.00  0.00     0.029 A 
ATOM     58  N   UNL     1       7.897  -6.303  10.086  1.00  0.00    -0.354 N 
ATOM     59  C   UNL     1       3.543  -7.443   8.794  1.00  0.00     0.074 A 
ATOM     60  C   UNL     1       3.670  -6.897   7.473  1.00  0.00     0.031 C 
ATOM     61  C   UNL     1       9.555  -4.816  10.087  1.00  0.00     0.029 A 
ATOM     62  C   UNL     1       9.281  -6.235  10.238  1.00  0.00     0.049 A 
ATOM     63  H   UNL     1       7.384  -7.126  10.255  1.00  0.00     0.167 HD
ATOM     64  C   UNL     1       3.245  -8.704   9.205  1.00  0.00     0.037 A 
ATOM     65  C   UNL     1      10.103  -7.308  10.400  1.00  0.00     0.037 A 
ATOM     66  C   UNL     1       3.349  -8.800  10.646  1.00  0.00     0.049 A 
ATOM     67  C   UNL     1       9.243  -8.421  10.902  1.00  0.00     0.074 A 
ATOM     68  C   UNL     1       2.755  -8.140  11.705  1.00  0.00     0.029 A 
ATOM     69  N   UNL     1       4.484  -9.387  11.156  1.00  0.00    -0.354 N 
ATOM     70  N   UNL     1       8.653  -8.404  12.069  1.00  0.00    -0.248 NA
ATOM     71  C   UNL     1       8.633  -9.295   9.910  1.00  0.00     0.031 C 
ATOM     72  C   UNL     1       3.785  -7.987  12.679  1.00  0.00     0.029 A 
ATOM     73  C   UNL     1       4.931  -8.632  12.210  1.00  0.00     0.049 A 
ATOM     74  H   UNL     1       4.905 -10.211  10.821  1.00  0.00     0.167 HD
ATOM     75  C   UNL     1       7.382  -8.913  11.835  1.00  0.00     0.074 A 
ATOM     76  C   UNL     1       7.451  -9.501  10.498  1.00  0.00     0.031 C 
ATOM     77  C   UNL     1       6.320  -8.546  12.614  1.00  0.00     0.037 A 
BRANCH  64  78
ATOM     78  C   UNL     1       3.333  -9.911   8.293  1.00  0.00     0.058 A 
ATOM     79  C   UNL     1       2.976 -11.168   8.818  1.00  0.00     0.135 A 
ATOM     80  C   UNL     1       4.001  -9.949   7.045  1.00  0.00     0.135 A 
ATOM     81  F   UNL     1       2.328 -11.260   9.991  1.00  0.00    -0.206 F 
ATOM     82  C   UNL     1       3.341 -12.365   8.204  1.00  0.00     0.059 A 
ATOM     83  C   UNL     1       4.330 -11.128   6.393  1.00  0.00     0.059 A 
ATOM     84  F   UNL     1       4.453  -8.863   6.413  1.00  0.00    -0.206 F 
ATOM     85  C   UNL     1       4.034 -12.332   6.999  1.00  0.00     0.060 A 
BRANCH  85  86
ATOM     86  S   UNL     1       4.586 -13.866   6.246  1.00  0.00     0.124 S 
ATOM     87  O   UNL     1       5.562 -14.333   7.224  1.00  0.00    -0.237 OA
ATOM     88  O   UNL     1       3.340 -14.621   6.168  1.00  0.00    -0.237 OA
ATOM     89  O   UNL     1       5.133 -13.434   4.963  1.00  0.00    -0.744 OA
ENDBRANCH  85  86
ENDBRANCH  64  78
BRANCH  65  90
ATOM     90  C   UNL     1      11.434  -7.553   9.771  1.00  0.00     0.058 A 
ATOM     91  C   UNL     1      12.219  -8.666  10.134  1.00  0.00     0.135 A 
ATOM     92  C   UNL     1      11.835  -6.879   8.600  1.00  0.00     0.135 A 
ATOM     93  F   UNL     1      11.906  -9.384  11.224  1.00  0.00    -0.206 F 
ATOM     94  C   UNL     1      13.294  -9.117   9.354  1.00  0.00     0.059 A 
ATOM     95  C   UNL     1      12.906  -7.304   7.811  1.00  0.00     0.059 A 
ATOM     96  F   UNL     1      11.139  -5.833   8.130  1.00  0.00    -0.206 F 
ATOM     97  C   UNL     1      13.616  -8.441   8.179  1.00  0.00     0.060 A 
BRANCH  97  98
ATOM     98  S   UNL     1      14.889  -9.111   7.080  1.00  0.00     0.124 S 
ATOM     99  O   UNL     1      16.097  -8.953   7.882  1.00  0.00    -0.237 OA
ATOM    100  O   UNL     1      14.432 -10.481   6.878  1.00  0.00    -0.237 OA
ATOM    101  O   UNL     1      14.808  -8.250   5.902  1.00  0.00    -0.744 OA
ENDBRANCH  97  98
ENDBRANCH  65  90
BRANCH  77 102
ATOM    102  C   UNL     1       6.594  -7.824  13.911  1.00  0.00     0.058 A 
ATOM    103  C   UNL     1       7.134  -6.529  14.014  1.00  0.00     0.135 A 
ATOM    104  C   UNL     1       6.112  -8.410  15.091  1.00  0.00     0.135 A 
ATOM    105  F   UNL     1       7.534  -5.860  12.923  1.00  0.00    -0.206 F 
ATOM    106  C   UNL     1       7.210  -5.859  15.241  1.00  0.00     0.059 A 
ATOM    107  C   UNL     1       6.149  -7.750  16.316  1.00  0.00     0.059 A 
ATOM    108  F   UNL     1       5.534  -9.622  15.051  1.00  0.00    -0.206 F 
ATOM    109  C   UNL     1       6.706  -6.477  16.386  1.00  0.00     0.060 A 
BRANCH 109 110
ATOM    110  S   UNL     1       6.723  -5.584  17.958  1.00  0.00     0.124 S 
ATOM    111  O   UNL     1       8.149  -5.503  18.252  1.00  0.00    -0.237 OA
ATOM    112  O   UNL     1       6.073  -4.324  17.612  1.00  0.00    -0.237 OA
ATOM    113  O   UNL     1       5.952  -6.448  18.850  1.00  0.00    -0.744 OA
ENDBRANCH 109 110
ENDBRANCH  77 102
ENDBRANCH  51  52
ENDBRANCH  44  46
ENDBRANCH  43  44
ENDBRANCH  42  43
ENDBRANCH  41  42
ENDBRANCH  40  41
ENDBRANCH  39  40
ENDBRANCH  38  39
ENDBRANCH  37  38
ENDBRANCH   1  37
TORSDOF 29
