REMARK SMILES CC[C@](C)(C(=O)OCCOCCOCCOCCOC(=O)c1ccc(-c2c3nc(c(-c4c(F)cc(S(=O)(=O)[O-])cc4F)c4ccc([nH]4)c(-c4c(F)cc(S(=O)(=O)[O-])cc4F)c4nc(c(-c5c(F)cc(S(=O)(=O)[O-])cc5F)c5ccc2[nH]5)C=C4)C=C3)cc1)[C@H]1CCC[C@H](OC)C1
REMARK SMILES IDX 14 1 13 2 12 3 11 4 10 5 9 6 8 7 7 8 5 9 6 10 3 11 4 12 2 13
REMARK SMILES IDX 1 14 88 15 89 16 95 17 90 18 92 19 91 20 93 21 94 22 15 23
REMARK SMILES IDX 16 24 17 25 18 26 19 27 20 28 21 29 22 30 23 31 87 32 24 33
REMARK SMILES IDX 86 34 25 35 26 36 27 37 80 38 28 39 85 40 79 41 81 42 29 43
REMARK SMILES IDX 84 44 78 45 77 46 30 48 64 49 43 50 63 51 44 52 47 53 62 54
REMARK SMILES IDX 82 55 45 56 46 57 61 59 83 60 48 61 31 62 32 63 41 64 33 65
REMARK SMILES IDX 34 66 40 67 42 68 35 69 36 70 37 71 38 72 39 73 65 74 66 75
REMARK SMILES IDX 75 76 67 77 68 78 74 79 76 80 69 81 70 82 71 83 72 84 73 85
REMARK SMILES IDX 49 86 50 87 59 88 51 89 52 90 58 91 60 92 53 93 54 94 55 95
REMARK SMILES IDX 56 96 57 97
REMARK H PARENT 81 47 47 58
REMARK Flexibility Score: inf
ROOT
ATOM      1  C   UNL     1       7.890   3.773  -0.958  1.00  0.00     0.188 C 
ENDROOT
BRANCH   1   2
ATOM      2  O   UNL     1       6.486   3.632  -0.810  1.00  0.00    -0.377 OA
BRANCH   2   3
ATOM      3  C   UNL     1       6.007   3.204   0.444  1.00  0.00     0.188 C 
BRANCH   3   4
ATOM      4  C   UNL     1       6.695   2.002   1.113  1.00  0.00     0.188 C 
BRANCH   4   5
ATOM      5  O   UNL     1       7.581   1.286   0.264  1.00  0.00    -0.376 OA
BRANCH   5   6
ATOM      6  C   UNL     1       7.059   0.068  -0.250  1.00  0.00     0.202 C 
BRANCH   6   7
ATOM      7  C   UNL     1       5.992   0.227  -1.343  1.00  0.00     0.261 C 
BRANCH   7   8
ATOM      8  O   UNL     1       4.785   0.935  -0.985  1.00  0.00    -0.463 OA
BRANCH   8   9
ATOM      9  C   UNL     1       4.014   0.447   0.014  1.00  0.00     0.312 C 
ATOM     10  O   UNL     1       4.326  -0.549   0.656  1.00  0.00    -0.252 OA
BRANCH   9  11
ATOM     11  C   UNL     1       2.662   1.198   0.180  1.00  0.00     0.068 C 
ATOM     12  C   UNL     1       2.579   2.526  -0.657  1.00  0.00     0.024 C 
BRANCH  11  13
ATOM     13  C   UNL     1       1.588   0.254  -0.515  1.00  0.00     0.015 C 
ATOM     14  C   UNL     1       1.782  -1.258  -0.482  1.00  0.00     0.005 C 
ENDBRANCH  11  13
BRANCH  11  15
ATOM     15  C   UNL     1       2.247   1.470   1.733  1.00  0.00     0.008 C 
ATOM     16  C   UNL     1       2.539   0.342   2.755  1.00  0.00     0.005 C 
ATOM     17  C   UNL     1       2.554   2.837   2.432  1.00  0.00     0.036 C 
ATOM     18  C   UNL     1       3.871   0.438   3.509  1.00  0.00     0.003 C 
ATOM     19  C   UNL     1       3.885   2.928   3.174  1.00  0.00     0.118 C 
ATOM     20  C   UNL     1       4.094   1.792   4.165  1.00  0.00     0.032 C 
BRANCH  19  21
ATOM     21  O   UNL     1       4.102   4.250   3.677  1.00  0.00    -0.381 OA
ATOM     22  C   UNL     1       3.788   4.487   5.038  1.00  0.00     0.195 C 
ENDBRANCH  19  21
ENDBRANCH  11  15
ENDBRANCH   9  11
ENDBRANCH   8   9
ENDBRANCH   7   8
ENDBRANCH   6   7
ENDBRANCH   5   6
ENDBRANCH   4   5
ENDBRANCH   3   4
ENDBRANCH   2   3
ENDBRANCH   1   2
BRANCH   1  23
ATOM     23  C   UNL     1       8.765   4.120   0.269  1.00  0.00     0.188 C 
BRANCH  23  24
ATOM     24  O   UNL     1       8.070   4.606   1.412  1.00  0.00    -0.376 OA
BRANCH  24  25
ATOM     25  C   UNL     1       8.076   6.007   1.645  1.00  0.00     0.202 C 
BRANCH  25  26
ATOM     26  C   UNL     1       7.246   6.851   0.669  1.00  0.00     0.261 C 
BRANCH  26  27
ATOM     27  O   UNL     1       7.665   6.798  -0.701  1.00  0.00    -0.460 OA
BRANCH  27  28
ATOM     28  C   UNL     1       8.939   7.149  -0.987  1.00  0.00     0.338 C 
ATOM     29  O   UNL     1       9.777   7.585  -0.218  1.00  0.00    -0.246 OA
BRANCH  28  30
ATOM     30  C   UNL     1       9.210   6.684  -2.362  1.00  0.00     0.060 A 
ATOM     31  C   UNL     1      10.251   5.767  -2.570  1.00  0.00     0.016 A 
ATOM     32  C   UNL     1       8.377   7.069  -3.416  1.00  0.00     0.016 A 
ATOM     33  C   UNL     1      10.467   5.239  -3.840  1.00  0.00     0.010 A 
ATOM     34  C   UNL     1       8.622   6.574  -4.696  1.00  0.00     0.010 A 
ATOM     35  C   UNL     1       9.686   5.681  -4.916  1.00  0.00    -0.014 A 
BRANCH  35  36
ATOM     36  C   UNL     1      10.165   5.444  -6.295  1.00  0.00     0.031 A 
ATOM     37  C   UNL     1      11.092   6.473  -6.880  1.00  0.00     0.074 A 
ATOM     38  C   UNL     1       9.809   4.356  -6.998  1.00  0.00     0.049 A 
ATOM     39  N   UNL     1      11.628   6.530  -8.069  1.00  0.00    -0.248 NA
ATOM     40  C   UNL     1      11.462   7.594  -5.996  1.00  0.00     0.031 C 
ATOM     41  C   UNL     1       8.949   3.276  -6.518  1.00  0.00     0.029 A 
ATOM     42  N   UNL     1      10.128   3.989  -8.282  1.00  0.00    -0.354 N 
ATOM     43  C   UNL     1      12.401   7.685  -8.073  1.00  0.00     0.074 A 
ATOM     44  C   UNL     1      12.240   8.317  -6.784  1.00  0.00     0.031 C 
ATOM     45  C   UNL     1       8.791   2.376  -7.506  1.00  0.00     0.029 A 
ATOM     46  C   UNL     1       9.517   2.829  -8.692  1.00  0.00     0.049 A 
ATOM     47  H   UNL     1      10.737   4.508  -8.855  1.00  0.00     0.167 HD
ATOM     48  C   UNL     1      13.182   8.173  -9.063  1.00  0.00     0.037 A 
ATOM     49  C   UNL     1       9.529   2.222  -9.897  1.00  0.00     0.037 A 
ATOM     50  C   UNL     1      13.316   7.553 -10.352  1.00  0.00     0.049 A 
ATOM     51  C   UNL     1      10.345   2.826 -11.014  1.00  0.00     0.074 A 
ATOM     52  C   UNL     1      14.073   7.967 -11.432  1.00  0.00     0.029 A 
ATOM     53  N   UNL     1      12.662   6.392 -10.739  1.00  0.00    -0.354 N 
ATOM     54  N   UNL     1      11.091   3.906 -11.003  1.00  0.00    -0.248 NA
ATOM     55  C   UNL     1      10.324   2.128 -12.308  1.00  0.00     0.031 C 
ATOM     56  C   UNL     1      13.841   7.081 -12.489  1.00  0.00     0.029 A 
ATOM     57  C   UNL     1      12.982   6.085 -12.050  1.00  0.00     0.049 A 
ATOM     58  H   UNL     1      12.059   5.864 -10.166  1.00  0.00     0.167 HD
ATOM     59  C   UNL     1      11.649   4.001 -12.275  1.00  0.00     0.074 A 
ATOM     60  C   UNL     1      11.161   2.863 -13.027  1.00  0.00     0.031 C 
ATOM     61  C   UNL     1      12.490   4.940 -12.776  1.00  0.00     0.037 A 
BRANCH  48  62
ATOM     62  C   UNL     1      13.919   9.453  -8.790  1.00  0.00     0.058 A 
ATOM     63  C   UNL     1      15.003   9.503  -7.899  1.00  0.00     0.135 A 
ATOM     64  C   UNL     1      13.534  10.644  -9.424  1.00  0.00     0.135 A 
ATOM     65  F   UNL     1      15.393   8.398  -7.243  1.00  0.00    -0.206 F 
ATOM     66  C   UNL     1      15.666  10.696  -7.628  1.00  0.00     0.059 A 
ATOM     67  C   UNL     1      14.200  11.843  -9.190  1.00  0.00     0.059 A 
ATOM     68  F   UNL     1      12.496  10.653 -10.274  1.00  0.00    -0.206 F 
ATOM     69  C   UNL     1      15.256  11.861  -8.279  1.00  0.00     0.060 A 
BRANCH  69  70
ATOM     70  S   UNL     1      16.128  13.400  -7.921  1.00  0.00     0.124 S 
ATOM     71  O   UNL     1      15.649  13.699  -6.574  1.00  0.00    -0.237 OA
ATOM     72  O   UNL     1      17.527  12.996  -8.020  1.00  0.00    -0.237 OA
ATOM     73  O   UNL     1      15.664  14.305  -8.967  1.00  0.00    -0.744 OA
ENDBRANCH  69  70
ENDBRANCH  48  62
BRANCH  49  74
ATOM     74  C   UNL     1       8.731   0.985 -10.118  1.00  0.00     0.058 A 
ATOM     75  C   UNL     1       9.352  -0.256 -10.328  1.00  0.00     0.135 A 
ATOM     76  C   UNL     1       7.328   1.021 -10.132  1.00  0.00     0.135 A 
ATOM     77  F   UNL     1      10.691  -0.342 -10.340  1.00  0.00    -0.206 F 
ATOM     78  C   UNL     1       8.613  -1.413 -10.554  1.00  0.00     0.059 A 
ATOM     79  C   UNL     1       6.566  -0.127 -10.331  1.00  0.00     0.059 A 
ATOM     80  F   UNL     1       6.683   2.181  -9.933  1.00  0.00    -0.206 F 
ATOM     81  C   UNL     1       7.219  -1.339 -10.550  1.00  0.00     0.060 A 
BRANCH  81  82
ATOM     82  S   UNL     1       6.268  -2.856 -10.791  1.00  0.00     0.124 S 
ATOM     83  O   UNL     1       6.475  -3.111 -12.211  1.00  0.00    -0.237 OA
ATOM     84  O   UNL     1       6.928  -3.780  -9.873  1.00  0.00    -0.237 OA
ATOM     85  O   UNL     1       4.913  -2.468 -10.409  1.00  0.00    -0.744 OA
ENDBRANCH  81  82
ENDBRANCH  49  74
BRANCH  61  86
ATOM     86  C   UNL     1      12.972   4.763 -14.190  1.00  0.00     0.058 A 
ATOM     87  C   UNL     1      12.132   4.986 -15.291  1.00  0.00     0.135 A 
ATOM     88  C   UNL     1      14.313   4.433 -14.445  1.00  0.00     0.135 A 
ATOM     89  F   UNL     1      10.840   5.301 -15.104  1.00  0.00    -0.206 F 
ATOM     90  C   UNL     1      12.599   4.868 -16.597  1.00  0.00     0.059 A 
ATOM     91  C   UNL     1      14.809   4.338 -15.741  1.00  0.00     0.059 A 
ATOM     92  F   UNL     1      15.163   4.224 -13.427  1.00  0.00    -0.206 F 
ATOM     93  C   UNL     1      13.941   4.545 -16.811  1.00  0.00     0.060 A 
BRANCH  93  94
ATOM     94  S   UNL     1      14.544   4.431 -18.509  1.00  0.00     0.124 S 
ATOM     95  O   UNL     1      13.956   3.169 -18.945  1.00  0.00    -0.237 OA
ATOM     96  O   UNL     1      13.988   5.634 -19.120  1.00  0.00    -0.237 OA
ATOM     97  O   UNL     1      15.996   4.428 -18.355  1.00  0.00    -0.744 OA
ENDBRANCH  93  94
ENDBRANCH  61  86
ENDBRANCH  35  36
ENDBRANCH  28  30
ENDBRANCH  27  28
ENDBRANCH  26  27
ENDBRANCH  25  26
ENDBRANCH  24  25
ENDBRANCH  23  24
ENDBRANCH   1  23
TORSDOF 26
