REMARK SMILES Cc1c(Cl)cccc1NC(=O)C[C@](C)(C(=O)OCCOCCOCCOCCOC(=O)c1ccc(-c2c3nc(c(-c4c(F)cc(S(=O)(=O)[O-])cc4F)c4ccc([nH]4)c(-c4c(F)cc(S(=O)(=O)[O-])cc4F)c4nc(c(-c5c(F)cc(S(=O)(=O)[O-])cc5F)c5ccc2[nH]5)C=C4)C=C3)cc1)c1ccccc1
REMARK SMILES IDX 23 1 22 2 21 3 20 4 19 5 18 6 17 7 15 8 16 9 13 10 14 11
REMARK SMILES IDX 12 12 10 13 9 14 11 16 8 17 1 18 2 19 3 20 4 21 5 22 7 23
REMARK SMILES IDX 6 24 98 25 99 26 103 27 100 28 102 29 101 30 24 31 25 32
REMARK SMILES IDX 26 33 27 34 28 35 29 36 30 37 31 38 32 39 33 40 97 41 34 42
REMARK SMILES IDX 96 43 35 44 36 45 37 46 90 47 38 48 95 49 89 50 91 51 39 52
REMARK SMILES IDX 94 53 88 54 87 55 40 57 74 58 53 59 73 60 54 61 57 62 72 63
REMARK SMILES IDX 92 64 55 65 56 66 71 68 93 69 58 70 41 71 42 72 51 73 43 74
REMARK SMILES IDX 44 75 50 76 52 77 45 78 46 79 47 80 48 81 49 82 75 83 76 84
REMARK SMILES IDX 85 85 77 86 78 87 84 88 86 89 79 90 80 91 81 92 82 93 83 94
REMARK SMILES IDX 59 95 60 96 69 97 61 98 62 99 68 100 70 101 63 102 64 103
REMARK SMILES IDX 65 104 66 105 67 106
REMARK H PARENT 9 15 91 56 57 67
REMARK Flexibility Score: inf
ROOT
ATOM      1  O   UNL     1      -7.161  -0.650   0.455  1.00  0.00    -0.377 OA
ENDROOT
BRANCH   1   2
ATOM      2  C   UNL     1      -7.477   0.128  -0.685  1.00  0.00     0.188 C 
BRANCH   2   3
ATOM      3  C   UNL     1      -7.712  -0.615  -2.005  1.00  0.00     0.188 C 
BRANCH   3   4
ATOM      4  O   UNL     1      -8.215  -1.924  -1.859  1.00  0.00    -0.376 OA
BRANCH   4   5
ATOM      5  C   UNL     1      -7.319  -3.020  -1.794  1.00  0.00     0.202 C 
BRANCH   5   6
ATOM      6  C   UNL     1      -5.881  -2.935  -1.257  1.00  0.00     0.261 C 
BRANCH   6   7
ATOM      7  O   UNL     1      -5.284  -1.640  -1.134  1.00  0.00    -0.463 OA
BRANCH   7   8
ATOM      8  C   UNL     1      -4.354  -1.283  -2.041  1.00  0.00     0.316 C 
ATOM      9  O   UNL     1      -4.061  -1.982  -3.007  1.00  0.00    -0.251 OA
BRANCH   8  10
ATOM     10  C   UNL     1      -3.694   0.097  -1.749  1.00  0.00     0.099 C 
ATOM     11  C   UNL     1      -4.198   0.844  -0.475  1.00  0.00     0.029 C 
BRANCH  10  12
ATOM     12  C   UNL     1      -2.173  -0.187  -1.524  1.00  0.00     0.123 C 
BRANCH  12  13
ATOM     13  C   UNL     1      -1.695  -1.636  -1.390  1.00  0.00     0.225 C 
ATOM     14  N   UNL     1      -2.107  -2.534  -0.448  1.00  0.00    -0.326 N 
ATOM     15  H   UNL     1      -1.781  -3.443  -0.637  1.00  0.00     0.169 HD
ATOM     16  O   UNL     1      -0.876  -2.058  -2.219  1.00  0.00    -0.275 OA
BRANCH  14  17
ATOM     17  C   UNL     1      -2.885  -2.485   0.728  1.00  0.00     0.045 A 
ATOM     18  C   UNL     1      -3.447  -4.995   0.499  1.00  0.00     0.048 C 
ATOM     19  C   UNL     1      -3.568  -3.648   1.175  1.00  0.00    -0.009 A 
ATOM     20  C   UNL     1      -4.441  -3.539   2.286  1.00  0.00     0.046 A 
ATOM     21  Cl  UNL     1      -5.407  -4.873   2.822  1.00  0.00    -0.084 Cl
ATOM     22  C   UNL     1      -4.601  -2.334   2.965  1.00  0.00     0.021 A 
ATOM     23  C   UNL     1      -2.990  -1.315   1.483  1.00  0.00     0.026 A 
ATOM     24  C   UNL     1      -3.855  -1.230   2.580  1.00  0.00     0.004 A 
ENDBRANCH  14  17
ENDBRANCH  12  13
ENDBRANCH  10  12
BRANCH  10  25
ATOM     25  C   UNL     1      -3.994   1.096  -2.926  1.00  0.00    -0.030 A 
ATOM     26  C   UNL     1      -3.578   2.441  -2.859  1.00  0.00     0.005 A 
ATOM     27  C   UNL     1      -4.828   0.749  -4.011  1.00  0.00     0.005 A 
ATOM     28  C   UNL     1      -4.026   3.391  -3.789  1.00  0.00     0.000 A 
ATOM     29  C   UNL     1      -5.271   1.695  -4.941  1.00  0.00     0.000 A 
ATOM     30  C   UNL     1      -4.880   3.020  -4.823  1.00  0.00     0.000 A 
ENDBRANCH  10  25
ENDBRANCH   8  10
ENDBRANCH   7   8
ENDBRANCH   6   7
ENDBRANCH   5   6
ENDBRANCH   4   5
ENDBRANCH   3   4
ENDBRANCH   2   3
ENDBRANCH   1   2
BRANCH   1  31
ATOM     31  C   UNL     1      -8.175  -1.429   1.081  1.00  0.00     0.188 C 
BRANCH  31  32
ATOM     32  C   UNL     1      -9.631  -1.441   0.566  1.00  0.00     0.188 C 
BRANCH  32  33
ATOM     33  O   UNL     1     -10.031  -0.303  -0.180  1.00  0.00    -0.376 OA
BRANCH  33  34
ATOM     34  C   UNL     1     -10.732   0.736   0.482  1.00  0.00     0.202 C 
BRANCH  34  35
ATOM     35  C   UNL     1     -10.021   1.470   1.633  1.00  0.00     0.261 C 
BRANCH  35  36
ATOM     36  O   UNL     1      -9.588   0.655   2.731  1.00  0.00    -0.460 OA
BRANCH  36  37
ATOM     37  C   UNL     1     -10.544  -0.033   3.385  1.00  0.00     0.338 C 
ATOM     38  O   UNL     1     -11.747  -0.012   3.164  1.00  0.00    -0.246 OA
BRANCH  37  39
ATOM     39  C   UNL     1      -9.893  -0.965   4.319  1.00  0.00     0.060 A 
ATOM     40  C   UNL     1     -10.098  -2.340   4.151  1.00  0.00     0.016 A 
ATOM     41  C   UNL     1      -9.137  -0.481   5.389  1.00  0.00     0.016 A 
ATOM     42  C   UNL     1      -9.608  -3.234   5.098  1.00  0.00     0.010 A 
ATOM     43  C   UNL     1      -8.663  -1.378   6.349  1.00  0.00     0.010 A 
ATOM     44  C   UNL     1      -8.948  -2.751   6.235  1.00  0.00    -0.014 A 
BRANCH  44  45
ATOM     45  C   UNL     1      -8.780  -3.653   7.400  1.00  0.00     0.031 A 
ATOM     46  C   UNL     1      -9.785  -3.567   8.517  1.00  0.00     0.074 A 
ATOM     47  C   UNL     1      -7.803  -4.575   7.434  1.00  0.00     0.049 A 
ATOM     48  N   UNL     1      -9.855  -4.255   9.626  1.00  0.00    -0.248 NA
ATOM     49  C   UNL     1     -10.856  -2.567   8.361  1.00  0.00     0.031 C 
ATOM     50  C   UNL     1      -6.808  -4.783   6.386  1.00  0.00     0.029 A 
ATOM     51  N   UNL     1      -7.494  -5.513   8.385  1.00  0.00    -0.354 N 
ATOM     52  C   UNL     1     -10.971  -3.771  10.300  1.00  0.00     0.074 A 
ATOM     53  C   UNL     1     -11.523  -2.704   9.496  1.00  0.00     0.031 C 
ATOM     54  C   UNL     1      -5.996  -5.791   6.750  1.00  0.00     0.029 A 
ATOM     55  C   UNL     1      -6.394  -6.276   8.070  1.00  0.00     0.049 A 
ATOM     56  H   UNL     1      -8.011  -5.630   9.215  1.00  0.00     0.167 HD
ATOM     57  C   UNL     1     -11.495  -4.189  11.476  1.00  0.00     0.037 A 
ATOM     58  C   UNL     1      -5.776  -7.243   8.776  1.00  0.00     0.037 A 
ATOM     59  C   UNL     1     -10.935  -5.251  12.271  1.00  0.00     0.049 A 
ATOM     60  C   UNL     1      -6.333  -7.641  10.120  1.00  0.00     0.074 A 
ATOM     61  C   UNL     1     -11.388  -5.753  13.477  1.00  0.00     0.029 A 
ATOM     62  N   UNL     1      -9.795  -5.970  11.941  1.00  0.00    -0.354 N 
ATOM     63  N   UNL     1      -7.393  -7.183  10.743  1.00  0.00    -0.248 NA
ATOM     64  C   UNL     1      -5.614  -8.691  10.854  1.00  0.00     0.031 C 
ATOM     65  C   UNL     1     -10.490  -6.735  13.906  1.00  0.00     0.029 A 
ATOM     66  C   UNL     1      -9.515  -6.895  12.933  1.00  0.00     0.049 A 
ATOM     67  H   UNL     1      -9.263  -5.842  11.123  1.00  0.00     0.167 HD
ATOM     68  C   UNL     1      -7.490  -7.915  11.923  1.00  0.00     0.074 A 
ATOM     69  C   UNL     1      -6.382  -8.849  11.923  1.00  0.00     0.031 C 
ATOM     70  C   UNL     1      -8.414  -7.827  12.913  1.00  0.00     0.037 A 
BRANCH  57  71
ATOM     71  C   UNL     1     -12.714  -3.471  11.988  1.00  0.00     0.058 A 
ATOM     72  C   UNL     1     -13.966  -3.588  11.361  1.00  0.00     0.135 A 
ATOM     73  C   UNL     1     -12.633  -2.664  13.135  1.00  0.00     0.135 A 
ATOM     74  F   UNL     1     -14.098  -4.329  10.248  1.00  0.00    -0.206 F 
ATOM     75  C   UNL     1     -15.084  -2.908  11.832  1.00  0.00     0.059 A 
ATOM     76  C   UNL     1     -13.746  -2.001  13.644  1.00  0.00     0.059 A 
ATOM     77  F   UNL     1     -11.462  -2.511  13.773  1.00  0.00    -0.206 F 
ATOM     78  C   UNL     1     -14.963  -2.116  12.976  1.00  0.00     0.060 A 
BRANCH  78  79
ATOM     79  S   UNL     1     -16.422  -1.238  13.574  1.00  0.00     0.124 S 
ATOM     80  O   UNL     1     -16.584  -0.210  12.550  1.00  0.00    -0.237 OA
ATOM     81  O   UNL     1     -17.436  -2.288  13.583  1.00  0.00    -0.237 OA
ATOM     82  O   UNL     1     -16.014  -0.753  14.888  1.00  0.00    -0.744 OA
ENDBRANCH  78  79
ENDBRANCH  57  71
BRANCH  58  83
ATOM     83  C   UNL     1      -4.560  -7.902   8.227  1.00  0.00     0.058 A 
ATOM     84  C   UNL     1      -4.573  -9.252   7.846  1.00  0.00     0.135 A 
ATOM     85  C   UNL     1      -3.358  -7.193   8.072  1.00  0.00     0.135 A 
ATOM     86  F   UNL     1      -5.692  -9.978   7.986  1.00  0.00    -0.206 F 
ATOM     87  C   UNL     1      -3.437  -9.879   7.342  1.00  0.00     0.059 A 
ATOM     88  C   UNL     1      -2.217  -7.790   7.544  1.00  0.00     0.059 A 
ATOM     89  F   UNL     1      -3.292  -5.897   8.414  1.00  0.00    -0.206 F 
ATOM     90  C   UNL     1      -2.265  -9.137   7.190  1.00  0.00     0.060 A 
BRANCH  90  91
ATOM     91  S   UNL     1      -0.812  -9.948   6.488  1.00  0.00     0.124 S 
ATOM     92  O   UNL     1      -0.420 -10.841   7.572  1.00  0.00    -0.237 OA
ATOM     93  O   UNL     1      -1.365 -10.588   5.299  1.00  0.00    -0.237 OA
ATOM     94  O   UNL     1       0.099  -8.837   6.226  1.00  0.00    -0.744 OA
ENDBRANCH  90  91
ENDBRANCH  58  83
BRANCH  70  95
ATOM     95  C   UNL     1      -8.306  -8.801  14.057  1.00  0.00     0.058 A 
ATOM     96  C   UNL     1      -7.283  -8.717  15.015  1.00  0.00     0.135 A 
ATOM     97  C   UNL     1      -9.278  -9.802  14.225  1.00  0.00     0.135 A 
ATOM     98  F   UNL     1      -6.327  -7.783  14.902  1.00  0.00    -0.206 F 
ATOM     99  C   UNL     1      -7.211  -9.610  16.081  1.00  0.00     0.059 A 
ATOM    100  C   UNL     1      -9.244 -10.683  15.301  1.00  0.00     0.059 A 
ATOM    101  F   UNL     1     -10.286  -9.920  13.346  1.00  0.00    -0.206 F 
ATOM    102  C   UNL     1      -8.198 -10.588  16.217  1.00  0.00     0.060 A 
BRANCH 102 103
ATOM    103  S   UNL     1      -8.108 -11.720  17.620  1.00  0.00     0.124 S 
ATOM    104  O   UNL     1      -6.980 -12.566  17.243  1.00  0.00    -0.237 OA
ATOM    105  O   UNL     1      -7.874 -10.812  18.738  1.00  0.00    -0.237 OA
ATOM    106  O   UNL     1      -9.413 -12.375  17.614  1.00  0.00    -0.744 OA
ENDBRANCH 102 103
ENDBRANCH  70  95
ENDBRANCH  44  45
ENDBRANCH  37  39
ENDBRANCH  36  37
ENDBRANCH  35  36
ENDBRANCH  34  35
ENDBRANCH  33  34
ENDBRANCH  32  33
ENDBRANCH  31  32
ENDBRANCH   1  31
TORSDOF 27
