REMARK SMILES Cc1cc(=O)cc(C)n1-c1ccc(Cl)cc1C(=O)OCCOCCOCCOCCOC(=O)c1ccc(-c2c3nc(c(-c4c(F)cc(S(=O)(=O)[O-])cc4F)c4ccc([nH]4)c(-c4c(F)cc(S(=O)(=O)[O-])cc4F)c4nc(c(-c5c(F)cc(S(=O)(=O)[O-])cc5F)c5ccc2[nH]5)C=C4)C=C3)cc1
REMARK SMILES IDX 26 1 25 2 24 3 23 4 22 5 21 6 20 7 19 8 17 9 18 10 16 11
REMARK SMILES IDX 10 12 11 13 12 14 15 15 13 16 14 17 9 18 1 19 2 20 3 21 4 22
REMARK SMILES IDX 7 23 5 24 6 25 8 26 27 27 28 28 29 29 30 30 31 31 32 32
REMARK SMILES IDX 33 33 34 34 35 35 99 36 36 37 98 38 37 39 38 40 39 41 92 42
REMARK SMILES IDX 40 43 97 44 91 45 93 46 41 47 96 48 90 49 89 50 42 52 76 53
REMARK SMILES IDX 55 54 75 55 56 56 59 57 74 58 94 59 57 60 58 61 73 63 95 64
REMARK SMILES IDX 60 65 43 66 44 67 53 68 45 69 46 70 52 71 54 72 47 73 48 74
REMARK SMILES IDX 49 75 50 76 51 77 77 78 78 79 87 80 79 81 80 82 86 83 88 84
REMARK SMILES IDX 81 85 82 86 83 87 84 88 85 89 61 90 62 91 71 92 63 93 64 94
REMARK SMILES IDX 70 95 72 96 65 97 66 98 67 99 68 100 69 101
REMARK H PARENT 93 51 59 62
REMARK Flexibility Score: inf
ROOT
ATOM      1  C   UNL     1      -1.892   3.450  -3.318  1.00  0.00     0.188 C 
ENDROOT
BRANCH   1   2
ATOM      2  O   UNL     1      -0.510   3.598  -3.015  1.00  0.00    -0.377 OA
BRANCH   2   3
ATOM      3  C   UNL     1       0.470   2.986  -3.843  1.00  0.00     0.188 C 
BRANCH   3   4
ATOM      4  C   UNL     1       0.209   1.642  -4.568  1.00  0.00     0.188 C 
BRANCH   4   5
ATOM      5  O   UNL     1      -1.110   1.141  -4.451  1.00  0.00    -0.376 OA
BRANCH   5   6
ATOM      6  C   UNL     1      -1.352  -0.006  -3.660  1.00  0.00     0.202 C 
BRANCH   6   7
ATOM      7  C   UNL     1      -0.962   0.024  -2.179  1.00  0.00     0.261 C 
BRANCH   7   8
ATOM      8  O   UNL     1       0.224   0.765  -1.883  1.00  0.00    -0.460 OA
BRANCH   8   9
ATOM      9  C   UNL     1       1.394   0.111  -1.991  1.00  0.00     0.340 C 
ATOM     10  O   UNL     1       1.552  -1.021  -2.420  1.00  0.00    -0.246 OA
BRANCH   9  11
ATOM     11  C   UNL     1       2.522   1.013  -1.654  1.00  0.00     0.085 A 
ATOM     12  C   UNL     1       2.542   1.928  -0.572  1.00  0.00     0.060 A 
ATOM     13  C   UNL     1       3.735   2.663  -0.380  1.00  0.00     0.029 A 
ATOM     14  C   UNL     1       4.802   2.595  -1.281  1.00  0.00     0.023 A 
ATOM     15  C   UNL     1       3.607   0.938  -2.552  1.00  0.00     0.038 A 
ATOM     16  C   UNL     1       4.721   1.750  -2.379  1.00  0.00     0.042 A 
ATOM     17  Cl  UNL     1       5.993   1.719  -3.536  1.00  0.00    -0.084 Cl
BRANCH  12  18
ATOM     18  N   UNL     1       1.422   2.193   0.295  1.00  0.00    -0.317 N 
ATOM     19  C   UNL     1       1.350  -0.237   1.103  1.00  0.00     0.065 C 
ATOM     20  C   UNL     1       0.772   1.156   1.020  1.00  0.00     0.024 A 
ATOM     21  C   UNL     1      -0.373   1.361   1.700  1.00  0.00     0.073 A 
ATOM     22  C   UNL     1      -0.995   2.694   1.713  1.00  0.00     0.182 A 
ATOM     23  C   UNL     1       0.879   3.514   0.384  1.00  0.00     0.024 A 
ATOM     24  O   UNL     1      -2.079   2.895   2.245  1.00  0.00    -0.290 OA
ATOM     25  C   UNL     1      -0.258   3.780   1.056  1.00  0.00     0.073 A 
ATOM     26  C   UNL     1       1.511   4.702  -0.311  1.00  0.00     0.065 C 
ENDBRANCH  12  18
ENDBRANCH   9  11
ENDBRANCH   8   9
ENDBRANCH   7   8
ENDBRANCH   6   7
ENDBRANCH   5   6
ENDBRANCH   4   5
ENDBRANCH   3   4
ENDBRANCH   2   3
ENDBRANCH   1   2
BRANCH   1  27
ATOM     27  C   UNL     1      -2.358   3.546  -4.788  1.00  0.00     0.188 C 
BRANCH  27  28
ATOM     28  O   UNL     1      -1.309   3.794  -5.712  1.00  0.00    -0.376 OA
BRANCH  28  29
ATOM     29  C   UNL     1      -1.217   5.107  -6.240  1.00  0.00     0.202 C 
BRANCH  29  30
ATOM     30  C   UNL     1      -0.954   6.248  -5.246  1.00  0.00     0.261 C 
BRANCH  30  31
ATOM     31  O   UNL     1      -1.883   6.377  -4.159  1.00  0.00    -0.460 OA
BRANCH  31  32
ATOM     32  C   UNL     1      -3.168   6.665  -4.459  1.00  0.00     0.338 C 
ATOM     33  O   UNL     1      -3.643   6.844  -5.568  1.00  0.00    -0.246 OA
BRANCH  32  34
ATOM     34  C   UNL     1      -3.944   6.533  -3.210  1.00  0.00     0.060 A 
ATOM     35  C   UNL     1      -4.941   5.552  -3.120  1.00  0.00     0.016 A 
ATOM     36  C   UNL     1      -3.657   7.356  -2.119  1.00  0.00     0.016 A 
ATOM     37  C   UNL     1      -5.670   5.409  -1.940  1.00  0.00     0.010 A 
ATOM     38  C   UNL     1      -4.406   7.231  -0.948  1.00  0.00     0.010 A 
ATOM     39  C   UNL     1      -5.436   6.277  -0.866  1.00  0.00    -0.014 A 
BRANCH  39  40
ATOM     40  C   UNL     1      -6.409   6.335   0.249  1.00  0.00     0.031 A 
ATOM     41  C   UNL     1      -7.505   7.361   0.174  1.00  0.00     0.074 A 
ATOM     42  C   UNL     1      -6.335   5.493   1.294  1.00  0.00     0.049 A 
ATOM     43  N   UNL     1      -8.459   7.622   1.027  1.00  0.00    -0.248 NA
ATOM     44  C   UNL     1      -7.522   8.210  -1.029  1.00  0.00     0.031 C 
ATOM     45  C   UNL     1      -5.332   4.445   1.463  1.00  0.00     0.029 A 
ATOM     46  N   UNL     1      -7.118   5.398   2.417  1.00  0.00    -0.354 N 
ATOM     47  C   UNL     1      -9.185   8.668   0.470  1.00  0.00     0.074 A 
ATOM     48  C   UNL     1      -8.544   9.014  -0.779  1.00  0.00     0.031 C 
ATOM     49  C   UNL     1      -5.554   3.816   2.630  1.00  0.00     0.029 A 
ATOM     50  C   UNL     1      -6.697   4.435   3.302  1.00  0.00     0.049 A 
ATOM     51  H   UNL     1      -7.907   5.966   2.574  1.00  0.00     0.167 HD
ATOM     52  C   UNL     1     -10.290   9.280   0.955  1.00  0.00     0.037 A 
ATOM     53  C   UNL     1      -7.168   4.107   4.523  1.00  0.00     0.037 A 
ATOM     54  C   UNL     1     -10.915   8.934   2.203  1.00  0.00     0.049 A 
ATOM     55  C   UNL     1      -8.365   4.839   5.074  1.00  0.00     0.074 A 
ATOM     56  C   UNL     1     -12.056   9.472   2.769  1.00  0.00     0.029 A 
ATOM     57  N   UNL     1     -10.442   7.974   3.087  1.00  0.00    -0.354 N 
ATOM     58  N   UNL     1      -9.070   5.800   4.522  1.00  0.00    -0.248 NA
ATOM     59  C   UNL     1      -8.832   4.447   6.411  1.00  0.00     0.031 C 
ATOM     60  C   UNL     1     -12.238   8.883   4.024  1.00  0.00     0.029 A 
ATOM     61  C   UNL     1     -11.247   7.931   4.214  1.00  0.00     0.049 A 
ATOM     62  H   UNL     1      -9.652   7.407   2.936  1.00  0.00     0.167 HD
ATOM     63  C   UNL     1     -10.069   6.119   5.438  1.00  0.00     0.074 A 
ATOM     64  C   UNL     1      -9.886   5.237   6.573  1.00  0.00     0.031 C 
ATOM     65  C   UNL     1     -11.047   7.054   5.344  1.00  0.00     0.037 A 
BRANCH  52  66
ATOM     66  C   UNL     1     -10.864  10.412   0.149  1.00  0.00     0.058 A 
ATOM     67  C   UNL     1     -11.505  10.198  -1.082  1.00  0.00     0.135 A 
ATOM     68  C   UNL     1     -10.779  11.732   0.622  1.00  0.00     0.135 A 
ATOM     69  F   UNL     1     -11.595   8.959  -1.592  1.00  0.00    -0.206 F 
ATOM     70  C   UNL     1     -12.012  11.255  -1.830  1.00  0.00     0.059 A 
ATOM     71  C   UNL     1     -11.307  12.800  -0.095  1.00  0.00     0.059 A 
ATOM     72  F   UNL     1     -10.172  11.994   1.790  1.00  0.00    -0.206 F 
ATOM     73  C   UNL     1     -11.908  12.553  -1.328  1.00  0.00     0.060 A 
BRANCH  73  74
ATOM     74  S   UNL     1     -12.563  13.914  -2.317  1.00  0.00     0.124 S 
ATOM     75  O   UNL     1     -11.620  13.945  -3.431  1.00  0.00    -0.237 OA
ATOM     76  O   UNL     1     -13.907  13.444  -2.638  1.00  0.00    -0.237 OA
ATOM     77  O   UNL     1     -12.500  15.056  -1.412  1.00  0.00    -0.744 OA
ENDBRANCH  73  74
ENDBRANCH  52  66
BRANCH  53  78
ATOM     78  C   UNL     1      -6.496   3.026   5.294  1.00  0.00     0.058 A 
ATOM     79  C   UNL     1      -7.103   1.775   5.469  1.00  0.00     0.135 A 
ATOM     80  C   UNL     1      -5.202   3.203   5.812  1.00  0.00     0.135 A 
ATOM     81  F   UNL     1      -8.347   1.562   5.014  1.00  0.00    -0.206 F 
ATOM     82  C   UNL     1      -6.444   0.729   6.111  1.00  0.00     0.059 A 
ATOM     83  C   UNL     1      -4.514   2.165   6.434  1.00  0.00     0.059 A 
ATOM     84  F   UNL     1      -4.582   4.386   5.680  1.00  0.00    -0.206 F 
ATOM     85  C   UNL     1      -5.142   0.928   6.573  1.00  0.00     0.060 A 
BRANCH  85  86
ATOM     86  S   UNL     1      -4.262  -0.470   7.304  1.00  0.00     0.124 S 
ATOM     87  O   UNL     1      -5.006  -0.677   8.541  1.00  0.00    -0.237 OA
ATOM     88  O   UNL     1      -4.425  -1.501   6.282  1.00  0.00    -0.237 OA
ATOM     89  O   UNL     1      -2.900   0.029   7.466  1.00  0.00    -0.744 OA
ENDBRANCH  85  86
ENDBRANCH  53  78
BRANCH  65  90
ATOM     90  C   UNL     1     -12.011   7.186   6.493  1.00  0.00     0.058 A 
ATOM     91  C   UNL     1     -11.628   7.767   7.712  1.00  0.00     0.135 A 
ATOM     92  C   UNL     1     -13.359   6.818   6.340  1.00  0.00     0.135 A 
ATOM     93  F   UNL     1     -10.353   8.135   7.914  1.00  0.00    -0.206 F 
ATOM     94  C   UNL     1     -12.543   7.969   8.741  1.00  0.00     0.059 A 
ATOM     95  C   UNL     1     -14.297   7.037   7.344  1.00  0.00     0.059 A 
ATOM     96  F   UNL     1     -13.783   6.270   5.190  1.00  0.00    -0.206 F 
ATOM     97  C   UNL     1     -13.878   7.609   8.544  1.00  0.00     0.060 A 
BRANCH  97  98
ATOM     98  S   UNL     1     -15.062   7.927   9.870  1.00  0.00     0.124 S 
ATOM     99  O   UNL     1     -14.645   6.957  10.877  1.00  0.00    -0.237 OA
ATOM    100  O   UNL     1     -14.801   9.326  10.190  1.00  0.00    -0.237 OA
ATOM    101  O   UNL     1     -16.355   7.663   9.245  1.00  0.00    -0.744 OA
ENDBRANCH  97  98
ENDBRANCH  65  90
ENDBRANCH  39  40
ENDBRANCH  32  34
ENDBRANCH  31  32
ENDBRANCH  30  31
ENDBRANCH  29  30
ENDBRANCH  28  29
ENDBRANCH  27  28
ENDBRANCH   1  27
TORSDOF 24
