REMARK SMILES O=C(OCCOCCOCCOCCOC(=O)c1cccc2nc(Cl)c(Cl)nc12)c1ccc(-c2c3nc(c(-c4c(F)cc(S(=O)(=O)[O-])cc4F)c4ccc([nH]4)c(-c4c(F)cc(S(=O)(=O)[O-])cc4F)c4nc(c(-c5c(F)cc(S(=O)(=O)[O-])cc5F)c5ccc2[nH]5)C=C4)C=C3)cc1
REMARK SMILES IDX 7 1 6 2 5 3 4 4 3 5 2 6 1 7 30 8 31 9 95 10 32 11 94 12
REMARK SMILES IDX 33 13 34 14 35 15 88 16 36 17 93 18 87 19 89 20 37 21 92 22
REMARK SMILES IDX 86 23 85 24 38 26 72 27 51 28 71 29 52 30 55 31 70 32 90 33
REMARK SMILES IDX 53 34 54 35 69 37 91 38 56 39 39 40 40 41 49 42 41 43 42 44
REMARK SMILES IDX 48 45 50 46 43 47 44 48 45 49 46 50 47 51 73 52 74 53 83 54
REMARK SMILES IDX 75 55 76 56 82 57 84 58 77 59 78 60 79 61 80 62 81 63 57 64
REMARK SMILES IDX 58 65 67 66 59 67 60 68 66 69 68 70 61 71 62 72 63 73 64 74
REMARK SMILES IDX 65 75 8 76 9 77 10 78 11 79 12 80 13 81 14 82 15 83 16 84
REMARK SMILES IDX 17 85 18 86 19 87 29 88 20 89 22 90 28 91 21 92 23 93 26 94
REMARK SMILES IDX 24 95 27 96 25 97
REMARK H PARENT 89 25 55 36
REMARK Flexibility Score: inf
ROOT
ATOM      1  C   UNL     1       2.627   0.728   1.357  1.00  0.00     0.188 C 
ENDROOT
BRANCH   1   2
ATOM      2  O   UNL     1       4.008   0.406   1.253  1.00  0.00    -0.376 OA
BRANCH   2   3
ATOM      3  C   UNL     1       4.721   0.503   0.030  1.00  0.00     0.202 C 
BRANCH   3   4
ATOM      4  C   UNL     1       4.168  -0.079  -1.271  1.00  0.00     0.261 C 
BRANCH   4   5
ATOM      5  O   UNL     1       2.896  -0.747  -1.286  1.00  0.00    -0.460 OA
BRANCH   5   6
ATOM      6  C   UNL     1       2.575  -1.953  -0.755  1.00  0.00     0.338 C 
ATOM      7  O   UNL     1       1.601  -2.574  -1.168  1.00  0.00    -0.246 OA
BRANCH   6   8
ATOM      8  C   UNL     1       3.214  -2.359   0.519  1.00  0.00     0.060 A 
ATOM      9  C   UNL     1       2.364  -2.638   1.604  1.00  0.00     0.016 A 
ATOM     10  C   UNL     1       4.594  -2.357   0.701  1.00  0.00     0.016 A 
ATOM     11  C   UNL     1       2.893  -2.823   2.882  1.00  0.00     0.010 A 
ATOM     12  C   UNL     1       5.117  -2.431   1.991  1.00  0.00     0.010 A 
ATOM     13  C   UNL     1       4.274  -2.699   3.084  1.00  0.00    -0.014 A 
BRANCH  13  14
ATOM     14  C   UNL     1       4.904  -3.241   4.306  1.00  0.00     0.031 A 
ATOM     15  C   UNL     1       5.160  -2.443   5.545  1.00  0.00     0.074 A 
ATOM     16  C   UNL     1       5.319  -4.518   4.190  1.00  0.00     0.049 A 
ATOM     17  N   UNL     1       5.649  -2.865   6.683  1.00  0.00    -0.248 NA
ATOM     18  C   UNL     1       4.848  -1.007   5.521  1.00  0.00     0.031 C 
ATOM     19  C   UNL     1       5.148  -5.341   2.984  1.00  0.00     0.029 A 
ATOM     20  N   UNL     1       5.994  -5.332   5.052  1.00  0.00    -0.354 N 
ATOM     21  C   UNL     1       5.668  -1.764   7.530  1.00  0.00     0.074 A 
ATOM     22  C   UNL     1       5.186  -0.637   6.755  1.00  0.00     0.031 C 
ATOM     23  C   UNL     1       5.747  -6.521   3.166  1.00  0.00     0.029 A 
ATOM     24  C   UNL     1       6.304  -6.554   4.508  1.00  0.00     0.049 A 
ATOM     25  H   UNL     1       6.235  -5.070   5.970  1.00  0.00     0.167 HD
ATOM     26  C   UNL     1       6.042  -1.727   8.834  1.00  0.00     0.037 A 
ATOM     27  C   UNL     1       6.948  -7.605   5.038  1.00  0.00     0.037 A 
ATOM     28  C   UNL     1       6.556  -2.875   9.549  1.00  0.00     0.049 A 
ATOM     29  C   UNL     1       7.353  -7.531   6.475  1.00  0.00     0.074 A 
ATOM     30  C   UNL     1       6.891  -2.973  10.889  1.00  0.00     0.029 A 
ATOM     31  N   UNL     1       6.833  -4.113   8.981  1.00  0.00    -0.354 N 
ATOM     32  N   UNL     1       7.221  -6.528   7.309  1.00  0.00    -0.248 NA
ATOM     33  C   UNL     1       7.959  -8.732   7.056  1.00  0.00     0.031 C 
ATOM     34  C   UNL     1       7.429  -4.243  11.116  1.00  0.00     0.029 A 
ATOM     35  C   UNL     1       7.369  -4.964   9.934  1.00  0.00     0.049 A 
ATOM     36  H   UNL     1       6.672  -4.350   8.040  1.00  0.00     0.167 HD
ATOM     37  C   UNL     1       7.698  -6.987   8.527  1.00  0.00     0.074 A 
ATOM     38  C   UNL     1       8.114  -8.361   8.320  1.00  0.00     0.031 C 
ATOM     39  C   UNL     1       7.778  -6.330   9.708  1.00  0.00     0.037 A 
BRANCH  26  40
ATOM     40  C   UNL     1       5.885  -0.445   9.613  1.00  0.00     0.058 A 
ATOM     41  C   UNL     1       4.615   0.020   9.991  1.00  0.00     0.135 A 
ATOM     42  C   UNL     1       7.003   0.225  10.142  1.00  0.00     0.135 A 
ATOM     43  F   UNL     1       3.509  -0.579   9.522  1.00  0.00    -0.206 F 
ATOM     44  C   UNL     1       4.459   1.091  10.867  1.00  0.00     0.059 A 
ATOM     45  C   UNL     1       6.870   1.286  11.037  1.00  0.00     0.059 A 
ATOM     46  F   UNL     1       8.244  -0.179   9.826  1.00  0.00    -0.206 F 
ATOM     47  C   UNL     1       5.592   1.710  11.396  1.00  0.00     0.060 A 
BRANCH  47  48
ATOM     48  S   UNL     1       5.360   3.057  12.579  1.00  0.00     0.124 S 
ATOM     49  O   UNL     1       4.739   4.080  11.742  1.00  0.00    -0.237 OA
ATOM     50  O   UNL     1       4.489   2.445  13.578  1.00  0.00    -0.237 OA
ATOM     51  O   UNL     1       6.715   3.357  13.030  1.00  0.00    -0.744 OA
ENDBRANCH  47  48
ENDBRANCH  26  40
BRANCH  27  52
ATOM     52  C   UNL     1       7.134  -8.823   4.216  1.00  0.00     0.058 A 
ATOM     53  C   UNL     1       6.368  -9.970   4.460  1.00  0.00     0.135 A 
ATOM     54  C   UNL     1       8.008  -8.833   3.117  1.00  0.00     0.135 A 
ATOM     55  F   UNL     1       5.499  -9.992   5.481  1.00  0.00    -0.206 F 
ATOM     56  C   UNL     1       6.486 -11.101   3.664  1.00  0.00     0.059 A 
ATOM     57  C   UNL     1       8.123  -9.944   2.290  1.00  0.00     0.059 A 
ATOM     58  F   UNL     1       8.723  -7.738   2.814  1.00  0.00    -0.206 F 
ATOM     59  C   UNL     1       7.369 -11.079   2.582  1.00  0.00     0.060 A 
BRANCH  59  60
ATOM     60  S   UNL     1       7.502 -12.555   1.554  1.00  0.00     0.124 S 
ATOM     61  O   UNL     1       8.146 -13.490   2.469  1.00  0.00    -0.237 OA
ATOM     62  O   UNL     1       6.105 -12.832   1.235  1.00  0.00    -0.237 OA
ATOM     63  O   UNL     1       8.320 -12.110   0.429  1.00  0.00    -0.744 OA
ENDBRANCH  59  60
ENDBRANCH  27  52
BRANCH  39  64
ATOM     64  C   UNL     1       8.336  -7.085  10.880  1.00  0.00     0.058 A 
ATOM     65  C   UNL     1       9.706  -7.367  10.981  1.00  0.00     0.135 A 
ATOM     66  C   UNL     1       7.508  -7.439  11.957  1.00  0.00     0.135 A 
ATOM     67  F   UNL     1      10.536  -7.065   9.969  1.00  0.00    -0.206 F 
ATOM     68  C   UNL     1      10.239  -7.968  12.114  1.00  0.00     0.059 A 
ATOM     69  C   UNL     1       8.024  -8.014  13.113  1.00  0.00     0.059 A 
ATOM     70  F   UNL     1       6.189  -7.190  11.908  1.00  0.00    -0.206 F 
ATOM     71  C   UNL     1       9.393  -8.271  13.183  1.00  0.00     0.060 A 
BRANCH  71  72
ATOM     72  S   UNL     1      10.120  -8.963  14.682  1.00  0.00     0.124 S 
ATOM     73  O   UNL     1      10.542 -10.283  14.225  1.00  0.00    -0.237 OA
ATOM     74  O   UNL     1      11.195  -8.018  14.966  1.00  0.00    -0.237 OA
ATOM     75  O   UNL     1       9.015  -8.954  15.635  1.00  0.00    -0.744 OA
ENDBRANCH  71  72
ENDBRANCH  39  64
ENDBRANCH  13  14
ENDBRANCH   6   8
ENDBRANCH   5   6
ENDBRANCH   4   5
ENDBRANCH   3   4
ENDBRANCH   2   3
ENDBRANCH   1   2
BRANCH   1  76
ATOM     76  C   UNL     1       2.153   2.107   0.916  1.00  0.00     0.188 C 
BRANCH  76  77
ATOM     77  O   UNL     1       3.065   2.716   0.023  1.00  0.00    -0.377 OA
BRANCH  77  78
ATOM     78  C   UNL     1       3.979   3.614   0.660  1.00  0.00     0.188 C 
BRANCH  78  79
ATOM     79  C   UNL     1       4.710   3.167   1.960  1.00  0.00     0.188 C 
BRANCH  79  80
ATOM     80  O   UNL     1       3.781   2.823   2.978  1.00  0.00    -0.376 OA
BRANCH  80  81
ATOM     81  C   UNL     1       3.671   3.707   4.078  1.00  0.00     0.202 C 
BRANCH  81  82
ATOM     82  C   UNL     1       3.169   5.131   3.786  1.00  0.00     0.261 C 
BRANCH  82  83
ATOM     83  O   UNL     1       3.671   5.787   2.604  1.00  0.00    -0.460 OA
BRANCH  83  84
ATOM     84  C   UNL     1       4.935   6.269   2.576  1.00  0.00     0.340 C 
ATOM     85  O   UNL     1       5.744   6.260   3.488  1.00  0.00    -0.246 OA
BRANCH  84  86
ATOM     86  C   UNL     1       5.176   6.818   1.219  1.00  0.00     0.088 A 
ATOM     87  C   UNL     1       4.389   7.915   0.842  1.00  0.00     0.018 A 
ATOM     88  C   UNL     1       6.106   6.232   0.333  1.00  0.00     0.105 A 
ATOM     89  C   UNL     1       4.559   8.484  -0.411  1.00  0.00     0.003 A 
ATOM     90  C   UNL     1       6.249   6.830  -0.950  1.00  0.00     0.091 A 
ATOM     91  N   UNL     1       6.802   5.093   0.603  1.00  0.00    -0.230 NA
ATOM     92  C   UNL     1       5.499   7.946  -1.284  1.00  0.00     0.031 A 
ATOM     93  N   UNL     1       7.059   6.334  -1.904  1.00  0.00    -0.231 NA
ATOM     94  C   UNL     1       7.573   4.569  -0.386  1.00  0.00     0.167 A 
ATOM     95  C   UNL     1       7.708   5.186  -1.614  1.00  0.00     0.167 A 
ATOM     96  Cl  UNL     1       8.245   3.035  -0.011  1.00  0.00    -0.059 Cl
ATOM     97  Cl  UNL     1       8.641   4.572  -2.917  1.00  0.00    -0.059 Cl
ENDBRANCH  84  86
ENDBRANCH  83  84
ENDBRANCH  82  83
ENDBRANCH  81  82
ENDBRANCH  80  81
ENDBRANCH  79  80
ENDBRANCH  78  79
ENDBRANCH  77  78
ENDBRANCH  76  77
ENDBRANCH   1  76
TORSDOF 23
