REMARK SMILES CCc1n[nH]c(C(=O)N[C@@]2(C(=O)OCCOCCOCCOCCOC(=O)c3ccc(-c4c5nc(c(-c6c(F)cc(S(=O)(=O)[O-])cc6F)c6ccc([nH]6)c(-c6c(F)cc(S(=O)(=O)[O-])cc6F)c6nc(c(-c7c(F)cc(S(=O)(=O)[O-])cc7F)c7ccc4[nH]7)C=C6)C=C5)cc3)CCCC[C@H]2C)n1
REMARK SMILES IDX 19 1 18 2 17 3 16 4 15 5 14 6 13 7 11 8 12 9 10 10 94 11
REMARK SMILES IDX 98 12 95 13 97 14 99 15 96 16 9 17 7 18 8 19 6 21 3 22 4 23
REMARK SMILES IDX 100 24 5 25 2 27 1 28 20 29 21 30 22 31 23 32 24 33 25 34
REMARK SMILES IDX 26 35 27 36 28 37 29 38 93 39 30 40 92 41 31 42 32 43 33 44
REMARK SMILES IDX 86 45 34 46 91 47 85 48 87 49 35 50 90 51 84 52 83 53 36 55
REMARK SMILES IDX 70 56 49 57 69 58 50 59 53 60 68 61 88 62 51 63 52 64 67 66
REMARK SMILES IDX 89 67 54 68 37 69 38 70 47 71 39 72 40 73 46 74 48 75 41 76
REMARK SMILES IDX 42 77 43 78 44 79 45 80 71 81 72 82 81 83 73 84 74 85 80 86
REMARK SMILES IDX 82 87 75 88 76 89 77 90 78 91 79 92 55 93 56 94 65 95 57 96
REMARK SMILES IDX 58 97 64 98 66 99 59 100 60 101 61 102 62 103 63 104
REMARK H PARENT 9 20 5 26 87 54 53 65
REMARK Flexibility Score: inf
ROOT
ATOM      1  O   UNL     1      -0.722   7.460   0.669  1.00  0.00    -0.377 OA
ENDROOT
BRANCH   1   2
ATOM      2  C   UNL     1      -0.444   7.031   1.975  1.00  0.00     0.188 C 
BRANCH   2   3
ATOM      3  C   UNL     1       0.841   7.583   2.581  1.00  0.00     0.188 C 
BRANCH   3   4
ATOM      4  O   UNL     1       2.046   7.576   1.819  1.00  0.00    -0.376 OA
BRANCH   4   5
ATOM      5  C   UNL     1       1.992   7.253   0.439  1.00  0.00     0.202 C 
BRANCH   5   6
ATOM      6  C   UNL     1       2.013   5.744   0.113  1.00  0.00     0.261 C 
BRANCH   6   7
ATOM      7  O   UNL     1       1.035   4.887   0.760  1.00  0.00    -0.461 OA
BRANCH   7   8
ATOM      8  C   UNL     1       1.358   4.399   1.996  1.00  0.00     0.332 C 
ATOM      9  O   UNL     1       2.393   4.703   2.585  1.00  0.00    -0.249 OA
BRANCH   8  10
ATOM     10  C   UNL     1       0.290   3.376   2.599  1.00  0.00     0.141 C 
ATOM     11  C   UNL     1       0.147   2.290   1.516  1.00  0.00     0.041 C 
ATOM     12  C   UNL     1      -1.186   3.864   2.923  1.00  0.00     0.023 C 
ATOM     13  C   UNL     1      -0.781   1.136   1.877  1.00  0.00     0.003 C 
ATOM     14  C   UNL     1      -2.162   2.689   3.215  1.00  0.00     0.006 C 
ATOM     15  C   UNL     1      -1.337   4.799   4.139  1.00  0.00     0.011 C 
ATOM     16  C   UNL     1      -2.186   1.637   2.125  1.00  0.00     0.000 C 
BRANCH  10  17
ATOM     17  N   UNL     1       0.910   3.063   3.923  1.00  0.00    -0.333 N 
ATOM     18  C   UNL     1       1.735   2.137   4.485  1.00  0.00     0.289 C 
ATOM     19  O   UNL     1       2.121   2.380   5.633  1.00  0.00    -0.266 OA
ATOM     20  H   UNL     1       0.639   3.731   4.594  1.00  0.00     0.165 HD
BRANCH  18  21
ATOM     21  C   UNL     1       2.000   0.879   3.863  1.00  0.00     0.214 A 
ATOM     22  C   UNL     1       1.993  -0.772   2.553  1.00  0.00     0.151 A 
ATOM     23  N   UNL     1       2.003  -1.353   3.761  1.00  0.00    -0.158 NA
ATOM     24  N   UNL     1       2.092   0.592   2.585  1.00  0.00    -0.207 NA
ATOM     25  N   UNL     1       2.077  -0.282   4.571  1.00  0.00    -0.255 N 
ATOM     26  H   UNL     1       2.175  -0.331   5.549  1.00  0.00     0.192 HD
BRANCH  22  27
ATOM     27  C   UNL     1       1.623  -1.516   1.317  1.00  0.00     0.076 C 
ATOM     28  C   UNL     1       1.817  -0.753   0.014  1.00  0.00     0.012 C 
ENDBRANCH  22  27
ENDBRANCH  18  21
ENDBRANCH  10  17
ENDBRANCH   8  10
ENDBRANCH   7   8
ENDBRANCH   6   7
ENDBRANCH   5   6
ENDBRANCH   4   5
ENDBRANCH   3   4
ENDBRANCH   2   3
ENDBRANCH   1   2
BRANCH   1  29
ATOM     29  C   UNL     1      -1.795   8.368   0.570  1.00  0.00     0.188 C 
BRANCH  29  30
ATOM     30  C   UNL     1      -1.628   9.635   1.418  1.00  0.00     0.188 C 
BRANCH  30  31
ATOM     31  O   UNL     1      -1.768   9.570   2.833  1.00  0.00    -0.376 OA
BRANCH  31  32
ATOM     32  C   UNL     1      -2.840   8.936   3.513  1.00  0.00     0.202 C 
BRANCH  32  33
ATOM     33  C   UNL     1      -4.304   8.988   3.069  1.00  0.00     0.261 C 
BRANCH  33  34
ATOM     34  O   UNL     1      -4.544   8.727   1.688  1.00  0.00    -0.460 OA
BRANCH  34  35
ATOM     35  C   UNL     1      -4.762   9.838   0.940  1.00  0.00     0.338 C 
ATOM     36  O   UNL     1      -4.763  10.989   1.325  1.00  0.00    -0.246 OA
BRANCH  35  37
ATOM     37  C   UNL     1      -4.802   9.454  -0.483  1.00  0.00     0.060 A 
ATOM     38  C   UNL     1      -3.927  10.102  -1.365  1.00  0.00     0.016 A 
ATOM     39  C   UNL     1      -5.708   8.499  -0.944  1.00  0.00     0.016 A 
ATOM     40  C   UNL     1      -3.976   9.822  -2.725  1.00  0.00     0.010 A 
ATOM     41  C   UNL     1      -5.785   8.247  -2.313  1.00  0.00     0.010 A 
ATOM     42  C   UNL     1      -4.946   8.937  -3.207  1.00  0.00    -0.014 A 
BRANCH  42  43
ATOM     43  C   UNL     1      -5.243   8.920  -4.654  1.00  0.00     0.031 A 
ATOM     44  C   UNL     1      -6.375   9.778  -5.145  1.00  0.00     0.074 A 
ATOM     45  C   UNL     1      -4.512   8.181  -5.504  1.00  0.00     0.049 A 
ATOM     46  N   UNL     1      -6.872   9.888  -6.348  1.00  0.00    -0.248 NA
ATOM     47  C   UNL     1      -7.041  10.624  -4.138  1.00  0.00     0.031 C 
ATOM     48  C   UNL     1      -3.361   7.359  -5.134  1.00  0.00     0.029 A 
ATOM     49  N   UNL     1      -4.640   7.999  -6.856  1.00  0.00    -0.354 N 
ATOM     50  C   UNL     1      -7.910  10.805  -6.242  1.00  0.00     0.074 A 
ATOM     51  C   UNL     1      -7.996  11.197  -4.853  1.00  0.00     0.031 C 
ATOM     52  C   UNL     1      -2.898   6.742  -6.236  1.00  0.00     0.029 A 
ATOM     53  C   UNL     1      -3.741   7.099  -7.375  1.00  0.00     0.049 A 
ATOM     54  H   UNL     1      -5.312   8.467  -7.402  1.00  0.00     0.167 HD
ATOM     55  C   UNL     1      -8.715  11.282  -7.220  1.00  0.00     0.037 A 
ATOM     56  C   UNL     1      -3.636   6.606  -8.624  1.00  0.00     0.037 A 
ATOM     57  C   UNL     1      -8.620  10.873  -8.596  1.00  0.00     0.049 A 
ATOM     58  C   UNL     1      -4.597   7.090  -9.682  1.00  0.00     0.074 A 
ATOM     59  C   UNL     1      -9.378  11.294  -9.673  1.00  0.00     0.029 A 
ATOM     60  N   UNL     1      -7.716   9.938  -9.082  1.00  0.00    -0.354 N 
ATOM     61  N   UNL     1      -5.566   7.969  -9.578  1.00  0.00    -0.248 NA
ATOM     62  C   UNL     1      -4.447   6.518 -11.027  1.00  0.00     0.031 C 
ATOM     63  C   UNL     1      -8.973  10.570 -10.799  1.00  0.00     0.029 A 
ATOM     64  C   UNL     1      -7.916   9.748 -10.438  1.00  0.00     0.049 A 
ATOM     65  H   UNL     1      -7.034   9.478  -8.542  1.00  0.00     0.167 HD
ATOM     66  C   UNL     1      -6.119   8.081 -10.851  1.00  0.00     0.074 A 
ATOM     67  C   UNL     1      -5.368   7.186 -11.708  1.00  0.00     0.031 C 
ATOM     68  C   UNL     1      -7.149   8.856 -11.274  1.00  0.00     0.037 A 
BRANCH  55  69
ATOM     69  C   UNL     1      -9.782  12.266  -6.827  1.00  0.00     0.058 A 
ATOM     70  C   UNL     1      -9.473  13.572  -6.413  1.00  0.00     0.135 A 
ATOM     71  C   UNL     1     -11.137  11.902  -6.884  1.00  0.00     0.135 A 
ATOM     72  F   UNL     1      -8.193  13.966  -6.316  1.00  0.00    -0.206 F 
ATOM     73  C   UNL     1     -10.467  14.473  -6.045  1.00  0.00     0.059 A 
ATOM     74  C   UNL     1     -12.150  12.797  -6.551  1.00  0.00     0.059 A 
ATOM     75  F   UNL     1     -11.490  10.664  -7.264  1.00  0.00    -0.206 F 
ATOM     76  C   UNL     1     -11.803  14.076  -6.120  1.00  0.00     0.060 A 
BRANCH  76  77
ATOM     77  S   UNL     1     -13.081  15.260  -5.646  1.00  0.00     0.124 S 
ATOM     78  O   UNL     1     -12.892  15.330  -4.200  1.00  0.00    -0.237 OA
ATOM     79  O   UNL     1     -12.693  16.451  -6.394  1.00  0.00    -0.237 OA
ATOM     80  O   UNL     1     -14.318  14.622  -6.085  1.00  0.00    -0.744 OA
ENDBRANCH  76  77
ENDBRANCH  55  69
BRANCH  56  81
ATOM     81  C   UNL     1      -2.594   5.592  -8.941  1.00  0.00     0.058 A 
ATOM     82  C   UNL     1      -1.524   5.895  -9.795  1.00  0.00     0.135 A 
ATOM     83  C   UNL     1      -2.647   4.300  -8.395  1.00  0.00     0.135 A 
ATOM     84  F   UNL     1      -1.433   7.114 -10.350  1.00  0.00    -0.206 F 
ATOM     85  C   UNL     1      -0.552   4.951 -10.110  1.00  0.00     0.059 A 
ATOM     86  C   UNL     1      -1.672   3.347  -8.672  1.00  0.00     0.059 A 
ATOM     87  F   UNL     1      -3.645   3.960  -7.563  1.00  0.00    -0.206 F 
ATOM     88  C   UNL     1      -0.633   3.679  -9.540  1.00  0.00     0.060 A 
BRANCH  88  89
ATOM     89  S   UNL     1       0.659   2.477  -9.920  1.00  0.00     0.124 S 
ATOM     90  O   UNL     1       0.369   2.164 -11.314  1.00  0.00    -0.237 OA
ATOM     91  O   UNL     1       1.873   3.249  -9.676  1.00  0.00    -0.237 OA
ATOM     92  O   UNL     1       0.407   1.401  -8.966  1.00  0.00    -0.744 OA
ENDBRANCH  88  89
ENDBRANCH  56  81
BRANCH  68  93
ATOM     93  C   UNL     1      -7.499   8.808 -12.738  1.00  0.00     0.058 A 
ATOM     94  C   UNL     1      -8.115   7.689 -13.318  1.00  0.00     0.135 A 
ATOM     95  C   UNL     1      -7.269   9.927 -13.556  1.00  0.00     0.135 A 
ATOM     96  F   UNL     1      -8.354   6.591 -12.583  1.00  0.00    -0.206 F 
ATOM     97  C   UNL     1      -8.466   7.670 -14.664  1.00  0.00     0.059 A 
ATOM     98  C   UNL     1      -7.643   9.943 -14.895  1.00  0.00     0.059 A 
ATOM     99  F   UNL     1      -6.696  11.030 -13.049  1.00  0.00    -0.206 F 
ATOM    100  C   UNL     1      -8.230   8.804 -15.444  1.00  0.00     0.060 A 
BRANCH 100 101
ATOM    101  S   UNL     1      -8.724   8.778 -17.180  1.00  0.00     0.124 S 
ATOM    102  O   UNL     1      -7.735   7.871 -17.753  1.00  0.00    -0.237 OA
ATOM    103  O   UNL     1     -10.089   8.265 -17.107  1.00  0.00    -0.237 OA
ATOM    104  O   UNL     1      -8.607  10.175 -17.588  1.00  0.00    -0.744 OA
ENDBRANCH 100 101
ENDBRANCH  68  93
ENDBRANCH  42  43
ENDBRANCH  35  37
ENDBRANCH  34  35
ENDBRANCH  33  34
ENDBRANCH  32  33
ENDBRANCH  31  32
ENDBRANCH  30  31
ENDBRANCH  29  30
ENDBRANCH   1  29
TORSDOF 26
