REMARK SMILES CCn1nc(C(C)C)cc1C(=O)N[C@@H](CC(N)=O)C(=O)OCCOCCOCCOCCOC(=O)c1ccc(-c2c3nc(c(-c4c(F)cc(S(=O)(=O)[O-])cc4F)c4ccc([nH]4)c(-c4c(F)cc(S(=O)(=O)[O-])cc4F)c4nc(c(-c5c(F)cc(S(=O)(=O)[O-])cc5F)c5ccc2[nH]5)C=C4)C=C3)cc1
REMARK SMILES IDX 27 1 26 2 25 3 24 4 23 5 22 6 21 7 19 8 20 9 14 10 13 11
REMARK SMILES IDX 11 12 12 13 10 15 3 16 4 17 5 18 9 19 2 20 1 21 6 22 7 23
REMARK SMILES IDX 8 24 15 25 16 26 17 27 18 28 28 31 29 32 30 33 31 34 32 35
REMARK SMILES IDX 33 36 34 37 35 38 36 39 37 40 101 41 38 42 100 43 39 44
REMARK SMILES IDX 40 45 41 46 94 47 42 48 99 49 93 50 95 51 43 52 98 53 92 54
REMARK SMILES IDX 91 55 44 57 78 58 57 59 77 60 58 61 61 62 76 63 96 64 59 65
REMARK SMILES IDX 60 66 75 68 97 69 62 70 45 71 46 72 55 73 47 74 48 75 54 76
REMARK SMILES IDX 56 77 49 78 50 79 51 80 52 81 53 82 79 83 80 84 89 85 81 86
REMARK SMILES IDX 82 87 88 88 90 89 83 90 84 91 85 92 86 93 87 94 63 95 64 96
REMARK SMILES IDX 73 97 65 98 66 99 72 100 74 101 67 102 68 103 69 104 70 105
REMARK SMILES IDX 71 106
REMARK H PARENT 13 14 17 29 17 30 95 56 61 67
REMARK Flexibility Score: inf
ROOT
ATOM      1  O   UNL     1       1.151   0.262  -6.202  1.00  0.00    -0.377 OA
ENDROOT
BRANCH   1   2
ATOM      2  C   UNL     1       0.758   1.022  -5.075  1.00  0.00     0.188 C 
BRANCH   2   3
ATOM      3  C   UNL     1       0.385   2.497  -5.361  1.00  0.00     0.188 C 
BRANCH   3   4
ATOM      4  O   UNL     1       0.282   3.002  -6.691  1.00  0.00    -0.376 OA
BRANCH   4   5
ATOM      5  C   UNL     1       1.127   2.485  -7.706  1.00  0.00     0.202 C 
BRANCH   5   6
ATOM      6  C   UNL     1       2.646   2.476  -7.476  1.00  0.00     0.261 C 
BRANCH   6   7
ATOM      7  O   UNL     1       3.065   2.240  -6.116  1.00  0.00    -0.462 OA
BRANCH   7   8
ATOM      8  C   UNL     1       3.538   3.303  -5.424  1.00  0.00     0.329 C 
ATOM      9  O   UNL     1       3.732   4.412  -5.916  1.00  0.00    -0.250 OA
BRANCH   8  10
ATOM     10  C   UNL     1       3.996   2.963  -3.983  1.00  0.00     0.201 C 
BRANCH  10  11
ATOM     11  N   UNL     1       3.491   1.765  -3.288  1.00  0.00    -0.337 N 
ATOM     12  C   UNL     1       2.676   1.531  -2.197  1.00  0.00     0.270 C 
ATOM     13  O   UNL     1       2.685   0.365  -1.810  1.00  0.00    -0.268 OA
ATOM     14  H   UNL     1       3.811   0.931  -3.701  1.00  0.00     0.164 HD
BRANCH  12  15
ATOM     15  C   UNL     1       1.865   2.562  -1.573  1.00  0.00     0.126 A 
ATOM     16  N   UNL     1       1.109   2.462  -0.404  1.00  0.00    -0.260 N 
ATOM     17  N   UNL     1       0.673   3.679   0.032  1.00  0.00    -0.177 NA
ATOM     18  C   UNL     1       0.960   4.523  -0.951  1.00  0.00     0.066 A 
ATOM     19  C   UNL     1       1.602   3.856  -2.004  1.00  0.00     0.059 A 
BRANCH  16  20
ATOM     20  C   UNL     1       0.653   1.371   0.445  1.00  0.00     0.142 C 
ATOM     21  C   UNL     1       0.843  -0.094   0.113  1.00  0.00     0.029 C 
ENDBRANCH  16  20
BRANCH  18  22
ATOM     22  C   UNL     1       0.647   5.987  -0.864  1.00  0.00     0.034 C 
ATOM     23  C   UNL     1      -0.855   6.263  -0.885  1.00  0.00     0.014 C 
ATOM     24  C   UNL     1       1.309   6.638   0.353  1.00  0.00     0.014 C 
ENDBRANCH  18  22
ENDBRANCH  12  15
ENDBRANCH  10  11
BRANCH  10  25
ATOM     25  C   UNL     1       5.525   2.934  -4.024  1.00  0.00     0.136 C 
BRANCH  25  26
ATOM     26  C   UNL     1       6.008   1.827  -4.928  1.00  0.00     0.220 C 
ATOM     27  N   UNL     1       6.333   2.195  -6.198  1.00  0.00    -0.370 N 
ATOM     28  O   UNL     1       6.053   0.655  -4.575  1.00  0.00    -0.275 OA
ATOM     29  H   UNL     1       6.291   3.142  -6.462  1.00  0.00     0.159 HD
ATOM     30  H   UNL     1       6.609   1.514  -6.852  1.00  0.00     0.159 HD
ENDBRANCH  25  26
ENDBRANCH  10  25
ENDBRANCH   8  10
ENDBRANCH   7   8
ENDBRANCH   6   7
ENDBRANCH   5   6
ENDBRANCH   4   5
ENDBRANCH   3   4
ENDBRANCH   2   3
ENDBRANCH   1   2
BRANCH   1  31
ATOM     31  C   UNL     1       0.174  -0.659  -6.667  1.00  0.00     0.188 C 
BRANCH  31  32
ATOM     32  C   UNL     1      -1.246  -0.088  -6.903  1.00  0.00     0.188 C 
BRANCH  32  33
ATOM     33  O   UNL     1      -1.717   0.790  -5.882  1.00  0.00    -0.376 OA
BRANCH  33  34
ATOM     34  C   UNL     1      -2.658   0.378  -4.899  1.00  0.00     0.202 C 
BRANCH  34  35
ATOM     35  C   UNL     1      -2.228  -0.667  -3.866  1.00  0.00     0.261 C 
BRANCH  35  36
ATOM     36  O   UNL     1      -1.522  -1.753  -4.427  1.00  0.00    -0.460 OA
BRANCH  36  37
ATOM     37  C   UNL     1      -2.233  -2.476  -5.316  1.00  0.00     0.338 C 
ATOM     38  O   UNL     1      -3.357  -2.261  -5.716  1.00  0.00    -0.246 OA
BRANCH  37  39
ATOM     39  C   UNL     1      -1.421  -3.629  -5.705  1.00  0.00     0.060 A 
ATOM     40  C   UNL     1      -1.918  -4.388  -6.765  1.00  0.00     0.016 A 
ATOM     41  C   UNL     1      -0.514  -4.122  -4.762  1.00  0.00     0.016 A 
ATOM     42  C   UNL     1      -1.797  -5.747  -6.662  1.00  0.00     0.010 A 
ATOM     43  C   UNL     1      -0.425  -5.475  -4.642  1.00  0.00     0.010 A 
ATOM     44  C   UNL     1      -1.176  -6.253  -5.520  1.00  0.00    -0.014 A 
BRANCH  44  45
ATOM     45  C   UNL     1      -1.305  -7.657  -5.231  1.00  0.00     0.031 A 
ATOM     46  C   UNL     1      -0.275  -8.438  -5.935  1.00  0.00     0.074 A 
ATOM     47  C   UNL     1      -2.183  -8.091  -4.307  1.00  0.00     0.049 A 
ATOM     48  N   UNL     1      -0.419  -9.133  -7.014  1.00  0.00    -0.248 NA
ATOM     49  C   UNL     1       1.131  -8.166  -5.581  1.00  0.00     0.031 C 
ATOM     50  C   UNL     1      -3.014  -7.296  -3.394  1.00  0.00     0.029 A 
ATOM     51  N   UNL     1      -2.427  -9.364  -3.907  1.00  0.00    -0.354 N 
ATOM     52  C   UNL     1       0.854  -9.624  -7.273  1.00  0.00     0.074 A 
ATOM     53  C   UNL     1       1.763  -8.739  -6.606  1.00  0.00     0.031 C 
ATOM     54  C   UNL     1      -3.477  -8.095  -2.404  1.00  0.00     0.029 A 
ATOM     55  C   UNL     1      -3.080  -9.463  -2.678  1.00  0.00     0.049 A 
ATOM     56  H   UNL     1      -2.166 -10.151  -4.438  1.00  0.00     0.167 HD
ATOM     57  C   UNL     1       1.031 -10.918  -7.657  1.00  0.00     0.037 A 
ATOM     58  C   UNL     1      -3.150 -10.598  -1.931  1.00  0.00     0.037 A 
ATOM     59  C   UNL     1      -0.211 -11.480  -8.134  1.00  0.00     0.049 A 
ATOM     60  C   UNL     1      -2.847 -11.731  -2.858  1.00  0.00     0.074 A 
ATOM     61  C   UNL     1      -1.108 -11.145  -9.131  1.00  0.00     0.029 A 
ATOM     62  N   UNL     1      -0.889 -12.322  -7.283  1.00  0.00    -0.354 N 
ATOM     63  N   UNL     1      -3.616 -12.068  -3.861  1.00  0.00    -0.248 NA
ATOM     64  C   UNL     1      -1.453 -12.136  -2.984  1.00  0.00     0.031 C 
ATOM     65  C   UNL     1      -2.395 -11.428  -8.586  1.00  0.00     0.029 A 
ATOM     66  C   UNL     1      -2.219 -11.991  -7.321  1.00  0.00     0.049 A 
ATOM     67  H   UNL     1      -0.488 -13.038  -6.739  1.00  0.00     0.167 HD
ATOM     68  C   UNL     1      -2.744 -12.340  -4.908  1.00  0.00     0.074 A 
ATOM     69  C   UNL     1      -1.422 -12.419  -4.290  1.00  0.00     0.031 C 
ATOM     70  C   UNL     1      -3.128 -12.177  -6.210  1.00  0.00     0.037 A 
BRANCH  57  71
ATOM     71  C   UNL     1       2.185 -11.781  -7.187  1.00  0.00     0.058 A 
ATOM     72  C   UNL     1       2.311 -13.074  -7.731  1.00  0.00     0.135 A 
ATOM     73  C   UNL     1       2.997 -11.524  -6.056  1.00  0.00     0.135 A 
ATOM     74  F   UNL     1       1.601 -13.432  -8.814  1.00  0.00    -0.206 F 
ATOM     75  C   UNL     1       3.100 -14.060  -7.141  1.00  0.00     0.059 A 
ATOM     76  C   UNL     1       3.832 -12.473  -5.486  1.00  0.00     0.059 A 
ATOM     77  F   UNL     1       2.973 -10.374  -5.375  1.00  0.00    -0.206 F 
ATOM     78  C   UNL     1       3.842 -13.752  -6.005  1.00  0.00     0.060 A 
BRANCH  78  79
ATOM     79  S   UNL     1       4.781 -15.041  -5.177  1.00  0.00     0.124 S 
ATOM     80  O   UNL     1       3.713 -15.886  -4.657  1.00  0.00    -0.237 OA
ATOM     81  O   UNL     1       5.561 -15.595  -6.279  1.00  0.00    -0.237 OA
ATOM     82  O   UNL     1       5.551 -14.306  -4.178  1.00  0.00    -0.744 OA
ENDBRANCH  78  79
ENDBRANCH  57  71
BRANCH  58  83
ATOM     83  C   UNL     1      -3.033 -10.720  -0.450  1.00  0.00     0.058 A 
ATOM     84  C   UNL     1      -3.325 -11.928   0.211  1.00  0.00     0.135 A 
ATOM     85  C   UNL     1      -2.368  -9.744   0.320  1.00  0.00     0.135 A 
ATOM     86  F   UNL     1      -3.935 -12.925  -0.448  1.00  0.00    -0.206 F 
ATOM     87  C   UNL     1      -2.941 -12.170   1.538  1.00  0.00     0.059 A 
ATOM     88  C   UNL     1      -1.984  -9.958   1.644  1.00  0.00     0.059 A 
ATOM     89  F   UNL     1      -1.984  -8.578  -0.219  1.00  0.00    -0.206 F 
ATOM     90  C   UNL     1      -2.252 -11.182   2.241  1.00  0.00     0.060 A 
BRANCH  90  91
ATOM     91  S   UNL     1      -1.604 -11.541   3.893  1.00  0.00     0.124 S 
ATOM     92  O   UNL     1      -2.826 -11.630   4.684  1.00  0.00    -0.237 OA
ATOM     93  O   UNL     1      -0.889 -12.794   3.680  1.00  0.00    -0.237 OA
ATOM     94  O   UNL     1      -0.757 -10.386   4.183  1.00  0.00    -0.744 OA
ENDBRANCH  90  91
ENDBRANCH  58  83
BRANCH  70  95
ATOM     95  C   UNL     1      -4.593 -11.977  -6.504  1.00  0.00     0.058 A 
ATOM     96  C   UNL     1      -5.344 -10.854  -6.108  1.00  0.00     0.135 A 
ATOM     97  C   UNL     1      -5.214 -12.888  -7.370  1.00  0.00     0.135 A 
ATOM     98  F   UNL     1      -4.791  -9.885  -5.364  1.00  0.00    -0.206 F 
ATOM     99  C   UNL     1      -6.664 -10.668  -6.527  1.00  0.00     0.059 A 
ATOM    100  C   UNL     1      -6.516 -12.707  -7.826  1.00  0.00     0.059 A 
ATOM    101  F   UNL     1      -4.529 -13.946  -7.835  1.00  0.00    -0.206 F 
ATOM    102  C   UNL     1      -7.241 -11.601  -7.390  1.00  0.00     0.060 A 
BRANCH 102 103
ATOM    103  S   UNL     1      -8.923 -11.330  -7.992  1.00  0.00     0.124 S 
ATOM    104  O   UNL     1      -9.719 -11.556  -6.790  1.00  0.00    -0.237 OA
ATOM    105  O   UNL     1      -8.871  -9.951  -8.469  1.00  0.00    -0.237 OA
ATOM    106  O   UNL     1      -9.076 -12.336  -9.040  1.00  0.00    -0.744 OA
ENDBRANCH 102 103
ENDBRANCH  70  95
ENDBRANCH  44  45
ENDBRANCH  37  39
ENDBRANCH  36  37
ENDBRANCH  35  36
ENDBRANCH  34  35
ENDBRANCH  33  34
ENDBRANCH  32  33
ENDBRANCH  31  32
ENDBRANCH   1  31
TORSDOF 29
