REMARK SMILES O=C(NC1(C(=O)OCCOCCOCCOCCOC(=O)c2ccc(-c3c4nc(c(-c5c(F)cc(S(=O)(=O)[O-])cc5F)c5ccc([nH]5)c(-c5c(F)cc(S(=O)(=O)[O-])cc5F)c5nc(c(-c6c(F)cc(S(=O)(=O)[O-])cc6F)c6ccc3[nH]6)C=C5)C=C4)cc2)Cc2ccccc2C1)OCC1c2ccccc2-c2ccccc21
REMARK SMILES IDX 12 1 11 2 10 3 9 4 8 5 7 6 5 7 6 8 4 9 88 10 95 11 89 12
REMARK SMILES IDX 94 13 90 14 93 15 91 16 92 17 3 18 1 19 2 20 96 22 97 23
REMARK SMILES IDX 98 24 99 25 110 26 100 27 104 28 105 29 109 30 101 31 103 32
REMARK SMILES IDX 106 33 108 34 102 35 107 36 13 37 14 38 15 39 16 40 17 41
REMARK SMILES IDX 18 42 19 43 20 44 21 45 22 46 23 47 87 48 24 49 86 50 25 51
REMARK SMILES IDX 26 52 27 53 80 54 28 55 85 56 79 57 81 58 29 59 84 60 78 61
REMARK SMILES IDX 77 62 30 64 64 65 43 66 63 67 44 68 47 69 62 70 82 71 45 72
REMARK SMILES IDX 46 73 61 75 83 76 48 77 31 78 32 79 41 80 33 81 34 82 40 83
REMARK SMILES IDX 42 84 35 85 36 86 37 87 38 88 39 89 65 90 66 91 75 92 67 93
REMARK SMILES IDX 68 94 74 95 76 96 69 97 70 98 71 99 72 100 73 101 49 102
REMARK SMILES IDX 50 103 59 104 51 105 52 106 58 107 60 108 53 109 54 110
REMARK SMILES IDX 55 111 56 112 57 113
REMARK H PARENT 3 21 81 63 47 74
REMARK Flexibility Score: inf
ROOT
ATOM      1  C   UNL     1       2.696   3.882  -2.615  1.00  0.00     0.188 C 
ENDROOT
BRANCH   1   2
ATOM      2  C   UNL     1       2.861   4.878  -1.443  1.00  0.00     0.188 C 
BRANCH   2   3
ATOM      3  O   UNL     1       3.413   4.293  -0.259  1.00  0.00    -0.376 OA
BRANCH   3   4
ATOM      4  C   UNL     1       3.401   5.163   0.878  1.00  0.00     0.202 C 
BRANCH   4   5
ATOM      5  C   UNL     1       4.505   4.840   1.903  1.00  0.00     0.261 C 
BRANCH   5   6
ATOM      6  O   UNL     1       4.948   3.479   1.897  1.00  0.00    -0.461 OA
BRANCH   6   7
ATOM      7  C   UNL     1       4.144   2.526   2.423  1.00  0.00     0.332 C 
ATOM      8  O   UNL     1       3.068   2.758   2.967  1.00  0.00    -0.249 OA
BRANCH   7   9
ATOM      9  C   UNL     1       4.754   1.112   2.275  1.00  0.00     0.149 C 
ATOM     10  C   UNL     1       5.122   0.575   3.713  1.00  0.00     0.076 C 
ATOM     11  C   UNL     1       6.115   1.090   1.558  1.00  0.00     0.076 C 
ATOM     12  C   UNL     1       6.403  -0.193   3.501  1.00  0.00    -0.042 A 
ATOM     13  C   UNL     1       6.866  -0.012   2.207  1.00  0.00    -0.042 A 
ATOM     14  C   UNL     1       7.173  -0.922   4.388  1.00  0.00     0.004 A 
ATOM     15  C   UNL     1       7.986  -0.651   1.702  1.00  0.00     0.004 A 
ATOM     16  C   UNL     1       8.355  -1.522   3.920  1.00  0.00     0.000 A 
ATOM     17  C   UNL     1       8.735  -1.425   2.573  1.00  0.00     0.000 A 
BRANCH   9  18
ATOM     18  N   UNL     1       3.704   0.257   1.641  1.00  0.00    -0.305 N 
ATOM     19  O   UNL     1       2.403  -0.585  -0.010  1.00  0.00    -0.225 OA
ATOM     20  C   UNL     1       3.386   0.078   0.326  1.00  0.00     0.408 C 
ATOM     21  H   UNL     1       3.153  -0.259   2.274  1.00  0.00     0.168 HD
BRANCH  20  22
ATOM     22  O   UNL     1       4.195   0.690  -0.563  1.00  0.00    -0.449 OA
BRANCH  22  23
ATOM     23  C   UNL     1       5.055  -0.192  -1.321  1.00  0.00     0.248 C 
BRANCH  23  24
ATOM     24  C   UNL     1       6.162   0.578  -2.106  1.00  0.00     0.088 C 
ATOM     25  C   UNL     1       7.496  -0.169  -2.265  1.00  0.00    -0.029 A 
ATOM     26  C   UNL     1       6.681   1.924  -1.590  1.00  0.00    -0.029 A 
ATOM     27  C   UNL     1       7.740  -1.507  -2.521  1.00  0.00     0.005 A 
ATOM     28  C   UNL     1       8.580   0.727  -2.072  1.00  0.00    -0.014 A 
ATOM     29  C   UNL     1       8.069   2.022  -1.712  1.00  0.00    -0.014 A 
ATOM     30  C   UNL     1       5.989   2.990  -1.067  1.00  0.00     0.005 A 
ATOM     31  C   UNL     1       9.073  -1.939  -2.557  1.00  0.00     0.000 A 
ATOM     32  C   UNL     1       9.896   0.302  -2.112  1.00  0.00     0.009 A 
ATOM     33  C   UNL     1       8.734   3.209  -1.433  1.00  0.00     0.009 A 
ATOM     34  C   UNL     1       6.646   4.192  -0.787  1.00  0.00     0.000 A 
ATOM     35  C   UNL     1      10.139  -1.046  -2.353  1.00  0.00     0.001 A 
ATOM     36  C   UNL     1       8.012   4.316  -1.001  1.00  0.00     0.001 A 
ENDBRANCH  23  24
ENDBRANCH  22  23
ENDBRANCH  20  22
ENDBRANCH   9  18
ENDBRANCH   7   9
ENDBRANCH   6   7
ENDBRANCH   5   6
ENDBRANCH   4   5
ENDBRANCH   3   4
ENDBRANCH   2   3
ENDBRANCH   1   2
BRANCH   1  37
ATOM     37  O   UNL     1       3.844   3.259  -3.177  1.00  0.00    -0.377 OA
BRANCH  37  38
ATOM     38  C   UNL     1       4.914   4.042  -3.695  1.00  0.00     0.188 C 
BRANCH  38  39
ATOM     39  C   UNL     1       4.652   5.033  -4.823  1.00  0.00     0.188 C 
BRANCH  39  40
ATOM     40  O   UNL     1       4.051   4.617  -6.041  1.00  0.00    -0.376 OA
BRANCH  40  41
ATOM     41  C   UNL     1       3.912   3.231  -6.306  1.00  0.00     0.202 C 
BRANCH  41  42
ATOM     42  C   UNL     1       5.094   2.546  -7.005  1.00  0.00     0.261 C 
BRANCH  42  43
ATOM     43  O   UNL     1       6.339   2.588  -6.285  1.00  0.00    -0.460 OA
BRANCH  43  44
ATOM     44  C   UNL     1       7.212   3.526  -6.722  1.00  0.00     0.338 C 
ATOM     45  O   UNL     1       6.998   4.379  -7.574  1.00  0.00    -0.246 OA
BRANCH  44  46
ATOM     46  C   UNL     1       8.512   3.442  -6.020  1.00  0.00     0.060 A 
ATOM     47  C   UNL     1       9.070   4.634  -5.543  1.00  0.00     0.016 A 
ATOM     48  C   UNL     1       9.267   2.265  -6.008  1.00  0.00     0.016 A 
ATOM     49  C   UNL     1      10.401   4.669  -5.115  1.00  0.00     0.010 A 
ATOM     50  C   UNL     1      10.607   2.304  -5.587  1.00  0.00     0.010 A 
ATOM     51  C   UNL     1      11.197   3.517  -5.187  1.00  0.00    -0.014 A 
BRANCH  51  52
ATOM     52  C   UNL     1      12.680   3.639  -5.068  1.00  0.00     0.031 A 
ATOM     53  C   UNL     1      13.493   3.791  -6.327  1.00  0.00     0.074 A 
ATOM     54  C   UNL     1      13.309   3.662  -3.878  1.00  0.00     0.049 A 
ATOM     55  N   UNL     1      14.790   3.890  -6.470  1.00  0.00    -0.248 NA
ATOM     56  C   UNL     1      12.742   3.844  -7.591  1.00  0.00     0.031 C 
ATOM     57  C   UNL     1      12.647   3.588  -2.584  1.00  0.00     0.029 A 
ATOM     58  N   UNL     1      14.643   3.751  -3.561  1.00  0.00    -0.354 N 
ATOM     59  C   UNL     1      15.011   4.016  -7.836  1.00  0.00     0.074 A 
ATOM     60  C   UNL     1      13.717   3.955  -8.481  1.00  0.00     0.031 C 
ATOM     61  C   UNL     1      13.569   3.614  -1.607  1.00  0.00     0.029 A 
ATOM     62  C   UNL     1      14.898   3.685  -2.210  1.00  0.00     0.049 A 
ATOM     63  H   UNL     1      15.351   3.853  -4.237  1.00  0.00     0.167 HD
ATOM     64  C   UNL     1      16.183   4.174  -8.496  1.00  0.00     0.037 A 
ATOM     65  C   UNL     1      16.067   3.666  -1.536  1.00  0.00     0.037 A 
ATOM     66  C   UNL     1      17.474   4.229  -7.862  1.00  0.00     0.049 A 
ATOM     67  C   UNL     1      17.364   3.759  -2.298  1.00  0.00     0.074 A 
ATOM     68  C   UNL     1      18.716   4.389  -8.453  1.00  0.00     0.029 A 
ATOM     69  N   UNL     1      17.694   4.118  -6.497  1.00  0.00    -0.354 N 
ATOM     70  N   UNL     1      17.554   3.890  -3.589  1.00  0.00    -0.248 NA
ATOM     71  C   UNL     1      18.607   3.702  -1.512  1.00  0.00     0.031 C 
ATOM     72  C   UNL     1      19.690   4.327  -7.451  1.00  0.00     0.029 A 
ATOM     73  C   UNL     1      19.052   4.180  -6.230  1.00  0.00     0.049 A 
ATOM     74  H   UNL     1      16.989   4.011  -5.819  1.00  0.00     0.167 HD
ATOM     75  C   UNL     1      18.933   3.961  -3.766  1.00  0.00     0.074 A 
ATOM     76  C   UNL     1      19.530   3.866  -2.451  1.00  0.00     0.031 C 
ATOM     77  C   UNL     1      19.639   4.096  -4.916  1.00  0.00     0.037 A 
BRANCH  64  78
ATOM     78  C   UNL     1      16.123   4.266  -9.994  1.00  0.00     0.058 A 
ATOM     79  C   UNL     1      15.641   5.412 -10.645  1.00  0.00     0.135 A 
ATOM     80  C   UNL     1      16.576   3.201 -10.789  1.00  0.00     0.135 A 
ATOM     81  F   UNL     1      15.178   6.451  -9.931  1.00  0.00    -0.206 F 
ATOM     82  C   UNL     1      15.586   5.489 -12.033  1.00  0.00     0.059 A 
ATOM     83  C   UNL     1      16.554   3.266 -12.178  1.00  0.00     0.059 A 
ATOM     84  F   UNL     1      17.044   2.081 -10.215  1.00  0.00    -0.206 F 
ATOM     85  C   UNL     1      16.044   4.410 -12.790  1.00  0.00     0.060 A 
BRANCH  85  86
ATOM     86  S   UNL     1      15.967   4.523 -14.590  1.00  0.00     0.124 S 
ATOM     87  O   UNL     1      14.536   4.366 -14.831  1.00  0.00    -0.237 OA
ATOM     88  O   UNL     1      16.509   5.854 -14.843  1.00  0.00    -0.237 OA
ATOM     89  O   UNL     1      16.803   3.413 -15.037  1.00  0.00    -0.744 OA
ENDBRANCH  85  86
ENDBRANCH  64  78
BRANCH  65  90
ATOM     90  C   UNL     1      16.075   3.532  -0.052  1.00  0.00     0.058 A 
ATOM     91  C   UNL     1      16.493   4.587   0.772  1.00  0.00     0.135 A 
ATOM     92  C   UNL     1      15.690   2.333   0.569  1.00  0.00     0.135 A 
ATOM     93  F   UNL     1      16.886   5.748   0.227  1.00  0.00    -0.206 F 
ATOM     94  C   UNL     1      16.547   4.455   2.157  1.00  0.00     0.059 A 
ATOM     95  C   UNL     1      15.711   2.185   1.952  1.00  0.00     0.059 A 
ATOM     96  F   UNL     1      15.276   1.294  -0.173  1.00  0.00    -0.206 F 
ATOM     97  C   UNL     1      16.152   3.249   2.738  1.00  0.00     0.060 A 
BRANCH  97  98
ATOM     98  S   UNL     1      16.187   3.099   4.538  1.00  0.00     0.124 S 
ATOM     99  O   UNL     1      17.618   2.990   4.796  1.00  0.00    -0.237 OA
ATOM    100  O   UNL     1      15.555   4.345   4.961  1.00  0.00    -0.237 OA
ATOM    101  O   UNL     1      15.405   1.892   4.789  1.00  0.00    -0.744 OA
ENDBRANCH  97  98
ENDBRANCH  65  90
BRANCH  77 102
ATOM    102  C   UNL     1      21.137   4.189  -4.812  1.00  0.00     0.058 A 
ATOM    103  C   UNL     1      21.929   3.069  -4.516  1.00  0.00     0.135 A 
ATOM    104  C   UNL     1      21.793   5.403  -5.076  1.00  0.00     0.135 A 
ATOM    105  F   UNL     1      21.354   1.886  -4.250  1.00  0.00    -0.206 F 
ATOM    106  C   UNL     1      23.318   3.153  -4.467  1.00  0.00     0.059 A 
ATOM    107  C   UNL     1      23.181   5.504  -5.058  1.00  0.00     0.059 A 
ATOM    108  F   UNL     1      21.084   6.503  -5.375  1.00  0.00    -0.206 F 
ATOM    109  C   UNL     1      23.935   4.375  -4.742  1.00  0.00     0.060 A 
BRANCH 109 110
ATOM    110  S   UNL     1      25.739   4.463  -4.715  1.00  0.00     0.124 S 
ATOM    111  O   UNL     1      26.013   4.437  -3.282  1.00  0.00    -0.237 OA
ATOM    112  O   UNL     1      26.122   3.264  -5.455  1.00  0.00    -0.237 OA
ATOM    113  O   UNL     1      26.028   5.726  -5.387  1.00  0.00    -0.744 OA
ENDBRANCH 109 110
ENDBRANCH  77 102
ENDBRANCH  51  52
ENDBRANCH  44  46
ENDBRANCH  43  44
ENDBRANCH  42  43
ENDBRANCH  41  42
ENDBRANCH  40  41
ENDBRANCH  39  40
ENDBRANCH  38  39
ENDBRANCH  37  38
ENDBRANCH   1  37
TORSDOF 27
