REMARK SMILES COc1cc(Cl)c(C)cc1N1C(=O)C[C@H](Nc2cc(C(=O)OCCOCCOCCOCCOC(=O)c3ccc(-c4c5nc(c(-c6c(F)cc(S(=O)(=O)[O-])cc6F)c6ccc([nH]6)c(-c6c(F)cc(S(=O)(=O)[O-])cc6F)c6nc(c(-c7c(F)cc(S(=O)(=O)[O-])cc7F)c7ccc4[nH]7)C=C6)C=C5)cc3)ccc2C)C1=O
REMARK SMILES IDX 27 1 26 2 25 3 24 4 23 5 22 6 20 7 21 8 19 9 17 10 18 11
REMARK SMILES IDX 105 12 104 13 106 14 103 15 16 16 15 18 11 19 12 20 107 21
REMARK SMILES IDX 13 22 14 23 108 24 10 25 3 26 4 27 5 28 9 29 6 30 7 31 8 32
REMARK SMILES IDX 2 33 1 34 28 35 29 36 30 37 31 38 32 39 33 40 34 41 35 42
REMARK SMILES IDX 36 43 37 44 38 45 102 46 39 47 101 48 40 49 41 50 42 51
REMARK SMILES IDX 95 52 43 53 100 54 94 55 96 56 44 57 99 58 93 59 92 60 45 62
REMARK SMILES IDX 79 63 58 64 78 65 59 66 62 67 77 68 97 69 60 70 61 71 76 73
REMARK SMILES IDX 98 74 63 75 46 76 47 77 56 78 48 79 49 80 55 81 57 82 50 83
REMARK SMILES IDX 51 84 52 85 53 86 54 87 80 88 81 89 90 90 82 91 83 92 89 93
REMARK SMILES IDX 91 94 84 95 85 96 86 97 87 98 88 99 64 100 65 101 74 102
REMARK SMILES IDX 66 103 67 104 73 105 75 106 68 107 69 108 70 109 71 110
REMARK SMILES IDX 72 111
REMARK H PARENT 16 17 96 61 62 72
REMARK Flexibility Score: inf
ROOT
ATOM      1  C   UNL     1       6.971  -5.787   3.222  1.00  0.00     0.188 C 
ENDROOT
BRANCH   1   2
ATOM      2  C   UNL     1       7.843  -5.269   4.382  1.00  0.00     0.188 C 
BRANCH   2   3
ATOM      3  O   UNL     1       7.580  -5.678   5.717  1.00  0.00    -0.376 OA
BRANCH   3   4
ATOM      4  C   UNL     1       6.254  -5.543   6.199  1.00  0.00     0.202 C 
BRANCH   4   5
ATOM      5  C   UNL     1       5.462  -4.253   6.004  1.00  0.00     0.261 C 
BRANCH   5   6
ATOM      6  O   UNL     1       5.822  -3.385   4.940  1.00  0.00    -0.460 OA
BRANCH   6   7
ATOM      7  C   UNL     1       6.391  -2.213   5.267  1.00  0.00     0.338 C 
ATOM      8  O   UNL     1       6.646  -1.767   6.365  1.00  0.00    -0.246 OA
BRANCH   7   9
ATOM      9  C   UNL     1       6.932  -1.681   4.005  1.00  0.00     0.062 A 
ATOM     10  C   UNL     1       6.804  -1.350   1.596  1.00  0.00     0.038 A 
ATOM     11  C   UNL     1       6.194  -1.685   2.813  1.00  0.00     0.041 A 
ATOM     12  C   UNL     1       8.191  -1.086   1.596  1.00  0.00    -0.028 A 
ATOM     13  C   UNL     1       8.915  -1.083   2.804  1.00  0.00     0.006 A 
ATOM     14  C   UNL     1       8.968  -0.790   0.344  1.00  0.00     0.046 C 
ATOM     15  C   UNL     1       8.286  -1.360   4.008  1.00  0.00     0.016 A 
BRANCH  10  16
ATOM     16  N   UNL     1       6.102  -1.487   0.393  1.00  0.00    -0.373 N 
ATOM     17  H   UNL     1       6.458  -2.047  -0.335  1.00  0.00     0.161 HD
BRANCH  16  18
ATOM     18  C   UNL     1       4.822  -0.778   0.236  1.00  0.00     0.179 C 
ATOM     19  N   UNL     1       3.342  -0.858  -1.585  1.00  0.00    -0.245 N 
ATOM     20  C   UNL     1       4.065   0.288  -1.769  1.00  0.00     0.236 C 
ATOM     21  C   UNL     1       3.811  -1.613  -0.539  1.00  0.00     0.256 C 
ATOM     22  O   UNL     1       3.962   1.099  -2.682  1.00  0.00    -0.274 OA
ATOM     23  C   UNL     1       5.015   0.462  -0.624  1.00  0.00     0.136 C 
ATOM     24  O   UNL     1       3.582  -2.793  -0.311  1.00  0.00    -0.272 OA
BRANCH  19  25
ATOM     25  C   UNL     1       2.301  -1.274  -2.440  1.00  0.00     0.094 A 
ATOM     26  C   UNL     1       1.025  -1.572  -1.938  1.00  0.00     0.144 A 
ATOM     27  C   UNL     1       0.010  -2.007  -2.793  1.00  0.00     0.069 A 
ATOM     28  C   UNL     1       0.255  -2.134  -4.161  1.00  0.00     0.047 A 
ATOM     29  C   UNL     1       2.529  -1.385  -3.820  1.00  0.00     0.035 A 
ATOM     30  Cl  UNL     1      -1.049  -2.641  -5.176  1.00  0.00    -0.084 Cl
ATOM     31  C   UNL     1       1.522  -1.843  -4.690  1.00  0.00    -0.030 A 
ATOM     32  C   UNL     1       1.834  -2.027  -6.148  1.00  0.00     0.046 C 
BRANCH  26  33
ATOM     33  O   UNL     1       0.693  -1.456  -0.615  1.00  0.00    -0.495 OA
ATOM     34  C   UNL     1       0.640  -0.103  -0.169  1.00  0.00     0.278 C 
ENDBRANCH  26  33
ENDBRANCH  19  25
ENDBRANCH  16  18
ENDBRANCH  10  16
ENDBRANCH   7   9
ENDBRANCH   6   7
ENDBRANCH   5   6
ENDBRANCH   4   5
ENDBRANCH   3   4
ENDBRANCH   2   3
ENDBRANCH   1   2
BRANCH   1  35
ATOM     35  O   UNL     1       5.575  -5.626   3.426  1.00  0.00    -0.377 OA
BRANCH  35  36
ATOM     36  C   UNL     1       4.756  -6.510   2.663  1.00  0.00     0.188 C 
BRANCH  36  37
ATOM     37  C   UNL     1       4.725  -7.966   3.167  1.00  0.00     0.188 C 
BRANCH  37  38
ATOM     38  O   UNL     1       5.507  -8.168   4.341  1.00  0.00    -0.376 OA
BRANCH  38  39
ATOM     39  C   UNL     1       6.546  -9.137   4.266  1.00  0.00     0.202 C 
BRANCH  39  40
ATOM     40  C   UNL     1       6.037 -10.577   4.181  1.00  0.00     0.261 C 
BRANCH  40  41
ATOM     41  O   UNL     1       5.309 -10.904   5.375  1.00  0.00    -0.460 OA
BRANCH  41  42
ATOM     42  C   UNL     1       3.958 -10.922   5.202  1.00  0.00     0.338 C 
ATOM     43  O   UNL     1       3.377 -11.681   4.446  1.00  0.00    -0.246 OA
BRANCH  42  44
ATOM     44  C   UNL     1       3.344  -9.802   5.970  1.00  0.00     0.060 A 
ATOM     45  C   UNL     1       2.083  -9.304   5.614  1.00  0.00     0.016 A 
ATOM     46  C   UNL     1       4.116  -9.103   6.893  1.00  0.00     0.016 A 
ATOM     47  C   UNL     1       1.651  -8.047   6.086  1.00  0.00     0.010 A 
ATOM     48  C   UNL     1       3.707  -7.846   7.308  1.00  0.00     0.010 A 
ATOM     49  C   UNL     1       2.487  -7.275   6.898  1.00  0.00    -0.014 A 
BRANCH  49  50
ATOM     50  C   UNL     1       2.302  -5.840   7.236  1.00  0.00     0.031 A 
ATOM     51  C   UNL     1       2.741  -5.329   8.592  1.00  0.00     0.074 A 
ATOM     52  C   UNL     1       2.071  -4.917   6.259  1.00  0.00     0.049 A 
ATOM     53  N   UNL     1       2.896  -4.080   8.873  1.00  0.00    -0.248 NA
ATOM     54  C   UNL     1       3.064  -6.158   9.757  1.00  0.00     0.031 C 
ATOM     55  C   UNL     1       2.566  -3.531   6.291  1.00  0.00     0.029 A 
ATOM     56  N   UNL     1       1.510  -4.989   4.983  1.00  0.00    -0.354 N 
ATOM     57  C   UNL     1       3.634  -3.942  10.019  1.00  0.00     0.074 A 
ATOM     58  C   UNL     1       3.625  -5.266  10.589  1.00  0.00     0.031 C 
ATOM     59  C   UNL     1       2.312  -2.894   5.145  1.00  0.00     0.029 A 
ATOM     60  C   UNL     1       1.312  -3.680   4.485  1.00  0.00     0.049 A 
ATOM     61  H   UNL     1       1.287  -5.821   4.504  1.00  0.00     0.167 HD
ATOM     62  C   UNL     1       4.222  -2.732  10.264  1.00  0.00     0.037 A 
ATOM     63  C   UNL     1       0.064  -3.152   4.282  1.00  0.00     0.037 A 
ATOM     64  C   UNL     1       3.692  -1.691   9.363  1.00  0.00     0.049 A 
ATOM     65  C   UNL     1      -0.269  -2.006   5.224  1.00  0.00     0.074 A 
ATOM     66  C   UNL     1       4.239  -0.838   8.420  1.00  0.00     0.029 A 
ATOM     67  N   UNL     1       2.308  -1.520   9.274  1.00  0.00    -0.354 N 
ATOM     68  N   UNL     1       0.328  -1.852   6.379  1.00  0.00    -0.248 NA
ATOM     69  C   UNL     1      -1.182  -0.899   4.949  1.00  0.00     0.031 C 
ATOM     70  C   UNL     1       3.171  -0.196   7.730  1.00  0.00     0.029 A 
ATOM     71  C   UNL     1       1.972  -0.630   8.277  1.00  0.00     0.049 A 
ATOM     72  H   UNL     1       1.655  -1.977   9.851  1.00  0.00     0.167 HD
ATOM     73  C   UNL     1      -0.014  -0.660   6.945  1.00  0.00     0.074 A 
ATOM     74  C   UNL     1      -1.015  -0.123   6.041  1.00  0.00     0.031 C 
ATOM     75  C   UNL     1       0.588  -0.202   8.084  1.00  0.00     0.037 A 
BRANCH  62  76
ATOM     76  C   UNL     1       5.348  -2.450  11.257  1.00  0.00     0.058 A 
ATOM     77  C   UNL     1       5.800  -1.126  11.488  1.00  0.00     0.135 A 
ATOM     78  C   UNL     1       6.080  -3.433  11.958  1.00  0.00     0.135 A 
ATOM     79  F   UNL     1       5.237  -0.077  10.872  1.00  0.00    -0.206 F 
ATOM     80  C   UNL     1       6.858  -0.808  12.351  1.00  0.00     0.059 A 
ATOM     81  C   UNL     1       7.107  -3.135  12.865  1.00  0.00     0.059 A 
ATOM     82  F   UNL     1       5.874  -4.740  11.765  1.00  0.00    -0.206 F 
ATOM     83  C   UNL     1       7.497  -1.818  13.052  1.00  0.00     0.060 A 
BRANCH  83  84
ATOM     84  S   UNL     1       8.821  -1.399  14.205  1.00  0.00     0.124 S 
ATOM     85  O   UNL     1       9.878  -0.945  13.307  1.00  0.00    -0.237 OA
ATOM     86  O   UNL     1       8.204  -0.367  15.032  1.00  0.00    -0.237 OA
ATOM     87  O   UNL     1       9.088  -2.662  14.890  1.00  0.00    -0.744 OA
ENDBRANCH  83  84
ENDBRANCH  62  76
BRANCH  63  88
ATOM     88  C   UNL     1      -0.818  -4.084   3.532  1.00  0.00     0.058 A 
ATOM     89  C   UNL     1      -0.432  -4.256   2.186  1.00  0.00     0.135 A 
ATOM     90  C   UNL     1      -1.351  -5.197   4.201  1.00  0.00     0.135 A 
ATOM     91  F   UNL     1       0.038  -3.205   1.496  1.00  0.00    -0.206 F 
ATOM     92  C   UNL     1      -0.285  -5.522   1.633  1.00  0.00     0.059 A 
ATOM     93  C   UNL     1      -1.223  -6.478   3.660  1.00  0.00     0.059 A 
ATOM     94  F   UNL     1      -1.768  -5.081   5.470  1.00  0.00    -0.206 F 
ATOM     95  C   UNL     1      -0.597  -6.630   2.419  1.00  0.00     0.060 A 
BRANCH  95  96
ATOM     96  S   UNL     1       0.096  -8.231   1.928  1.00  0.00     0.124 S 
ATOM     97  O   UNL     1      -0.618  -8.506   0.688  1.00  0.00    -0.237 OA
ATOM     98  O   UNL     1       1.516  -7.910   1.792  1.00  0.00    -0.237 OA
ATOM     99  O   UNL     1      -0.232  -9.097   3.055  1.00  0.00    -0.744 OA
ENDBRANCH  95  96
ENDBRANCH  63  88
BRANCH  75 100
ATOM    100  C   UNL     1      -0.018   0.744   9.101  1.00  0.00     0.058 A 
ATOM    101  C   UNL     1      -1.394   1.009   9.193  1.00  0.00     0.135 A 
ATOM    102  C   UNL     1       0.764   1.243  10.179  1.00  0.00     0.135 A 
ATOM    103  F   UNL     1      -2.262   0.539   8.287  1.00  0.00    -0.206 F 
ATOM    104  C   UNL     1      -1.950   1.727  10.254  1.00  0.00     0.059 A 
ATOM    105  C   UNL     1       0.223   1.915  11.271  1.00  0.00     0.059 A 
ATOM    106  F   UNL     1       2.092   1.064  10.234  1.00  0.00    -0.206 F 
ATOM    107  C   UNL     1      -1.137   2.166  11.294  1.00  0.00     0.060 A 
BRANCH 107 108
ATOM    108  S   UNL     1      -1.881   3.009  12.700  1.00  0.00     0.124 S 
ATOM    109  O   UNL     1      -2.032   4.364  12.177  1.00  0.00    -0.237 OA
ATOM    110  O   UNL     1      -3.123   2.266  12.893  1.00  0.00    -0.237 OA
ATOM    111  O   UNL     1      -0.892   2.847  13.760  1.00  0.00    -0.744 OA
ENDBRANCH 107 108
ENDBRANCH  75 100
ENDBRANCH  49  50
ENDBRANCH  42  44
ENDBRANCH  41  42
ENDBRANCH  40  41
ENDBRANCH  39  40
ENDBRANCH  38  39
ENDBRANCH  37  38
ENDBRANCH  36  37
ENDBRANCH  35  36
ENDBRANCH   1  35
TORSDOF 27
