REMARK SMILES Cc1cccc(CN(C)c2nc(C)c(C(=O)OCCOCCOCCOCCOC(=O)c3ccc(-c4c5nc(c(-c6c(F)cc(S(=O)(=O)[O-])cc6F)c6ccc([nH]6)c(-c6c(F)cc(S(=O)(=O)[O-])cc6F)c6nc(c(-c7c(F)cc(S(=O)(=O)[O-])cc7F)c7ccc4[nH]7)C=C6)C=C5)cc3)s2)n1
REMARK SMILES IDX 23 1 22 2 21 3 20 4 19 5 18 6 17 7 15 8 16 9 14 10 10 11
REMARK SMILES IDX 11 12 98 13 12 14 13 15 8 16 9 17 7 18 6 19 1 20 2 21 3 22
REMARK SMILES IDX 99 23 4 24 5 25 24 26 25 27 26 28 27 29 28 30 29 31 30 32
REMARK SMILES IDX 31 33 32 34 33 35 97 36 34 37 96 38 35 39 36 40 37 41 90 42
REMARK SMILES IDX 38 43 95 44 89 45 91 46 39 47 94 48 88 49 87 50 40 52 74 53
REMARK SMILES IDX 53 54 73 55 54 56 57 57 72 58 92 59 55 60 56 61 71 63 93 64
REMARK SMILES IDX 58 65 41 66 42 67 51 68 43 69 44 70 50 71 52 72 45 73 46 74
REMARK SMILES IDX 47 75 48 76 49 77 75 78 76 79 85 80 77 81 78 82 84 83 86 84
REMARK SMILES IDX 79 85 80 86 81 87 82 88 83 89 59 90 60 91 69 92 61 93 62 94
REMARK SMILES IDX 68 95 70 96 63 97 64 98 65 99 66 100 67 101
REMARK H PARENT 91 51 57 62
REMARK Flexibility Score: inf
ROOT
ATOM      1  O   UNL     1      -3.730   0.184   6.780  1.00  0.00    -0.377 OA
ENDROOT
BRANCH   1   2
ATOM      2  C   UNL     1      -3.397  -0.146   5.441  1.00  0.00     0.188 C 
BRANCH   2   3
ATOM      3  C   UNL     1      -2.333  -1.254   5.359  1.00  0.00     0.188 C 
BRANCH   3   4
ATOM      4  O   UNL     1      -2.077  -1.882   6.615  1.00  0.00    -0.376 OA
BRANCH   4   5
ATOM      5  C   UNL     1      -0.896  -1.476   7.303  1.00  0.00     0.202 C 
BRANCH   5   6
ATOM      6  C   UNL     1      -0.875  -0.045   7.865  1.00  0.00     0.261 C 
BRANCH   6   7
ATOM      7  O   UNL     1      -0.988   0.993   6.877  1.00  0.00    -0.459 OA
BRANCH   7   8
ATOM      8  C   UNL     1       0.006   1.123   5.966  1.00  0.00     0.350 C 
ATOM      9  O   UNL     1       1.052   0.483   6.003  1.00  0.00    -0.245 OA
BRANCH   8  10
ATOM     10  C   UNL     1      -0.431   1.997   4.901  1.00  0.00     0.137 A 
ATOM     11  C   UNL     1      -0.814   2.975   2.692  1.00  0.00     0.186 A 
ATOM     12  N   UNL     1      -1.542   3.588   3.597  1.00  0.00    -0.225 NA
ATOM     13  S   UNL     1       0.191   1.730   3.325  1.00  0.00    -0.089 S 
ATOM     14  C   UNL     1      -1.353   3.033   4.859  1.00  0.00     0.065 A 
ATOM     15  C   UNL     1      -2.140   3.627   5.977  1.00  0.00     0.069 C 
BRANCH  11  16
ATOM     16  N   UNL     1      -0.774   3.341   1.381  1.00  0.00    -0.345 N 
ATOM     17  C   UNL     1      -0.633   4.758   1.113  1.00  0.00     0.146 C 
BRANCH  16  18
ATOM     18  C   UNL     1      -1.520   2.547   0.397  1.00  0.00     0.174 C 
BRANCH  18  19
ATOM     19  C   UNL     1      -0.928   1.169   0.150  1.00  0.00     0.060 A 
ATOM     20  C   UNL     1       2.473  -0.179  -0.171  1.00  0.00     0.067 C 
ATOM     21  C   UNL     1       0.977  -0.142  -0.129  1.00  0.00     0.038 A 
ATOM     22  C   UNL     1       0.223  -1.308  -0.133  1.00  0.00     0.023 A 
ATOM     23  N   UNL     1       0.416   1.084  -0.036  1.00  0.00    -0.256 NA
ATOM     24  C   UNL     1      -1.161  -1.209  -0.021  1.00  0.00     0.004 A 
ATOM     25  C   UNL     1      -1.748   0.043   0.130  1.00  0.00     0.026 A 
ENDBRANCH  18  19
ENDBRANCH  16  18
ENDBRANCH  11  16
ENDBRANCH   8  10
ENDBRANCH   7   8
ENDBRANCH   6   7
ENDBRANCH   5   6
ENDBRANCH   4   5
ENDBRANCH   3   4
ENDBRANCH   2   3
ENDBRANCH   1   2
BRANCH   1  26
ATOM     26  C   UNL     1      -4.796  -0.546   7.384  1.00  0.00     0.188 C 
BRANCH  26  27
ATOM     27  C   UNL     1      -5.032  -2.025   7.014  1.00  0.00     0.188 C 
BRANCH  27  28
ATOM     28  O   UNL     1      -5.220  -2.246   5.613  1.00  0.00    -0.376 OA
BRANCH  28  29
ATOM     29  C   UNL     1      -6.554  -2.511   5.192  1.00  0.00     0.202 C 
BRANCH  29  30
ATOM     30  C   UNL     1      -7.425  -1.253   5.076  1.00  0.00     0.261 C 
BRANCH  30  31
ATOM     31  O   UNL     1      -7.719  -0.616   6.329  1.00  0.00    -0.460 OA
BRANCH  31  32
ATOM     32  C   UNL     1      -8.390  -1.358   7.237  1.00  0.00     0.338 C 
ATOM     33  O   UNL     1      -8.850  -2.474   7.074  1.00  0.00    -0.246 OA
BRANCH  32  34
ATOM     34  C   UNL     1      -8.322  -0.671   8.541  1.00  0.00     0.060 A 
ATOM     35  C   UNL     1      -7.881  -1.399   9.651  1.00  0.00     0.016 A 
ATOM     36  C   UNL     1      -8.723   0.662   8.674  1.00  0.00     0.016 A 
ATOM     37  C   UNL     1      -7.901  -0.812  10.915  1.00  0.00     0.010 A 
ATOM     38  C   UNL     1      -8.752   1.245   9.943  1.00  0.00     0.010 A 
ATOM     39  C   UNL     1      -8.384   0.494  11.072  1.00  0.00    -0.014 A 
BRANCH  39  40
ATOM     40  C   UNL     1      -8.691   0.991  12.434  1.00  0.00     0.031 A 
ATOM     41  C   UNL     1     -10.095   0.831  12.953  1.00  0.00     0.074 A 
ATOM     42  C   UNL     1      -7.737   1.534  13.209  1.00  0.00     0.049 A 
ATOM     43  N   UNL     1     -10.586   1.137  14.125  1.00  0.00    -0.248 NA
ATOM     44  C   UNL     1     -11.076   0.246  12.023  1.00  0.00     0.031 C 
ATOM     45  C   UNL     1      -6.341   1.731  12.820  1.00  0.00     0.029 A 
ATOM     46  N   UNL     1      -7.803   2.017  14.491  1.00  0.00    -0.354 N 
ATOM     47  C   UNL     1     -11.927   0.774  14.078  1.00  0.00     0.074 A 
ATOM     48  C   UNL     1     -12.183   0.262  12.750  1.00  0.00     0.031 C 
ATOM     49  C   UNL     1      -5.681   2.301  13.845  1.00  0.00     0.029 A 
ATOM     50  C   UNL     1      -6.610   2.516  14.954  1.00  0.00     0.049 A 
ATOM     51  H   UNL     1      -8.627   2.008  15.028  1.00  0.00     0.167 HD
ATOM     52  C   UNL     1     -12.859   0.846  15.058  1.00  0.00     0.037 A 
ATOM     53  C   UNL     1      -6.306   3.083  16.139  1.00  0.00     0.037 A 
ATOM     54  C   UNL     1     -12.606   1.366  16.375  1.00  0.00     0.049 A 
ATOM     55  C   UNL     1      -7.370   3.190  17.201  1.00  0.00     0.074 A 
ATOM     56  C   UNL     1     -13.479   1.470  17.443  1.00  0.00     0.029 A 
ATOM     57  N   UNL     1     -11.389   1.878  16.801  1.00  0.00    -0.354 N 
ATOM     58  N   UNL     1      -8.623   2.802  17.158  1.00  0.00    -0.248 NA
ATOM     59  C   UNL     1      -6.974   3.801  18.478  1.00  0.00     0.031 C 
ATOM     60  C   UNL     1     -12.800   2.080  18.504  1.00  0.00     0.029 A 
ATOM     61  C   UNL     1     -11.493   2.317  18.110  1.00  0.00     0.049 A 
ATOM     62  H   UNL     1     -10.573   1.923  16.253  1.00  0.00     0.167 HD
ATOM     63  C   UNL     1      -9.157   3.099  18.408  1.00  0.00     0.074 A 
ATOM     64  C   UNL     1      -8.088   3.688  19.189  1.00  0.00     0.031 C 
ATOM     65  C   UNL     1     -10.416   2.899  18.872  1.00  0.00     0.037 A 
BRANCH  52  66
ATOM     66  C   UNL     1     -14.242   0.362  14.728  1.00  0.00     0.058 A 
ATOM     67  C   UNL     1     -14.527  -1.006  14.593  1.00  0.00     0.135 A 
ATOM     68  C   UNL     1     -15.296   1.272  14.557  1.00  0.00     0.135 A 
ATOM     69  F   UNL     1     -13.550  -1.917  14.725  1.00  0.00    -0.206 F 
ATOM     70  C   UNL     1     -15.805  -1.454  14.274  1.00  0.00     0.059 A 
ATOM     71  C   UNL     1     -16.587   0.846  14.260  1.00  0.00     0.059 A 
ATOM     72  F   UNL     1     -15.074   2.592  14.669  1.00  0.00    -0.206 F 
ATOM     73  C   UNL     1     -16.828  -0.519  14.106  1.00  0.00     0.060 A 
BRANCH  73  74
ATOM     74  S   UNL     1     -18.481  -1.112  13.688  1.00  0.00     0.124 S 
ATOM     75  O   UNL     1     -18.316  -1.462  12.280  1.00  0.00    -0.237 OA
ATOM     76  O   UNL     1     -18.652  -2.235  14.604  1.00  0.00    -0.237 OA
ATOM     77  O   UNL     1     -19.332   0.044  13.952  1.00  0.00    -0.744 OA
ENDBRANCH  73  74
ENDBRANCH  52  66
BRANCH  53  78
ATOM     78  C   UNL     1      -4.930   3.583  16.392  1.00  0.00     0.058 A 
ATOM     79  C   UNL     1      -4.071   2.924  17.283  1.00  0.00     0.135 A 
ATOM     80  C   UNL     1      -4.449   4.733  15.748  1.00  0.00     0.135 A 
ATOM     81  F   UNL     1      -4.490   1.826  17.930  1.00  0.00    -0.206 F 
ATOM     82  C   UNL     1      -2.787   3.395  17.539  1.00  0.00     0.059 A 
ATOM     83  C   UNL     1      -3.162   5.211  15.971  1.00  0.00     0.059 A 
ATOM     84  F   UNL     1      -5.230   5.394  14.879  1.00  0.00    -0.206 F 
ATOM     85  C   UNL     1      -2.341   4.540  16.877  1.00  0.00     0.060 A 
BRANCH  85  86
ATOM     86  S   UNL     1      -0.655   5.116  17.176  1.00  0.00     0.124 S 
ATOM     87  O   UNL     1      -0.786   5.734  18.490  1.00  0.00    -0.237 OA
ATOM     88  O   UNL     1       0.108   3.873  17.127  1.00  0.00    -0.237 OA
ATOM     89  O   UNL     1      -0.415   6.033  16.066  1.00  0.00    -0.744 OA
ENDBRANCH  85  86
ENDBRANCH  53  78
BRANCH  65  90
ATOM     90  C   UNL     1     -10.698   3.293  20.295  1.00  0.00     0.058 A 
ATOM     91  C   UNL     1     -10.816   4.638  20.678  1.00  0.00     0.135 A 
ATOM     92  C   UNL     1     -10.887   2.310  21.280  1.00  0.00     0.135 A 
ATOM     93  F   UNL     1     -10.642   5.615  19.775  1.00  0.00    -0.206 F 
ATOM     94  C   UNL     1     -11.079   4.996  21.996  1.00  0.00     0.059 A 
ATOM     95  C   UNL     1     -11.176   2.645  22.599  1.00  0.00     0.059 A 
ATOM     96  F   UNL     1     -10.800   1.008  20.963  1.00  0.00    -0.206 F 
ATOM     97  C   UNL     1     -11.253   3.992  22.951  1.00  0.00     0.060 A 
BRANCH  97  98
ATOM     98  S   UNL     1     -11.607   4.466  24.657  1.00  0.00     0.124 S 
ATOM     99  O   UNL     1     -10.285   4.862  25.131  1.00  0.00    -0.237 OA
ATOM    100  O   UNL     1     -12.572   5.549  24.491  1.00  0.00    -0.237 OA
ATOM    101  O   UNL     1     -12.144   3.241  25.243  1.00  0.00    -0.744 OA
ENDBRANCH  97  98
ENDBRANCH  65  90
ENDBRANCH  39  40
ENDBRANCH  32  34
ENDBRANCH  31  32
ENDBRANCH  30  31
ENDBRANCH  29  30
ENDBRANCH  28  29
ENDBRANCH  27  28
ENDBRANCH  26  27
ENDBRANCH   1  26
TORSDOF 26
