REMARK SMILES COc1ccc2c(C)cc(SCC(=O)OCCOCCOCCOCCOC(=O)c3ccc(-c4c5nc(c(-c6c(F)cc(S(=O)(=O)[O-])cc6F)c6ccc([nH]6)c(-c6c(F)cc(S(=O)(=O)[O-])cc6F)c6nc(c(-c7c(F)cc(S(=O)(=O)[O-])cc7F)c7ccc4[nH]7)C=C6)C=C5)cc3)nc2c1
REMARK SMILES IDX 21 1 20 2 19 3 18 4 17 5 16 6 15 7 13 8 14 9 12 10 11 11
REMARK SMILES IDX 10 12 3 13 4 14 98 15 5 16 97 17 6 18 96 19 7 20 8 21 9 22
REMARK SMILES IDX 2 23 1 24 22 25 23 26 24 27 25 28 26 29 27 30 28 31 29 32
REMARK SMILES IDX 30 33 31 34 95 35 32 36 94 37 33 38 34 39 35 40 88 41 36 42
REMARK SMILES IDX 93 43 87 44 89 45 37 46 92 47 86 48 85 49 38 51 72 52 51 53
REMARK SMILES IDX 71 54 52 55 55 56 70 57 90 58 53 59 54 60 69 62 91 63 56 64
REMARK SMILES IDX 39 65 40 66 49 67 41 68 42 69 48 70 50 71 43 72 44 73 45 74
REMARK SMILES IDX 46 75 47 76 73 77 74 78 83 79 75 80 76 81 82 82 84 83 77 84
REMARK SMILES IDX 78 85 79 86 80 87 81 88 57 89 58 90 67 91 59 92 60 93 66 94
REMARK SMILES IDX 68 95 61 96 62 97 63 98 64 99 65 100
REMARK H PARENT 89 50 55 61
REMARK Flexibility Score: inf
ROOT
ATOM      1  O   UNL     1      -0.369   0.873   6.673  1.00  0.00    -0.377 OA
ENDROOT
BRANCH   1   2
ATOM      2  C   UNL     1      -0.355   2.132   7.292  1.00  0.00     0.188 C 
BRANCH   2   3
ATOM      3  C   UNL     1       0.806   2.584   8.198  1.00  0.00     0.188 C 
BRANCH   3   4
ATOM      4  O   UNL     1       0.995   1.989   9.464  1.00  0.00    -0.376 OA
BRANCH   4   5
ATOM      5  C   UNL     1      -0.063   1.839  10.387  1.00  0.00     0.202 C 
BRANCH   5   6
ATOM      6  C   UNL     1      -1.282   2.783  10.482  1.00  0.00     0.261 C 
BRANCH   6   7
ATOM      7  O   UNL     1      -1.614   3.614   9.348  1.00  0.00    -0.463 OA
BRANCH   7   8
ATOM      8  C   UNL     1      -1.145   4.883   9.350  1.00  0.00     0.316 C 
ATOM      9  O   UNL     1      -0.476   5.342  10.274  1.00  0.00    -0.251 OA
BRANCH   8  10
ATOM     10  C   UNL     1      -1.534   5.764   8.167  1.00  0.00     0.199 C 
BRANCH  10  11
ATOM     11  S   UNL     1      -2.089   5.043   6.587  1.00  0.00    -0.095 SA
BRANCH  11  12
ATOM     12  C   UNL     1      -0.672   4.924   5.468  1.00  0.00     0.098 A 
ATOM     13  C   UNL     1       0.657   2.478   1.540  1.00  0.00     0.121 A 
ATOM     14  C   UNL     1       1.997   2.608   1.868  1.00  0.00     0.047 A 
ATOM     15  C   UNL     1      -0.308   3.135   2.320  1.00  0.00     0.075 A 
ATOM     16  C   UNL     1       2.353   3.353   2.995  1.00  0.00     0.014 A 
ATOM     17  C   UNL     1       0.015   3.850   3.480  1.00  0.00     0.075 A 
ATOM     18  C   UNL     1       1.376   3.962   3.827  1.00  0.00     0.003 A 
ATOM     19  N   UNL     1      -0.969   4.336   4.276  1.00  0.00    -0.241 NA
ATOM     20  C   UNL     1       1.683   4.631   5.039  1.00  0.00    -0.039 A 
ATOM     21  C   UNL     1       3.098   4.697   5.555  1.00  0.00     0.045 C 
ATOM     22  C   UNL     1       0.644   5.146   5.840  1.00  0.00     0.039 A 
BRANCH  13  23
ATOM     23  O   UNL     1       0.206   1.773   0.456  1.00  0.00    -0.497 OA
ATOM     24  C   UNL     1       0.828   0.500   0.257  1.00  0.00     0.278 C 
ENDBRANCH  13  23
ENDBRANCH  11  12
ENDBRANCH  10  11
ENDBRANCH   8  10
ENDBRANCH   7   8
ENDBRANCH   6   7
ENDBRANCH   5   6
ENDBRANCH   4   5
ENDBRANCH   3   4
ENDBRANCH   2   3
ENDBRANCH   1   2
BRANCH   1  25
ATOM     25  C   UNL     1      -0.218  -0.224   7.529  1.00  0.00     0.188 C 
BRANCH  25  26
ATOM     26  C   UNL     1       1.218  -0.735   7.492  1.00  0.00     0.188 C 
BRANCH  26  27
ATOM     27  O   UNL     1       2.206   0.155   7.007  1.00  0.00    -0.376 OA
BRANCH  27  28
ATOM     28  C   UNL     1       2.266   0.593   5.655  1.00  0.00     0.202 C 
BRANCH  28  29
ATOM     29  C   UNL     1       1.294   0.298   4.497  1.00  0.00     0.261 C 
BRANCH  29  30
ATOM     30  O   UNL     1       0.296  -0.686   4.658  1.00  0.00    -0.460 OA
BRANCH  30  31
ATOM     31  C   UNL     1       0.652  -1.964   4.466  1.00  0.00     0.338 C 
ATOM     32  O   UNL     1       1.738  -2.407   4.180  1.00  0.00    -0.246 OA
BRANCH  31  33
ATOM     33  C   UNL     1      -0.538  -2.712   4.898  1.00  0.00     0.060 A 
ATOM     34  C   UNL     1      -0.411  -3.541   6.014  1.00  0.00     0.016 A 
ATOM     35  C   UNL     1      -1.778  -2.491   4.284  1.00  0.00     0.016 A 
ATOM     36  C   UNL     1      -1.531  -4.181   6.513  1.00  0.00     0.010 A 
ATOM     37  C   UNL     1      -2.895  -3.168   4.756  1.00  0.00     0.010 A 
ATOM     38  C   UNL     1      -2.755  -4.043   5.845  1.00  0.00    -0.014 A 
BRANCH  38  39
ATOM     39  C   UNL     1      -3.782  -5.060   6.109  1.00  0.00     0.031 A 
ATOM     40  C   UNL     1      -3.753  -6.283   5.238  1.00  0.00     0.074 A 
ATOM     41  C   UNL     1      -4.622  -4.931   7.147  1.00  0.00     0.049 A 
ATOM     42  N   UNL     1      -4.517  -7.338   5.267  1.00  0.00    -0.248 NA
ATOM     43  C   UNL     1      -2.707  -6.327   4.195  1.00  0.00     0.031 C 
ATOM     44  C   UNL     1      -4.659  -3.797   8.071  1.00  0.00     0.029 A 
ATOM     45  N   UNL     1      -5.600  -5.771   7.602  1.00  0.00    -0.354 N 
ATOM     46  C   UNL     1      -4.039  -8.171   4.262  1.00  0.00     0.074 A 
ATOM     47  C   UNL     1      -2.948  -7.489   3.611  1.00  0.00     0.031 C 
ATOM     48  C   UNL     1      -5.624  -4.011   8.983  1.00  0.00     0.029 A 
ATOM     49  C   UNL     1      -6.287  -5.278   8.684  1.00  0.00     0.049 A 
ATOM     50  H   UNL     1      -5.794  -6.645   7.193  1.00  0.00     0.167 HD
ATOM     51  C   UNL     1      -4.468  -9.407   3.931  1.00  0.00     0.037 A 
ATOM     52  C   UNL     1      -7.348  -5.797   9.331  1.00  0.00     0.037 A 
ATOM     53  C   UNL     1      -5.566 -10.054   4.592  1.00  0.00     0.049 A 
ATOM     54  C   UNL     1      -7.873  -7.135   8.870  1.00  0.00     0.074 A 
ATOM     55  C   UNL     1      -6.124 -11.290   4.328  1.00  0.00     0.029 A 
ATOM     56  N   UNL     1      -6.274  -9.507   5.654  1.00  0.00    -0.354 N 
ATOM     57  N   UNL     1      -7.419  -7.916   7.915  1.00  0.00    -0.248 NA
ATOM     58  C   UNL     1      -9.047  -7.666   9.573  1.00  0.00     0.031 C 
ATOM     59  C   UNL     1      -7.200 -11.470   5.201  1.00  0.00     0.029 A 
ATOM     60  C   UNL     1      -7.273 -10.374   6.050  1.00  0.00     0.049 A 
ATOM     61  H   UNL     1      -6.090  -8.631   6.064  1.00  0.00     0.167 HD
ATOM     62  C   UNL     1      -8.230  -9.046   7.929  1.00  0.00     0.074 A 
ATOM     63  C   UNL     1      -9.191  -8.851   8.997  1.00  0.00     0.031 C 
ATOM     64  C   UNL     1      -8.192 -10.147   7.137  1.00  0.00     0.037 A 
BRANCH  51  65
ATOM     65  C   UNL     1      -3.767 -10.117   2.809  1.00  0.00     0.058 A 
ATOM     66  C   UNL     1      -2.464 -10.620   2.955  1.00  0.00     0.135 A 
ATOM     67  C   UNL     1      -4.420 -10.335   1.586  1.00  0.00     0.135 A 
ATOM     68  F   UNL     1      -1.780 -10.406   4.090  1.00  0.00    -0.206 F 
ATOM     69  C   UNL     1      -1.834 -11.316   1.929  1.00  0.00     0.059 A 
ATOM     70  C   UNL     1      -3.820 -11.052   0.555  1.00  0.00     0.059 A 
ATOM     71  F   UNL     1      -5.658  -9.856   1.386  1.00  0.00    -0.206 F 
ATOM     72  C   UNL     1      -2.526 -11.537   0.737  1.00  0.00     0.060 A 
BRANCH  72  73
ATOM     73  S   UNL     1      -1.714 -12.494  -0.561  1.00  0.00     0.124 S 
ATOM     74  O   UNL     1      -0.666 -11.574  -0.993  1.00  0.00    -0.237 OA
ATOM     75  O   UNL     1      -1.261 -13.676   0.164  1.00  0.00    -0.237 OA
ATOM     76  O   UNL     1      -2.780 -12.727  -1.531  1.00  0.00    -0.744 OA
ENDBRANCH  72  73
ENDBRANCH  51  65
BRANCH  52  77
ATOM     77  C   UNL     1      -7.999  -5.056  10.445  1.00  0.00     0.058 A 
ATOM     78  C   UNL     1      -8.020  -5.567  11.751  1.00  0.00     0.135 A 
ATOM     79  C   UNL     1      -8.657  -3.836  10.215  1.00  0.00     0.135 A 
ATOM     80  F   UNL     1      -7.406  -6.728  12.026  1.00  0.00    -0.206 F 
ATOM     81  C   UNL     1      -8.705  -4.924  12.777  1.00  0.00     0.059 A 
ATOM     82  C   UNL     1      -9.321  -3.157  11.231  1.00  0.00     0.059 A 
ATOM     83  F   UNL     1      -8.655  -3.290   8.989  1.00  0.00    -0.206 F 
ATOM     84  C   UNL     1      -9.360  -3.721  12.505  1.00  0.00     0.060 A 
BRANCH  84  85
ATOM     85  S   UNL     1     -10.258  -2.900  13.838  1.00  0.00     0.124 S 
ATOM     86  O   UNL     1     -11.409  -3.780  14.000  1.00  0.00    -0.237 OA
ATOM     87  O   UNL     1      -9.281  -2.919  14.922  1.00  0.00    -0.237 OA
ATOM     88  O   UNL     1     -10.545  -1.579  13.287  1.00  0.00    -0.744 OA
ENDBRANCH  84  85
ENDBRANCH  52  77
BRANCH  64  89
ATOM     89  C   UNL     1      -9.177 -11.241   7.435  1.00  0.00     0.058 A 
ATOM     90  C   UNL     1     -10.544 -11.102   7.154  1.00  0.00     0.135 A 
ATOM     91  C   UNL     1      -8.730 -12.469   7.950  1.00  0.00     0.135 A 
ATOM     92  F   UNL     1     -11.020  -9.946   6.663  1.00  0.00    -0.206 F 
ATOM     93  C   UNL     1     -11.441 -12.133   7.403  1.00  0.00     0.059 A 
ATOM     94  C   UNL     1      -9.604 -13.526   8.173  1.00  0.00     0.059 A 
ATOM     95  F   UNL     1      -7.428 -12.656   8.220  1.00  0.00    -0.206 F 
ATOM     96  C   UNL     1     -10.960 -13.343   7.909  1.00  0.00     0.060 A 
BRANCH  96  97
ATOM     97  S   UNL     1     -12.132 -14.684   8.194  1.00  0.00     0.124 S 
ATOM     98  O   UNL     1     -12.851 -14.201   9.368  1.00  0.00    -0.237 OA
ATOM     99  O   UNL     1     -12.891 -14.703   6.947  1.00  0.00    -0.237 OA
ATOM    100  O   UNL     1     -11.274 -15.844   8.416  1.00  0.00    -0.744 OA
ENDBRANCH  96  97
ENDBRANCH  64  89
ENDBRANCH  38  39
ENDBRANCH  31  33
ENDBRANCH  30  31
ENDBRANCH  29  30
ENDBRANCH  28  29
ENDBRANCH  27  28
ENDBRANCH  26  27
ENDBRANCH  25  26
ENDBRANCH   1  25
TORSDOF 26
