REMARK SMILES CCC[N@@H+](C)CC[C@@H]1CCC[C@]1([NH2+]C)C(=O)OCCOCCOCCOCCOC(=O)c1ccc(-c2c3nc(c(-c4c(F)cc(S(=O)(=O)[O-])cc4F)c4ccc([nH]4)c(-c4c(F)cc(S(=O)(=O)[O-])cc4F)c4nc(c(-c5c(F)cc(S(=O)(=O)[O-])cc5F)c5ccc2[nH]5)C=C4)C=C3)cc1
REMARK SMILES IDX 22 1 21 2 20 3 19 4 18 5 17 6 15 7 16 8 12 9 8 10 9 11 10 12
REMARK SMILES IDX 11 13 7 14 6 15 4 16 5 17 3 19 2 20 1 21 13 22 14 23 23 26
REMARK SMILES IDX 24 27 25 28 26 29 27 30 28 31 29 32 30 33 31 34 32 35 33 36
REMARK SMILES IDX 97 37 34 38 96 39 35 40 36 41 37 42 90 43 38 44 95 45 89 46
REMARK SMILES IDX 91 47 39 48 94 49 88 50 87 51 40 53 74 54 53 55 73 56 54 57
REMARK SMILES IDX 57 58 72 59 92 60 55 61 56 62 71 64 93 65 58 66 41 67 42 68
REMARK SMILES IDX 51 69 43 70 44 71 50 72 52 73 45 74 46 75 47 76 48 77 49 78
REMARK SMILES IDX 75 79 76 80 85 81 77 82 78 83 84 84 86 85 79 86 80 87 81 88
REMARK SMILES IDX 82 89 83 90 59 91 60 92 69 93 61 94 62 95 68 96 70 97 63 98
REMARK SMILES IDX 64 99 65 100 66 101 67 102
REMARK H PARENT 4 18 13 24 13 25 91 52 57 63
REMARK Flexibility Score: inf
ROOT
ATOM      1  C   UNL     1      -1.522   0.776   1.827  1.00  0.00     0.188 C 
ENDROOT
BRANCH   1   2
ATOM      2  C   UNL     1      -1.479  -0.663   2.373  1.00  0.00     0.188 C 
BRANCH   2   3
ATOM      3  O   UNL     1      -2.027  -0.971   3.637  1.00  0.00    -0.376 OA
BRANCH   3   4
ATOM      4  C   UNL     1      -1.070  -1.036   4.715  1.00  0.00     0.202 C 
BRANCH   4   5
ATOM      5  C   UNL     1       0.115  -2.070   4.610  1.00  0.00     0.261 C 
BRANCH   5   6
ATOM      6  O   UNL     1       1.438  -1.573   4.149  1.00  0.00    -0.459 OA
BRANCH   6   7
ATOM      7  C   UNL     1       2.175  -2.353   3.278  1.00  0.00     0.368 C 
ATOM      8  O   UNL     1       1.679  -3.361   2.769  1.00  0.00    -0.245 OA
BRANCH   7   9
ATOM      9  C   UNL     1       3.776  -1.980   3.064  1.00  0.00     0.197 C 
ATOM     10  C   UNL     1       4.482  -0.786   2.228  1.00  0.00     0.068 C 
ATOM     11  C   UNL     1       4.774  -1.259   0.784  1.00  0.00     0.011 C 
ATOM     12  C   UNL     1       4.381  -2.720   0.749  1.00  0.00     0.008 C 
ATOM     13  C   UNL     1       4.378  -3.168   2.209  1.00  0.00     0.081 C 
BRANCH  10  14
ATOM     14  C   UNL     1       4.209   0.730   2.313  1.00  0.00     0.072 C 
BRANCH  14  15
ATOM     15  C   UNL     1       3.126   1.363   1.413  1.00  0.00     0.262 C 
BRANCH  15  16
ATOM     16  N   UNL     1       1.771   0.871   1.635  1.00  0.00    -0.337 N 
ATOM     17  C   UNL     1       1.496   1.050   3.076  1.00  0.00     0.332 C 
ATOM     18  H   UNL     1       1.053   1.399   1.138  1.00  0.00     0.347 HD
BRANCH  16  19
ATOM     19  C   UNL     1       1.571  -0.454   1.044  1.00  0.00     0.261 C 
BRANCH  19  20
ATOM     20  C   UNL     1       0.871  -0.635  -0.304  1.00  0.00     0.058 C 
ATOM     21  C   UNL     1       1.471   0.157  -1.442  1.00  0.00     0.010 C 
ENDBRANCH  19  20
ENDBRANCH  16  19
ENDBRANCH  15  16
ENDBRANCH  14  15
ENDBRANCH  10  14
BRANCH   9  22
ATOM     22  N   UNL     1       4.409  -1.968   4.423  1.00  0.00    -0.334 N 
ATOM     23  C   UNL     1       4.174  -3.168   5.216  1.00  0.00     0.331 C 
ATOM     24  H   UNL     1       4.038  -1.169   4.939  1.00  0.00     0.347 HD
ATOM     25  H   UNL     1       5.416  -1.916   4.271  1.00  0.00     0.347 HD
ENDBRANCH   9  22
ENDBRANCH   7   9
ENDBRANCH   6   7
ENDBRANCH   5   6
ENDBRANCH   4   5
ENDBRANCH   3   4
ENDBRANCH   2   3
ENDBRANCH   1   2
BRANCH   1  26
ATOM     26  O   UNL     1      -2.320   1.744   2.468  1.00  0.00    -0.377 OA
BRANCH  26  27
ATOM     27  C   UNL     1      -3.713   1.532   2.330  1.00  0.00     0.188 C 
BRANCH  27  28
ATOM     28  C   UNL     1      -4.262   1.631   0.895  1.00  0.00     0.188 C 
BRANCH  28  29
ATOM     29  O   UNL     1      -3.659   0.713  -0.023  1.00  0.00    -0.376 OA
BRANCH  29  30
ATOM     30  C   UNL     1      -3.393   1.274  -1.317  1.00  0.00     0.202 C 
BRANCH  30  31
ATOM     31  C   UNL     1      -2.079   2.076  -1.468  1.00  0.00     0.261 C 
BRANCH  31  32
ATOM     32  O   UNL     1      -1.832   3.062  -0.453  1.00  0.00    -0.460 OA
BRANCH  32  33
ATOM     33  C   UNL     1      -2.500   4.228  -0.587  1.00  0.00     0.338 C 
ATOM     34  O   UNL     1      -3.286   4.521  -1.467  1.00  0.00    -0.246 OA
BRANCH  33  35
ATOM     35  C   UNL     1      -2.246   5.054   0.609  1.00  0.00     0.060 A 
ATOM     36  C   UNL     1      -3.249   5.126   1.580  1.00  0.00     0.016 A 
ATOM     37  C   UNL     1      -1.084   5.822   0.730  1.00  0.00     0.016 A 
ATOM     38  C   UNL     1      -3.107   5.976   2.669  1.00  0.00     0.010 A 
ATOM     39  C   UNL     1      -0.957   6.708   1.809  1.00  0.00     0.010 A 
ATOM     40  C   UNL     1      -1.987   6.811   2.759  1.00  0.00    -0.014 A 
BRANCH  40  41
ATOM     41  C   UNL     1      -2.070   7.950   3.703  1.00  0.00     0.031 A 
ATOM     42  C   UNL     1      -2.715   9.218   3.208  1.00  0.00     0.074 A 
ATOM     43  C   UNL     1      -1.717   7.814   4.993  1.00  0.00     0.049 A 
ATOM     44  N   UNL     1      -3.002  10.314   3.858  1.00  0.00    -0.248 NA
ATOM     45  C   UNL     1      -3.114   9.241   1.788  1.00  0.00     0.031 C 
ATOM     46  C   UNL     1      -1.157   6.604   5.595  1.00  0.00     0.029 A 
ATOM     47  N   UNL     1      -1.800   8.701   6.036  1.00  0.00    -0.354 N 
ATOM     48  C   UNL     1      -3.638  11.142   2.939  1.00  0.00     0.074 A 
ATOM     49  C   UNL     1      -3.663  10.441   1.676  1.00  0.00     0.031 C 
ATOM     50  C   UNL     1      -0.939   6.830   6.904  1.00  0.00     0.029 A 
ATOM     51  C   UNL     1      -1.328   8.201   7.227  1.00  0.00     0.049 A 
ATOM     52  H   UNL     1      -2.163   9.611   5.941  1.00  0.00     0.167 HD
ATOM     53  C   UNL     1      -4.166  12.371   3.136  1.00  0.00     0.037 A 
ATOM     54  C   UNL     1      -1.218   8.794   8.432  1.00  0.00     0.037 A 
ATOM     55  C   UNL     1      -4.110  13.074   4.389  1.00  0.00     0.049 A 
ATOM     56  C   UNL     1      -1.719  10.210   8.595  1.00  0.00     0.074 A 
ATOM     57  C   UNL     1      -4.561  14.348   4.684  1.00  0.00     0.029 A 
ATOM     58  N   UNL     1      -3.567  12.560   5.557  1.00  0.00    -0.354 N 
ATOM     59  N   UNL     1      -2.305  10.988   7.715  1.00  0.00    -0.248 NA
ATOM     60  C   UNL     1      -1.555  10.825   9.920  1.00  0.00     0.031 C 
ATOM     61  C   UNL     1      -4.255  14.619   6.022  1.00  0.00     0.029 A 
ATOM     62  C   UNL     1      -3.664  13.493   6.574  1.00  0.00     0.049 A 
ATOM     63  H   UNL     1      -3.171  11.663   5.649  1.00  0.00     0.167 HD
ATOM     64  C   UNL     1      -2.618  12.164   8.391  1.00  0.00     0.074 A 
ATOM     65  C   UNL     1      -2.164  11.990   9.755  1.00  0.00     0.031 C 
ATOM     66  C   UNL     1      -3.226  13.286   7.931  1.00  0.00     0.037 A 
BRANCH  53  67
ATOM     67  C   UNL     1      -4.828  13.041   1.965  1.00  0.00     0.058 A 
ATOM     68  C   UNL     1      -6.081  12.621   1.490  1.00  0.00     0.135 A 
ATOM     69  C   UNL     1      -4.226  14.143   1.338  1.00  0.00     0.135 A 
ATOM     70  F   UNL     1      -6.688  11.555   2.035  1.00  0.00    -0.206 F 
ATOM     71  C   UNL     1      -6.712  13.268   0.432  1.00  0.00     0.059 A 
ATOM     72  C   UNL     1      -4.848  14.820   0.294  1.00  0.00     0.059 A 
ATOM     73  F   UNL     1      -3.022  14.576   1.744  1.00  0.00    -0.206 F 
ATOM     74  C   UNL     1      -6.090  14.372  -0.155  1.00  0.00     0.060 A 
BRANCH  74  75
ATOM     75  S   UNL     1      -6.940  15.225  -1.500  1.00  0.00     0.124 S 
ATOM     76  O   UNL     1      -6.829  14.252  -2.582  1.00  0.00    -0.237 OA
ATOM     77  O   UNL     1      -8.279  15.413  -0.952  1.00  0.00    -0.237 OA
ATOM     78  O   UNL     1      -6.161  16.447  -1.675  1.00  0.00    -0.744 OA
ENDBRANCH  74  75
ENDBRANCH  53  67
BRANCH  54  79
ATOM     79  C   UNL     1      -0.592   8.079   9.579  1.00  0.00     0.058 A 
ATOM     80  C   UNL     1      -1.323   7.755  10.733  1.00  0.00     0.135 A 
ATOM     81  C   UNL     1       0.777   7.764   9.569  1.00  0.00     0.135 A 
ATOM     82  F   UNL     1      -2.632   8.042  10.800  1.00  0.00    -0.206 F 
ATOM     83  C   UNL     1      -0.714   7.187  11.849  1.00  0.00     0.059 A 
ATOM     84  C   UNL     1       1.402   7.168  10.660  1.00  0.00     0.059 A 
ATOM     85  F   UNL     1       1.524   8.042   8.489  1.00  0.00    -0.206 F 
ATOM     86  C   UNL     1       0.652   6.905  11.805  1.00  0.00     0.060 A 
BRANCH  86  87
ATOM     87  S   UNL     1       1.440   6.179  13.260  1.00  0.00     0.124 S 
ATOM     88  O   UNL     1       1.500   7.324  14.162  1.00  0.00    -0.237 OA
ATOM     89  O   UNL     1       0.500   5.125  13.627  1.00  0.00    -0.237 OA
ATOM     90  O   UNL     1       2.724   5.712  12.747  1.00  0.00    -0.744 OA
ENDBRANCH  86  87
ENDBRANCH  54  79
BRANCH  66  91
ATOM     91  C   UNL     1      -3.498  14.382   8.925  1.00  0.00     0.058 A 
ATOM     92  C   UNL     1      -2.470  15.170   9.465  1.00  0.00     0.135 A 
ATOM     93  C   UNL     1      -4.817  14.665   9.319  1.00  0.00     0.135 A 
ATOM     94  F   UNL     1      -1.192  14.942   9.121  1.00  0.00    -0.206 F 
ATOM     95  C   UNL     1      -2.734  16.170  10.394  1.00  0.00     0.059 A 
ATOM     96  C   UNL     1      -5.107  15.682  10.222  1.00  0.00     0.059 A 
ATOM     97  F   UNL     1      -5.840  13.954   8.819  1.00  0.00    -0.206 F 
ATOM     98  C   UNL     1      -4.056  16.416  10.770  1.00  0.00     0.060 A 
BRANCH  98  99
ATOM     99  S   UNL     1      -4.388  17.717  11.976  1.00  0.00     0.124 S 
ATOM    100  O   UNL     1      -3.958  17.082  13.217  1.00  0.00    -0.237 OA
ATOM    101  O   UNL     1      -3.547  18.810  11.498  1.00  0.00    -0.237 OA
ATOM    102  O   UNL     1      -5.825  17.939  11.849  1.00  0.00    -0.744 OA
ENDBRANCH  98  99
ENDBRANCH  66  91
ENDBRANCH  40  41
ENDBRANCH  33  35
ENDBRANCH  32  33
ENDBRANCH  31  32
ENDBRANCH  30  31
ENDBRANCH  29  30
ENDBRANCH  28  29
ENDBRANCH  27  28
ENDBRANCH  26  27
ENDBRANCH   1  26
TORSDOF 29
