REMARK SMILES C[C@@](COc1ccccc1)(NC(=O)CN1CSCC1=O)C(=O)OCCOCCOCCOCCOC(=O)c1ccc(-c2c3nc(c(-c4c(F)cc(S(=O)(=O)[O-])cc4F)c4ccc([nH]4)c(-c4c(F)cc(S(=O)(=O)[O-])cc4F)c4nc(c(-c5c(F)cc(S(=O)(=O)[O-])cc5F)c5ccc2[nH]5)C=C4)C=C3)cc1
REMARK SMILES IDX 29 1 28 2 27 3 26 4 25 5 24 6 23 7 21 8 22 9 2 10 1 11 3 12
REMARK SMILES IDX 4 13 5 14 6 15 10 16 7 17 9 18 8 19 11 20 12 21 13 23 14 24
REMARK SMILES IDX 15 25 16 26 19 27 17 28 18 29 20 30 30 31 31 32 32 33 33 34
REMARK SMILES IDX 34 35 35 36 36 37 37 38 38 39 39 40 103 41 40 42 102 43
REMARK SMILES IDX 41 44 42 45 43 46 96 47 44 48 101 49 95 50 97 51 45 52
REMARK SMILES IDX 100 53 94 54 93 55 46 57 80 58 59 59 79 60 60 61 63 62 78 63
REMARK SMILES IDX 98 64 61 65 62 66 77 68 99 69 64 70 47 71 48 72 57 73 49 74
REMARK SMILES IDX 50 75 56 76 58 77 51 78 52 79 53 80 54 81 55 82 81 83 82 84
REMARK SMILES IDX 91 85 83 86 84 87 90 88 92 89 85 90 86 91 87 92 88 93 89 94
REMARK SMILES IDX 65 95 66 96 75 97 67 98 68 99 74 100 76 101 69 102 70 103
REMARK SMILES IDX 71 104 72 105 73 106
REMARK H PARENT 11 22 97 56 63 67
REMARK Flexibility Score: inf
ROOT
ATOM      1  O   UNL     1      -1.379  -2.407   3.544  1.00  0.00    -0.377 OA
ENDROOT
BRANCH   1   2
ATOM      2  C   UNL     1      -0.445  -1.830   2.641  1.00  0.00     0.188 C 
BRANCH   2   3
ATOM      3  C   UNL     1       1.204  -1.891   3.104  1.00  0.00     0.188 C 
BRANCH   3   4
ATOM      4  O   UNL     1       2.316  -0.682   4.240  1.00  0.00    -0.376 OA
BRANCH   4   5
ATOM      5  C   UNL     1       2.500   0.865   4.722  1.00  0.00     0.202 C 
BRANCH   5   6
ATOM      6  C   UNL     1       2.904   2.144   3.814  1.00  0.00     0.261 C 
BRANCH   6   7
ATOM      7  O   UNL     1       1.926   2.553   2.792  1.00  0.00    -0.461 OA
BRANCH   7   8
ATOM      8  C   UNL     1       2.291   2.926   1.522  1.00  0.00     0.335 C 
ATOM      9  O   UNL     1       3.377   3.430   1.259  1.00  0.00    -0.249 OA
BRANCH   8  10
ATOM     10  C   UNL     1       1.247   2.421   0.417  1.00  0.00     0.169 C 
ATOM     11  C   UNL     1       1.748   1.125  -0.268  1.00  0.00     0.051 C 
BRANCH  10  12
ATOM     12  C   UNL     1       1.179   3.478  -0.742  1.00  0.00     0.269 C 
BRANCH  12  13
ATOM     13  O   UNL     1       0.084   3.195  -1.683  1.00  0.00    -0.491 OA
BRANCH  13  14
ATOM     14  C   UNL     1       0.401   2.357  -2.728  1.00  0.00     0.119 A 
ATOM     15  C   UNL     1       1.402   2.666  -3.646  1.00  0.00     0.046 A 
ATOM     16  C   UNL     1      -0.235   1.105  -2.786  1.00  0.00     0.046 A 
ATOM     17  C   UNL     1       1.840   1.692  -4.552  1.00  0.00     0.004 A 
ATOM     18  C   UNL     1       0.235   0.121  -3.665  1.00  0.00     0.004 A 
ATOM     19  C   UNL     1       1.279   0.413  -4.542  1.00  0.00     0.000 A 
ENDBRANCH  13  14
ENDBRANCH  12  13
ENDBRANCH  10  12
BRANCH  10  20
ATOM     20  N   UNL     1      -0.156   2.242   0.895  1.00  0.00    -0.336 N 
ATOM     21  C   UNL     1      -0.768   1.565   1.892  1.00  0.00     0.240 C 
ATOM     22  H   UNL     1      -0.799   2.745   0.345  1.00  0.00     0.164 HD
ATOM     23  O   UNL     1      -1.974   1.336   1.720  1.00  0.00    -0.273 OA
BRANCH  21  24
ATOM     24  C   UNL     1      -0.118   1.186   3.235  1.00  0.00     0.220 C 
BRANCH  24  25
ATOM     25  N   UNL     1       0.812   0.037   3.428  1.00  0.00    -0.323 N 
ATOM     26  C   UNL     1       0.689  -1.027   5.039  1.00  0.00     0.190 C 
ATOM     27  C   UNL     1       2.362  -0.218   2.496  1.00  0.00     0.233 C 
ATOM     28  S   UNL     1       2.510  -2.517   5.184  1.00  0.00    -0.130 SA
ATOM     29  C   UNL     1       3.452  -1.727   3.192  1.00  0.00     0.171 C 
ATOM     30  O   UNL     1       2.899   0.493   1.675  1.00  0.00    -0.274 OA
ENDBRANCH  24  25
ENDBRANCH  21  24
ENDBRANCH  10  20
ENDBRANCH   8  10
ENDBRANCH   7   8
ENDBRANCH   6   7
ENDBRANCH   5   6
ENDBRANCH   4   5
ENDBRANCH   3   4
ENDBRANCH   2   3
ENDBRANCH   1   2
BRANCH   1  31
ATOM     31  C   UNL     1      -2.166  -1.557   4.391  1.00  0.00     0.188 C 
BRANCH  31  32
ATOM     32  C   UNL     1      -2.381  -2.339   5.700  1.00  0.00     0.188 C 
BRANCH  32  33
ATOM     33  O   UNL     1      -3.022  -3.603   5.584  1.00  0.00    -0.376 OA
BRANCH  33  34
ATOM     34  C   UNL     1      -3.932  -3.749   4.505  1.00  0.00     0.202 C 
BRANCH  34  35
ATOM     35  C   UNL     1      -5.279  -3.036   4.673  1.00  0.00     0.261 C 
BRANCH  35  36
ATOM     36  O   UNL     1      -5.202  -1.714   5.237  1.00  0.00    -0.460 OA
BRANCH  36  37
ATOM     37  C   UNL     1      -5.314  -1.683   6.590  1.00  0.00     0.338 C 
ATOM     38  O   UNL     1      -5.462  -2.641   7.332  1.00  0.00    -0.246 OA
BRANCH  37  39
ATOM     39  C   UNL     1      -5.088  -0.315   7.106  1.00  0.00     0.060 A 
ATOM     40  C   UNL     1      -4.220  -0.165   8.198  1.00  0.00     0.016 A 
ATOM     41  C   UNL     1      -5.819   0.775   6.629  1.00  0.00     0.016 A 
ATOM     42  C   UNL     1      -4.155   1.046   8.878  1.00  0.00     0.010 A 
ATOM     43  C   UNL     1      -5.777   1.986   7.330  1.00  0.00     0.010 A 
ATOM     44  C   UNL     1      -5.000   2.096   8.497  1.00  0.00    -0.014 A 
BRANCH  44  45
ATOM     45  C   UNL     1      -5.286   3.144   9.508  1.00  0.00     0.031 A 
ATOM     46  C   UNL     1      -6.443   2.910  10.447  1.00  0.00     0.074 A 
ATOM     47  C   UNL     1      -4.484   4.211   9.662  1.00  0.00     0.049 A 
ATOM     48  N   UNL     1      -6.847   3.623  11.466  1.00  0.00    -0.248 NA
ATOM     49  C   UNL     1      -7.248   1.699  10.208  1.00  0.00     0.031 C 
ATOM     50  C   UNL     1      -3.311   4.512   8.844  1.00  0.00     0.029 A 
ATOM     51  N   UNL     1      -4.532   5.234  10.574  1.00  0.00    -0.354 N 
ATOM     52  C   UNL     1      -7.945   2.946  11.988  1.00  0.00     0.074 A 
ATOM     53  C   UNL     1      -8.165   1.784  11.158  1.00  0.00     0.031 C 
ATOM     54  C   UNL     1      -2.750   5.650   9.291  1.00  0.00     0.029 A 
ATOM     55  C   UNL     1      -3.532   6.162  10.416  1.00  0.00     0.049 A 
ATOM     56  H   UNL     1      -5.219   5.297  11.277  1.00  0.00     0.167 HD
ATOM     57  C   UNL     1      -8.699   3.259  13.068  1.00  0.00     0.037 A 
ATOM     58  C   UNL     1      -3.284   7.296  11.101  1.00  0.00     0.037 A 
ATOM     59  C   UNL     1      -8.480   4.423  13.885  1.00  0.00     0.049 A 
ATOM     60  C   UNL     1      -4.161   7.649  12.275  1.00  0.00     0.074 A 
ATOM     61  C   UNL     1      -9.186   4.842  14.997  1.00  0.00     0.029 A 
ATOM     62  N   UNL     1      -7.476   5.357  13.671  1.00  0.00    -0.354 N 
ATOM     63  N   UNL     1      -5.191   6.996  12.763  1.00  0.00    -0.248 NA
ATOM     64  C   UNL     1      -3.834   8.883  13.002  1.00  0.00     0.031 C 
ATOM     65  C   UNL     1      -8.636   6.054  15.431  1.00  0.00     0.029 A 
ATOM     66  C   UNL     1      -7.555   6.362  14.619  1.00  0.00     0.049 A 
ATOM     67  H   UNL     1      -6.807   5.312  12.950  1.00  0.00     0.167 HD
ATOM     68  C   UNL     1      -5.620   7.727  13.866  1.00  0.00     0.074 A 
ATOM     69  C   UNL     1      -4.726   8.863  13.982  1.00  0.00     0.031 C 
ATOM     70  C   UNL     1      -6.656   7.485  14.709  1.00  0.00     0.037 A 
BRANCH  57  71
ATOM     71  C   UNL     1      -9.850   2.349  13.396  1.00  0.00     0.058 A 
ATOM     72  C   UNL     1      -9.653   1.064  13.929  1.00  0.00     0.135 A 
ATOM     73  C   UNL     1     -11.172   2.769  13.178  1.00  0.00     0.135 A 
ATOM     74  F   UNL     1      -8.409   0.601  14.134  1.00  0.00    -0.206 F 
ATOM     75  C   UNL     1     -10.723   0.219  14.209  1.00  0.00     0.059 A 
ATOM     76  C   UNL     1     -12.258   1.951  13.474  1.00  0.00     0.059 A 
ATOM     77  F   UNL     1     -11.417   3.984  12.662  1.00  0.00    -0.206 F 
ATOM     78  C   UNL     1     -12.023   0.672  13.976  1.00  0.00     0.060 A 
BRANCH  78  79
ATOM     79  S   UNL     1     -13.404  -0.432  14.343  1.00  0.00     0.124 S 
ATOM     80  O   UNL     1     -13.313  -1.388  13.244  1.00  0.00    -0.237 OA
ATOM     81  O   UNL     1     -13.051  -0.947  15.662  1.00  0.00    -0.237 OA
ATOM     82  O   UNL     1     -14.565   0.453  14.309  1.00  0.00    -0.744 OA
ENDBRANCH  78  79
ENDBRANCH  57  71
BRANCH  58  83
ATOM     83  C   UNL     1      -2.158   8.178  10.692  1.00  0.00     0.058 A 
ATOM     84  C   UNL     1      -1.010   8.318  11.486  1.00  0.00     0.135 A 
ATOM     85  C   UNL     1      -2.206   8.893   9.485  1.00  0.00     0.135 A 
ATOM     86  F   UNL     1      -0.919   7.665  12.655  1.00  0.00    -0.206 F 
ATOM     87  C   UNL     1       0.047   9.139  11.103  1.00  0.00     0.059 A 
ATOM     88  C   UNL     1      -1.152   9.701   9.068  1.00  0.00     0.059 A 
ATOM     89  F   UNL     1      -3.277   8.788   8.684  1.00  0.00    -0.206 F 
ATOM     90  C   UNL     1      -0.032   9.822   9.888  1.00  0.00     0.060 A 
BRANCH  90  91
ATOM     91  S   UNL     1       1.374  10.829   9.363  1.00  0.00     0.124 S 
ATOM     92  O   UNL     1       1.246  11.991  10.235  1.00  0.00    -0.237 OA
ATOM     93  O   UNL     1       2.502   9.944   9.636  1.00  0.00    -0.237 OA
ATOM     94  O   UNL     1       1.104  11.066   7.948  1.00  0.00    -0.744 OA
ENDBRANCH  90  91
ENDBRANCH  58  83
BRANCH  70  95
ATOM     95  C   UNL     1      -6.854   8.451  15.844  1.00  0.00     0.058 A 
ATOM     96  C   UNL     1      -7.343   9.750  15.633  1.00  0.00     0.135 A 
ATOM     97  C   UNL     1      -6.565   8.065  17.163  1.00  0.00     0.135 A 
ATOM     98  F   UNL     1      -7.636  10.167  14.391  1.00  0.00    -0.206 F 
ATOM     99  C   UNL     1      -7.494  10.648  16.684  1.00  0.00     0.059 A 
ATOM    100  C   UNL     1      -6.735   8.938  18.233  1.00  0.00     0.059 A 
ATOM    101  F   UNL     1      -6.112   6.828  17.423  1.00  0.00    -0.206 F 
ATOM    102  C   UNL     1      -7.178  10.235  17.980  1.00  0.00     0.060 A 
BRANCH 102 103
ATOM    103  S   UNL     1      -7.359  11.413  19.335  1.00  0.00     0.124 S 
ATOM    104  O   UNL     1      -6.176  12.247  19.157  1.00  0.00    -0.237 OA
ATOM    105  O   UNL     1      -8.636  12.051  19.031  1.00  0.00    -0.237 OA
ATOM    106  O   UNL     1      -7.357  10.565  20.523  1.00  0.00    -0.744 OA
ENDBRANCH 102 103
ENDBRANCH  70  95
ENDBRANCH  44  45
ENDBRANCH  37  39
ENDBRANCH  36  37
ENDBRANCH  35  36
ENDBRANCH  34  35
ENDBRANCH  33  34
ENDBRANCH  32  33
ENDBRANCH  31  32
ENDBRANCH   1  31
TORSDOF 29
