REMARK SMILES CC[C@@](C)([NH2+][C@H]1CC[C@H](C)[C@H](C)C1)C(=O)OCCOCCOCCOCCOC(=O)c1ccc(-c2c3nc(c(-c4c(F)cc(S(=O)(=O)[O-])cc4F)c4ccc([nH]4)c(-c4c(F)cc(S(=O)(=O)[O-])cc4F)c4nc(c(-c5c(F)cc(S(=O)(=O)[O-])cc5F)c5ccc2[nH]5)C=C4)C=C3)cc1
REMARK SMILES IDX 23 1 22 2 21 3 20 4 19 5 18 6 17 7 16 8 14 9 15 10 3 11 4 12
REMARK SMILES IDX 2 13 1 14 5 15 6 18 7 19 13 20 8 21 11 22 9 23 12 24 10 25
REMARK SMILES IDX 24 26 25 27 26 28 27 29 28 30 29 31 30 32 31 33 32 34 96 35
REMARK SMILES IDX 33 36 95 37 34 38 35 39 36 40 89 41 37 42 94 43 88 44 90 45
REMARK SMILES IDX 38 46 93 47 87 48 86 49 39 51 73 52 52 53 72 54 53 55 56 56
REMARK SMILES IDX 71 57 91 58 54 59 55 60 70 62 92 63 57 64 40 65 41 66 50 67
REMARK SMILES IDX 42 68 43 69 49 70 51 71 44 72 45 73 46 74 47 75 48 76 74 77
REMARK SMILES IDX 75 78 84 79 76 80 77 81 83 82 85 83 78 84 79 85 80 86 81 87
REMARK SMILES IDX 82 88 58 89 59 90 68 91 60 92 61 93 67 94 69 95 62 96 63 97
REMARK SMILES IDX 64 98 65 99 66 100
REMARK H PARENT 5 16 5 17 90 50 56 61
REMARK Flexibility Score: inf
ROOT
ATOM      1  C   UNL     1       3.131   7.879  -2.338  1.00  0.00     0.188 C 
ENDROOT
BRANCH   1   2
ATOM      2  O   UNL     1       3.797   6.635  -2.343  1.00  0.00    -0.377 OA
BRANCH   2   3
ATOM      3  C   UNL     1       3.933   5.885  -3.526  1.00  0.00     0.188 C 
BRANCH   3   4
ATOM      4  C   UNL     1       4.491   6.440  -4.838  1.00  0.00     0.188 C 
BRANCH   4   5
ATOM      5  O   UNL     1       3.908   7.516  -5.556  1.00  0.00    -0.376 OA
BRANCH   5   6
ATOM      6  C   UNL     1       2.513   7.732  -5.673  1.00  0.00     0.202 C 
BRANCH   6   7
ATOM      7  C   UNL     1       1.569   6.632  -6.155  1.00  0.00     0.261 C 
BRANCH   7   8
ATOM      8  O   UNL     1       1.615   5.463  -5.328  1.00  0.00    -0.459 OA
BRANCH   8   9
ATOM      9  C   UNL     1       1.678   4.273  -5.969  1.00  0.00     0.367 C 
ATOM     10  O   UNL     1       1.648   4.179  -7.196  1.00  0.00    -0.245 OA
BRANCH   9  11
ATOM     11  C   UNL     1       1.862   3.027  -5.056  1.00  0.00     0.191 C 
ATOM     12  C   UNL     1       0.957   1.915  -5.613  1.00  0.00     0.092 C 
BRANCH  11  13
ATOM     13  C   UNL     1       3.358   2.562  -5.160  1.00  0.00     0.077 C 
ATOM     14  C   UNL     1       3.987   2.497  -6.548  1.00  0.00     0.011 C 
ENDBRANCH  11  13
BRANCH  11  15
ATOM     15  N   UNL     1       1.689   3.189  -3.576  1.00  0.00    -0.330 N 
ATOM     16  H   UNL     1       2.459   3.788  -3.281  1.00  0.00     0.347 HD
ATOM     17  H   UNL     1       1.616   2.209  -3.302  1.00  0.00     0.347 HD
BRANCH  15  18
ATOM     18  C   UNL     1       0.497   3.728  -2.897  1.00  0.00     0.183 C 
ATOM     19  C   UNL     1       0.868   5.077  -2.233  1.00  0.00     0.065 C 
ATOM     20  C   UNL     1      -0.819   3.729  -3.680  1.00  0.00     0.068 C 
ATOM     21  C   UNL     1      -0.280   5.931  -1.717  1.00  0.00     0.010 C 
ATOM     22  C   UNL     1      -1.928   4.561  -3.028  1.00  0.00    -0.006 C 
ATOM     23  C   UNL     1      -1.359   5.967  -2.797  1.00  0.00    -0.011 C 
ATOM     24  C   UNL     1      -2.491   3.895  -1.766  1.00  0.00     0.008 C 
ATOM     25  C   UNL     1      -2.433   6.983  -2.505  1.00  0.00     0.008 C 
ENDBRANCH  15  18
ENDBRANCH  11  15
ENDBRANCH   9  11
ENDBRANCH   8   9
ENDBRANCH   7   8
ENDBRANCH   6   7
ENDBRANCH   5   6
ENDBRANCH   4   5
ENDBRANCH   3   4
ENDBRANCH   2   3
ENDBRANCH   1   2
BRANCH   1  26
ATOM     26  C   UNL     1       4.116   9.036  -2.512  1.00  0.00     0.188 C 
BRANCH  26  27
ATOM     27  O   UNL     1       5.163   9.155  -1.539  1.00  0.00    -0.376 OA
BRANCH  27  28
ATOM     28  C   UNL     1       5.745   7.957  -1.038  1.00  0.00     0.202 C 
BRANCH  28  29
ATOM     29  C   UNL     1       5.138   7.459   0.295  1.00  0.00     0.261 C 
BRANCH  29  30
ATOM     30  O   UNL     1       3.758   7.784   0.542  1.00  0.00    -0.460 OA
BRANCH  30  31
ATOM     31  C   UNL     1       3.498   9.072   0.885  1.00  0.00     0.338 C 
ATOM     32  O   UNL     1       4.304   9.958   1.088  1.00  0.00    -0.246 OA
BRANCH  31  33
ATOM     33  C   UNL     1       2.029   9.287   0.913  1.00  0.00     0.060 A 
ATOM     34  C   UNL     1       1.456  10.252   0.071  1.00  0.00     0.016 A 
ATOM     35  C   UNL     1       1.233   8.603   1.833  1.00  0.00     0.016 A 
ATOM     36  C   UNL     1       0.096  10.572   0.183  1.00  0.00     0.010 A 
ATOM     37  C   UNL     1      -0.121   8.936   1.955  1.00  0.00     0.010 A 
ATOM     38  C   UNL     1      -0.691   9.951   1.162  1.00  0.00    -0.014 A 
BRANCH  38  39
ATOM     39  C   UNL     1      -2.043  10.472   1.514  1.00  0.00     0.031 A 
ATOM     40  C   UNL     1      -2.179  11.340   2.724  1.00  0.00     0.074 A 
ATOM     41  C   UNL     1      -3.146  10.155   0.813  1.00  0.00     0.049 A 
ATOM     42  N   UNL     1      -3.262  11.765   3.316  1.00  0.00    -0.248 NA
ATOM     43  C   UNL     1      -0.925  11.791   3.344  1.00  0.00     0.031 C 
ATOM     44  C   UNL     1      -3.125   9.412  -0.431  1.00  0.00     0.029 A 
ATOM     45  N   UNL     1      -4.482  10.373   1.045  1.00  0.00    -0.354 N 
ATOM     46  C   UNL     1      -2.823  12.525   4.389  1.00  0.00     0.074 A 
ATOM     47  C   UNL     1      -1.376  12.477   4.382  1.00  0.00     0.031 C 
ATOM     48  C   UNL     1      -4.384   9.155  -0.821  1.00  0.00     0.029 A 
ATOM     49  C   UNL     1      -5.304   9.699   0.168  1.00  0.00     0.049 A 
ATOM     50  H   UNL     1      -4.819  10.954   1.766  1.00  0.00     0.167 HD
ATOM     51  C   UNL     1      -3.567  13.200   5.295  1.00  0.00     0.037 A 
ATOM     52  C   UNL     1      -6.638   9.499   0.179  1.00  0.00     0.037 A 
ATOM     53  C   UNL     1      -5.007  13.218   5.295  1.00  0.00     0.049 A 
ATOM     54  C   UNL     1      -7.451  10.166   1.252  1.00  0.00     0.074 A 
ATOM     55  C   UNL     1      -5.856  13.887   6.156  1.00  0.00     0.029 A 
ATOM     56  N   UNL     1      -5.810  12.515   4.405  1.00  0.00    -0.354 N 
ATOM     57  N   UNL     1      -7.030  10.903   2.253  1.00  0.00    -0.248 NA
ATOM     58  C   UNL     1      -8.909  10.003   1.196  1.00  0.00     0.031 C 
ATOM     59  C   UNL     1      -7.170  13.533   5.833  1.00  0.00     0.029 A 
ATOM     60  C   UNL     1      -7.146  12.704   4.721  1.00  0.00     0.049 A 
ATOM     61  H   UNL     1      -5.479  11.964   3.660  1.00  0.00     0.167 HD
ATOM     62  C   UNL     1      -8.170  11.326   2.922  1.00  0.00     0.074 A 
ATOM     63  C   UNL     1      -9.301  10.755   2.218  1.00  0.00     0.031 C 
ATOM     64  C   UNL     1      -8.265  12.132   4.009  1.00  0.00     0.037 A 
BRANCH  51  65
ATOM     65  C   UNL     1      -2.824  13.910   6.391  1.00  0.00     0.058 A 
ATOM     66  C   UNL     1      -2.010  15.027   6.142  1.00  0.00     0.135 A 
ATOM     67  C   UNL     1      -2.901  13.438   7.711  1.00  0.00     0.135 A 
ATOM     68  F   UNL     1      -1.883  15.508   4.894  1.00  0.00    -0.206 F 
ATOM     69  C   UNL     1      -1.258  15.618   7.152  1.00  0.00     0.059 A 
ATOM     70  C   UNL     1      -2.187  14.035   8.744  1.00  0.00     0.059 A 
ATOM     71  F   UNL     1      -3.661  12.371   8.005  1.00  0.00    -0.206 F 
ATOM     72  C   UNL     1      -1.349  15.109   8.449  1.00  0.00     0.060 A 
BRANCH  72  73
ATOM     73  S   UNL     1      -0.339  15.859   9.742  1.00  0.00     0.124 S 
ATOM     74  O   UNL     1       0.995  15.392   9.378  1.00  0.00    -0.237 OA
ATOM     75  O   UNL     1      -0.587  17.284   9.544  1.00  0.00    -0.237 OA
ATOM     76  O   UNL     1      -0.887  15.296  10.972  1.00  0.00    -0.744 OA
ENDBRANCH  72  73
ENDBRANCH  51  65
BRANCH  52  77
ATOM     77  C   UNL     1      -7.266   8.616  -0.844  1.00  0.00     0.058 A 
ATOM     78  C   UNL     1      -8.057   9.134  -1.878  1.00  0.00     0.135 A 
ATOM     79  C   UNL     1      -7.041   7.228  -0.833  1.00  0.00     0.135 A 
ATOM     80  F   UNL     1      -8.314  10.450  -1.929  1.00  0.00    -0.206 F 
ATOM     81  C   UNL     1      -8.597   8.315  -2.868  1.00  0.00     0.059 A 
ATOM     82  C   UNL     1      -7.551   6.391  -1.823  1.00  0.00     0.059 A 
ATOM     83  F   UNL     1      -6.285   6.676   0.129  1.00  0.00    -0.206 F 
ATOM     84  C   UNL     1      -8.328   6.945  -2.838  1.00  0.00     0.060 A 
BRANCH  84  85
ATOM     85  S   UNL     1      -8.958   5.909  -4.179  1.00  0.00     0.124 S 
ATOM     86  O   UNL     1     -10.393   5.931  -3.922  1.00  0.00    -0.237 OA
ATOM     87  O   UNL     1      -8.509   6.638  -5.361  1.00  0.00    -0.237 OA
ATOM     88  O   UNL     1      -8.297   4.627  -3.954  1.00  0.00    -0.744 OA
ENDBRANCH  84  85
ENDBRANCH  52  77
BRANCH  64  89
ATOM     89  C   UNL     1      -9.642  12.494   4.492  1.00  0.00     0.058 A 
ATOM     90  C   UNL     1     -10.458  11.576   5.170  1.00  0.00     0.135 A 
ATOM     91  C   UNL     1     -10.104  13.815   4.363  1.00  0.00     0.135 A 
ATOM     92  F   UNL     1     -10.070  10.299   5.309  1.00  0.00    -0.206 F 
ATOM     93  C   UNL     1     -11.685  11.956   5.704  1.00  0.00     0.059 A 
ATOM     94  C   UNL     1     -11.312  14.223   4.916  1.00  0.00     0.059 A 
ATOM     95  F   UNL     1      -9.359  14.732   3.727  1.00  0.00    -0.206 F 
ATOM     96  C   UNL     1     -12.097  13.285   5.584  1.00  0.00     0.060 A 
BRANCH  96  97
ATOM     97  S   UNL     1     -13.653  13.781   6.354  1.00  0.00     0.124 S 
ATOM     98  O   UNL     1     -14.631  13.133   5.487  1.00  0.00    -0.237 OA
ATOM     99  O   UNL     1     -13.526  13.224   7.696  1.00  0.00    -0.237 OA
ATOM    100  O   UNL     1     -13.619  15.239   6.280  1.00  0.00    -0.744 OA
ENDBRANCH  96  97
ENDBRANCH  64  89
ENDBRANCH  38  39
ENDBRANCH  31  33
ENDBRANCH  30  31
ENDBRANCH  29  30
ENDBRANCH  28  29
ENDBRANCH  27  28
ENDBRANCH  26  27
ENDBRANCH   1  26
TORSDOF 26
