REMARK SMILES CN(C)S(=O)(=O)c1c[nH]c(C(=O)OCCOCCOCCOCCOC(=O)c2ccc(-c3c4nc(c(-c5c(F)cc(S(=O)(=O)[O-])cc5F)c5ccc([nH]5)c(-c5c(F)cc(S(=O)(=O)[O-])cc5F)c5nc(c(-c6c(F)cc(S(=O)(=O)[O-])cc6F)c6ccc3[nH]6)C=C5)C=C4)cc2)c1
REMARK SMILES IDX 20 1 19 2 18 3 17 4 16 5 15 6 14 7 13 8 11 9 12 10 10 11
REMARK SMILES IDX 7 12 8 13 94 14 9 15 4 17 5 18 6 19 2 20 1 21 3 22 21 23
REMARK SMILES IDX 22 24 23 25 24 26 25 27 26 28 27 29 28 30 29 31 93 32 30 33
REMARK SMILES IDX 92 34 31 35 32 36 33 37 86 38 34 39 91 40 85 41 87 42 35 43
REMARK SMILES IDX 90 44 84 45 83 46 36 48 70 49 49 50 69 51 50 52 53 53 68 54
REMARK SMILES IDX 88 55 51 56 52 57 67 59 89 60 54 61 37 62 38 63 47 64 39 65
REMARK SMILES IDX 40 66 46 67 48 68 41 69 42 70 43 71 44 72 45 73 71 74 72 75
REMARK SMILES IDX 81 76 73 77 74 78 80 79 82 80 75 81 76 82 77 83 78 84 79 85
REMARK SMILES IDX 55 86 56 87 65 88 57 89 58 90 64 91 66 92 59 93 60 94 61 95
REMARK SMILES IDX 62 96 63 97
REMARK H PARENT 9 16 87 47 53 58
REMARK Flexibility Score: inf
ROOT
ATOM      1  C   UNL     1       1.069  -8.957   1.423  1.00  0.00     0.188 C 
ENDROOT
BRANCH   1   2
ATOM      2  O   UNL     1       1.264  -8.106   0.295  1.00  0.00    -0.377 OA
BRANCH   2   3
ATOM      3  C   UNL     1       0.096  -7.526  -0.257  1.00  0.00     0.188 C 
BRANCH   3   4
ATOM      4  C   UNL     1      -0.490  -8.284  -1.470  1.00  0.00     0.188 C 
BRANCH   4   5
ATOM      5  O   UNL     1       0.040  -9.521  -1.932  1.00  0.00    -0.376 OA
BRANCH   5   6
ATOM      6  C   UNL     1       1.419  -9.837  -1.854  1.00  0.00     0.202 C 
BRANCH   6   7
ATOM      7  C   UNL     1       2.513  -8.889  -2.376  1.00  0.00     0.261 C 
BRANCH   7   8
ATOM      8  O   UNL     1       2.254  -7.487  -2.304  1.00  0.00    -0.459 OA
BRANCH   8   9
ATOM      9  C   UNL     1       1.595  -6.967  -3.363  1.00  0.00     0.354 C 
ATOM     10  O   UNL     1       1.275  -7.588  -4.381  1.00  0.00    -0.244 OA
BRANCH   9  11
ATOM     11  C   UNL     1       1.144  -5.632  -3.065  1.00  0.00     0.126 A 
ATOM     12  C   UNL     1       0.864  -3.471  -2.440  1.00  0.00     0.100 A 
ATOM     13  C   UNL     1      -0.283  -3.886  -3.088  1.00  0.00     0.105 A 
ATOM     14  C   UNL     1       1.723  -4.601  -2.338  1.00  0.00     0.057 A 
ATOM     15  N   UNL     1      -0.083  -5.175  -3.496  1.00  0.00    -0.354 N 
ATOM     16  H   UNL     1      -0.725  -5.702  -4.024  1.00  0.00     0.166 HD
BRANCH  12  17
ATOM     17  S   UNL     1       1.245  -1.847  -1.971  1.00  0.00     0.244 S 
ATOM     18  O   UNL     1       0.563  -1.032  -2.958  1.00  0.00    -0.207 OA
ATOM     19  O   UNL     1       2.687  -1.840  -1.866  1.00  0.00    -0.207 OA
BRANCH  17  20
ATOM     20  N   UNL     1       0.589  -1.470  -0.444  1.00  0.00    -0.204 NA
ATOM     21  C   UNL     1       1.093  -0.168   0.062  1.00  0.00     0.124 C 
ATOM     22  C   UNL     1      -0.884  -1.542  -0.352  1.00  0.00     0.124 C 
ENDBRANCH  17  20
ENDBRANCH  12  17
ENDBRANCH   9  11
ENDBRANCH   8   9
ENDBRANCH   7   8
ENDBRANCH   6   7
ENDBRANCH   5   6
ENDBRANCH   4   5
ENDBRANCH   3   4
ENDBRANCH   2   3
ENDBRANCH   1   2
BRANCH   1  23
ATOM     23  C   UNL     1      -0.062 -10.009   1.347  1.00  0.00     0.188 C 
BRANCH  23  24
ATOM     24  O   UNL     1      -1.285  -9.524   0.808  1.00  0.00    -0.376 OA
BRANCH  24  25
ATOM     25  C   UNL     1      -2.393  -9.222   1.636  1.00  0.00     0.202 C 
BRANCH  25  26
ATOM     26  C   UNL     1      -2.235  -8.040   2.598  1.00  0.00     0.261 C 
BRANCH  26  27
ATOM     27  O   UNL     1      -1.102  -8.111   3.451  1.00  0.00    -0.460 OA
BRANCH  27  28
ATOM     28  C   UNL     1      -1.096  -9.216   4.214  1.00  0.00     0.338 C 
ATOM     29  O   UNL     1      -1.777 -10.223   4.101  1.00  0.00    -0.246 OA
BRANCH  28  30
ATOM     30  C   UNL     1      -0.238  -9.029   5.359  1.00  0.00     0.060 A 
ATOM     31  C   UNL     1       0.320 -10.200   5.880  1.00  0.00     0.016 A 
ATOM     32  C   UNL     1      -0.459  -7.867   6.103  1.00  0.00     0.016 A 
ATOM     33  C   UNL     1       0.489 -10.272   7.237  1.00  0.00     0.010 A 
ATOM     34  C   UNL     1      -0.324  -7.952   7.465  1.00  0.00     0.010 A 
ATOM     35  C   UNL     1       0.117  -9.166   8.014  1.00  0.00    -0.014 A 
BRANCH  35  36
ATOM     36  C   UNL     1       0.480  -9.204   9.426  1.00  0.00     0.031 A 
ATOM     37  C   UNL     1       1.938  -8.670   9.563  1.00  0.00     0.074 A 
ATOM     38  C   UNL     1      -0.499  -9.687  10.258  1.00  0.00     0.049 A 
ATOM     39  N   UNL     1       2.754  -8.699  10.566  1.00  0.00    -0.248 NA
ATOM     40  C   UNL     1       2.604  -8.008   8.388  1.00  0.00     0.031 C 
ATOM     41  C   UNL     1      -1.879 -10.082   9.856  1.00  0.00     0.029 A 
ATOM     42  N   UNL     1      -0.552  -9.941  11.608  1.00  0.00    -0.354 N 
ATOM     43  C   UNL     1       3.826  -7.821  10.266  1.00  0.00     0.074 A 
ATOM     44  C   UNL     1       3.745  -7.526   8.876  1.00  0.00     0.031 C 
ATOM     45  C   UNL     1      -2.571 -10.601  10.901  1.00  0.00     0.029 A 
ATOM     46  C   UNL     1      -1.748 -10.560  12.094  1.00  0.00     0.049 A 
ATOM     47  H   UNL     1       0.193  -9.710  12.209  1.00  0.00     0.167 HD
ATOM     48  C   UNL     1       4.613  -7.268  11.232  1.00  0.00     0.037 A 
ATOM     49  C   UNL     1      -2.011 -11.012  13.366  1.00  0.00     0.037 A 
ATOM     50  C   UNL     1       4.299  -7.865  12.483  1.00  0.00     0.049 A 
ATOM     51  C   UNL     1      -0.913 -10.429  14.142  1.00  0.00     0.074 A 
ATOM     52  C   UNL     1       4.538  -9.127  12.959  1.00  0.00     0.029 A 
ATOM     53  N   UNL     1       3.300  -7.274  13.218  1.00  0.00    -0.354 N 
ATOM     54  N   UNL     1      -0.834  -9.170  14.448  1.00  0.00    -0.248 NA
ATOM     55  C   UNL     1       0.228 -11.276  14.502  1.00  0.00     0.031 C 
ATOM     56  C   UNL     1       3.339  -9.440  13.625  1.00  0.00     0.029 A 
ATOM     57  C   UNL     1       2.556  -8.287  13.768  1.00  0.00     0.049 A 
ATOM     58  H   UNL     1       3.147  -6.308  13.328  1.00  0.00     0.167 HD
ATOM     59  C   UNL     1       0.501  -9.023  14.713  1.00  0.00     0.074 A 
ATOM     60  C   UNL     1       0.998 -10.342  15.054  1.00  0.00     0.031 C 
ATOM     61  C   UNL     1       1.194  -8.001  14.149  1.00  0.00     0.037 A 
BRANCH  48  62
ATOM     62  C   UNL     1       5.505  -6.059  11.249  1.00  0.00     0.058 A 
ATOM     63  C   UNL     1       6.380  -5.917  12.355  1.00  0.00     0.135 A 
ATOM     64  C   UNL     1       5.269  -4.901  10.493  1.00  0.00     0.135 A 
ATOM     65  F   UNL     1       6.742  -6.984  13.088  1.00  0.00    -0.206 F 
ATOM     66  C   UNL     1       6.827  -4.682  12.799  1.00  0.00     0.059 A 
ATOM     67  C   UNL     1       5.757  -3.652  10.893  1.00  0.00     0.059 A 
ATOM     68  F   UNL     1       4.495  -4.931   9.400  1.00  0.00    -0.206 F 
ATOM     69  C   UNL     1       6.475  -3.547  12.083  1.00  0.00     0.060 A 
BRANCH  69  70
ATOM     70  S   UNL     1       6.938  -1.942  12.764  1.00  0.00     0.124 S 
ATOM     71  O   UNL     1       6.018  -1.822  13.889  1.00  0.00    -0.237 OA
ATOM     72  O   UNL     1       8.340  -2.150  13.113  1.00  0.00    -0.237 OA
ATOM     73  O   UNL     1       6.707  -1.027  11.651  1.00  0.00    -0.744 OA
ENDBRANCH  69  70
ENDBRANCH  48  62
BRANCH  49  74
ATOM     74  C   UNL     1      -2.970 -11.874  14.179  1.00  0.00     0.058 A 
ATOM     75  C   UNL     1      -4.132 -12.511  13.727  1.00  0.00     0.135 A 
ATOM     76  C   UNL     1      -2.613 -12.229  15.520  1.00  0.00     0.135 A 
ATOM     77  F   UNL     1      -4.670 -12.185  12.544  1.00  0.00    -0.206 F 
ATOM     78  C   UNL     1      -4.778 -13.528  14.477  1.00  0.00     0.059 A 
ATOM     79  C   UNL     1      -3.191 -13.263  16.250  1.00  0.00     0.059 A 
ATOM     80  F   UNL     1      -1.634 -11.600  16.186  1.00  0.00    -0.206 F 
ATOM     81  C   UNL     1      -4.257 -13.941  15.707  1.00  0.00     0.060 A 
BRANCH  81  82
ATOM     82  S   UNL     1      -4.846 -15.437  16.541  1.00  0.00     0.124 S 
ATOM     83  O   UNL     1      -6.029 -14.955  17.245  1.00  0.00    -0.237 OA
ATOM     84  O   UNL     1      -5.092 -16.343  15.424  1.00  0.00    -0.237 OA
ATOM     85  O   UNL     1      -3.720 -15.813  17.394  1.00  0.00    -0.744 OA
ENDBRANCH  81  82
ENDBRANCH  49  74
BRANCH  61  86
ATOM     86  C   UNL     1       0.347  -6.819  13.683  1.00  0.00     0.058 A 
ATOM     87  C   UNL     1      -0.408  -6.089  14.615  1.00  0.00     0.135 A 
ATOM     88  C   UNL     1       0.186  -6.430  12.339  1.00  0.00     0.135 A 
ATOM     89  F   UNL     1      -0.307  -6.374  15.923  1.00  0.00    -0.206 F 
ATOM     90  C   UNL     1      -1.270  -5.051  14.240  1.00  0.00     0.059 A 
ATOM     91  C   UNL     1      -0.669  -5.398  11.933  1.00  0.00     0.059 A 
ATOM     92  F   UNL     1       0.869  -7.037  11.370  1.00  0.00    -0.206 F 
ATOM     93  C   UNL     1      -1.397  -4.710  12.894  1.00  0.00     0.060 A 
BRANCH  93  94
ATOM     94  S   UNL     1      -2.495  -3.350  12.428  1.00  0.00     0.124 S 
ATOM     95  O   UNL     1      -3.781  -3.783  12.964  1.00  0.00    -0.237 OA
ATOM     96  O   UNL     1      -1.879  -2.214  13.106  1.00  0.00    -0.237 OA
ATOM     97  O   UNL     1      -2.413  -3.322  10.968  1.00  0.00    -0.744 OA
ENDBRANCH  93  94
ENDBRANCH  61  86
ENDBRANCH  35  36
ENDBRANCH  28  30
ENDBRANCH  27  28
ENDBRANCH  26  27
ENDBRANCH  25  26
ENDBRANCH  24  25
ENDBRANCH  23  24
ENDBRANCH   1  23
TORSDOF 25
