REMARK SMILES CCC(CC)(CC(=O)Nc1cccc(OC)c1)C(=O)OCCOCCOCCOCCOC(=O)c1ccc(-c2c3nc(c(-c4c(F)cc(S(=O)(=O)[O-])cc4F)c4ccc([nH]4)c(-c4c(F)cc(S(=O)(=O)[O-])cc4F)c4nc(c(-c5c(F)cc(S(=O)(=O)[O-])cc5F)c5ccc2[nH]5)C=C4)C=C3)cc1
REMARK SMILES IDX 25 1 24 2 23 3 22 4 21 5 20 6 18 7 19 8 3 9 2 10 1 11 4 12
REMARK SMILES IDX 5 13 6 14 7 15 8 16 9 17 10 19 11 20 17 21 12 22 14 23 13 24
REMARK SMILES IDX 15 25 16 26 26 27 27 28 28 29 29 30 30 31 31 32 32 33 33 34
REMARK SMILES IDX 34 35 35 36 36 37 100 38 37 39 99 40 38 41 39 42 40 43 93 44
REMARK SMILES IDX 41 45 98 46 92 47 94 48 42 49 97 50 91 51 90 52 43 54 77 55
REMARK SMILES IDX 56 56 76 57 57 58 60 59 75 60 95 61 58 62 59 63 74 65 96 66
REMARK SMILES IDX 61 67 44 68 45 69 54 70 46 71 47 72 53 73 55 74 48 75 49 76
REMARK SMILES IDX 50 77 51 78 52 79 78 80 79 81 88 82 80 83 81 84 87 85 89 86
REMARK SMILES IDX 82 87 83 88 84 89 85 90 86 91 62 92 63 93 72 94 64 95 65 96
REMARK SMILES IDX 71 97 73 98 66 99 67 100 68 101 69 102 70 103
REMARK H PARENT 9 18 94 53 60 64
REMARK Flexibility Score: inf
ROOT
ATOM      1  C   UNL     1       3.190   2.420   2.926  1.00  0.00     0.188 C 
ENDROOT
BRANCH   1   2
ATOM      2  C   UNL     1       4.263   1.508   2.310  1.00  0.00     0.188 C 
BRANCH   2   3
ATOM      3  O   UNL     1       5.478   2.127   1.955  1.00  0.00    -0.376 OA
BRANCH   3   4
ATOM      4  C   UNL     1       5.716   2.634   0.657  1.00  0.00     0.202 C 
BRANCH   4   5
ATOM      5  C   UNL     1       4.640   3.334  -0.194  1.00  0.00     0.261 C 
BRANCH   5   6
ATOM      6  O   UNL     1       3.315   3.310   0.346  1.00  0.00    -0.463 OA
BRANCH   6   7
ATOM      7  C   UNL     1       2.318   3.484  -0.561  1.00  0.00     0.312 C 
ATOM      8  O   UNL     1       2.538   3.855  -1.710  1.00  0.00    -0.252 OA
BRANCH   7   9
ATOM      9  C   UNL     1       0.952   2.876  -0.103  1.00  0.00     0.076 C 
BRANCH   9  10
ATOM     10  C   UNL     1       1.186   1.381   0.039  1.00  0.00     0.016 C 
ATOM     11  C   UNL     1       2.137   0.617  -0.866  1.00  0.00     0.005 C 
ENDBRANCH   9  10
BRANCH   9  12
ATOM     12  C   UNL     1      -0.004   3.179  -1.316  1.00  0.00     0.016 C 
ATOM     13  C   UNL     1      -1.490   2.867  -1.172  1.00  0.00     0.005 C 
ENDBRANCH   9  12
BRANCH   9  14
ATOM     14  C   UNL     1       0.303   3.456   1.204  1.00  0.00     0.119 C 
BRANCH  14  15
ATOM     15  C   UNL     1       0.078   2.789   2.602  1.00  0.00     0.225 C 
ATOM     16  O   UNL     1       0.378   3.497   3.586  1.00  0.00    -0.275 OA
ATOM     17  N   UNL     1      -0.580   1.673   3.010  1.00  0.00    -0.326 N 
ATOM     18  H   UNL     1      -0.625   1.667   3.993  1.00  0.00     0.169 HD
BRANCH  17  19
ATOM     19  C   UNL     1      -1.219   0.525   2.512  1.00  0.00     0.044 A 
ATOM     20  C   UNL     1      -2.409   0.141   3.142  1.00  0.00     0.026 A 
ATOM     21  C   UNL     1      -0.702  -0.365   1.582  1.00  0.00     0.072 A 
ATOM     22  C   UNL     1      -3.147  -0.963   2.691  1.00  0.00     0.006 A 
ATOM     23  C   UNL     1      -1.478  -1.391   1.033  1.00  0.00     0.120 A 
ATOM     24  C   UNL     1      -2.705  -1.696   1.594  1.00  0.00     0.046 A 
BRANCH  23  25
ATOM     25  O   UNL     1      -1.030  -2.192   0.018  1.00  0.00    -0.497 OA
ATOM     26  C   UNL     1      -0.702  -1.470  -1.173  1.00  0.00     0.278 C 
ENDBRANCH  23  25
ENDBRANCH  17  19
ENDBRANCH  14  15
ENDBRANCH   9  14
ENDBRANCH   7   9
ENDBRANCH   6   7
ENDBRANCH   5   6
ENDBRANCH   4   5
ENDBRANCH   3   4
ENDBRANCH   2   3
ENDBRANCH   1   2
BRANCH   1  27
ATOM     27  O   UNL     1       3.432   3.669   3.538  1.00  0.00    -0.377 OA
BRANCH  27  28
ATOM     28  C   UNL     1       4.731   4.206   3.506  1.00  0.00     0.188 C 
BRANCH  28  29
ATOM     29  C   UNL     1       5.707   3.488   4.445  1.00  0.00     0.188 C 
BRANCH  29  30
ATOM     30  O   UNL     1       5.222   2.355   5.142  1.00  0.00    -0.376 OA
BRANCH  30  31
ATOM     31  C   UNL     1       4.138   2.435   6.054  1.00  0.00     0.202 C 
BRANCH  31  32
ATOM     32  C   UNL     1       3.404   3.702   6.550  1.00  0.00     0.261 C 
BRANCH  32  33
ATOM     33  O   UNL     1       3.803   4.987   6.082  1.00  0.00    -0.460 OA
BRANCH  33  34
ATOM     34  C   UNL     1       4.855   5.565   6.689  1.00  0.00     0.338 C 
ATOM     35  O   UNL     1       5.538   5.101   7.589  1.00  0.00    -0.246 OA
BRANCH  34  36
ATOM     36  C   UNL     1       5.164   6.795   5.933  1.00  0.00     0.060 A 
ATOM     37  C   UNL     1       6.386   6.885   5.250  1.00  0.00     0.016 A 
ATOM     38  C   UNL     1       4.235   7.837   5.868  1.00  0.00     0.016 A 
ATOM     39  C   UNL     1       6.698   8.030   4.525  1.00  0.00     0.010 A 
ATOM     40  C   UNL     1       4.568   9.004   5.178  1.00  0.00     0.010 A 
ATOM     41  C   UNL     1       5.817   9.116   4.541  1.00  0.00    -0.014 A 
BRANCH  41  42
ATOM     42  C   UNL     1       6.322  10.449   4.149  1.00  0.00     0.031 A 
ATOM     43  C   UNL     1       6.859  11.329   5.244  1.00  0.00     0.074 A 
ATOM     44  C   UNL     1       6.333  10.855   2.868  1.00  0.00     0.049 A 
ATOM     45  N   UNL     1       7.285  12.562   5.187  1.00  0.00    -0.248 NA
ATOM     46  C   UNL     1       6.918  10.732   6.590  1.00  0.00     0.031 C 
ATOM     47  C   UNL     1       5.898  10.057   1.723  1.00  0.00     0.029 A 
ATOM     48  N   UNL     1       6.717  12.052   2.322  1.00  0.00    -0.354 N 
ATOM     49  C   UNL     1       7.646  12.892   6.488  1.00  0.00     0.074 A 
ATOM     50  C   UNL     1       7.366  11.742   7.317  1.00  0.00     0.031 C 
ATOM     51  C   UNL     1       6.018  10.800   0.608  1.00  0.00     0.029 A 
ATOM     52  C   UNL     1       6.501  12.133   0.967  1.00  0.00     0.049 A 
ATOM     53  H   UNL     1       7.110  12.784   2.849  1.00  0.00     0.167 HD
ATOM     54  C   UNL     1       8.167  14.053   6.949  1.00  0.00     0.037 A 
ATOM     55  C   UNL     1       6.647  13.177   0.128  1.00  0.00     0.037 A 
ATOM     56  C   UNL     1       8.431  15.191   6.111  1.00  0.00     0.049 A 
ATOM     57  C   UNL     1       7.153  14.489   0.675  1.00  0.00     0.074 A 
ATOM     58  C   UNL     1       8.961  16.417   6.468  1.00  0.00     0.029 A 
ATOM     59  N   UNL     1       8.174  15.245   4.748  1.00  0.00    -0.354 N 
ATOM     60  N   UNL     1       7.498  14.794   1.905  1.00  0.00    -0.248 NA
ATOM     61  C   UNL     1       7.293  15.599  -0.279  1.00  0.00     0.031 C 
ATOM     62  C   UNL     1       8.967  17.233   5.333  1.00  0.00     0.029 A 
ATOM     63  C   UNL     1       8.509  16.493   4.253  1.00  0.00     0.049 A 
ATOM     64  H   UNL     1       7.807  14.505   4.212  1.00  0.00     0.167 HD
ATOM     65  C   UNL     1       7.927  16.118   1.866  1.00  0.00     0.074 A 
ATOM     66  C   UNL     1       7.804  16.552   0.489  1.00  0.00     0.031 C 
ATOM     67  C   UNL     1       8.388  16.901   2.874  1.00  0.00     0.037 A 
BRANCH  54  68
ATOM     68  C   UNL     1       8.436  14.156   8.425  1.00  0.00     0.058 A 
ATOM     69  C   UNL     1       9.454  13.419   9.051  1.00  0.00     0.135 A 
ATOM     70  C   UNL     1       7.662  15.012   9.226  1.00  0.00     0.135 A 
ATOM     71  F   UNL     1      10.208  12.566   8.339  1.00  0.00    -0.206 F 
ATOM     72  C   UNL     1       9.676  13.504  10.422  1.00  0.00     0.059 A 
ATOM     73  C   UNL     1       7.888  15.138  10.593  1.00  0.00     0.059 A 
ATOM     74  F   UNL     1       6.670  15.733   8.682  1.00  0.00    -0.206 F 
ATOM     75  C   UNL     1       8.888  14.368  11.184  1.00  0.00     0.060 A 
BRANCH  75  76
ATOM     76  S   UNL     1       9.191  14.470  12.960  1.00  0.00     0.124 S 
ATOM     77  O   UNL     1       8.692  13.177  13.417  1.00  0.00    -0.237 OA
ATOM     78  O   UNL     1      10.639  14.648  13.019  1.00  0.00    -0.237 OA
ATOM     79  O   UNL     1       8.404  15.627  13.375  1.00  0.00    -0.744 OA
ENDBRANCH  75  76
ENDBRANCH  54  68
BRANCH  55  80
ATOM     80  C   UNL     1       6.295  13.030  -1.311  1.00  0.00     0.058 A 
ATOM     81  C   UNL     1       7.280  13.067  -2.308  1.00  0.00     0.135 A 
ATOM     82  C   UNL     1       4.964  12.840  -1.717  1.00  0.00     0.135 A 
ATOM     83  F   UNL     1       8.565  13.259  -1.974  1.00  0.00    -0.206 F 
ATOM     84  C   UNL     1       6.960  12.929  -3.656  1.00  0.00     0.059 A 
ATOM     85  C   UNL     1       4.622  12.672  -3.055  1.00  0.00     0.059 A 
ATOM     86  F   UNL     1       3.982  12.792  -0.803  1.00  0.00    -0.206 F 
ATOM     87  C   UNL     1       5.628  12.725  -4.019  1.00  0.00     0.060 A 
BRANCH  87  88
ATOM     88  S   UNL     1       5.234  12.487  -5.766  1.00  0.00     0.124 S 
ATOM     89  O   UNL     1       5.462  13.822  -6.304  1.00  0.00    -0.237 OA
ATOM     90  O   UNL     1       6.201  11.466  -6.158  1.00  0.00    -0.237 OA
ATOM     91  O   UNL     1       3.843  12.045  -5.740  1.00  0.00    -0.744 OA
ENDBRANCH  87  88
ENDBRANCH  55  80
BRANCH  67  92
ATOM     92  C   UNL     1       8.846  18.292   2.525  1.00  0.00     0.058 A 
ATOM     93  C   UNL     1       7.944  19.308   2.178  1.00  0.00     0.135 A 
ATOM     94  C   UNL     1      10.208  18.627   2.612  1.00  0.00     0.135 A 
ATOM     95  F   UNL     1       6.631  19.043   2.076  1.00  0.00    -0.206 F 
ATOM     96  C   UNL     1       8.377  20.603   1.906  1.00  0.00     0.059 A 
ATOM     97  C   UNL     1      10.660  19.922   2.377  1.00  0.00     0.059 A 
ATOM     98  F   UNL     1      11.114  17.697   2.953  1.00  0.00    -0.206 F 
ATOM     99  C   UNL     1       9.737  20.901   2.014  1.00  0.00     0.060 A 
BRANCH  99 100
ATOM    100  S   UNL     1      10.280  22.593   1.698  1.00  0.00     0.124 S 
ATOM    101  O   UNL     1      10.118  22.689   0.251  1.00  0.00    -0.237 OA
ATOM    102  O   UNL     1       9.340  23.375   2.495  1.00  0.00    -0.237 OA
ATOM    103  O   UNL     1      11.659  22.604   2.176  1.00  0.00    -0.744 OA
ENDBRANCH  99 100
ENDBRANCH  67  92
ENDBRANCH  41  42
ENDBRANCH  34  36
ENDBRANCH  33  34
ENDBRANCH  32  33
ENDBRANCH  31  32
ENDBRANCH  30  31
ENDBRANCH  29  30
ENDBRANCH  28  29
ENDBRANCH  27  28
ENDBRANCH   1  27
TORSDOF 29
