REMARK SMILES CCCCOc1ccc(NC(=O)[C@]2(C)CC[C@](C)(C(=O)OCCOCCOCCOCCOC(=O)c3ccc(-c4c5nc(c(-c6c(F)cc(S(=O)(=O)[O-])cc6F)c6ccc([nH]6)c(-c6c(F)cc(S(=O)(=O)[O-])cc6F)c6nc(c(-c7c(F)cc(S(=O)(=O)[O-])cc7F)c7ccc4[nH]7)C=C6)C=C5)cc3)C2(C)C)cc1
REMARK SMILES IDX 25 1 24 2 23 3 22 4 21 5 19 6 20 7 17 8 13 9 15 10 102 11
REMARK SMILES IDX 14 12 16 13 103 14 104 15 18 16 11 17 10 18 12 20 9 21 6 22
REMARK SMILES IDX 7 23 106 24 8 25 105 26 5 27 4 28 3 29 2 30 1 31 26 32 27 33
REMARK SMILES IDX 28 34 29 35 30 36 31 37 32 38 33 39 34 40 35 41 36 42 37 43
REMARK SMILES IDX 101 44 38 45 100 46 39 47 40 48 41 49 94 50 42 51 99 52
REMARK SMILES IDX 93 53 95 54 43 55 98 56 92 57 91 58 44 60 78 61 57 62 77 63
REMARK SMILES IDX 58 64 61 65 76 66 96 67 59 68 60 69 75 71 97 72 62 73 45 74
REMARK SMILES IDX 46 75 55 76 47 77 48 78 54 79 56 80 49 81 50 82 51 83 52 84
REMARK SMILES IDX 53 85 79 86 80 87 89 88 81 89 82 90 88 91 90 92 83 93 84 94
REMARK SMILES IDX 85 95 86 96 87 97 63 98 64 99 73 100 65 101 66 102 72 103
REMARK SMILES IDX 74 104 67 105 68 106 69 107 70 108 71 109
REMARK H PARENT 10 19 95 59 61 70
REMARK Flexibility Score: inf
ROOT
ATOM      1  C   UNL     1      -7.678   4.610   2.569  1.00  0.00     0.188 C 
ENDROOT
BRANCH   1   2
ATOM      2  O   UNL     1      -8.110   5.946   2.801  1.00  0.00    -0.376 OA
BRANCH   2   3
ATOM      3  C   UNL     1      -8.155   6.856   1.700  1.00  0.00     0.202 C 
BRANCH   3   4
ATOM      4  C   UNL     1      -6.894   7.108   0.839  1.00  0.00     0.261 C 
BRANCH   4   5
ATOM      5  O   UNL     1      -6.377   6.002   0.045  1.00  0.00    -0.463 OA
BRANCH   5   6
ATOM      6  C   UNL     1      -5.257   5.428   0.526  1.00  0.00     0.312 C 
ATOM      7  O   UNL     1      -4.748   5.782   1.595  1.00  0.00    -0.252 OA
BRANCH   6   8
ATOM      8  C   UNL     1      -4.571   4.311  -0.304  1.00  0.00     0.071 C 
ATOM      9  C   UNL     1      -5.043   1.898  -1.230  1.00  0.00     0.053 C 
ATOM     10  C   UNL     1      -3.985   1.959  -0.117  1.00  0.00     0.018 C 
ATOM     11  C   UNL     1      -5.143   3.513  -1.598  1.00  0.00    -0.005 C 
ATOM     12  C   UNL     1      -4.638   1.055  -2.462  1.00  0.00     0.022 C 
ATOM     13  C   UNL     1      -4.382   3.165   0.706  1.00  0.00     0.020 C 
ATOM     14  C   UNL     1      -4.254   3.824  -2.848  1.00  0.00     0.013 C 
ATOM     15  C   UNL     1      -6.536   3.936  -2.063  1.00  0.00     0.013 C 
ATOM     16  C   UNL     1      -3.165   4.938  -0.562  1.00  0.00     0.024 C 
BRANCH   9  17
ATOM     17  C   UNL     1      -6.333   1.166  -0.738  1.00  0.00     0.230 C 
ATOM     18  N   UNL     1      -6.363   0.121   0.147  1.00  0.00    -0.326 N 
ATOM     19  H   UNL     1      -7.266  -0.023   0.510  1.00  0.00     0.169 HD
ATOM     20  O   UNL     1      -7.440   1.436  -1.216  1.00  0.00    -0.274 OA
BRANCH  18  21
ATOM     21  C   UNL     1      -5.437  -0.800   0.670  1.00  0.00     0.041 A 
ATOM     22  C   UNL     1      -3.720  -2.663   1.872  1.00  0.00     0.119 A 
ATOM     23  C   UNL     1      -3.370  -2.088   0.660  1.00  0.00     0.048 A 
ATOM     24  C   UNL     1      -4.892  -2.284   2.515  1.00  0.00     0.048 A 
ATOM     25  C   UNL     1      -4.238  -1.174   0.059  1.00  0.00     0.030 A 
ATOM     26  C   UNL     1      -5.771  -1.396   1.893  1.00  0.00     0.030 A 
BRANCH  22  27
ATOM     27  O   UNL     1      -2.928  -3.593   2.478  1.00  0.00    -0.494 OA
BRANCH  27  28
ATOM     28  C   UNL     1      -2.901  -4.833   1.756  1.00  0.00     0.229 C 
BRANCH  28  29
ATOM     29  C   UNL     1      -4.002  -5.785   2.236  1.00  0.00     0.041 C 
BRANCH  29  30
ATOM     30  C   UNL     1      -5.405  -5.564   1.655  1.00  0.00     0.000 C 
ATOM     31  C   UNL     1      -5.482  -5.633   0.139  1.00  0.00     0.004 C 
ENDBRANCH  29  30
ENDBRANCH  28  29
ENDBRANCH  27  28
ENDBRANCH  22  27
ENDBRANCH  18  21
ENDBRANCH   9  17
ENDBRANCH   6   8
ENDBRANCH   5   6
ENDBRANCH   4   5
ENDBRANCH   3   4
ENDBRANCH   2   3
ENDBRANCH   1   2
BRANCH   1  32
ATOM     32  C   UNL     1      -8.410   3.812   1.487  1.00  0.00     0.188 C 
BRANCH  32  33
ATOM     33  O   UNL     1      -8.528   4.567   0.301  1.00  0.00    -0.377 OA
BRANCH  33  34
ATOM     34  C   UNL     1      -9.756   4.654  -0.409  1.00  0.00     0.188 C 
BRANCH  34  35
ATOM     35  C   UNL     1     -11.012   4.169   0.312  1.00  0.00     0.188 C 
BRANCH  35  36
ATOM     36  O   UNL     1     -11.138   2.759   0.533  1.00  0.00    -0.376 OA
BRANCH  36  37
ATOM     37  C   UNL     1     -10.479   1.881  -0.379  1.00  0.00     0.202 C 
BRANCH  37  38
ATOM     38  C   UNL     1     -11.248   1.563  -1.660  1.00  0.00     0.261 C 
BRANCH  38  39
ATOM     39  O   UNL     1     -11.295   2.687  -2.552  1.00  0.00    -0.460 OA
BRANCH  39  40
ATOM     40  C   UNL     1     -12.424   3.432  -2.492  1.00  0.00     0.338 C 
ATOM     41  O   UNL     1     -13.407   3.236  -1.806  1.00  0.00    -0.246 OA
BRANCH  40  42
ATOM     42  C   UNL     1     -12.215   4.653  -3.291  1.00  0.00     0.060 A 
ATOM     43  C   UNL     1     -12.454   5.897  -2.691  1.00  0.00     0.016 A 
ATOM     44  C   UNL     1     -11.835   4.567  -4.631  1.00  0.00     0.016 A 
ATOM     45  C   UNL     1     -12.336   7.064  -3.440  1.00  0.00     0.010 A 
ATOM     46  C   UNL     1     -11.739   5.734  -5.386  1.00  0.00     0.010 A 
ATOM     47  C   UNL     1     -12.017   6.981  -4.800  1.00  0.00    -0.014 A 
BRANCH  47  48
ATOM     48  C   UNL     1     -12.129   8.176  -5.661  1.00  0.00     0.031 A 
ATOM     49  C   UNL     1     -13.370   8.343  -6.489  1.00  0.00     0.074 A 
ATOM     50  C   UNL     1     -11.132   9.075  -5.715  1.00  0.00     0.049 A 
ATOM     51  N   UNL     1     -13.637   9.227  -7.413  1.00  0.00    -0.248 NA
ATOM     52  C   UNL     1     -14.454   7.375  -6.247  1.00  0.00     0.031 C 
ATOM     53  C   UNL     1      -9.909   9.027  -4.914  1.00  0.00     0.029 A 
ATOM     54  N   UNL     1     -10.981  10.189  -6.498  1.00  0.00    -0.354 N 
ATOM     55  C   UNL     1     -14.910   8.914  -7.875  1.00  0.00     0.074 A 
ATOM     56  C   UNL     1     -15.354   7.747  -7.146  1.00  0.00     0.031 C 
ATOM     57  C   UNL     1      -9.118  10.054  -5.269  1.00  0.00     0.029 A 
ATOM     58  C   UNL     1      -9.759  10.800  -6.350  1.00  0.00     0.049 A 
ATOM     59  H   UNL     1     -11.681  10.521  -7.106  1.00  0.00     0.167 HD
ATOM     60  C   UNL     1     -15.637   9.549  -8.823  1.00  0.00     0.037 A 
ATOM     61  C   UNL     1      -9.210  11.816  -7.042  1.00  0.00     0.037 A 
ATOM     62  C   UNL     1     -15.171  10.706  -9.542  1.00  0.00     0.049 A 
ATOM     63  C   UNL     1     -10.006  12.456  -8.151  1.00  0.00     0.074 A 
ATOM     64  C   UNL     1     -15.832  11.442 -10.508  1.00  0.00     0.029 A 
ATOM     65  N   UNL     1     -13.921  11.287  -9.380  1.00  0.00    -0.354 N 
ATOM     66  N   UNL     1     -11.218  12.171  -8.568  1.00  0.00    -0.248 NA
ATOM     67  C   UNL     1      -9.360  13.551  -8.887  1.00  0.00     0.031 C 
ATOM     68  C   UNL     1     -14.957  12.428 -10.976  1.00  0.00     0.029 A 
ATOM     69  C   UNL     1     -13.775  12.350 -10.255  1.00  0.00     0.049 A 
ATOM     70  H   UNL     1     -13.237  10.987  -8.738  1.00  0.00     0.167 HD
ATOM     71  C   UNL     1     -11.489  13.067  -9.597  1.00  0.00     0.074 A 
ATOM     72  C   UNL     1     -10.320  13.913  -9.728  1.00  0.00     0.031 C 
ATOM     73  C   UNL     1     -12.601  13.181 -10.367  1.00  0.00     0.037 A 
BRANCH  60  74
ATOM     74  C   UNL     1     -16.990   8.986  -9.163  1.00  0.00     0.058 A 
ATOM     75  C   UNL     1     -18.072   9.059  -8.271  1.00  0.00     0.135 A 
ATOM     76  C   UNL     1     -17.216   8.393 -10.416  1.00  0.00     0.135 A 
ATOM     77  F   UNL     1     -17.909   9.595  -7.052  1.00  0.00    -0.206 F 
ATOM     78  C   UNL     1     -19.323   8.545  -8.601  1.00  0.00     0.059 A 
ATOM     79  C   UNL     1     -18.465   7.900 -10.779  1.00  0.00     0.059 A 
ATOM     80  F   UNL     1     -16.215   8.289 -11.305  1.00  0.00    -0.206 F 
ATOM     81  C   UNL     1     -19.510   7.970  -9.860  1.00  0.00     0.060 A 
BRANCH  81  82
ATOM     82  S   UNL     1     -21.143   7.324 -10.277  1.00  0.00     0.124 S 
ATOM     83  O   UNL     1     -21.222   6.149  -9.414  1.00  0.00    -0.237 OA
ATOM     84  O   UNL     1     -22.018   8.435  -9.915  1.00  0.00    -0.237 OA
ATOM     85  O   UNL     1     -21.046   7.046 -11.706  1.00  0.00    -0.744 OA
ENDBRANCH  81  82
ENDBRANCH  60  74
BRANCH  61  86
ATOM     86  C   UNL     1      -7.828  12.271  -6.728  1.00  0.00     0.058 A 
ATOM     87  C   UNL     1      -7.590  13.536  -6.174  1.00  0.00     0.135 A 
ATOM     88  C   UNL     1      -6.717  11.447  -6.973  1.00  0.00     0.135 A 
ATOM     89  F   UNL     1      -8.617  14.366  -5.931  1.00  0.00    -0.206 F 
ATOM     90  C   UNL     1      -6.302  13.976  -5.885  1.00  0.00     0.059 A 
ATOM     91  C   UNL     1      -5.422  11.852  -6.666  1.00  0.00     0.059 A 
ATOM     92  F   UNL     1      -6.889  10.222  -7.494  1.00  0.00    -0.206 F 
ATOM     93  C   UNL     1      -5.224  13.123  -6.131  1.00  0.00     0.060 A 
BRANCH  93  94
ATOM     94  S   UNL     1      -3.562  13.688  -5.707  1.00  0.00     0.124 S 
ATOM     95  O   UNL     1      -3.331  14.710  -6.721  1.00  0.00    -0.237 OA
ATOM     96  O   UNL     1      -3.744  14.171  -4.342  1.00  0.00    -0.237 OA
ATOM     97  O   UNL     1      -2.755  12.478  -5.834  1.00  0.00    -0.744 OA
ENDBRANCH  93  94
ENDBRANCH  61  86
BRANCH  73  98
ATOM     98  C   UNL     1     -12.620  14.274 -11.401  1.00  0.00     0.058 A 
ATOM     99  C   UNL     1     -11.835  14.206 -12.562  1.00  0.00     0.135 A 
ATOM    100  C   UNL     1     -13.483  15.373 -11.257  1.00  0.00     0.135 A 
ATOM    101  F   UNL     1     -10.988  13.181 -12.746  1.00  0.00    -0.206 F 
ATOM    102  C   UNL     1     -11.889  15.199 -13.534  1.00  0.00     0.059 A 
ATOM    103  C   UNL     1     -13.578  16.361 -12.232  1.00  0.00     0.059 A 
ATOM    104  F   UNL     1     -14.265  15.482 -10.171  1.00  0.00    -0.206 F 
ATOM    105  C   UNL     1     -12.768  16.270 -13.363  1.00  0.00     0.060 A 
BRANCH 105 106
ATOM    106  S   UNL     1     -12.857  17.529 -14.653  1.00  0.00     0.124 S 
ATOM    107  O   UNL     1     -11.580  18.214 -14.485  1.00  0.00    -0.237 OA
ATOM    108  O   UNL     1     -12.991  16.724 -15.864  1.00  0.00    -0.237 OA
ATOM    109  O   UNL     1     -14.039  18.306 -14.291  1.00  0.00    -0.744 OA
ENDBRANCH 105 106
ENDBRANCH  73  98
ENDBRANCH  47  48
ENDBRANCH  40  42
ENDBRANCH  39  40
ENDBRANCH  38  39
ENDBRANCH  37  38
ENDBRANCH  36  37
ENDBRANCH  35  36
ENDBRANCH  34  35
ENDBRANCH  33  34
ENDBRANCH  32  33
ENDBRANCH   1  32
TORSDOF 29
