REMARK SMILES Cc1ccc(N2C(=O)C[C@H](Sc3ccccc3C(=O)OCCOCCOCCOCCOC(=O)c3ccc(-c4c5nc(c(-c6c(F)cc(S(=O)(=O)[O-])cc6F)c6ccc([nH]6)c(-c6c(F)cc(S(=O)(=O)[O-])cc6F)c6nc(c(-c7c(F)cc(S(=O)(=O)[O-])cc7F)c7ccc4[nH]7)C=C6)C=C5)cc3)C2=O)cc1
REMARK SMILES IDX 26 1 25 2 24 3 23 4 22 5 21 6 20 7 18 8 19 9 17 10 12 11
REMARK SMILES IDX 13 12 14 13 16 14 15 15 11 16 10 17 6 18 7 19 101 20 8 21
REMARK SMILES IDX 9 22 102 23 5 24 1 25 2 26 3 27 104 28 4 29 103 30 27 31
REMARK SMILES IDX 28 32 29 33 30 34 31 35 32 36 33 37 34 38 35 39 36 40 100 41
REMARK SMILES IDX 37 42 99 43 38 44 39 45 40 46 93 47 41 48 98 49 92 50 94 51
REMARK SMILES IDX 42 52 97 53 91 54 90 55 43 57 77 58 56 59 76 60 57 61 60 62
REMARK SMILES IDX 75 63 95 64 58 65 59 66 74 68 96 69 61 70 44 71 45 72 54 73
REMARK SMILES IDX 46 74 47 75 53 76 55 77 48 78 49 79 50 80 51 81 52 82 78 83
REMARK SMILES IDX 79 84 88 85 80 86 81 87 87 88 89 89 82 90 83 91 84 92 85 93
REMARK SMILES IDX 86 94 62 95 63 96 72 97 64 98 65 99 71 100 73 101 66 102
REMARK SMILES IDX 67 103 68 104 69 105 70 106
REMARK H PARENT 94 56 60 67
REMARK Flexibility Score: inf
ROOT
ATOM      1  O   UNL     1      -3.178   3.753  -1.455  1.00  0.00    -0.377 OA
ENDROOT
BRANCH   1   2
ATOM      2  C   UNL     1      -3.377   2.981  -0.278  1.00  0.00     0.188 C 
BRANCH   2   3
ATOM      3  C   UNL     1      -4.805   2.484  -0.006  1.00  0.00     0.188 C 
BRANCH   3   4
ATOM      4  O   UNL     1      -5.369   1.757  -1.080  1.00  0.00    -0.376 OA
BRANCH   4   5
ATOM      5  C   UNL     1      -6.481   0.901  -0.876  1.00  0.00     0.202 C 
BRANCH   5   6
ATOM      6  C   UNL     1      -7.665   1.296  -0.015  1.00  0.00     0.261 C 
BRANCH   6   7
ATOM      7  O   UNL     1      -7.295   2.051   1.114  1.00  0.00    -0.460 OA
BRANCH   7   8
ATOM      8  C   UNL     1      -7.448   1.420   2.284  1.00  0.00     0.339 C 
ATOM      9  O   UNL     1      -8.146   0.444   2.514  1.00  0.00    -0.246 OA
BRANCH   8  10
ATOM     10  C   UNL     1      -6.351   1.936   3.114  1.00  0.00     0.073 A 
ATOM     11  C   UNL     1      -5.530   1.060   3.850  1.00  0.00     0.023 A 
ATOM     12  C   UNL     1      -4.526   1.643   4.630  1.00  0.00     0.016 A 
ATOM     13  C   UNL     1      -4.278   3.023   4.603  1.00  0.00     0.001 A 
ATOM     14  C   UNL     1      -6.076   3.326   3.059  1.00  0.00     0.017 A 
ATOM     15  C   UNL     1      -5.027   3.864   3.789  1.00  0.00     0.001 A 
BRANCH  11  16
ATOM     16  S   UNL     1      -5.759  -0.715   4.064  1.00  0.00    -0.111 SA
BRANCH  16  17
ATOM     17  C   UNL     1      -4.910  -1.581   2.671  1.00  0.00     0.151 C 
ATOM     18  N   UNL     1      -2.884  -0.795   1.807  1.00  0.00    -0.250 N 
ATOM     19  C   UNL     1      -3.810  -0.600   0.824  1.00  0.00     0.235 C 
ATOM     20  C   UNL     1      -3.402  -1.585   2.796  1.00  0.00     0.247 C 
ATOM     21  O   UNL     1      -3.589  -0.261  -0.311  1.00  0.00    -0.274 OA
ATOM     22  C   UNL     1      -5.151  -1.058   1.290  1.00  0.00     0.126 C 
ATOM     23  O   UNL     1      -2.780  -2.253   3.613  1.00  0.00    -0.273 OA
BRANCH  18  24
ATOM     24  C   UNL     1      -1.521  -0.641   1.483  1.00  0.00     0.052 A 
ATOM     25  C   UNL     1       2.463  -0.083  -0.080  1.00  0.00     0.044 C 
ATOM     26  C   UNL     1       1.068  -0.266   0.442  1.00  0.00    -0.051 A 
ATOM     27  C   UNL     1       0.520  -1.552   0.551  1.00  0.00     0.005 A 
ATOM     28  C   UNL     1       0.303   0.833   0.842  1.00  0.00     0.005 A 
ATOM     29  C   UNL     1      -0.763  -1.741   1.074  1.00  0.00     0.027 A 
ATOM     30  C   UNL     1      -0.985   0.646   1.353  1.00  0.00     0.027 A 
ENDBRANCH  18  24
ENDBRANCH  16  17
ENDBRANCH  11  16
ENDBRANCH   8  10
ENDBRANCH   7   8
ENDBRANCH   6   7
ENDBRANCH   5   6
ENDBRANCH   4   5
ENDBRANCH   3   4
ENDBRANCH   2   3
ENDBRANCH   1   2
BRANCH   1  31
ATOM     31  C   UNL     1      -3.114   2.978  -2.654  1.00  0.00     0.188 C 
BRANCH  31  32
ATOM     32  C   UNL     1      -2.042   1.922  -2.765  1.00  0.00     0.188 C 
BRANCH  32  33
ATOM     33  O   UNL     1      -2.736   0.678  -2.690  1.00  0.00    -0.376 OA
BRANCH  33  34
ATOM     34  C   UNL     1      -1.976  -0.502  -2.780  1.00  0.00     0.202 C 
BRANCH  34  35
ATOM     35  C   UNL     1      -0.984  -0.500  -3.930  1.00  0.00     0.261 C 
BRANCH  35  36
ATOM     36  O   UNL     1      -1.552  -0.750  -5.257  1.00  0.00    -0.460 OA
BRANCH  36  37
ATOM     37  C   UNL     1      -2.201   0.111  -6.100  1.00  0.00     0.338 C 
ATOM     38  O   UNL     1      -1.885   0.183  -7.284  1.00  0.00    -0.246 OA
BRANCH  37  39
ATOM     39  C   UNL     1      -3.501   0.700  -5.675  1.00  0.00     0.060 A 
ATOM     40  C   UNL     1      -3.966   1.933  -6.165  1.00  0.00     0.016 A 
ATOM     41  C   UNL     1      -4.327  -0.011  -4.832  1.00  0.00     0.016 A 
ATOM     42  C   UNL     1      -5.134   2.548  -5.647  1.00  0.00     0.010 A 
ATOM     43  C   UNL     1      -5.419   0.631  -4.260  1.00  0.00     0.010 A 
ATOM     44  C   UNL     1      -5.840   1.931  -4.623  1.00  0.00    -0.014 A 
BRANCH  44  45
ATOM     45  C   UNL     1      -6.959   2.523  -3.821  1.00  0.00     0.031 A 
ATOM     46  C   UNL     1      -8.194   1.646  -3.639  1.00  0.00     0.074 A 
ATOM     47  C   UNL     1      -6.701   3.573  -2.979  1.00  0.00     0.049 A 
ATOM     48  N   UNL     1      -9.158   1.844  -2.804  1.00  0.00    -0.248 NA
ATOM     49  C   UNL     1      -8.385   0.367  -4.338  1.00  0.00     0.031 C 
ATOM     50  C   UNL     1      -7.356   3.887  -1.709  1.00  0.00     0.029 A 
ATOM     51  N   UNL     1      -5.716   4.571  -3.008  1.00  0.00    -0.354 N 
ATOM     52  C   UNL     1      -9.842   0.649  -2.582  1.00  0.00     0.074 A 
ATOM     53  C   UNL     1      -9.364  -0.215  -3.630  1.00  0.00     0.031 C 
ATOM     54  C   UNL     1      -6.793   4.935  -1.082  1.00  0.00     0.029 A 
ATOM     55  C   UNL     1      -6.086   5.613  -2.122  1.00  0.00     0.049 A 
ATOM     56  H   UNL     1      -4.898   4.551  -3.556  1.00  0.00     0.167 HD
ATOM     57  C   UNL     1     -10.629   0.514  -1.456  1.00  0.00     0.037 A 
ATOM     58  C   UNL     1      -6.537   6.791  -2.647  1.00  0.00     0.037 A 
ATOM     59  C   UNL     1     -10.764   1.822  -0.743  1.00  0.00     0.049 A 
ATOM     60  C   UNL     1      -8.092   6.893  -2.511  1.00  0.00     0.074 A 
ATOM     61  C   UNL     1     -10.691   2.268   0.569  1.00  0.00     0.029 A 
ATOM     62  N   UNL     1     -10.847   2.997  -1.496  1.00  0.00    -0.354 N 
ATOM     63  N   UNL     1      -8.845   5.957  -1.962  1.00  0.00    -0.248 NA
ATOM     64  C   UNL     1      -8.937   8.016  -2.894  1.00  0.00     0.031 C 
ATOM     65  C   UNL     1     -10.666   3.705   0.566  1.00  0.00     0.029 A 
ATOM     66  C   UNL     1     -10.786   4.151  -0.742  1.00  0.00     0.049 A 
ATOM     67  H   UNL     1     -10.941   3.000  -2.476  1.00  0.00     0.167 HD
ATOM     68  C   UNL     1     -10.170   6.257  -1.928  1.00  0.00     0.074 A 
ATOM     69  C   UNL     1     -10.174   7.572  -2.564  1.00  0.00     0.031 C 
ATOM     70  C   UNL     1     -11.134   5.421  -1.393  1.00  0.00     0.037 A 
BRANCH  57  71
ATOM     71  C   UNL     1     -11.185  -0.817  -0.851  1.00  0.00     0.058 A 
ATOM     72  C   UNL     1     -12.080  -0.791   0.253  1.00  0.00     0.135 A 
ATOM     73  C   UNL     1     -10.830  -2.138  -1.228  1.00  0.00     0.135 A 
ATOM     74  F   UNL     1     -12.572   0.365   0.716  1.00  0.00    -0.206 F 
ATOM     75  C   UNL     1     -12.536  -1.935   0.935  1.00  0.00     0.059 A 
ATOM     76  C   UNL     1     -11.322  -3.305  -0.595  1.00  0.00     0.059 A 
ATOM     77  F   UNL     1      -9.956  -2.379  -2.211  1.00  0.00    -0.206 F 
ATOM     78  C   UNL     1     -12.162  -3.196   0.503  1.00  0.00     0.060 A 
BRANCH  78  79
ATOM     79  S   UNL     1     -12.826  -4.656   1.350  1.00  0.00     0.124 S 
ATOM     80  O   UNL     1     -12.141  -4.608   2.637  1.00  0.00    -0.237 OA
ATOM     81  O   UNL     1     -14.258  -4.376   1.385  1.00  0.00    -0.237 OA
ATOM     82  O   UNL     1     -12.436  -5.763   0.480  1.00  0.00    -0.744 OA
ENDBRANCH  78  79
ENDBRANCH  57  71
BRANCH  58  83
ATOM     83  C   UNL     1      -5.481   7.234  -3.651  1.00  0.00     0.058 A 
ATOM     84  C   UNL     1      -4.206   7.525  -3.076  1.00  0.00     0.135 A 
ATOM     85  C   UNL     1      -5.439   6.652  -4.933  1.00  0.00     0.135 A 
ATOM     86  F   UNL     1      -4.145   8.103  -1.864  1.00  0.00    -0.206 F 
ATOM     87  C   UNL     1      -2.999   7.043  -3.611  1.00  0.00     0.059 A 
ATOM     88  C   UNL     1      -4.232   6.173  -5.492  1.00  0.00     0.059 A 
ATOM     89  F   UNL     1      -6.586   6.339  -5.555  1.00  0.00    -0.206 F 
ATOM     90  C   UNL     1      -3.026   6.316  -4.795  1.00  0.00     0.060 A 
BRANCH  90  91
ATOM     91  S   UNL     1      -1.532   5.391  -5.299  1.00  0.00     0.124 S 
ATOM     92  O   UNL     1      -0.764   6.408  -6.005  1.00  0.00    -0.237 OA
ATOM     93  O   UNL     1      -0.959   4.944  -4.031  1.00  0.00    -0.237 OA
ATOM     94  O   UNL     1      -2.067   4.319  -6.130  1.00  0.00    -0.744 OA
ENDBRANCH  90  91
ENDBRANCH  58  83
BRANCH  70  95
ATOM     95  C   UNL     1     -12.622   5.672  -1.497  1.00  0.00     0.058 A 
ATOM     96  C   UNL     1     -13.189   6.941  -1.392  1.00  0.00     0.135 A 
ATOM     97  C   UNL     1     -13.548   4.601  -1.664  1.00  0.00     0.135 A 
ATOM     98  F   UNL     1     -12.453   7.994  -1.009  1.00  0.00    -0.206 F 
ATOM     99  C   UNL     1     -14.540   7.161  -1.649  1.00  0.00     0.059 A 
ATOM    100  C   UNL     1     -14.903   4.789  -1.858  1.00  0.00     0.059 A 
ATOM    101  F   UNL     1     -13.188   3.313  -1.671  1.00  0.00    -0.206 F 
ATOM    102  C   UNL     1     -15.380   6.080  -1.919  1.00  0.00     0.060 A 
BRANCH 102 103
ATOM    103  S   UNL     1     -17.096   6.369  -2.347  1.00  0.00     0.124 S 
ATOM    104  O   UNL     1     -17.497   7.363  -1.357  1.00  0.00    -0.237 OA
ATOM    105  O   UNL     1     -16.971   6.852  -3.719  1.00  0.00    -0.237 OA
ATOM    106  O   UNL     1     -17.716   5.056  -2.198  1.00  0.00    -0.744 OA
ENDBRANCH 102 103
ENDBRANCH  70  95
ENDBRANCH  44  45
ENDBRANCH  37  39
ENDBRANCH  36  37
ENDBRANCH  35  36
ENDBRANCH  34  35
ENDBRANCH  33  34
ENDBRANCH  32  33
ENDBRANCH  31  32
ENDBRANCH   1  31
TORSDOF 26
