REMARK SMILES O=C(CNC(=O)N1CC(OCCOCCOCCOCCOC(=O)c2ccc(-c3c4nc(c(-c5c(F)cc(S(=O)(=O)[O-])cc5F)c5ccc([nH]5)c(-c5c(F)cc(S(=O)(=O)[O-])cc5F)c5nc(c(-c6c(F)cc(S(=O)(=O)[O-])cc6F)c6ccc3[nH]6)C=C5)C=C4)cc2)=Nc2ccccc21)N[C@H](C(=O)[O-])c1ccccc1
REMARK SMILES IDX 15 1 14 2 13 3 12 4 11 5 10 6 9 7 7 8 8 9 97 10 92 11 96 12
REMARK SMILES IDX 91 13 93 14 95 15 94 16 5 17 4 18 6 20 3 21 2 22 1 23 98 24
REMARK SMILES IDX 99 26 103 27 104 28 108 29 105 30 107 31 106 32 100 33
REMARK SMILES IDX 101 34 102 35 16 36 17 37 18 38 19 39 20 40 21 41 22 42
REMARK SMILES IDX 23 43 24 44 25 45 26 46 90 47 27 48 89 49 28 50 29 51 30 52
REMARK SMILES IDX 83 53 31 54 88 55 82 56 84 57 32 58 87 59 81 60 80 61 33 63
REMARK SMILES IDX 67 64 46 65 66 66 47 67 50 68 65 69 85 70 48 71 49 72 64 74
REMARK SMILES IDX 86 75 51 76 34 77 35 78 44 79 36 80 37 81 43 82 45 83 38 84
REMARK SMILES IDX 39 85 40 86 41 87 42 88 68 89 69 90 78 91 70 92 71 93 77 94
REMARK SMILES IDX 79 95 72 96 73 97 74 98 75 99 76 100 52 101 53 102 62 103
REMARK SMILES IDX 54 104 55 105 61 106 63 107 56 108 57 109 58 110 59 111
REMARK SMILES IDX 60 112
REMARK H PARENT 4 19 98 25 84 62 50 73
REMARK Flexibility Score: inf
ROOT
ATOM      1  C   UNL     1       0.501   2.484   4.725  1.00  0.00     0.188 C 
ENDROOT
BRANCH   1   2
ATOM      2  C   UNL     1      -0.085   1.225   5.363  1.00  0.00     0.188 C 
BRANCH   2   3
ATOM      3  O   UNL     1      -1.480   1.187   5.643  1.00  0.00    -0.376 OA
BRANCH   3   4
ATOM      4  C   UNL     1      -2.172   2.375   6.007  1.00  0.00     0.201 C 
BRANCH   4   5
ATOM      5  C   UNL     1      -1.931   2.978   7.401  1.00  0.00     0.259 C 
BRANCH   5   6
ATOM      6  O   UNL     1      -0.630   3.585   7.573  1.00  0.00    -0.477 OA
BRANCH   6   7
ATOM      7  C   UNL     1       0.352   2.803   8.081  1.00  0.00     0.209 C 
ATOM      8  N   UNL     1       2.735   2.404   7.636  1.00  0.00    -0.283 N 
ATOM      9  C   UNL     1       1.730   3.414   7.989  1.00  0.00     0.224 C 
ATOM     10  C   UNL     1       2.519   1.100   8.203  1.00  0.00     0.072 A 
ATOM     11  C   UNL     1       1.221   0.767   8.672  1.00  0.00     0.091 A 
ATOM     12  C   UNL     1       3.521   0.129   8.288  1.00  0.00     0.029 A 
ATOM     13  N   UNL     1       0.114   1.619   8.534  1.00  0.00    -0.214 NA
ATOM     14  C   UNL     1       0.934  -0.539   9.082  1.00  0.00     0.030 A 
ATOM     15  C   UNL     1       3.216  -1.178   8.689  1.00  0.00     0.002 A 
ATOM     16  C   UNL     1       1.920  -1.517   9.066  1.00  0.00     0.002 A 
BRANCH   8  17
ATOM     17  C   UNL     1       3.856   2.875   6.993  1.00  0.00     0.322 C 
ATOM     18  N   UNL     1       4.511   2.137   6.063  1.00  0.00    -0.329 N 
ATOM     19  H   UNL     1       5.416   2.458   5.847  1.00  0.00     0.165 HD
ATOM     20  O   UNL     1       4.259   4.031   7.152  1.00  0.00    -0.248 OA
BRANCH  18  21
ATOM     21  C   UNL     1       4.097   0.949   5.333  1.00  0.00     0.218 C 
BRANCH  21  22
ATOM     22  C   UNL     1       4.095   1.023   3.800  1.00  0.00     0.240 C 
ATOM     23  O   UNL     1       3.841   0.012   3.143  1.00  0.00    -0.273 OA
ATOM     24  N   UNL     1       4.309   2.250   3.211  1.00  0.00    -0.342 N 
ATOM     25  H   UNL     1       4.723   2.986   3.716  1.00  0.00     0.164 HD
BRANCH  24  26
ATOM     26  C   UNL     1       3.904   2.436   1.810  1.00  0.00     0.158 C 
BRANCH  26  27
ATOM     27  C   UNL     1       3.898   3.911   1.416  1.00  0.00    -0.020 A 
ATOM     28  C   UNL     1       4.818   4.457   0.504  1.00  0.00     0.006 A 
ATOM     29  C   UNL     1       2.894   4.753   1.925  1.00  0.00     0.006 A 
ATOM     30  C   UNL     1       4.699   5.781   0.071  1.00  0.00     0.000 A 
ATOM     31  C   UNL     1       2.785   6.080   1.500  1.00  0.00     0.000 A 
ATOM     32  C   UNL     1       3.679   6.589   0.563  1.00  0.00     0.000 A 
ENDBRANCH  26  27
BRANCH  26  33
ATOM     33  C   UNL     1       4.621   1.550   0.762  1.00  0.00     0.068 C 
ATOM     34  O   UNL     1       4.296   1.426  -0.412  1.00  0.00    -0.548 OA
ATOM     35  O   UNL     1       5.746   0.937   1.189  1.00  0.00    -0.548 OA
ENDBRANCH  26  33
ENDBRANCH  24  26
ENDBRANCH  21  22
ENDBRANCH  18  21
ENDBRANCH   8  17
ENDBRANCH   6   7
ENDBRANCH   5   6
ENDBRANCH   4   5
ENDBRANCH   3   4
ENDBRANCH   2   3
ENDBRANCH   1   2
BRANCH   1  36
ATOM     36  O   UNL     1       0.573   2.436   3.309  1.00  0.00    -0.377 OA
BRANCH  36  37
ATOM     37  C   UNL     1      -0.680   2.407   2.649  1.00  0.00     0.188 C 
BRANCH  37  38
ATOM     38  C   UNL     1      -1.236   1.016   2.280  1.00  0.00     0.188 C 
BRANCH  38  39
ATOM     39  O   UNL     1      -0.491  -0.165   2.557  1.00  0.00    -0.376 OA
BRANCH  39  40
ATOM     40  C   UNL     1       0.872  -0.242   2.143  1.00  0.00     0.202 C 
BRANCH  40  41
ATOM     41  C   UNL     1       1.123  -0.046   0.654  1.00  0.00     0.261 C 
BRANCH  41  42
ATOM     42  O   UNL     1       0.954   1.341   0.321  1.00  0.00    -0.460 OA
BRANCH  42  43
ATOM     43  C   UNL     1       0.428   1.557  -0.899  1.00  0.00     0.338 C 
ATOM     44  O   UNL     1       0.237   0.730  -1.782  1.00  0.00    -0.246 OA
BRANCH  43  45
ATOM     45  C   UNL     1      -0.142   2.909  -0.932  1.00  0.00     0.060 A 
ATOM     46  C   UNL     1      -1.536   3.002  -1.001  1.00  0.00     0.016 A 
ATOM     47  C   UNL     1       0.656   4.055  -0.968  1.00  0.00     0.016 A 
ATOM     48  C   UNL     1      -2.133   4.234  -1.228  1.00  0.00     0.010 A 
ATOM     49  C   UNL     1       0.051   5.298  -1.195  1.00  0.00     0.010 A 
ATOM     50  C   UNL     1      -1.337   5.373  -1.413  1.00  0.00    -0.014 A 
BRANCH  50  51
ATOM     51  C   UNL     1      -1.955   6.505  -2.152  1.00  0.00     0.031 A 
ATOM     52  C   UNL     1      -1.722   6.580  -3.643  1.00  0.00     0.074 A 
ATOM     53  C   UNL     1      -2.839   7.328  -1.560  1.00  0.00     0.049 A 
ATOM     54  N   UNL     1      -2.306   7.333  -4.538  1.00  0.00    -0.248 NA
ATOM     55  C   UNL     1      -0.700   5.677  -4.199  1.00  0.00     0.031 C 
ATOM     56  C   UNL     1      -3.169   7.335  -0.136  1.00  0.00     0.029 A 
ATOM     57  N   UNL     1      -3.650   8.295  -2.099  1.00  0.00    -0.354 N 
ATOM     58  C   UNL     1      -1.730   6.987  -5.757  1.00  0.00     0.074 A 
ATOM     59  C   UNL     1      -0.714   5.998  -5.482  1.00  0.00     0.031 C 
ATOM     60  C   UNL     1      -4.133   8.247   0.084  1.00  0.00     0.029 A 
ATOM     61  C   UNL     1      -4.487   8.887  -1.183  1.00  0.00     0.049 A 
ATOM     62  H   UNL     1      -3.634   8.542  -3.052  1.00  0.00     0.167 HD
ATOM     63  C   UNL     1      -2.036   7.426  -7.000  1.00  0.00     0.037 A 
ATOM     64  C   UNL     1      -5.443   9.823  -1.354  1.00  0.00     0.037 A 
ATOM     65  C   UNL     1      -3.058   8.397  -7.279  1.00  0.00     0.049 A 
ATOM     66  C   UNL     1      -5.753  10.315  -2.745  1.00  0.00     0.074 A 
ATOM     67  C   UNL     1      -3.452   8.908  -8.502  1.00  0.00     0.029 A 
ATOM     68  N   UNL     1      -3.852   9.002  -6.316  1.00  0.00    -0.354 N 
ATOM     69  N   UNL     1      -5.218   9.955  -3.889  1.00  0.00    -0.248 NA
ATOM     70  C   UNL     1      -6.812  11.327  -2.870  1.00  0.00     0.031 C 
ATOM     71  C   UNL     1      -4.462   9.850  -8.275  1.00  0.00     0.029 A 
ATOM     72  C   UNL     1      -4.725   9.892  -6.915  1.00  0.00     0.049 A 
ATOM     73  H   UNL     1      -3.801   8.824  -5.349  1.00  0.00     0.167 HD
ATOM     74  C   UNL     1      -5.890  10.679  -4.869  1.00  0.00     0.074 A 
ATOM     75  C   UNL     1      -6.883  11.482  -4.185  1.00  0.00     0.031 C 
ATOM     76  C   UNL     1      -5.705  10.682  -6.214  1.00  0.00     0.037 A 
BRANCH  63  77
ATOM     77  C   UNL     1      -1.237   6.865  -8.144  1.00  0.00     0.058 A 
ATOM     78  C   UNL     1      -1.403   5.540  -8.581  1.00  0.00     0.135 A 
ATOM     79  C   UNL     1      -0.292   7.661  -8.809  1.00  0.00     0.135 A 
ATOM     80  F   UNL     1      -2.276   4.729  -7.963  1.00  0.00    -0.206 F 
ATOM     81  C   UNL     1      -0.636   5.015  -9.617  1.00  0.00     0.059 A 
ATOM     82  C   UNL     1       0.467   7.165  -9.865  1.00  0.00     0.059 A 
ATOM     83  F   UNL     1      -0.089   8.932  -8.427  1.00  0.00    -0.206 F 
ATOM     84  C   UNL     1       0.298   5.835 -10.251  1.00  0.00     0.060 A 
BRANCH  84  85
ATOM     85  S   UNL     1       1.288   5.143 -11.593  1.00  0.00     0.124 S 
ATOM     86  O   UNL     1       2.237   4.312 -10.857  1.00  0.00    -0.237 OA
ATOM     87  O   UNL     1       0.292   4.423 -12.379  1.00  0.00    -0.237 OA
ATOM     88  O   UNL     1       1.857   6.323 -12.238  1.00  0.00    -0.744 OA
ENDBRANCH  84  85
ENDBRANCH  63  77
BRANCH  64  89
ATOM     89  C   UNL     1      -6.196  10.342  -0.180  1.00  0.00     0.058 A 
ATOM     90  C   UNL     1      -7.553  10.043   0.011  1.00  0.00     0.135 A 
ATOM     91  C   UNL     1      -5.568  11.162   0.771  1.00  0.00     0.135 A 
ATOM     92  F   UNL     1      -8.201   9.273  -0.876  1.00  0.00    -0.206 F 
ATOM     93  C   UNL     1      -8.267  10.550   1.093  1.00  0.00     0.059 A 
ATOM     94  C   UNL     1      -6.254  11.661   1.874  1.00  0.00     0.059 A 
ATOM     95  F   UNL     1      -4.269  11.470   0.641  1.00  0.00    -0.206 F 
ATOM     96  C   UNL     1      -7.607  11.357   2.022  1.00  0.00     0.060 A 
BRANCH  96  97
ATOM     97  S   UNL     1      -8.524  11.968   3.453  1.00  0.00     0.124 S 
ATOM     98  O   UNL     1      -9.338  13.019   2.854  1.00  0.00    -0.237 OA
ATOM     99  O   UNL     1      -9.242  10.774   3.890  1.00  0.00    -0.237 OA
ATOM    100  O   UNL     1      -7.471  12.420   4.356  1.00  0.00    -0.744 OA
ENDBRANCH  96  97
ENDBRANCH  64  89
BRANCH  76 101
ATOM    101  C   UNL     1      -6.609  11.563  -7.031  1.00  0.00     0.058 A 
ATOM    102  C   UNL     1      -6.475  12.960  -7.026  1.00  0.00     0.135 A 
ATOM    103  C   UNL     1      -7.602  11.001  -7.849  1.00  0.00     0.135 A 
ATOM    104  F   UNL     1      -5.540  13.547  -6.262  1.00  0.00    -0.206 F 
ATOM    105  C   UNL     1      -7.322  13.773  -7.773  1.00  0.00     0.059 A 
ATOM    106  C   UNL     1      -8.442  11.794  -8.625  1.00  0.00     0.059 A 
ATOM    107  F   UNL     1      -7.760   9.669  -7.904  1.00  0.00    -0.206 F 
ATOM    108  C   UNL     1      -8.307  13.180  -8.564  1.00  0.00     0.060 A 
BRANCH 108 109
ATOM    109  S   UNL     1      -9.404  14.243  -9.527  1.00  0.00     0.124 S 
ATOM    110  O   UNL     1     -10.322  14.723  -8.498  1.00  0.00    -0.237 OA
ATOM    111  O   UNL     1      -8.484  15.237 -10.069  1.00  0.00    -0.237 OA
ATOM    112  O   UNL     1      -9.982  13.331 -10.509  1.00  0.00    -0.744 OA
ENDBRANCH 108 109
ENDBRANCH  76 101
ENDBRANCH  50  51
ENDBRANCH  43  45
ENDBRANCH  42  43
ENDBRANCH  41  42
ENDBRANCH  40  41
ENDBRANCH  39  40
ENDBRANCH  38  39
ENDBRANCH  37  38
ENDBRANCH  36  37
ENDBRANCH   1  36
TORSDOF 28
