REMARK SMILES O=C(C[C@]1(C(=O)NC2CCCCC2)CC(c2ccc([N+](=O)[O-])cc2)=NO1)OCCOCCOCCOCCOC(=O)c1ccc(-c2c3nc(c(-c4c(F)cc(S(=O)(=O)[O-])cc4F)c4ccc([nH]4)c(-c4c(F)cc(S(=O)(=O)[O-])cc4F)c4nc(c(-c5c(F)cc(S(=O)(=O)[O-])cc5F)c5ccc2[nH]5)C=C4)C=C3)cc1
REMARK SMILES IDX 33 1 32 2 31 3 30 4 29 5 28 6 27 7 2 8 1 9 3 10 4 11 14 12
REMARK SMILES IDX 26 13 15 14 25 15 5 16 6 17 7 18 8 20 9 21 13 22 10 23 12 24
REMARK SMILES IDX 11 25 16 26 17 27 24 28 18 29 23 30 19 31 20 32 21 33 22 34
REMARK SMILES IDX 34 35 35 36 36 37 37 38 38 39 39 40 40 41 41 42 42 43 43 44
REMARK SMILES IDX 107 45 44 46 106 47 45 48 46 49 47 50 100 51 48 52 105 53
REMARK SMILES IDX 99 54 101 55 49 56 104 57 98 58 97 59 50 61 84 62 63 63
REMARK SMILES IDX 83 64 64 65 67 66 82 67 102 68 65 69 66 70 81 72 103 73
REMARK SMILES IDX 68 74 51 75 52 76 61 77 53 78 54 79 60 80 62 81 55 82 56 83
REMARK SMILES IDX 57 84 58 85 59 86 85 87 86 88 95 89 87 90 88 91 94 92 96 93
REMARK SMILES IDX 89 94 90 95 91 96 92 97 93 98 69 99 70 100 79 101 71 102
REMARK SMILES IDX 72 103 78 104 80 105 73 106 74 107 75 108 76 109 77 110
REMARK H PARENT 7 19 101 60 67 71
REMARK Flexibility Score: inf
ROOT
ATOM      1  O   UNL     1       1.187   1.831  -5.854  1.00  0.00    -0.377 OA
ENDROOT
BRANCH   1   2
ATOM      2  C   UNL     1       2.337   1.206  -6.386  1.00  0.00     0.188 C 
BRANCH   2   3
ATOM      3  C   UNL     1       3.156   0.403  -5.364  1.00  0.00     0.188 C 
BRANCH   3   4
ATOM      4  O   UNL     1       2.518   0.001  -4.159  1.00  0.00    -0.376 OA
BRANCH   4   5
ATOM      5  C   UNL     1       2.032   0.986  -3.259  1.00  0.00     0.202 C 
BRANCH   5   6
ATOM      6  C   UNL     1       2.491   2.428  -3.396  1.00  0.00     0.261 C 
BRANCH   6   7
ATOM      7  O   UNL     1       3.899   2.762  -3.318  1.00  0.00    -0.463 OA
BRANCH   7   8
ATOM      8  C   UNL     1       5.019   2.173  -2.889  1.00  0.00     0.310 C 
ATOM      9  O   UNL     1       6.086   2.770  -3.035  1.00  0.00    -0.252 OA
BRANCH   8  10
ATOM     10  C   UNL     1       4.997   0.863  -2.170  1.00  0.00     0.185 C 
BRANCH  10  11
ATOM     11  C   UNL     1       4.974   0.966  -0.642  1.00  0.00     0.231 C 
ATOM     12  C   UNL     1       5.119   2.293   0.003  1.00  0.00     0.123 C 
ATOM     13  O   UNL     1       6.177   0.278  -0.167  1.00  0.00    -0.378 OA
ATOM     14  C   UNL     1       6.529   2.354   0.376  1.00  0.00     0.092 C 
ATOM     15  N   UNL     1       7.164   1.244   0.254  1.00  0.00    -0.089 NA
BRANCH  11  16
ATOM     16  C   UNL     1       3.709   0.268  -0.069  1.00  0.00     0.268 C 
ATOM     17  O   UNL     1       3.699  -0.963   0.072  1.00  0.00    -0.270 OA
ATOM     18  N   UNL     1       2.545   0.887   0.312  1.00  0.00    -0.350 N 
ATOM     19  H   UNL     1       1.998   0.242   0.816  1.00  0.00     0.163 HD
BRANCH  18  20
ATOM     20  C   UNL     1       1.802   2.188   0.240  1.00  0.00     0.082 C 
ATOM     21  C   UNL     1       1.114   2.473   1.591  1.00  0.00     0.025 C 
ATOM     22  C   UNL     1       2.541   3.455  -0.172  1.00  0.00     0.025 C 
ATOM     23  C   UNL     1       0.319   3.791   1.615  1.00  0.00     0.002 C 
ATOM     24  C   UNL     1       1.643   4.670  -0.310  1.00  0.00     0.002 C 
ATOM     25  C   UNL     1       1.090   4.990   1.065  1.00  0.00     0.000 C 
ENDBRANCH  18  20
ENDBRANCH  11  16
BRANCH  14  26
ATOM     26  C   UNL     1       6.942   3.676   0.860  1.00  0.00    -0.000 A 
ATOM     27  C   UNL     1       7.522   4.567  -0.045  1.00  0.00     0.017 A 
ATOM     28  C   UNL     1       6.213   4.156   1.966  1.00  0.00     0.017 A 
ATOM     29  C   UNL     1       7.344   5.945   0.140  1.00  0.00     0.086 A 
ATOM     30  C   UNL     1       5.999   5.523   2.131  1.00  0.00     0.086 A 
ATOM     31  C   UNL     1       6.557   6.412   1.207  1.00  0.00     0.269 A 
BRANCH  31  32
ATOM     32  N   UNL     1       6.254   7.842   1.321  1.00  0.00     0.062 N 
ATOM     33  O   UNL     1       7.010   8.635   0.744  1.00  0.00    -0.258 OA
ATOM     34  O   UNL     1       5.264   8.165   1.992  1.00  0.00    -0.258 OA
ENDBRANCH  31  32
ENDBRANCH  14  26
ENDBRANCH  10  11
ENDBRANCH   8  10
ENDBRANCH   7   8
ENDBRANCH   6   7
ENDBRANCH   5   6
ENDBRANCH   4   5
ENDBRANCH   3   4
ENDBRANCH   2   3
ENDBRANCH   1   2
BRANCH   1  35
ATOM     35  C   UNL     1      -0.029   1.109  -5.746  1.00  0.00     0.188 C 
BRANCH  35  36
ATOM     36  C   UNL     1      -0.054  -0.428  -5.634  1.00  0.00     0.188 C 
BRANCH  36  37
ATOM     37  O   UNL     1       0.886  -1.091  -6.469  1.00  0.00    -0.376 OA
BRANCH  37  38
ATOM     38  C   UNL     1       0.373  -1.716  -7.636  1.00  0.00     0.202 C 
BRANCH  38  39
ATOM     39  C   UNL     1       0.067  -0.754  -8.793  1.00  0.00     0.261 C 
BRANCH  39  40
ATOM     40  O   UNL     1      -0.913   0.258  -8.512  1.00  0.00    -0.460 OA
BRANCH  40  41
ATOM     41  C   UNL     1      -2.152  -0.161  -8.171  1.00  0.00     0.338 C 
ATOM     42  O   UNL     1      -2.546  -1.315  -8.149  1.00  0.00    -0.246 OA
BRANCH  41  43
ATOM     43  C   UNL     1      -2.900   0.988  -7.606  1.00  0.00     0.060 A 
ATOM     44  C   UNL     1      -3.601   0.800  -6.407  1.00  0.00     0.016 A 
ATOM     45  C   UNL     1      -2.878   2.247  -8.218  1.00  0.00     0.016 A 
ATOM     46  C   UNL     1      -4.348   1.846  -5.862  1.00  0.00     0.010 A 
ATOM     47  C   UNL     1      -3.637   3.292  -7.679  1.00  0.00     0.010 A 
ATOM     48  C   UNL     1      -4.422   3.075  -6.533  1.00  0.00    -0.014 A 
BRANCH  48  49
ATOM     49  C   UNL     1      -5.559   3.983  -6.239  1.00  0.00     0.031 A 
ATOM     50  C   UNL     1      -6.818   3.783  -7.045  1.00  0.00     0.074 A 
ATOM     51  C   UNL     1      -5.512   4.921  -5.276  1.00  0.00     0.049 A 
ATOM     52  N   UNL     1      -7.961   4.413  -6.980  1.00  0.00    -0.248 NA
ATOM     53  C   UNL     1      -6.776   2.720  -8.066  1.00  0.00     0.031 C 
ATOM     54  C   UNL     1      -4.371   5.192  -4.405  1.00  0.00     0.029 A 
ATOM     55  N   UNL     1      -6.466   5.824  -4.872  1.00  0.00    -0.354 N 
ATOM     56  C   UNL     1      -8.769   3.825  -7.947  1.00  0.00     0.074 A 
ATOM     57  C   UNL     1      -7.978   2.814  -8.609  1.00  0.00     0.031 C 
ATOM     58  C   UNL     1      -4.692   6.196  -3.567  1.00  0.00     0.029 A 
ATOM     59  C   UNL     1      -6.052   6.652  -3.857  1.00  0.00     0.049 A 
ATOM     60  H   UNL     1      -7.364   5.872  -5.274  1.00  0.00     0.167 HD
ATOM     61  C   UNL     1     -10.060   4.091  -8.253  1.00  0.00     0.037 A 
ATOM     62  C   UNL     1      -6.699   7.663  -3.241  1.00  0.00     0.037 A 
ATOM     63  C   UNL     1     -10.845   5.104  -7.605  1.00  0.00     0.049 A 
ATOM     64  C   UNL     1      -8.116   7.992  -3.648  1.00  0.00     0.074 A 
ATOM     65  C   UNL     1     -12.164   5.448  -7.833  1.00  0.00     0.029 A 
ATOM     66  N   UNL     1     -10.375   5.946  -6.609  1.00  0.00    -0.354 N 
ATOM     67  N   UNL     1      -8.880   7.403  -4.538  1.00  0.00    -0.248 NA
ATOM     68  C   UNL     1      -8.760   9.121  -2.960  1.00  0.00     0.031 C 
ATOM     69  C   UNL     1     -12.479   6.532  -7.007  1.00  0.00     0.029 A 
ATOM     70  C   UNL     1     -11.371   6.827  -6.227  1.00  0.00     0.049 A 
ATOM     71  H   UNL     1      -9.467   5.921  -6.229  1.00  0.00     0.167 HD
ATOM     72  C   UNL     1     -10.104   8.066  -4.490  1.00  0.00     0.074 A 
ATOM     73  C   UNL     1      -9.979   9.097  -3.481  1.00  0.00     0.031 C 
ATOM     74  C   UNL     1     -11.232   7.840  -5.211  1.00  0.00     0.037 A 
BRANCH  61  75
ATOM     75  C   UNL     1     -10.678   3.291  -9.364  1.00  0.00     0.058 A 
ATOM     76  C   UNL     1     -10.989   1.929  -9.211  1.00  0.00     0.135 A 
ATOM     77  C   UNL     1     -10.948   3.890 -10.604  1.00  0.00     0.135 A 
ATOM     78  F   UNL     1     -10.725   1.301  -8.055  1.00  0.00    -0.206 F 
ATOM     79  C   UNL     1     -11.513   1.182 -10.261  1.00  0.00     0.059 A 
ATOM     80  C   UNL     1     -11.498   3.169 -11.658  1.00  0.00     0.059 A 
ATOM     81  F   UNL     1     -10.661   5.186 -10.805  1.00  0.00    -0.206 F 
ATOM     82  C   UNL     1     -11.760   1.811 -11.482  1.00  0.00     0.060 A 
BRANCH  82  83
ATOM     83  S   UNL     1     -12.424   0.827 -12.841  1.00  0.00     0.124 S 
ATOM     84  O   UNL     1     -11.252   0.051 -13.237  1.00  0.00    -0.237 OA
ATOM     85  O   UNL     1     -13.491   0.074 -12.190  1.00  0.00    -0.237 OA
ATOM     86  O   UNL     1     -12.866   1.831 -13.803  1.00  0.00    -0.744 OA
ENDBRANCH  82  83
ENDBRANCH  61  75
BRANCH  62  87
ATOM     87  C   UNL     1      -6.027   8.441  -2.164  1.00  0.00     0.058 A 
ATOM     88  C   UNL     1      -6.451   8.344  -0.830  1.00  0.00     0.135 A 
ATOM     89  C   UNL     1      -4.962   9.309  -2.448  1.00  0.00     0.135 A 
ATOM     90  F   UNL     1      -7.476   7.540  -0.508  1.00  0.00    -0.206 F 
ATOM     91  C   UNL     1      -5.852   9.088   0.183  1.00  0.00     0.059 A 
ATOM     92  C   UNL     1      -4.331  10.045  -1.449  1.00  0.00     0.059 A 
ATOM     93  F   UNL     1      -4.515   9.436  -3.707  1.00  0.00    -0.206 F 
ATOM     94  C   UNL     1      -4.789   9.933  -0.137  1.00  0.00     0.060 A 
BRANCH  94  95
ATOM     95  S   UNL     1      -3.979  10.847   1.195  1.00  0.00     0.124 S 
ATOM     96  O   UNL     1      -4.980  11.859   1.509  1.00  0.00    -0.237 OA
ATOM     97  O   UNL     1      -3.783   9.807   2.200  1.00  0.00    -0.237 OA
ATOM     98  O   UNL     1      -2.756  11.338   0.567  1.00  0.00    -0.744 OA
ENDBRANCH  94  95
ENDBRANCH  62  87
BRANCH  74  99
ATOM     99  C   UNL     1     -12.437   8.686  -4.904  1.00  0.00     0.058 A 
ATOM    100  C   UNL     1     -12.512  10.036  -5.280  1.00  0.00     0.135 A 
ATOM    101  C   UNL     1     -13.557   8.119  -4.273  1.00  0.00     0.135 A 
ATOM    102  F   UNL     1     -11.470  10.627  -5.886  1.00  0.00    -0.206 F 
ATOM    103  C   UNL     1     -13.642  10.802  -5.014  1.00  0.00     0.059 A 
ATOM    104  C   UNL     1     -14.708   8.858  -4.022  1.00  0.00     0.059 A 
ATOM    105  F   UNL     1     -13.544   6.827  -3.907  1.00  0.00    -0.206 F 
ATOM    106  C   UNL     1     -14.735  10.204  -4.383  1.00  0.00     0.060 A 
BRANCH 106 107
ATOM    107  S   UNL     1     -16.205  11.202  -4.062  1.00  0.00     0.124 S 
ATOM    108  O   UNL     1     -15.769  12.010  -2.928  1.00  0.00    -0.237 OA
ATOM    109  O   UNL     1     -16.380  11.919  -5.322  1.00  0.00    -0.237 OA
ATOM    110  O   UNL     1     -17.232  10.208  -3.767  1.00  0.00    -0.744 OA
ENDBRANCH 106 107
ENDBRANCH  74  99
ENDBRANCH  48  49
ENDBRANCH  41  43
ENDBRANCH  40  41
ENDBRANCH  39  40
ENDBRANCH  38  39
ENDBRANCH  37  38
ENDBRANCH  36  37
ENDBRANCH  35  36
ENDBRANCH   1  35
TORSDOF 28
