REMARK SMILES Cc1cc(C(=O)N[C@H]2C=C[C@@H](C(=O)OCCOCCOCCOCCOC(=O)c3ccc(-c4c5nc(c(-c6c(F)cc(S(=O)(=O)[O-])cc6F)c6ccc([nH]6)c(-c6c(F)cc(S(=O)(=O)[O-])cc6F)c6nc(c(-c7c(F)cc(S(=O)(=O)[O-])cc7F)c7ccc4[nH]7)C=C6)C=C5)cc3)C2)no1
REMARK SMILES IDX 21 1 20 2 19 3 18 4 17 5 16 6 15 7 14 8 12 9 13 10 11 11
REMARK SMILES IDX 8 12 9 13 95 14 10 15 7 16 5 17 6 18 4 20 1 21 2 22 3 23
REMARK SMILES IDX 97 24 96 25 22 26 23 27 24 28 25 29 26 30 27 31 28 32 29 33
REMARK SMILES IDX 30 34 94 35 31 36 93 37 32 38 33 39 34 40 87 41 35 42 92 43
REMARK SMILES IDX 86 44 88 45 36 46 91 47 85 48 84 49 37 51 71 52 50 53 70 54
REMARK SMILES IDX 51 55 54 56 69 57 89 58 52 59 53 60 68 62 90 63 55 64 38 65
REMARK SMILES IDX 39 66 48 67 40 68 41 69 47 70 49 71 42 72 43 73 44 74 45 75
REMARK SMILES IDX 46 76 72 77 73 78 82 79 74 80 75 81 81 82 83 83 76 84 77 85
REMARK SMILES IDX 78 86 79 87 80 88 56 89 57 90 66 91 58 92 59 93 65 94 67 95
REMARK SMILES IDX 60 96 61 97 62 98 63 99 64 100
REMARK H PARENT 7 19 88 50 54 61
REMARK Flexibility Score: inf
ROOT
ATOM      1  C   UNL     1      -3.360  -8.413   2.611  1.00  0.00     0.188 C 
ENDROOT
BRANCH   1   2
ATOM      2  O   UNL     1      -2.327  -7.453   2.418  1.00  0.00    -0.377 OA
BRANCH   2   3
ATOM      3  C   UNL     1      -1.210  -7.845   1.651  1.00  0.00     0.188 C 
BRANCH   3   4
ATOM      4  C   UNL     1      -0.003  -8.345   2.460  1.00  0.00     0.188 C 
BRANCH   4   5
ATOM      5  O   UNL     1      -0.119  -8.760   3.811  1.00  0.00    -0.376 OA
BRANCH   5   6
ATOM      6  C   UNL     1      -0.856  -8.030   4.781  1.00  0.00     0.202 C 
BRANCH   6   7
ATOM      7  C   UNL     1      -0.781  -6.504   4.930  1.00  0.00     0.261 C 
BRANCH   7   8
ATOM      8  O   UNL     1      -0.811  -5.758   3.712  1.00  0.00    -0.463 OA
BRANCH   8   9
ATOM      9  C   UNL     1       0.382  -5.297   3.286  1.00  0.00     0.312 C 
ATOM     10  O   UNL     1       1.450  -5.472   3.868  1.00  0.00    -0.252 OA
BRANCH   9  11
ATOM     11  C   UNL     1       0.299  -4.521   1.986  1.00  0.00     0.124 C 
ATOM     12  C   UNL     1      -0.982  -3.020   0.599  1.00  0.00     0.106 C 
ATOM     13  C   UNL     1      -0.239  -2.270   1.652  1.00  0.00    -0.006 C 
ATOM     14  C   UNL     1      -1.028  -4.418   1.208  1.00  0.00     0.048 C 
ATOM     15  C   UNL     1       0.547  -3.089   2.352  1.00  0.00    -0.014 C 
BRANCH  12  16
ATOM     16  N   UNL     1      -2.254  -2.438   0.266  1.00  0.00    -0.344 N 
ATOM     17  C   UNL     1      -2.480  -1.219  -0.358  1.00  0.00     0.273 C 
ATOM     18  O   UNL     1      -3.622  -0.928  -0.708  1.00  0.00    -0.267 OA
ATOM     19  H   UNL     1      -3.052  -2.961   0.506  1.00  0.00     0.164 HD
BRANCH  17  20
ATOM     20  C   UNL     1      -1.338  -0.308  -0.507  1.00  0.00     0.171 A 
ATOM     21  C   UNL     1       2.204   0.533  -0.302  1.00  0.00     0.091 C 
ATOM     22  C   UNL     1       0.749   0.393  -0.481  1.00  0.00     0.134 A 
ATOM     23  C   UNL     1      -0.048  -0.571  -1.048  1.00  0.00     0.082 A 
ATOM     24  O   UNL     1      -0.037   1.321   0.121  1.00  0.00    -0.361 OA
ATOM     25  N   UNL     1      -1.355   0.902   0.079  1.00  0.00    -0.074 NA
ENDBRANCH  17  20
ENDBRANCH  12  16
ENDBRANCH   9  11
ENDBRANCH   8   9
ENDBRANCH   7   8
ENDBRANCH   6   7
ENDBRANCH   5   6
ENDBRANCH   4   5
ENDBRANCH   3   4
ENDBRANCH   2   3
ENDBRANCH   1   2
BRANCH   1  26
ATOM     26  C   UNL     1      -2.983  -9.909   2.651  1.00  0.00     0.188 C 
BRANCH  26  27
ATOM     27  O   UNL     1      -2.157 -10.333   1.573  1.00  0.00    -0.376 OA
BRANCH  27  28
ATOM     28  C   UNL     1      -2.776 -10.942   0.449  1.00  0.00     0.202 C 
BRANCH  28  29
ATOM     29  C   UNL     1      -3.714 -10.072  -0.405  1.00  0.00     0.261 C 
BRANCH  29  30
ATOM     30  O   UNL     1      -4.869  -9.532   0.258  1.00  0.00    -0.460 OA
BRANCH  30  31
ATOM     31  C   UNL     1      -5.713 -10.397   0.859  1.00  0.00     0.338 C 
ATOM     32  O   UNL     1      -5.643 -11.615   0.843  1.00  0.00    -0.246 OA
BRANCH  31  33
ATOM     33  C   UNL     1      -6.626  -9.621   1.724  1.00  0.00     0.060 A 
ATOM     34  C   UNL     1      -6.649  -9.896   3.097  1.00  0.00     0.016 A 
ATOM     35  C   UNL     1      -7.460  -8.639   1.186  1.00  0.00     0.016 A 
ATOM     36  C   UNL     1      -7.540  -9.220   3.931  1.00  0.00     0.010 A 
ATOM     37  C   UNL     1      -8.368  -7.978   2.019  1.00  0.00     0.010 A 
ATOM     38  C   UNL     1      -8.439  -8.293   3.388  1.00  0.00    -0.014 A 
BRANCH  38  39
ATOM     39  C   UNL     1      -9.578  -7.814   4.210  1.00  0.00     0.031 A 
ATOM     40  C   UNL     1     -10.916  -8.483   4.034  1.00  0.00     0.074 A 
ATOM     41  C   UNL     1      -9.427  -6.828   5.113  1.00  0.00     0.049 A 
ATOM     42  N   UNL     1     -12.060  -8.216   4.607  1.00  0.00    -0.248 NA
ATOM     43  C   UNL     1     -10.970  -9.604   3.079  1.00  0.00     0.031 C 
ATOM     44  C   UNL     1      -8.176  -6.127   5.399  1.00  0.00     0.029 A 
ATOM     45  N   UNL     1     -10.342  -6.237   5.949  1.00  0.00    -0.354 N 
ATOM     46  C   UNL     1     -12.972  -9.119   4.071  1.00  0.00     0.074 A 
ATOM     47  C   UNL     1     -12.254  -9.930   3.114  1.00  0.00     0.031 C 
ATOM     48  C   UNL     1      -8.409  -5.183   6.328  1.00  0.00     0.029 A 
ATOM     49  C   UNL     1      -9.828  -5.191   6.679  1.00  0.00     0.049 A 
ATOM     50  H   UNL     1     -11.278  -6.534   6.018  1.00  0.00     0.167 HD
ATOM     51  C   UNL     1     -14.287  -9.260   4.355  1.00  0.00     0.037 A 
ATOM     52  C   UNL     1     -10.441  -4.323   7.510  1.00  0.00     0.037 A 
ATOM     53  C   UNL     1     -14.993  -8.457   5.319  1.00  0.00     0.049 A 
ATOM     54  C   UNL     1     -11.919  -4.472   7.776  1.00  0.00     0.074 A 
ATOM     55  C   UNL     1     -16.317  -8.554   5.710  1.00  0.00     0.029 A 
ATOM     56  N   UNL     1     -14.441  -7.403   6.032  1.00  0.00    -0.354 N 
ATOM     57  N   UNL     1     -12.759  -5.362   7.299  1.00  0.00    -0.248 NA
ATOM     58  C   UNL     1     -12.534  -3.505   8.697  1.00  0.00     0.031 C 
ATOM     59  C   UNL     1     -16.583  -7.518   6.610  1.00  0.00     0.029 A 
ATOM     60  C   UNL     1     -15.408  -6.819   6.834  1.00  0.00     0.049 A 
ATOM     61  H   UNL     1     -13.502  -7.113   5.976  1.00  0.00     0.167 HD
ATOM     62  C   UNL     1     -13.990  -5.078   7.885  1.00  0.00     0.074 A 
ATOM     63  C   UNL     1     -13.782  -3.946   8.763  1.00  0.00     0.031 C 
ATOM     64  C   UNL     1     -15.185  -5.697   7.712  1.00  0.00     0.037 A 
BRANCH  51  65
ATOM     65  C   UNL     1     -15.068 -10.296   3.594  1.00  0.00     0.058 A 
ATOM     66  C   UNL     1     -14.901 -11.671   3.821  1.00  0.00     0.135 A 
ATOM     67  C   UNL     1     -16.048  -9.899   2.669  1.00  0.00     0.135 A 
ATOM     68  F   UNL     1     -13.963 -12.107   4.676  1.00  0.00    -0.206 F 
ATOM     69  C   UNL     1     -15.673 -12.616   3.151  1.00  0.00     0.059 A 
ATOM     70  C   UNL     1     -16.850 -10.824   2.010  1.00  0.00     0.059 A 
ATOM     71  F   UNL     1     -16.242  -8.596   2.409  1.00  0.00    -0.206 F 
ATOM     72  C   UNL     1     -16.651 -12.181   2.254  1.00  0.00     0.060 A 
BRANCH  72  73
ATOM     73  S   UNL     1     -17.671 -13.419   1.425  1.00  0.00     0.124 S 
ATOM     74  O   UNL     1     -16.707 -14.028   0.513  1.00  0.00    -0.237 OA
ATOM     75  O   UNL     1     -18.107 -14.257   2.537  1.00  0.00    -0.237 OA
ATOM     76  O   UNL     1     -18.720 -12.628   0.790  1.00  0.00    -0.744 OA
ENDBRANCH  72  73
ENDBRANCH  51  65
BRANCH  52  77
ATOM     77  C   UNL     1      -9.671  -3.208   8.130  1.00  0.00     0.058 A 
ATOM     78  C   UNL     1      -9.456  -3.147   9.515  1.00  0.00     0.135 A 
ATOM     79  C   UNL     1      -9.158  -2.162   7.346  1.00  0.00     0.135 A 
ATOM     80  F   UNL     1      -9.936  -4.114  10.312  1.00  0.00    -0.206 F 
ATOM     81  C   UNL     1      -8.786  -2.078  10.104  1.00  0.00     0.059 A 
ATOM     82  C   UNL     1      -8.457  -1.099   7.907  1.00  0.00     0.059 A 
ATOM     83  F   UNL     1      -9.326  -2.175   6.014  1.00  0.00    -0.206 F 
ATOM     84  C   UNL     1      -8.289  -1.059   9.289  1.00  0.00     0.060 A 
BRANCH  84  85
ATOM     85  S   UNL     1      -7.395   0.307  10.061  1.00  0.00     0.124 S 
ATOM     86  O   UNL     1      -8.474   1.028  10.726  1.00  0.00    -0.237 OA
ATOM     87  O   UNL     1      -6.462  -0.395  10.937  1.00  0.00    -0.237 OA
ATOM     88  O   UNL     1      -6.783   0.992   8.926  1.00  0.00    -0.744 OA
ENDBRANCH  84  85
ENDBRANCH  52  77
BRANCH  64  89
ATOM     89  C   UNL     1     -16.355  -5.199   8.520  1.00  0.00     0.058 A 
ATOM     90  C   UNL     1     -16.963  -3.960   8.263  1.00  0.00     0.135 A 
ATOM     91  C   UNL     1     -16.909  -6.001   9.532  1.00  0.00     0.135 A 
ATOM     92  F   UNL     1     -16.474  -3.153   7.309  1.00  0.00    -0.206 F 
ATOM     93  C   UNL     1     -18.057  -3.520   9.002  1.00  0.00     0.059 A 
ATOM     94  C   UNL     1     -18.024  -5.596  10.260  1.00  0.00     0.059 A 
ATOM     95  F   UNL     1     -16.378  -7.202   9.811  1.00  0.00    -0.206 F 
ATOM     96  C   UNL     1     -18.582  -4.346   9.998  1.00  0.00     0.060 A 
BRANCH  96  97
ATOM     97  S   UNL     1     -20.016  -3.772  10.932  1.00  0.00     0.124 S 
ATOM     98  O   UNL     1     -19.425  -2.734  11.770  1.00  0.00    -0.237 OA
ATOM     99  O   UNL     1     -20.909  -3.305   9.877  1.00  0.00    -0.237 OA
ATOM    100  O   UNL     1     -20.462  -4.969  11.639  1.00  0.00    -0.744 OA
ENDBRANCH  96  97
ENDBRANCH  64  89
ENDBRANCH  38  39
ENDBRANCH  31  33
ENDBRANCH  30  31
ENDBRANCH  29  30
ENDBRANCH  28  29
ENDBRANCH  27  28
ENDBRANCH  26  27
ENDBRANCH   1  26
TORSDOF 25
