REMARK SMILES Cc1cc(C(=O)OCCOCCOCCOCCOC(=O)c2ccc(-c3c4nc(c(-c5c(F)cc(S(=O)(=O)[O-])cc5F)c5ccc([nH]5)c(-c5c(F)cc(S(=O)(=O)[O-])cc5F)c5nc(c(-c6c(F)cc(S(=O)(=O)[O-])cc6F)c6ccc3[nH]6)C=C5)C=C4)cc2)ccc1NCCCC(=O)NC1CC1
REMARK SMILES IDX 11 1 10 2 9 3 8 4 7 5 5 6 6 7 4 8 1 9 2 10 3 11 90 12 89 13
REMARK SMILES IDX 88 14 91 15 92 17 93 18 94 19 95 20 96 21 97 22 98 24 99 25
REMARK SMILES IDX 100 26 12 27 13 28 14 29 15 30 16 31 17 32 18 33 19 34 20 35
REMARK SMILES IDX 21 36 22 37 23 38 87 39 24 40 86 41 25 42 26 43 27 44 80 45
REMARK SMILES IDX 28 46 85 47 79 48 81 49 29 50 84 51 78 52 77 53 30 55 64 56
REMARK SMILES IDX 43 57 63 58 44 59 47 60 62 61 82 62 45 63 46 64 61 66 83 67
REMARK SMILES IDX 48 68 31 69 32 70 41 71 33 72 34 73 40 74 42 75 35 76 36 77
REMARK SMILES IDX 37 78 38 79 39 80 65 81 66 82 75 83 67 84 68 85 74 86 76 87
REMARK SMILES IDX 69 88 70 89 71 90 72 91 73 92 49 93 50 94 59 95 51 96 52 97
REMARK SMILES IDX 58 98 60 99 53 100 54 101 55 102 56 103 57 104
REMARK H PARENT 91 16 97 23 81 54 47 65
REMARK Flexibility Score: inf
ROOT
ATOM      1  C   UNL     1       0.204  -2.116  -2.030  1.00  0.00     0.188 C 
ENDROOT
BRANCH   1   2
ATOM      2  O   UNL     1       0.201  -3.535  -2.137  1.00  0.00    -0.376 OA
BRANCH   2   3
ATOM      3  C   UNL     1      -0.705  -4.206  -1.261  1.00  0.00     0.202 C 
BRANCH   3   4
ATOM      4  C   UNL     1      -0.300  -4.253   0.208  1.00  0.00     0.261 C 
BRANCH   4   5
ATOM      5  O   UNL     1      -0.544  -2.975   0.787  1.00  0.00    -0.460 OA
BRANCH   5   6
ATOM      6  C   UNL     1       0.449  -2.532   1.572  1.00  0.00     0.338 C 
ATOM      7  O   UNL     1       1.327  -3.178   2.108  1.00  0.00    -0.246 OA
BRANCH   6   8
ATOM      8  C   UNL     1       0.520  -1.080   1.368  1.00  0.00     0.060 A 
ATOM      9  C   UNL     1       3.435   1.144   0.615  1.00  0.00     0.046 C 
ATOM     10  C   UNL     1       2.018   0.747   0.923  1.00  0.00    -0.027 A 
ATOM     11  C   UNL     1       1.807  -0.599   1.178  1.00  0.00     0.021 A 
ATOM     12  C   UNL     1       0.915   1.628   0.910  1.00  0.00     0.037 A 
ATOM     13  C   UNL     1      -0.381   1.106   0.916  1.00  0.00     0.027 A 
ATOM     14  C   UNL     1      -0.584  -0.248   1.172  1.00  0.00     0.018 A 
BRANCH  12  15
ATOM     15  N   UNL     1       1.173   2.978   0.930  1.00  0.00    -0.385 N 
ATOM     16  H   UNL     1       2.115   3.241   1.047  1.00  0.00     0.160 HD
BRANCH  15  17
ATOM     17  C   UNL     1       0.223   4.054   0.801  1.00  0.00     0.113 C 
BRANCH  17  18
ATOM     18  C   UNL     1       0.921   5.375   1.142  1.00  0.00     0.031 C 
BRANCH  18  19
ATOM     19  C   UNL     1       2.394   5.508   0.736  1.00  0.00     0.102 C 
BRANCH  19  20
ATOM     20  C   UNL     1       2.735   6.126  -0.598  1.00  0.00     0.220 C 
ATOM     21  O   UNL     1       3.292   7.230  -0.632  1.00  0.00    -0.275 OA
ATOM     22  N   UNL     1       2.550   5.484  -1.783  1.00  0.00    -0.353 N 
ATOM     23  H   UNL     1       3.041   5.885  -2.536  1.00  0.00     0.163 HD
BRANCH  22  24
ATOM     24  C   UNL     1       1.779   4.342  -2.138  1.00  0.00     0.082 C 
ATOM     25  C   UNL     1       2.139   3.641  -3.434  1.00  0.00     0.027 C 
ATOM     26  C   UNL     1       2.264   2.923  -2.133  1.00  0.00     0.027 C 
ENDBRANCH  22  24
ENDBRANCH  19  20
ENDBRANCH  18  19
ENDBRANCH  17  18
ENDBRANCH  15  17
ENDBRANCH  12  15
ENDBRANCH   6   8
ENDBRANCH   5   6
ENDBRANCH   4   5
ENDBRANCH   3   4
ENDBRANCH   2   3
ENDBRANCH   1   2
BRANCH   1  27
ATOM     27  C   UNL     1      -0.630  -1.334  -3.046  1.00  0.00     0.188 C 
BRANCH  27  28
ATOM     28  O   UNL     1      -1.991  -1.090  -2.707  1.00  0.00    -0.377 OA
BRANCH  28  29
ATOM     29  C   UNL     1      -2.989  -2.009  -3.168  1.00  0.00     0.188 C 
BRANCH  29  30
ATOM     30  C   UNL     1      -2.799  -2.601  -4.561  1.00  0.00     0.188 C 
BRANCH  30  31
ATOM     31  O   UNL     1      -1.888  -3.703  -4.453  1.00  0.00    -0.376 OA
BRANCH  31  32
ATOM     32  C   UNL     1      -1.156  -4.003  -5.633  1.00  0.00     0.202 C 
BRANCH  32  33
ATOM     33  C   UNL     1      -2.027  -4.436  -6.816  1.00  0.00     0.261 C 
BRANCH  33  34
ATOM     34  O   UNL     1      -2.442  -5.811  -6.683  1.00  0.00    -0.460 OA
BRANCH  34  35
ATOM     35  C   UNL     1      -3.763  -5.996  -6.402  1.00  0.00     0.338 C 
ATOM     36  O   UNL     1      -4.621  -6.140  -7.254  1.00  0.00    -0.246 OA
BRANCH  35  37
ATOM     37  C   UNL     1      -3.978  -6.139  -4.938  1.00  0.00     0.060 A 
ATOM     38  C   UNL     1      -5.213  -5.848  -4.343  1.00  0.00     0.016 A 
ATOM     39  C   UNL     1      -2.904  -6.491  -4.134  1.00  0.00     0.016 A 
ATOM     40  C   UNL     1      -5.327  -5.767  -2.940  1.00  0.00     0.010 A 
ATOM     41  C   UNL     1      -3.017  -6.376  -2.761  1.00  0.00     0.010 A 
ATOM     42  C   UNL     1      -4.203  -5.963  -2.134  1.00  0.00    -0.014 A 
BRANCH  42  43
ATOM     43  C   UNL     1      -4.068  -5.588  -0.703  1.00  0.00     0.031 A 
ATOM     44  C   UNL     1      -3.349  -6.487   0.278  1.00  0.00     0.074 A 
ATOM     45  C   UNL     1      -4.198  -4.269  -0.395  1.00  0.00     0.049 A 
ATOM     46  N   UNL     1      -3.120  -6.195   1.518  1.00  0.00    -0.248 NA
ATOM     47  C   UNL     1      -2.801  -7.807  -0.053  1.00  0.00     0.031 C 
ATOM     48  C   UNL     1      -3.502  -3.558   0.677  1.00  0.00     0.029 A 
ATOM     49  N   UNL     1      -4.958  -3.253  -0.977  1.00  0.00    -0.354 N 
ATOM     50  C   UNL     1      -2.086  -6.997   1.969  1.00  0.00     0.074 A 
ATOM     51  C   UNL     1      -2.038  -8.075   1.016  1.00  0.00     0.031 C 
ATOM     52  C   UNL     1      -3.932  -2.293   0.760  1.00  0.00     0.029 A 
ATOM     53  C   UNL     1      -5.127  -2.225  -0.043  1.00  0.00     0.049 A 
ATOM     54  H   UNL     1      -5.316  -3.259  -1.894  1.00  0.00     0.167 HD
ATOM     55  C   UNL     1      -1.279  -6.561   2.988  1.00  0.00     0.037 A 
ATOM     56  C   UNL     1      -6.327  -1.827   0.471  1.00  0.00     0.037 A 
ATOM     57  C   UNL     1      -1.797  -5.330   3.614  1.00  0.00     0.049 A 
ATOM     58  C   UNL     1      -6.374  -2.107   1.964  1.00  0.00     0.074 A 
ATOM     59  C   UNL     1      -1.243  -4.110   3.958  1.00  0.00     0.029 A 
ATOM     60  N   UNL     1      -3.162  -5.208   3.890  1.00  0.00    -0.354 N 
ATOM     61  N   UNL     1      -5.619  -3.024   2.520  1.00  0.00    -0.248 NA
ATOM     62  C   UNL     1      -7.124  -1.348   2.963  1.00  0.00     0.031 C 
ATOM     63  C   UNL     1      -2.303  -3.210   4.263  1.00  0.00     0.029 A 
ATOM     64  C   UNL     1      -3.496  -3.918   4.238  1.00  0.00     0.049 A 
ATOM     65  H   UNL     1      -3.805  -5.953   3.842  1.00  0.00     0.167 HD
ATOM     66  C   UNL     1      -5.663  -2.909   3.876  1.00  0.00     0.074 A 
ATOM     67  C   UNL     1      -6.680  -1.898   4.112  1.00  0.00     0.031 C 
ATOM     68  C   UNL     1      -4.834  -3.596   4.714  1.00  0.00     0.037 A 
BRANCH  55  69
ATOM     69  C   UNL     1       0.116  -7.118   3.329  1.00  0.00     0.058 A 
ATOM     70  C   UNL     1       0.748  -6.785   4.554  1.00  0.00     0.135 A 
ATOM     71  C   UNL     1       0.928  -7.885   2.462  1.00  0.00     0.135 A 
ATOM     72  F   UNL     1       0.108  -6.061   5.484  1.00  0.00    -0.206 F 
ATOM     73  C   UNL     1       2.056  -7.175   4.886  1.00  0.00     0.059 A 
ATOM     74  C   UNL     1       2.216  -8.339   2.798  1.00  0.00     0.059 A 
ATOM     75  F   UNL     1       0.534  -8.193   1.219  1.00  0.00    -0.206 F 
ATOM     76  C   UNL     1       2.784  -7.964   4.007  1.00  0.00     0.060 A 
BRANCH  76  77
ATOM     77  S   UNL     1       4.444  -8.522   4.465  1.00  0.00     0.124 S 
ATOM     78  O   UNL     1       5.237  -7.309   4.295  1.00  0.00    -0.237 OA
ATOM     79  O   UNL     1       4.261  -8.972   5.841  1.00  0.00    -0.237 OA
ATOM     80  O   UNL     1       4.721  -9.587   3.503  1.00  0.00    -0.744 OA
ENDBRANCH  76  77
ENDBRANCH  55  69
BRANCH  56  81
ATOM     81  C   UNL     1      -7.402  -1.702  -0.552  1.00  0.00     0.058 A 
ATOM     82  C   UNL     1      -7.274  -0.573  -1.388  1.00  0.00     0.135 A 
ATOM     83  C   UNL     1      -7.967  -2.857  -1.120  1.00  0.00     0.135 A 
ATOM     84  F   UNL     1      -6.803   0.580  -0.882  1.00  0.00    -0.206 F 
ATOM     85  C   UNL     1      -7.415  -0.668  -2.769  1.00  0.00     0.059 A 
ATOM     86  C   UNL     1      -8.117  -2.973  -2.507  1.00  0.00     0.059 A 
ATOM     87  F   UNL     1      -8.112  -3.966  -0.381  1.00  0.00    -0.206 F 
ATOM     88  C   UNL     1      -7.749  -1.901  -3.324  1.00  0.00     0.060 A 
BRANCH  88  89
ATOM     89  S   UNL     1      -7.403  -2.159  -5.087  1.00  0.00     0.124 S 
ATOM     90  O   UNL     1      -8.474  -1.402  -5.721  1.00  0.00    -0.237 OA
ATOM     91  O   UNL     1      -6.058  -1.601  -5.218  1.00  0.00    -0.237 OA
ATOM     92  O   UNL     1      -7.479  -3.608  -5.223  1.00  0.00    -0.744 OA
ENDBRANCH  88  89
ENDBRANCH  56  81
BRANCH  68  93
ATOM     93  C   UNL     1      -5.206  -4.012   6.113  1.00  0.00     0.058 A 
ATOM     94  C   UNL     1      -6.542  -4.205   6.503  1.00  0.00     0.135 A 
ATOM     95  C   UNL     1      -4.224  -4.484   7.021  1.00  0.00     0.135 A 
ATOM     96  F   UNL     1      -7.561  -3.886   5.693  1.00  0.00    -0.206 F 
ATOM     97  C   UNL     1      -6.882  -4.788   7.720  1.00  0.00     0.059 A 
ATOM     98  C   UNL     1      -4.544  -5.115   8.217  1.00  0.00     0.059 A 
ATOM     99  F   UNL     1      -2.913  -4.379   6.763  1.00  0.00    -0.206 F 
ATOM    100  C   UNL     1      -5.878  -5.244   8.569  1.00  0.00     0.060 A 
BRANCH 100 101
ATOM    101  S   UNL     1      -6.330  -6.041  10.115  1.00  0.00     0.124 S 
ATOM    102  O   UNL     1      -6.532  -4.885  10.983  1.00  0.00    -0.237 OA
ATOM    103  O   UNL     1      -7.539  -6.777   9.754  1.00  0.00    -0.237 OA
ATOM    104  O   UNL     1      -5.170  -6.870  10.423  1.00  0.00    -0.744 OA
ENDBRANCH 100 101
ENDBRANCH  68  93
ENDBRANCH  42  43
ENDBRANCH  35  37
ENDBRANCH  34  35
ENDBRANCH  33  34
ENDBRANCH  32  33
ENDBRANCH  31  32
ENDBRANCH  30  31
ENDBRANCH  29  30
ENDBRANCH  28  29
ENDBRANCH  27  28
ENDBRANCH   1  27
TORSDOF 29
