REMARK SMILES Cc1cccc(NC(=O)C[C@@H]2CCCCO2)c1C(=O)OCCOCCOCCOCCOC(=O)c1ccc(-c2c3nc(c(-c4c(F)cc(S(=O)(=O)[O-])cc4F)c4ccc([nH]4)c(-c4c(F)cc(S(=O)(=O)[O-])cc4F)c4nc(c(-c5c(F)cc(S(=O)(=O)[O-])cc5F)c5ccc2[nH]5)C=C4)C=C3)cc1
REMARK SMILES IDX 26 1 25 2 24 3 23 4 22 5 21 6 20 7 18 8 19 9 17 10 1 11 2 12
REMARK SMILES IDX 3 13 4 14 6 15 5 16 7 17 8 18 9 20 10 21 11 22 12 23 16 24
REMARK SMILES IDX 13 25 15 26 14 27 27 28 28 29 29 30 30 31 31 32 32 33 33 34
REMARK SMILES IDX 34 35 35 36 36 37 100 38 37 39 99 40 38 41 39 42 40 43 93 44
REMARK SMILES IDX 41 45 98 46 92 47 94 48 42 49 97 50 91 51 90 52 43 54 77 55
REMARK SMILES IDX 56 56 76 57 57 58 60 59 75 60 95 61 58 62 59 63 74 65 96 66
REMARK SMILES IDX 61 67 44 68 45 69 54 70 46 71 47 72 53 73 55 74 48 75 49 76
REMARK SMILES IDX 50 77 51 78 52 79 78 80 79 81 88 82 80 83 81 84 87 85 89 86
REMARK SMILES IDX 82 87 83 88 84 89 85 90 86 91 62 92 63 93 72 94 64 95 65 96
REMARK SMILES IDX 71 97 73 98 66 99 67 100 68 101 69 102 70 103
REMARK H PARENT 7 19 94 53 60 64
REMARK Flexibility Score: inf
ROOT
ATOM      1  O   UNL     1       1.543   1.320  -2.470  1.00  0.00    -0.377 OA
ENDROOT
BRANCH   1   2
ATOM      2  C   UNL     1       0.180   1.426  -2.844  1.00  0.00     0.188 C 
BRANCH   2   3
ATOM      3  C   UNL     1      -0.782   2.372  -2.096  1.00  0.00     0.188 C 
BRANCH   3   4
ATOM      4  O   UNL     1      -0.426   3.731  -1.941  1.00  0.00    -0.376 OA
BRANCH   4   5
ATOM      5  C   UNL     1       0.592   3.952  -0.989  1.00  0.00     0.202 C 
BRANCH   5   6
ATOM      6  C   UNL     1       0.201   3.869   0.449  1.00  0.00     0.261 C 
BRANCH   6   7
ATOM      7  O   UNL     1       0.269   2.507   0.805  1.00  0.00    -0.460 OA
BRANCH   7   8
ATOM      8  C   UNL     1      -0.829   2.152   1.454  1.00  0.00     0.340 C 
ATOM      9  O   UNL     1      -1.631   2.914   1.952  1.00  0.00    -0.246 OA
BRANCH   8  10
ATOM     10  C   UNL     1      -1.033   0.691   1.415  1.00  0.00     0.086 A 
ATOM     11  C   UNL     1       1.180  -0.157   0.293  1.00  0.00     0.045 C 
ATOM     12  C   UNL     1      -0.082  -0.312   1.107  1.00  0.00    -0.034 A 
ATOM     13  C   UNL     1      -0.403  -1.632   1.453  1.00  0.00     0.004 A 
ATOM     14  C   UNL     1      -1.643  -1.946   2.011  1.00  0.00     0.002 A 
ATOM     15  C   UNL     1      -2.358   0.335   1.751  1.00  0.00     0.056 A 
ATOM     16  C   UNL     1      -2.636  -0.973   2.116  1.00  0.00     0.027 A 
BRANCH  15  17
ATOM     17  N   UNL     1      -3.411   1.310   1.675  1.00  0.00    -0.325 N 
ATOM     18  C   UNL     1      -3.992   1.603   0.444  1.00  0.00     0.227 C 
ATOM     19  H   UNL     1      -3.720   1.768   2.490  1.00  0.00     0.169 HD
ATOM     20  O   UNL     1      -3.902   2.709  -0.082  1.00  0.00    -0.275 OA
BRANCH  18  21
ATOM     21  C   UNL     1      -4.911   0.552  -0.081  1.00  0.00     0.132 C 
BRANCH  21  22
ATOM     22  C   UNL     1      -4.734   0.059  -1.520  1.00  0.00     0.127 C 
ATOM     23  C   UNL     1      -5.194  -1.399  -1.606  1.00  0.00     0.033 C 
ATOM     24  O   UNL     1      -3.466   0.182  -2.151  1.00  0.00    -0.378 OA
ATOM     25  C   UNL     1      -4.192  -2.316  -0.911  1.00  0.00     0.005 C 
ATOM     26  C   UNL     1      -2.438  -0.702  -1.746  1.00  0.00     0.160 C 
ATOM     27  C   UNL     1      -2.824  -2.152  -1.534  1.00  0.00     0.029 C 
ENDBRANCH  21  22
ENDBRANCH  18  21
ENDBRANCH  15  17
ENDBRANCH   8  10
ENDBRANCH   7   8
ENDBRANCH   6   7
ENDBRANCH   5   6
ENDBRANCH   4   5
ENDBRANCH   3   4
ENDBRANCH   2   3
ENDBRANCH   1   2
BRANCH   1  28
ATOM     28  C   UNL     1       2.509   2.096  -3.184  1.00  0.00     0.188 C 
BRANCH  28  29
ATOM     29  C   UNL     1       2.139   2.618  -4.557  1.00  0.00     0.188 C 
BRANCH  29  30
ATOM     30  O   UNL     1       1.155   3.634  -4.353  1.00  0.00    -0.376 OA
BRANCH  30  31
ATOM     31  C   UNL     1       0.306   3.910  -5.449  1.00  0.00     0.202 C 
BRANCH  31  32
ATOM     32  C   UNL     1       1.075   4.255  -6.722  1.00  0.00     0.261 C 
BRANCH  32  33
ATOM     33  O   UNL     1       1.582   5.616  -6.702  1.00  0.00    -0.460 OA
BRANCH  33  34
ATOM     34  C   UNL     1       2.898   5.851  -6.406  1.00  0.00     0.338 C 
ATOM     35  O   UNL     1       3.718   6.168  -7.254  1.00  0.00    -0.246 OA
BRANCH  34  36
ATOM     36  C   UNL     1       3.160   5.992  -4.945  1.00  0.00     0.060 A 
ATOM     37  C   UNL     1       4.432   5.838  -4.370  1.00  0.00     0.016 A 
ATOM     38  C   UNL     1       2.105   6.287  -4.111  1.00  0.00     0.016 A 
ATOM     39  C   UNL     1       4.599   5.743  -2.967  1.00  0.00     0.010 A 
ATOM     40  C   UNL     1       2.276   6.188  -2.743  1.00  0.00     0.010 A 
ATOM     41  C   UNL     1       3.494   5.836  -2.130  1.00  0.00    -0.014 A 
BRANCH  41  42
ATOM     42  C   UNL     1       3.455   5.487  -0.671  1.00  0.00     0.031 A 
ATOM     43  C   UNL     1       2.653   6.395   0.260  1.00  0.00     0.074 A 
ATOM     44  C   UNL     1       3.750   4.201  -0.311  1.00  0.00     0.049 A 
ATOM     45  N   UNL     1       2.294   6.139   1.474  1.00  0.00    -0.248 NA
ATOM     46  C   UNL     1       2.094   7.682  -0.169  1.00  0.00     0.031 C 
ATOM     47  C   UNL     1       3.204   3.452   0.824  1.00  0.00     0.029 A 
ATOM     48  N   UNL     1       4.488   3.204  -0.929  1.00  0.00    -0.354 N 
ATOM     49  C   UNL     1       1.189   6.932   1.802  1.00  0.00     0.074 A 
ATOM     50  C   UNL     1       1.181   7.941   0.777  1.00  0.00     0.031 C 
ATOM     51  C   UNL     1       3.596   2.168   0.824  1.00  0.00     0.029 A 
ATOM     52  C   UNL     1       4.721   2.129  -0.063  1.00  0.00     0.049 A 
ATOM     53  H   UNL     1       4.808   3.247  -1.859  1.00  0.00     0.167 HD
ATOM     54  C   UNL     1       0.343   6.551   2.821  1.00  0.00     0.037 A 
ATOM     55  C   UNL     1       5.968   1.918   0.464  1.00  0.00     0.037 A 
ATOM     56  C   UNL     1       0.881   5.354   3.513  1.00  0.00     0.049 A 
ATOM     57  C   UNL     1       5.970   2.348   1.957  1.00  0.00     0.074 A 
ATOM     58  C   UNL     1       0.373   4.120   3.873  1.00  0.00     0.029 A 
ATOM     59  N   UNL     1       2.246   5.280   3.808  1.00  0.00    -0.354 N 
ATOM     60  N   UNL     1       5.281   3.376   2.430  1.00  0.00    -0.248 NA
ATOM     61  C   UNL     1       6.389   1.447   3.038  1.00  0.00     0.031 C 
ATOM     62  C   UNL     1       1.473   3.249   4.154  1.00  0.00     0.029 A 
ATOM     63  C   UNL     1       2.653   3.986   4.083  1.00  0.00     0.049 A 
ATOM     64  H   UNL     1       2.849   6.059   3.819  1.00  0.00     0.167 HD
ATOM     65  C   UNL     1       4.994   3.170   3.765  1.00  0.00     0.074 A 
ATOM     66  C   UNL     1       5.765   1.979   4.108  1.00  0.00     0.031 C 
ATOM     67  C   UNL     1       4.012   3.735   4.548  1.00  0.00     0.037 A 
BRANCH  54  68
ATOM     68  C   UNL     1      -1.075   7.115   3.154  1.00  0.00     0.058 A 
ATOM     69  C   UNL     1      -1.749   6.714   4.340  1.00  0.00     0.135 A 
ATOM     70  C   UNL     1      -1.856   7.984   2.352  1.00  0.00     0.135 A 
ATOM     71  F   UNL     1      -1.153   5.920   5.240  1.00  0.00    -0.206 F 
ATOM     72  C   UNL     1      -3.055   7.114   4.686  1.00  0.00     0.059 A 
ATOM     73  C   UNL     1      -3.151   8.438   2.703  1.00  0.00     0.059 A 
ATOM     74  F   UNL     1      -1.419   8.430   1.169  1.00  0.00    -0.206 F 
ATOM     75  C   UNL     1      -3.752   7.989   3.870  1.00  0.00     0.060 A 
BRANCH  75  76
ATOM     76  S   UNL     1      -5.393   8.562   4.387  1.00  0.00     0.124 S 
ATOM     77  O   UNL     1      -6.204   7.354   4.265  1.00  0.00    -0.237 OA
ATOM     78  O   UNL     1      -5.151   9.020   5.753  1.00  0.00    -0.237 OA
ATOM     79  O   UNL     1      -5.707   9.622   3.432  1.00  0.00    -0.744 OA
ENDBRANCH  75  76
ENDBRANCH  54  68
BRANCH  55  80
ATOM     80  C   UNL     1       6.974   1.862  -0.656  1.00  0.00     0.058 A 
ATOM     81  C   UNL     1       6.823   0.712  -1.478  1.00  0.00     0.135 A 
ATOM     82  C   UNL     1       7.356   3.043  -1.324  1.00  0.00     0.135 A 
ATOM     83  F   UNL     1       6.508  -0.467  -0.915  1.00  0.00    -0.206 F 
ATOM     84  C   UNL     1       6.747   0.794  -2.872  1.00  0.00     0.059 A 
ATOM     85  C   UNL     1       7.297   3.141  -2.729  1.00  0.00     0.059 A 
ATOM     86  F   UNL     1       7.541   4.174  -0.627  1.00  0.00    -0.206 F 
ATOM     87  C   UNL     1       6.914   2.030  -3.486  1.00  0.00     0.060 A 
BRANCH  87  88
ATOM     88  S   UNL     1       6.386   2.198  -5.220  1.00  0.00     0.124 S 
ATOM     89  O   UNL     1       7.495   1.589  -5.940  1.00  0.00    -0.237 OA
ATOM     90  O   UNL     1       5.127   1.456  -5.239  1.00  0.00    -0.237 OA
ATOM     91  O   UNL     1       6.242   3.637  -5.380  1.00  0.00    -0.744 OA
ENDBRANCH  87  88
ENDBRANCH  55  80
BRANCH  67  92
ATOM     92  C   UNL     1       4.339   4.215   5.949  1.00  0.00     0.058 A 
ATOM     93  C   UNL     1       5.660   4.340   6.403  1.00  0.00     0.135 A 
ATOM     94  C   UNL     1       3.343   4.776   6.797  1.00  0.00     0.135 A 
ATOM     95  F   UNL     1       6.703   3.936   5.663  1.00  0.00    -0.206 F 
ATOM     96  C   UNL     1       5.970   4.918   7.626  1.00  0.00     0.059 A 
ATOM     97  C   UNL     1       3.639   5.413   7.994  1.00  0.00     0.059 A 
ATOM     98  F   UNL     1       2.038   4.751   6.491  1.00  0.00    -0.206 F 
ATOM     99  C   UNL     1       4.955   5.448   8.414  1.00  0.00     0.060 A 
BRANCH  99 100
ATOM    100  S   UNL     1       5.385   6.176   9.995  1.00  0.00     0.124 S 
ATOM    101  O   UNL     1       5.563   4.981  10.814  1.00  0.00    -0.237 OA
ATOM    102  O   UNL     1       6.605   6.914   9.679  1.00  0.00    -0.237 OA
ATOM    103  O   UNL     1       4.226   6.999  10.321  1.00  0.00    -0.744 OA
ENDBRANCH  99 100
ENDBRANCH  67  92
ENDBRANCH  41  42
ENDBRANCH  34  36
ENDBRANCH  33  34
ENDBRANCH  32  33
ENDBRANCH  31  32
ENDBRANCH  30  31
ENDBRANCH  29  30
ENDBRANCH  28  29
ENDBRANCH   1  28
TORSDOF 26
