REMARK SMILES O=C(OCCOCCOCCOCCOC(=O)[C@]1(CCc2cccnc2)CCC[NH2+]C1)c1ccc(-c2c3nc(c(-c4c(F)cc(S(=O)(=O)[O-])cc4F)c4ccc([nH]4)c(-c4c(F)cc(S(=O)(=O)[O-])cc4F)c4nc(c(-c5c(F)cc(S(=O)(=O)[O-])cc5F)c5ccc2[nH]5)C=C4)C=C3)cc1
REMARK SMILES IDX 9 1 8 2 7 3 6 4 5 5 4 6 3 7 2 8 1 9 32 10 33 11 97 12 34 13
REMARK SMILES IDX 96 14 35 15 36 16 37 17 90 18 38 19 95 20 89 21 91 22 39 23
REMARK SMILES IDX 94 24 88 25 87 26 40 28 74 29 53 30 73 31 54 32 57 33 72 34
REMARK SMILES IDX 92 35 55 36 56 37 71 39 93 40 58 41 41 42 42 43 51 44 43 45
REMARK SMILES IDX 44 46 50 47 52 48 45 49 46 50 47 51 48 52 49 53 75 54 76 55
REMARK SMILES IDX 85 56 77 57 78 58 84 59 86 60 79 61 80 62 81 63 82 64 83 65
REMARK SMILES IDX 59 66 60 67 69 68 61 69 62 70 68 71 70 72 63 73 64 74 65 75
REMARK SMILES IDX 66 76 67 77 10 78 11 79 12 80 13 81 14 82 15 83 16 84 17 85
REMARK SMILES IDX 18 86 27 87 31 88 28 89 30 90 29 91 19 94 20 95 21 96 22 97
REMARK SMILES IDX 26 98 23 99 25 100 24 101
REMARK H PARENT 91 27 57 38 30 92 30 93
REMARK Flexibility Score: inf
ROOT
ATOM      1  O   UNL     1       1.819   1.692   2.584  1.00  0.00    -0.377 OA
ENDROOT
BRANCH   1   2
ATOM      2  C   UNL     1       1.151   1.857   1.335  1.00  0.00     0.188 C 
BRANCH   2   3
ATOM      3  C   UNL     1       1.875   1.029   0.283  1.00  0.00     0.188 C 
BRANCH   3   4
ATOM      4  O   UNL     1       2.691   1.842  -0.573  1.00  0.00    -0.376 OA
BRANCH   4   5
ATOM      5  C   UNL     1       3.790   1.145  -1.166  1.00  0.00     0.202 C 
BRANCH   5   6
ATOM      6  C   UNL     1       3.475  -0.000  -2.149  1.00  0.00     0.261 C 
BRANCH   6   7
ATOM      7  O   UNL     1       2.195  -0.641  -1.957  1.00  0.00    -0.460 OA
BRANCH   7   8
ATOM      8  C   UNL     1       1.806  -1.761  -1.306  1.00  0.00     0.338 C 
ATOM      9  O   UNL     1       0.643  -2.137  -1.442  1.00  0.00    -0.246 OA
BRANCH   8  10
ATOM     10  C   UNL     1       2.682  -2.536  -0.383  1.00  0.00     0.060 A 
ATOM     11  C   UNL     1       3.822  -2.028   0.223  1.00  0.00     0.016 A 
ATOM     12  C   UNL     1       2.281  -3.838  -0.029  1.00  0.00     0.016 A 
ATOM     13  C   UNL     1       4.579  -2.794   1.097  1.00  0.00     0.010 A 
ATOM     14  C   UNL     1       3.027  -4.608   0.877  1.00  0.00     0.010 A 
ATOM     15  C   UNL     1       4.198  -4.087   1.432  1.00  0.00    -0.014 A 
BRANCH  15  16
ATOM     16  C   UNL     1       5.179  -4.896   2.186  1.00  0.00     0.031 A 
ATOM     17  C   UNL     1       6.007  -5.876   1.409  1.00  0.00     0.074 A 
ATOM     18  C   UNL     1       5.469  -4.616   3.472  1.00  0.00     0.049 A 
ATOM     19  N   UNL     1       6.889  -6.738   1.832  1.00  0.00    -0.248 NA
ATOM     20  C   UNL     1       5.834  -5.860  -0.056  1.00  0.00     0.031 C 
ATOM     21  C   UNL     1       4.856  -3.548   4.266  1.00  0.00     0.029 A 
ATOM     22  N   UNL     1       6.381  -5.181   4.329  1.00  0.00    -0.354 N 
ATOM     23  C   UNL     1       7.346  -7.392   0.695  1.00  0.00     0.074 A 
ATOM     24  C   UNL     1       6.654  -6.825  -0.439  1.00  0.00     0.031 C 
ATOM     25  C   UNL     1       5.412  -3.534   5.490  1.00  0.00     0.029 A 
ATOM     26  C   UNL     1       6.367  -4.632   5.592  1.00  0.00     0.049 A 
ATOM     27  H   UNL     1       6.988  -5.910   4.065  1.00  0.00     0.167 HD
ATOM     28  C   UNL     1       8.258  -8.386   0.614  1.00  0.00     0.037 A 
ATOM     29  C   UNL     1       7.021  -5.012   6.709  1.00  0.00     0.037 A 
ATOM     30  C   UNL     1       8.936  -8.926   1.760  1.00  0.00     0.049 A 
ATOM     31  C   UNL     1       7.942  -6.206   6.615  1.00  0.00     0.074 A 
ATOM     32  C   UNL     1       9.800 -10.003   1.825  1.00  0.00     0.029 A 
ATOM     33  N   UNL     1       8.829  -8.415   3.046  1.00  0.00    -0.354 N 
ATOM     34  N   UNL     1       8.280  -6.908   5.556  1.00  0.00    -0.248 NA
ATOM     35  C   UNL     1       8.554  -6.675   7.865  1.00  0.00     0.031 C 
ATOM     36  C   UNL     1      10.183 -10.168   3.161  1.00  0.00     0.029 A 
ATOM     37  C   UNL     1       9.603  -9.159   3.917  1.00  0.00     0.049 A 
ATOM     38  H   UNL     1       8.282  -7.637   3.301  1.00  0.00     0.167 HD
ATOM     39  C   UNL     1       9.150  -7.893   6.012  1.00  0.00     0.074 A 
ATOM     40  C   UNL     1       9.315  -7.672   7.435  1.00  0.00     0.031 C 
ATOM     41  C   UNL     1       9.749  -8.900   5.327  1.00  0.00     0.037 A 
BRANCH  28  42
ATOM     42  C   UNL     1       8.500  -8.991  -0.738  1.00  0.00     0.058 A 
ATOM     43  C   UNL     1       9.217  -8.319  -1.740  1.00  0.00     0.135 A 
ATOM     44  C   UNL     1       7.993 -10.266  -1.036  1.00  0.00     0.135 A 
ATOM     45  F   UNL     1       9.686  -7.080  -1.522  1.00  0.00    -0.206 F 
ATOM     46  C   UNL     1       9.415  -8.888  -2.995  1.00  0.00     0.059 A 
ATOM     47  C   UNL     1       8.200 -10.864  -2.274  1.00  0.00     0.059 A 
ATOM     48  F   UNL     1       7.281 -10.941  -0.120  1.00  0.00    -0.206 F 
ATOM     49  C   UNL     1       8.906 -10.163  -3.250  1.00  0.00     0.060 A 
BRANCH  49  50
ATOM     50  S   UNL     1       9.190 -10.895  -4.875  1.00  0.00     0.124 S 
ATOM     51  O   UNL     1       8.327 -10.075  -5.720  1.00  0.00    -0.237 OA
ATOM     52  O   UNL     1      10.625 -10.699  -5.056  1.00  0.00    -0.237 OA
ATOM     53  O   UNL     1       8.766 -12.281  -4.705  1.00  0.00    -0.744 OA
ENDBRANCH  49  50
ENDBRANCH  28  42
BRANCH  29  54
ATOM     54  C   UNL     1       6.773  -4.339   8.019  1.00  0.00     0.058 A 
ATOM     55  C   UNL     1       7.802  -3.705   8.733  1.00  0.00     0.135 A 
ATOM     56  C   UNL     1       5.504  -4.380   8.623  1.00  0.00     0.135 A 
ATOM     57  F   UNL     1       9.039  -3.645   8.215  1.00  0.00    -0.206 F 
ATOM     58  C   UNL     1       7.596  -3.178  10.008  1.00  0.00     0.059 A 
ATOM     59  C   UNL     1       5.264  -3.828   9.878  1.00  0.00     0.059 A 
ATOM     60  F   UNL     1       4.477  -4.973   7.995  1.00  0.00    -0.206 F 
ATOM     61  C   UNL     1       6.322  -3.251  10.575  1.00  0.00     0.060 A 
BRANCH  61  62
ATOM     62  S   UNL     1       6.070  -2.595  12.240  1.00  0.00     0.124 S 
ATOM     63  O   UNL     1       6.727  -3.592  13.056  1.00  0.00    -0.237 OA
ATOM     64  O   UNL     1       6.728  -1.289  12.160  1.00  0.00    -0.237 OA
ATOM     65  O   UNL     1       4.608  -2.539  12.358  1.00  0.00    -0.744 OA
ENDBRANCH  61  62
ENDBRANCH  29  54
BRANCH  41  66
ATOM     66  C   UNL     1      10.658  -9.810   6.105  1.00  0.00     0.058 A 
ATOM     67  C   UNL     1      10.155 -10.738   7.030  1.00  0.00     0.135 A 
ATOM     68  C   UNL     1      12.044  -9.782   5.887  1.00  0.00     0.135 A 
ATOM     69  F   UNL     1       8.837 -10.804   7.275  1.00  0.00    -0.206 F 
ATOM     70  C   UNL     1      11.001 -11.582   7.740  1.00  0.00     0.059 A 
ATOM     71  C   UNL     1      12.905 -10.640   6.561  1.00  0.00     0.059 A 
ATOM     72  F   UNL     1      12.573  -8.924   5.000  1.00  0.00    -0.206 F 
ATOM     73  C   UNL     1      12.375 -11.525   7.498  1.00  0.00     0.060 A 
BRANCH  73  74
ATOM     74  S   UNL     1      13.460 -12.639   8.414  1.00  0.00     0.124 S 
ATOM     75  O   UNL     1      13.454 -12.030   9.739  1.00  0.00    -0.237 OA
ATOM     76  O   UNL     1      12.765 -13.917   8.299  1.00  0.00    -0.237 OA
ATOM     77  O   UNL     1      14.724 -12.553   7.689  1.00  0.00    -0.744 OA
ENDBRANCH  73  74
ENDBRANCH  41  66
ENDBRANCH  15  16
ENDBRANCH   8  10
ENDBRANCH   7   8
ENDBRANCH   6   7
ENDBRANCH   5   6
ENDBRANCH   4   5
ENDBRANCH   3   4
ENDBRANCH   2   3
ENDBRANCH   1   2
BRANCH   1  78
ATOM     78  C   UNL     1       2.999   2.464   2.652  1.00  0.00     0.188 C 
BRANCH  78  79
ATOM     79  C   UNL     1       3.891   2.063   3.851  1.00  0.00     0.188 C 
BRANCH  79  80
ATOM     80  O   UNL     1       3.375   2.021   5.168  1.00  0.00    -0.376 OA
BRANCH  80  81
ATOM     81  C   UNL     1       2.089   2.549   5.374  1.00  0.00     0.202 C 
BRANCH  81  82
ATOM     82  C   UNL     1       2.000   4.081   5.276  1.00  0.00     0.261 C 
BRANCH  82  83
ATOM     83  O   UNL     1       2.825   4.722   4.259  1.00  0.00    -0.463 OA
BRANCH  83  84
ATOM     84  C   UNL     1       4.149   4.900   4.554  1.00  0.00     0.317 C 
ATOM     85  O   UNL     1       4.603   4.644   5.665  1.00  0.00    -0.251 OA
BRANCH  84  86
ATOM     86  C   UNL     1       5.026   5.482   3.371  1.00  0.00     0.117 C 
ATOM     87  C   UNL     1       6.371   5.942   3.979  1.00  0.00     0.030 C 
ATOM     88  C   UNL     1       4.283   6.786   2.916  1.00  0.00     0.279 C 
ATOM     89  C   UNL     1       6.215   7.033   5.052  1.00  0.00     0.063 C 
ATOM     90  N   UNL     1       4.031   7.727   4.007  1.00  0.00    -0.345 N 
ATOM     91  C   UNL     1       5.258   8.163   4.669  1.00  0.00     0.260 C 
ATOM     92  H   UNL     1       3.556   8.547   3.628  1.00  0.00     0.346 HD
ATOM     93  H   UNL     1       3.459   7.248   4.702  1.00  0.00     0.346 HD
BRANCH  86  94
ATOM     94  C   UNL     1       5.316   4.613   2.025  1.00  0.00     0.029 C 
BRANCH  94  95
ATOM     95  C   UNL     1       6.540   3.633   1.678  1.00  0.00     0.038 C 
BRANCH  95  96
ATOM     96  C   UNL     1       6.832   2.145   1.885  1.00  0.00    -0.030 A 
ATOM     97  C   UNL     1       8.165   1.697   1.874  1.00  0.00     0.007 A 
ATOM     98  C   UNL     1       5.947   1.089   1.894  1.00  0.00     0.114 A 
ATOM     99  C   UNL     1       8.510   0.355   2.120  1.00  0.00     0.020 A 
ATOM    100  N   UNL     1       6.220  -0.211   2.184  1.00  0.00    -0.264 NA
ATOM    101  C   UNL     1       7.502  -0.547   2.363  1.00  0.00     0.111 A 
ENDBRANCH  95  96
ENDBRANCH  94  95
ENDBRANCH  86  94
ENDBRANCH  84  86
ENDBRANCH  83  84
ENDBRANCH  82  83
ENDBRANCH  81  82
ENDBRANCH  80  81
ENDBRANCH  79  80
ENDBRANCH  78  79
ENDBRANCH   1  78
TORSDOF 26
