REMARK SMILES O=C(OCCOCCOCCOCCOC(=O)[C@@H]1CCCCN1c1ccccc1[N+](=O)[O-])c1ccc(-c2c3nc(c(-c4c(F)cc(S(=O)(=O)[O-])cc4F)c4ccc([nH]4)c(-c4c(F)cc(S(=O)(=O)[O-])cc4F)c4nc(c(-c5c(F)cc(S(=O)(=O)[O-])cc5F)c5ccc2[nH]5)C=C4)C=C3)cc1
REMARK SMILES IDX 8 1 7 2 6 3 5 4 4 5 3 6 2 7 1 8 33 9 34 10 98 11 35 12 97 13
REMARK SMILES IDX 36 14 37 15 38 16 91 17 39 18 96 19 90 20 92 21 40 22 95 23
REMARK SMILES IDX 89 24 88 25 41 27 75 28 54 29 74 30 55 31 58 32 73 33 93 34
REMARK SMILES IDX 56 35 57 36 72 38 94 39 59 40 42 41 43 42 52 43 44 44 45 45
REMARK SMILES IDX 51 46 53 47 46 48 47 49 48 50 49 51 50 52 76 53 77 54 86 55
REMARK SMILES IDX 78 56 79 57 85 58 87 59 80 60 81 61 82 62 83 63 84 64 60 65
REMARK SMILES IDX 61 66 70 67 62 68 63 69 69 70 71 71 64 72 65 73 66 74 67 75
REMARK SMILES IDX 68 76 9 77 10 78 11 79 12 80 13 81 14 82 15 83 16 84 17 85
REMARK SMILES IDX 18 86 19 87 23 88 20 89 22 90 21 91 24 92 25 93 29 94 26 95
REMARK SMILES IDX 28 96 27 97 30 98 31 99 32 100
REMARK H PARENT 92 26 58 37
REMARK Flexibility Score: inf
ROOT
ATOM      1  C   UNL     1       2.988  -1.277   2.029  1.00  0.00     0.188 C 
ENDROOT
BRANCH   1   2
ATOM      2  C   UNL     1       3.226  -0.004   1.233  1.00  0.00     0.188 C 
BRANCH   2   3
ATOM      3  O   UNL     1       4.603   0.088   0.876  1.00  0.00    -0.376 OA
BRANCH   3   4
ATOM      4  C   UNL     1       5.039   1.249   0.194  1.00  0.00     0.202 C 
BRANCH   4   5
ATOM      5  C   UNL     1       4.620   1.362  -1.278  1.00  0.00     0.261 C 
BRANCH   5   6
ATOM      6  O   UNL     1       3.180   1.369  -1.435  1.00  0.00    -0.460 OA
BRANCH   6   7
ATOM      7  C   UNL     1       2.442   0.441  -2.105  1.00  0.00     0.338 C 
ATOM      8  O   UNL     1       1.272   0.679  -2.407  1.00  0.00    -0.246 OA
BRANCH   7   9
ATOM      9  C   UNL     1       3.015  -0.890  -2.433  1.00  0.00     0.060 A 
ATOM     10  C   UNL     1       3.873  -1.535  -1.553  1.00  0.00     0.016 A 
ATOM     11  C   UNL     1       2.662  -1.556  -3.604  1.00  0.00     0.016 A 
ATOM     12  C   UNL     1       4.516  -2.704  -1.849  1.00  0.00     0.010 A 
ATOM     13  C   UNL     1       3.241  -2.800  -3.892  1.00  0.00     0.010 A 
ATOM     14  C   UNL     1       4.195  -3.353  -3.021  1.00  0.00    -0.014 A 
BRANCH  14  15
ATOM     15  C   UNL     1       5.032  -4.510  -3.346  1.00  0.00     0.031 A 
ATOM     16  C   UNL     1       6.011  -4.340  -4.459  1.00  0.00     0.074 A 
ATOM     17  C   UNL     1       5.035  -5.583  -2.532  1.00  0.00     0.049 A 
ATOM     18  N   UNL     1       6.716  -5.241  -5.074  1.00  0.00    -0.248 NA
ATOM     19  C   UNL     1       6.229  -2.963  -4.948  1.00  0.00     0.031 C 
ATOM     20  C   UNL     1       4.269  -5.709  -1.283  1.00  0.00     0.029 A 
ATOM     21  N   UNL     1       5.724  -6.760  -2.610  1.00  0.00    -0.354 N 
ATOM     22  C   UNL     1       7.385  -4.559  -6.080  1.00  0.00     0.074 A 
ATOM     23  C   UNL     1       7.046  -3.162  -5.971  1.00  0.00     0.031 C 
ATOM     24  C   UNL     1       4.530  -6.898  -0.720  1.00  0.00     0.029 A 
ATOM     25  C   UNL     1       5.378  -7.657  -1.625  1.00  0.00     0.049 A 
ATOM     26  H   UNL     1       6.400  -6.948  -3.300  1.00  0.00     0.167 HD
ATOM     27  C   UNL     1       8.180  -5.095  -7.029  1.00  0.00     0.037 A 
ATOM     28  C   UNL     1       5.647  -8.972  -1.536  1.00  0.00     0.037 A 
ATOM     29  C   UNL     1       8.502  -6.495  -7.047  1.00  0.00     0.049 A 
ATOM     30  C   UNL     1       6.453  -9.567  -2.660  1.00  0.00     0.074 A 
ATOM     31  C   UNL     1       9.251  -7.200  -7.965  1.00  0.00     0.029 A 
ATOM     32  N   UNL     1       8.084  -7.400  -6.076  1.00  0.00    -0.354 N 
ATOM     33  N   UNL     1       7.002  -8.957  -3.688  1.00  0.00    -0.248 NA
ATOM     34  C   UNL     1       6.650 -11.018  -2.642  1.00  0.00     0.031 C 
ATOM     35  C   UNL     1       9.239  -8.544  -7.577  1.00  0.00     0.029 A 
ATOM     36  C   UNL     1       8.532  -8.666  -6.387  1.00  0.00     0.049 A 
ATOM     37  H   UNL     1       7.548  -7.170  -5.283  1.00  0.00     0.167 HD
ATOM     38  C   UNL     1       7.614  -9.950  -4.439  1.00  0.00     0.074 A 
ATOM     39  C   UNL     1       7.393 -11.195  -3.726  1.00  0.00     0.031 C 
ATOM     40  C   UNL     1       8.283  -9.859  -5.615  1.00  0.00     0.037 A 
BRANCH  27  41
ATOM     41  C   UNL     1       8.638  -4.206  -8.144  1.00  0.00     0.058 A 
ATOM     42  C   UNL     1       9.629  -3.227  -7.978  1.00  0.00     0.135 A 
ATOM     43  C   UNL     1       8.062  -4.345  -9.418  1.00  0.00     0.135 A 
ATOM     44  F   UNL     1      10.176  -3.016  -6.770  1.00  0.00    -0.206 F 
ATOM     45  C   UNL     1      10.039  -2.423  -9.038  1.00  0.00     0.059 A 
ATOM     46  C   UNL     1       8.471  -3.570 -10.496  1.00  0.00     0.059 A 
ATOM     47  F   UNL     1       7.083  -5.242  -9.621  1.00  0.00    -0.206 F 
ATOM     48  C   UNL     1       9.461  -2.610 -10.297  1.00  0.00     0.060 A 
BRANCH  48  49
ATOM     49  S   UNL     1      10.044  -1.601 -11.675  1.00  0.00     0.124 S 
ATOM     50  O   UNL     1       9.507  -0.289 -11.326  1.00  0.00    -0.237 OA
ATOM     51  O   UNL     1      11.493  -1.741 -11.568  1.00  0.00    -0.237 OA
ATOM     52  O   UNL     1       9.440  -2.236 -12.842  1.00  0.00    -0.744 OA
ENDBRANCH  48  49
ENDBRANCH  27  41
BRANCH  28  53
ATOM     53  C   UNL     1       5.047  -9.813  -0.460  1.00  0.00     0.058 A 
ATOM     54  C   UNL     1       5.845 -10.524   0.448  1.00  0.00     0.135 A 
ATOM     55  C   UNL     1       3.652  -9.958  -0.341  1.00  0.00     0.135 A 
ATOM     56  F   UNL     1       7.182 -10.429   0.381  1.00  0.00    -0.206 F 
ATOM     57  C   UNL     1       5.290 -11.373   1.404  1.00  0.00     0.059 A 
ATOM     58  C   UNL     1       3.072 -10.771   0.628  1.00  0.00     0.059 A 
ATOM     59  F   UNL     1       2.830  -9.299  -1.173  1.00  0.00    -0.206 F 
ATOM     60  C   UNL     1       3.901 -11.495   1.481  1.00  0.00     0.060 A 
BRANCH  60  61
ATOM     61  S   UNL     1       3.188 -12.615   2.706  1.00  0.00     0.124 S 
ATOM     62  O   UNL     1       3.506 -13.917   2.132  1.00  0.00    -0.237 OA
ATOM     63  O   UNL     1       3.920 -12.255   3.917  1.00  0.00    -0.237 OA
ATOM     64  O   UNL     1       1.773 -12.255   2.709  1.00  0.00    -0.744 OA
ENDBRANCH  60  61
ENDBRANCH  28  53
BRANCH  40  65
ATOM     65  C   UNL     1       8.834 -11.135  -6.170  1.00  0.00     0.058 A 
ATOM     66  C   UNL     1       7.999 -12.087  -6.772  1.00  0.00     0.135 A 
ATOM     67  C   UNL     1      10.218 -11.361  -6.171  1.00  0.00     0.135 A 
ATOM     68  F   UNL     1       6.668 -11.912  -6.782  1.00  0.00    -0.206 F 
ATOM     69  C   UNL     1       8.522 -13.235  -7.349  1.00  0.00     0.059 A 
ATOM     70  C   UNL     1      10.765 -12.485  -6.772  1.00  0.00     0.059 A 
ATOM     71  F   UNL     1      11.051 -10.466  -5.616  1.00  0.00    -0.206 F 
ATOM     72  C   UNL     1       9.907 -13.420  -7.351  1.00  0.00     0.060 A 
BRANCH  72  73
ATOM     73  S   UNL     1      10.576 -14.885  -8.161  1.00  0.00     0.124 S 
ATOM     74  O   UNL     1      10.220 -15.932  -7.209  1.00  0.00    -0.237 OA
ATOM     75  O   UNL     1       9.847 -14.901  -9.425  1.00  0.00    -0.237 OA
ATOM     76  O   UNL     1      12.002 -14.591  -8.268  1.00  0.00    -0.744 OA
ENDBRANCH  72  73
ENDBRANCH  40  65
ENDBRANCH  14  15
ENDBRANCH   7   9
ENDBRANCH   6   7
ENDBRANCH   5   6
ENDBRANCH   4   5
ENDBRANCH   3   4
ENDBRANCH   2   3
ENDBRANCH   1   2
BRANCH   1  77
ATOM     77  O   UNL     1       3.732  -1.256   3.239  1.00  0.00    -0.377 OA
BRANCH  77  78
ATOM     78  C   UNL     1       5.077  -1.702   3.127  1.00  0.00     0.188 C 
BRANCH  78  79
ATOM     79  C   UNL     1       5.266  -3.213   3.284  1.00  0.00     0.188 C 
BRANCH  79  80
ATOM     80  O   UNL     1       4.167  -4.048   2.969  1.00  0.00    -0.376 OA
BRANCH  80  81
ATOM     81  C   UNL     1       2.982  -4.007   3.765  1.00  0.00     0.202 C 
BRANCH  81  82
ATOM     82  C   UNL     1       3.004  -3.636   5.260  1.00  0.00     0.261 C 
BRANCH  82  83
ATOM     83  O   UNL     1       3.114  -2.216   5.564  1.00  0.00    -0.462 OA
BRANCH  83  84
ATOM     84  C   UNL     1       4.293  -1.832   6.115  1.00  0.00     0.328 C 
ATOM     85  O   UNL     1       5.207  -2.628   6.350  1.00  0.00    -0.250 OA
BRANCH  84  86
ATOM     86  C   UNL     1       4.400  -0.411   6.658  1.00  0.00     0.192 C 
ATOM     87  C   UNL     1       3.674  -0.294   7.997  1.00  0.00     0.037 C 
ATOM     88  N   UNL     1       4.330   0.871   5.883  1.00  0.00    -0.353 N 
ATOM     89  C   UNL     1       4.260   0.869   8.796  1.00  0.00     0.005 C 
ATOM     90  C   UNL     1       4.927   1.997   6.646  1.00  0.00     0.118 C 
ATOM     91  C   UNL     1       4.203   2.157   7.983  1.00  0.00     0.022 C 
BRANCH  88  92
ATOM     92  C   UNL     1       3.494   1.297   4.861  1.00  0.00     0.116 A 
ATOM     93  C   UNL     1       2.137   0.942   4.830  1.00  0.00     0.033 A 
ATOM     94  C   UNL     1       3.902   2.236   3.866  1.00  0.00     0.292 A 
ATOM     95  C   UNL     1       1.228   1.542   3.934  1.00  0.00     0.003 A 
ATOM     96  C   UNL     1       2.982   2.896   3.018  1.00  0.00     0.088 A 
ATOM     97  C   UNL     1       1.639   2.543   3.055  1.00  0.00     0.007 A 
BRANCH  94  98
ATOM     98  N   UNL     1       5.327   2.510   3.600  1.00  0.00     0.064 N 
ATOM     99  O   UNL     1       5.609   3.632   3.144  1.00  0.00    -0.258 OA
ATOM    100  O   UNL     1       6.168   1.625   3.812  1.00  0.00    -0.258 OA
ENDBRANCH  94  98
ENDBRANCH  88  92
ENDBRANCH  84  86
ENDBRANCH  83  84
ENDBRANCH  82  83
ENDBRANCH  81  82
ENDBRANCH  80  81
ENDBRANCH  79  80
ENDBRANCH  78  79
ENDBRANCH  77  78
ENDBRANCH   1  77
TORSDOF 25
