REMARK SMILES CCOC(=O)[C@@H]1CCCCN1C(=O)N[C@](C)(CC)C(=O)OCCOCCOCCOCCOC(=O)c1ccc(-c2c3nc(c(-c4c(F)cc(S(=O)(=O)[O-])cc4F)c4ccc([nH]4)c(-c4c(F)cc(S(=O)(=O)[O-])cc4F)c4nc(c(-c5c(F)cc(S(=O)(=O)[O-])cc5F)c5ccc2[nH]5)C=C4)C=C3)cc1
REMARK SMILES IDX 26 1 25 2 24 3 23 4 22 5 21 6 19 7 20 8 15 9 16 10 14 11
REMARK SMILES IDX 12 12 13 13 11 15 6 16 7 17 8 18 10 19 9 20 4 21 5 22 3 23
REMARK SMILES IDX 2 24 1 25 17 26 18 27 27 28 28 29 29 30 30 31 31 32 32 33
REMARK SMILES IDX 33 34 34 35 35 36 36 37 37 38 101 39 38 40 100 41 39 42
REMARK SMILES IDX 40 43 41 44 94 45 42 46 99 47 93 48 95 49 43 50 98 51 92 52
REMARK SMILES IDX 91 53 44 55 78 56 57 57 77 58 58 59 61 60 76 61 96 62 59 63
REMARK SMILES IDX 60 64 75 66 97 67 62 68 45 69 46 70 55 71 47 72 48 73 54 74
REMARK SMILES IDX 56 75 49 76 50 77 51 78 52 79 53 80 79 81 80 82 89 83 81 84
REMARK SMILES IDX 82 85 88 86 90 87 83 88 84 89 85 90 86 91 87 92 63 93 64 94
REMARK SMILES IDX 73 95 65 96 66 97 72 98 74 99 67 100 68 101 69 102 70 103
REMARK SMILES IDX 71 104
REMARK H PARENT 14 14 95 54 61 65
REMARK Flexibility Score: inf
ROOT
ATOM      1  C   UNL     1       1.274  -4.846   4.398  1.00  0.00     0.188 C 
ENDROOT
BRANCH   1   2
ATOM      2  C   UNL     1       2.592  -5.533   4.845  1.00  0.00     0.188 C 
BRANCH   2   3
ATOM      3  O   UNL     1       2.842  -5.216   6.218  1.00  0.00    -0.376 OA
BRANCH   3   4
ATOM      4  C   UNL     1       4.137  -4.773   6.588  1.00  0.00     0.202 C 
BRANCH   4   5
ATOM      5  C   UNL     1       4.132  -3.498   7.581  1.00  0.00     0.261 C 
BRANCH   5   6
ATOM      6  O   UNL     1       3.862  -1.659   7.090  1.00  0.00    -0.462 OA
BRANCH   6   7
ATOM      7  C   UNL     1       3.292  -0.374   6.730  1.00  0.00     0.331 C 
ATOM      8  O   UNL     1       4.097   0.465   6.295  1.00  0.00    -0.249 OA
BRANCH   7   9
ATOM      9  C   UNL     1       1.692   0.099   6.965  1.00  0.00     0.136 C 
ATOM     10  C   UNL     1       1.544   1.271   5.960  1.00  0.00     0.047 C 
BRANCH   9  11
ATOM     11  N   UNL     1       1.901   0.443   8.349  1.00  0.00    -0.322 N 
ATOM     12  C   UNL     1       2.158  -0.582   9.236  1.00  0.00     0.319 C 
ATOM     13  O   UNL     1       2.163  -0.353  10.439  1.00  0.00    -0.249 OA
ATOM     14  H   UNL     1       1.863   1.380   8.651  1.00  0.00     0.166 HD
BRANCH  12  15
ATOM     15  N   UNL     1       2.722  -1.738   8.649  1.00  0.00    -0.311 N 
ATOM     16  C   UNL     1       4.498  -1.612   9.021  1.00  0.00     0.196 C 
ATOM     17  C   UNL     1       5.767  -1.639   7.572  1.00  0.00     0.037 C 
ATOM     18  C   UNL     1       5.230  -2.195   5.822  1.00  0.00     0.005 C 
ATOM     19  C   UNL     1       2.152  -2.591   7.063  1.00  0.00     0.122 C 
ATOM     20  C   UNL     1       3.349  -2.528   5.497  1.00  0.00     0.022 C 
BRANCH  16  21
ATOM     21  C   UNL     1       4.991  -0.464   9.904  1.00  0.00     0.328 C 
ATOM     22  O   UNL     1       5.464  -0.623  11.022  1.00  0.00    -0.250 OA
BRANCH  21  23
ATOM     23  O   UNL     1       5.036   0.698   9.197  1.00  0.00    -0.464 OA
BRANCH  23  24
ATOM     24  C   UNL     1       5.949   1.675   9.703  1.00  0.00     0.229 C 
ATOM     25  C   UNL     1       5.218   2.670  10.574  1.00  0.00     0.049 C 
ENDBRANCH  23  24
ENDBRANCH  21  23
ENDBRANCH  16  21
ENDBRANCH  12  15
ENDBRANCH   9  11
BRANCH   9  26
ATOM     26  C   UNL     1       0.194  -0.440   7.095  1.00  0.00     0.037 C 
ATOM     27  C   UNL     1      -0.621  -0.961   5.912  1.00  0.00     0.007 C 
ENDBRANCH   9  26
ENDBRANCH   7   9
ENDBRANCH   6   7
ENDBRANCH   5   6
ENDBRANCH   4   5
ENDBRANCH   3   4
ENDBRANCH   2   3
ENDBRANCH   1   2
BRANCH   1  28
ATOM     28  O   UNL     1       0.341  -4.597   5.452  1.00  0.00    -0.377 OA
BRANCH  28  29
ATOM     29  C   UNL     1       0.041  -5.725   6.279  1.00  0.00     0.188 C 
BRANCH  29  30
ATOM     30  C   UNL     1      -0.317  -6.971   5.468  1.00  0.00     0.188 C 
BRANCH  30  31
ATOM     31  O   UNL     1      -1.399  -6.807   4.555  1.00  0.00    -0.376 OA
BRANCH  31  32
ATOM     32  C   UNL     1      -2.537  -6.100   5.044  1.00  0.00     0.202 C 
BRANCH  32  33
ATOM     33  C   UNL     1      -3.352  -6.839   6.112  1.00  0.00     0.261 C 
BRANCH  33  34
ATOM     34  O   UNL     1      -2.661  -6.943   7.377  1.00  0.00    -0.460 OA
BRANCH  34  35
ATOM     35  C   UNL     1      -2.224  -8.179   7.705  1.00  0.00     0.338 C 
ATOM     36  O   UNL     1      -2.369  -9.208   7.043  1.00  0.00    -0.246 OA
BRANCH  35  37
ATOM     37  C   UNL     1      -1.369  -8.140   8.905  1.00  0.00     0.060 A 
ATOM     38  C   UNL     1      -0.111  -8.761   8.851  1.00  0.00     0.016 A 
ATOM     39  C   UNL     1      -1.861  -7.646  10.114  1.00  0.00     0.016 A 
ATOM     40  C   UNL     1       0.614  -8.976  10.022  1.00  0.00     0.010 A 
ATOM     41  C   UNL     1      -1.141  -7.879  11.291  1.00  0.00     0.010 A 
ATOM     42  C   UNL     1       0.065  -8.603  11.255  1.00  0.00    -0.014 A 
BRANCH  42  43
ATOM     43  C   UNL     1       0.602  -9.217  12.495  1.00  0.00     0.031 A 
ATOM     44  C   UNL     1      -0.044 -10.486  12.993  1.00  0.00     0.074 A 
ATOM     45  C   UNL     1       1.656  -8.693  13.142  1.00  0.00     0.049 A 
ATOM     46  N   UNL     1       0.231 -11.202  14.052  1.00  0.00    -0.248 NA
ATOM     47  C   UNL     1      -1.155 -11.017  12.183  1.00  0.00     0.031 C 
ATOM     48  C   UNL     1       2.387  -7.493  12.739  1.00  0.00     0.029 A 
ATOM     49  N   UNL     1       2.292  -9.109  14.284  1.00  0.00    -0.354 N 
ATOM     50  C   UNL     1      -0.671 -12.260  14.039  1.00  0.00     0.074 A 
ATOM     51  C   UNL     1      -1.521 -12.080  12.883  1.00  0.00     0.031 C 
ATOM     52  C   UNL     1       3.367  -7.261  13.632  1.00  0.00     0.029 A 
ATOM     53  C   UNL     1       3.318  -8.284  14.675  1.00  0.00     0.049 A 
ATOM     54  H   UNL     1       2.036  -9.922  14.778  1.00  0.00     0.167 HD
ATOM     55  C   UNL     1      -0.780 -13.295  14.906  1.00  0.00     0.037 A 
ATOM     56  C   UNL     1       4.117  -8.346  15.760  1.00  0.00     0.037 A 
ATOM     57  C   UNL     1       0.065 -13.472  16.057  1.00  0.00     0.049 A 
ATOM     58  C   UNL     1       3.952  -9.485  16.734  1.00  0.00     0.074 A 
ATOM     59  C   UNL     1       0.041 -14.486  16.998  1.00  0.00     0.029 A 
ATOM     60  N   UNL     1       1.085 -12.608  16.426  1.00  0.00    -0.354 N 
ATOM     61  N   UNL     1       3.103 -10.485  16.703  1.00  0.00    -0.248 NA
ATOM     62  C   UNL     1       4.863  -9.507  17.887  1.00  0.00     0.031 C 
ATOM     63  C   UNL     1       1.026 -14.217  17.955  1.00  0.00     0.029 A 
ATOM     64  C   UNL     1       1.691 -13.059  17.586  1.00  0.00     0.049 A 
ATOM     65  H   UNL     1       1.341 -11.794  15.935  1.00  0.00     0.167 HD
ATOM     66  C   UNL     1       3.395 -11.268  17.816  1.00  0.00     0.074 A 
ATOM     67  C   UNL     1       4.507 -10.632  18.492  1.00  0.00     0.031 C 
ATOM     68  C   UNL     1       2.800 -12.412  18.241  1.00  0.00     0.037 A 
BRANCH  55  69
ATOM     69  C   UNL     1      -1.869 -14.299  14.650  1.00  0.00     0.058 A 
ATOM     70  C   UNL     1      -1.786 -15.224  13.597  1.00  0.00     0.135 A 
ATOM     71  C   UNL     1      -3.006 -14.342  15.472  1.00  0.00     0.135 A 
ATOM     72  F   UNL     1      -0.731 -15.211  12.766  1.00  0.00    -0.206 F 
ATOM     73  C   UNL     1      -2.804 -16.140  13.352  1.00  0.00     0.059 A 
ATOM     74  C   UNL     1      -4.026 -15.266  15.260  1.00  0.00     0.059 A 
ATOM     75  F   UNL     1      -3.138 -13.476  16.488  1.00  0.00    -0.206 F 
ATOM     76  C   UNL     1      -3.922 -16.151  14.188  1.00  0.00     0.060 A 
BRANCH  76  77
ATOM     77  S   UNL     1      -5.238 -17.344  13.859  1.00  0.00     0.124 S 
ATOM     78  O   UNL     1      -5.884 -16.750  12.693  1.00  0.00    -0.237 OA
ATOM     79  O   UNL     1      -4.492 -18.574  13.612  1.00  0.00    -0.237 OA
ATOM     80  O   UNL     1      -6.025 -17.329  15.088  1.00  0.00    -0.744 OA
ENDBRANCH  76  77
ENDBRANCH  55  69
BRANCH  56  81
ATOM     81  C   UNL     1       5.151  -7.302  15.982  1.00  0.00     0.058 A 
ATOM     82  C   UNL     1       6.516  -7.594  15.843  1.00  0.00     0.135 A 
ATOM     83  C   UNL     1       4.796  -5.993  16.346  1.00  0.00     0.135 A 
ATOM     84  F   UNL     1       6.905  -8.833  15.507  1.00  0.00    -0.206 F 
ATOM     85  C   UNL     1       7.494  -6.633  16.073  1.00  0.00     0.059 A 
ATOM     86  C   UNL     1       5.756  -5.007  16.558  1.00  0.00     0.059 A 
ATOM     87  F   UNL     1       3.503  -5.662  16.485  1.00  0.00    -0.206 F 
ATOM     88  C   UNL     1       7.104  -5.340  16.430  1.00  0.00     0.060 A 
BRANCH  88  89
ATOM     89  S   UNL     1       8.384  -4.094  16.691  1.00  0.00     0.124 S 
ATOM     90  O   UNL     1       8.941  -4.510  17.973  1.00  0.00    -0.237 OA
ATOM     91  O   UNL     1       9.246  -4.292  15.529  1.00  0.00    -0.237 OA
ATOM     92  O   UNL     1       7.637  -2.841  16.704  1.00  0.00    -0.744 OA
ENDBRANCH  88  89
ENDBRANCH  56  81
BRANCH  68  93
ATOM     93  C   UNL     1       3.367 -13.063  19.472  1.00  0.00     0.058 A 
ATOM     94  C   UNL     1       3.170 -12.522  20.752  1.00  0.00     0.135 A 
ATOM     95  C   UNL     1       4.103 -14.255  19.369  1.00  0.00     0.135 A 
ATOM     96  F   UNL     1       2.475 -11.384  20.904  1.00  0.00    -0.206 F 
ATOM     97  C   UNL     1       3.719 -13.117  21.884  1.00  0.00     0.059 A 
ATOM     98  C   UNL     1       4.638 -14.881  20.490  1.00  0.00     0.059 A 
ATOM     99  F   UNL     1       4.305 -14.823  18.170  1.00  0.00    -0.206 F 
ATOM    100  C   UNL     1       4.459 -14.292  21.741  1.00  0.00     0.060 A 
BRANCH 100 101
ATOM    101  S   UNL     1       5.174 -15.056  23.213  1.00  0.00     0.124 S 
ATOM    102  O   UNL     1       6.342 -14.213  23.441  1.00  0.00    -0.237 OA
ATOM    103  O   UNL     1       4.098 -14.927  24.191  1.00  0.00    -0.237 OA
ATOM    104  O   UNL     1       5.458 -16.421  22.781  1.00  0.00    -0.744 OA
ENDBRANCH 100 101
ENDBRANCH  68  93
ENDBRANCH  42  43
ENDBRANCH  35  37
ENDBRANCH  34  35
ENDBRANCH  33  34
ENDBRANCH  32  33
ENDBRANCH  31  32
ENDBRANCH  30  31
ENDBRANCH  29  30
ENDBRANCH  28  29
ENDBRANCH   1  28
TORSDOF 29
