REMARK SMILES Cc1ccccc1/C=C1\SC(=O)N(CC(=O)Nc2ccccc2C(=O)OCCOCCOCCOCCOC(=O)c2ccc(-c3c4nc(c(-c5c(F)cc(S(=O)(=O)[O-])cc5F)c5ccc([nH]5)c(-c5c(F)cc(S(=O)(=O)[O-])cc5F)c5nc(c(-c6c(F)cc(S(=O)(=O)[O-])cc6F)c6ccc3[nH]6)C=C5)C=C4)cc2)C1=O
REMARK SMILES IDX 31 1 30 2 29 3 28 4 27 5 26 6 24 7 25 8 23 9 18 10 19 11
REMARK SMILES IDX 20 12 22 13 21 14 17 15 15 16 16 17 14 19 13 20 8 21 9 22
REMARK SMILES IDX 10 23 107 24 11 25 108 26 12 27 7 28 1 29 2 30 3 31 4 32
REMARK SMILES IDX 6 33 5 34 32 35 33 36 34 37 35 38 36 39 37 40 38 41 39 42
REMARK SMILES IDX 40 43 41 44 42 45 106 46 43 47 105 48 44 49 45 50 46 51
REMARK SMILES IDX 99 52 47 53 104 54 98 55 100 56 48 57 103 58 97 59 96 60
REMARK SMILES IDX 49 62 83 63 62 64 82 65 63 66 66 67 81 68 101 69 64 70 65 71
REMARK SMILES IDX 80 73 102 74 67 75 50 76 51 77 60 78 52 79 53 80 59 81 61 82
REMARK SMILES IDX 54 83 55 84 56 85 57 86 58 87 84 88 85 89 94 90 86 91 87 92
REMARK SMILES IDX 93 93 95 94 88 95 89 96 90 97 91 98 92 99 68 100 69 101
REMARK SMILES IDX 78 102 70 103 71 104 77 105 79 106 72 107 73 108 74 109
REMARK SMILES IDX 75 110 76 111
REMARK H PARENT 17 18 100 61 66 72
REMARK Flexibility Score: inf
ROOT
ATOM      1  C   UNL     1       6.118   4.283  -2.119  1.00  0.00     0.188 C 
ENDROOT
BRANCH   1   2
ATOM      2  C   UNL     1       5.980   4.281  -0.432  1.00  0.00     0.188 C 
BRANCH   2   3
ATOM      3  O   UNL     1       4.841   3.728   0.836  1.00  0.00    -0.376 OA
BRANCH   3   4
ATOM      4  C   UNL     1       3.452   2.551   0.835  1.00  0.00     0.202 C 
BRANCH   4   5
ATOM      5  C   UNL     1       2.187   2.078  -0.584  1.00  0.00     0.261 C 
BRANCH   5   6
ATOM      6  O   UNL     1       1.037   2.492  -2.006  1.00  0.00    -0.460 OA
BRANCH   6   7
ATOM      7  C   UNL     1       0.303   3.113  -3.359  1.00  0.00     0.340 C 
ATOM      8  O   UNL     1      -0.852   2.786  -3.694  1.00  0.00    -0.246 OA
BRANCH   7   9
ATOM      9  C   UNL     1       0.738   4.091  -4.670  1.00  0.00     0.083 A 
ATOM     10  C   UNL     1       0.961   5.525  -4.931  1.00  0.00     0.055 A 
ATOM     11  C   UNL     1       1.525   5.937  -6.168  1.00  0.00     0.027 A 
ATOM     12  C   UNL     1       1.739   5.051  -7.209  1.00  0.00     0.002 A 
ATOM     13  C   UNL     1       0.808   3.295  -5.837  1.00  0.00     0.018 A 
ATOM     14  C   UNL     1       1.322   3.743  -7.062  1.00  0.00     0.001 A 
BRANCH  10  15
ATOM     15  N   UNL     1       0.594   6.673  -4.110  1.00  0.00    -0.324 N 
ATOM     16  C   UNL     1       1.352   7.886  -4.055  1.00  0.00     0.244 C 
ATOM     17  O   UNL     1       1.102   8.849  -4.781  1.00  0.00    -0.273 OA
ATOM     18  H   UNL     1      -0.221   6.610  -3.562  1.00  0.00     0.170 HD
BRANCH  16  19
ATOM     19  C   UNL     1       2.494   7.971  -3.001  1.00  0.00     0.230 C 
BRANCH  19  20
ATOM     20  N   UNL     1       2.407   6.721  -2.331  1.00  0.00    -0.259 N 
ATOM     21  C   UNL     1       0.167   3.687  -0.249  1.00  0.00     0.029 C 
ATOM     22  C   UNL     1       0.874   4.721  -1.306  1.00  0.00     0.083 C 
ATOM     23  S   UNL     1       2.311   4.385  -2.491  1.00  0.00    -0.022 SA
ATOM     24  C   UNL     1       1.278   6.430  -1.538  1.00  0.00     0.268 C 
ATOM     25  C   UNL     1       3.065   5.766  -2.967  1.00  0.00     0.294 C 
ATOM     26  O   UNL     1       0.707   7.457  -1.180  1.00  0.00    -0.268 OA
ATOM     27  O   UNL     1       3.878   5.839  -3.869  1.00  0.00    -0.261 OA
BRANCH  21  28
ATOM     28  C   UNL     1      -0.375   2.123   0.642  1.00  0.00    -0.021 A 
ATOM     29  C   UNL     1       1.479   0.496   1.725  1.00  0.00     0.045 C 
ATOM     30  C   UNL     1       0.213   0.792   0.895  1.00  0.00    -0.044 A 
ATOM     31  C   UNL     1      -0.536  -0.436   0.938  1.00  0.00     0.004 A 
ATOM     32  C   UNL     1      -1.877  -0.422   1.162  1.00  0.00     0.000 A 
ATOM     33  C   UNL     1      -1.646   2.031   1.254  1.00  0.00     0.008 A 
ATOM     34  C   UNL     1      -2.382   0.812   1.480  1.00  0.00     0.001 A 
ENDBRANCH  21  28
ENDBRANCH  19  20
ENDBRANCH  16  19
ENDBRANCH  10  15
ENDBRANCH   7   9
ENDBRANCH   6   7
ENDBRANCH   5   6
ENDBRANCH   4   5
ENDBRANCH   3   4
ENDBRANCH   2   3
ENDBRANCH   1   2
BRANCH   1  35
ATOM     35  O   UNL     1       5.944   3.337  -3.185  1.00  0.00    -0.377 OA
BRANCH  35  36
ATOM     36  C   UNL     1       6.562   2.059  -3.367  1.00  0.00     0.188 C 
BRANCH  36  37
ATOM     37  C   UNL     1       8.022   1.972  -3.060  1.00  0.00     0.188 C 
BRANCH  37  38
ATOM     38  O   UNL     1       8.200   2.728  -1.879  1.00  0.00    -0.376 OA
BRANCH  38  39
ATOM     39  C   UNL     1       9.376   3.494  -1.842  1.00  0.00     0.202 C 
BRANCH  39  40
ATOM     40  C   UNL     1      10.528   2.561  -1.522  1.00  0.00     0.261 C 
BRANCH  40  41
ATOM     41  O   UNL     1      10.319   1.987  -0.204  1.00  0.00    -0.460 OA
BRANCH  41  42
ATOM     42  C   UNL     1       9.761   0.729  -0.185  1.00  0.00     0.338 C 
ATOM     43  O   UNL     1      10.369  -0.278  -0.502  1.00  0.00    -0.246 OA
BRANCH  42  44
ATOM     44  C   UNL     1       8.317   0.794   0.189  1.00  0.00     0.060 A 
ATOM     45  C   UNL     1       7.325   0.001  -0.385  1.00  0.00     0.016 A 
ATOM     46  C   UNL     1       7.876   1.815   0.970  1.00  0.00     0.016 A 
ATOM     47  C   UNL     1       5.984   0.497  -0.584  1.00  0.00     0.010 A 
ATOM     48  C   UNL     1       6.533   2.186   0.842  1.00  0.00     0.010 A 
ATOM     49  C   UNL     1       5.607   1.798  -0.243  1.00  0.00    -0.014 A 
BRANCH  49  50
ATOM     50  C   UNL     1       4.282   2.823  -1.119  1.00  0.00     0.031 A 
ATOM     51  C   UNL     1       3.394   4.460  -0.268  1.00  0.00     0.074 A 
ATOM     52  C   UNL     1       3.893   1.923  -2.234  1.00  0.00     0.049 A 
ATOM     53  N   UNL     1       2.179   4.542   0.467  1.00  0.00    -0.248 NA
ATOM     54  C   UNL     1       3.878   5.875   0.352  1.00  0.00     0.031 C 
ATOM     55  C   UNL     1       3.417   2.146  -3.639  1.00  0.00     0.029 A 
ATOM     56  N   UNL     1       3.357   0.534  -2.121  1.00  0.00    -0.354 N 
ATOM     57  C   UNL     1       1.628   5.837   0.994  1.00  0.00     0.074 A 
ATOM     58  C   UNL     1       2.907   6.490   1.081  1.00  0.00     0.031 C 
ATOM     59  C   UNL     1       2.428   1.293  -3.989  1.00  0.00     0.029 A 
ATOM     60  C   UNL     1       2.106   0.439  -2.876  1.00  0.00     0.049 A 
ATOM     61  H   UNL     1       3.777  -0.201  -1.618  1.00  0.00     0.167 HD
ATOM     62  C   UNL     1       0.238   6.440   1.073  1.00  0.00     0.037 A 
ATOM     63  C   UNL     1       0.929  -0.280  -2.666  1.00  0.00     0.037 A 
ATOM     64  C   UNL     1      -1.049   5.941   0.111  1.00  0.00     0.049 A 
ATOM     65  C   UNL     1      -0.651   0.318  -2.361  1.00  0.00     0.074 A 
ATOM     66  C   UNL     1      -1.595   6.381  -1.125  1.00  0.00     0.029 A 
ATOM     67  N   UNL     1      -1.988   4.897   0.330  1.00  0.00    -0.354 N 
ATOM     68  N   UNL     1      -1.016   1.467  -1.798  1.00  0.00    -0.248 NA
ATOM     69  C   UNL     1      -1.901  -0.411  -2.644  1.00  0.00     0.031 C 
ATOM     70  C   UNL     1      -2.243   5.294  -1.806  1.00  0.00     0.029 A 
ATOM     71  C   UNL     1      -2.354   4.225  -0.928  1.00  0.00     0.049 A 
ATOM     72  H   UNL     1      -2.348   4.653   1.213  1.00  0.00     0.167 HD
ATOM     73  C   UNL     1      -2.405   1.713  -1.687  1.00  0.00     0.074 A 
ATOM     74  C   UNL     1      -2.886   0.438  -2.241  1.00  0.00     0.031 C 
ATOM     75  C   UNL     1      -3.050   2.850  -1.087  1.00  0.00     0.037 A 
BRANCH  62  76
ATOM     76  C   UNL     1       0.012   7.958   1.530  1.00  0.00     0.058 A 
ATOM     77  C   UNL     1      -1.141   8.683   1.106  1.00  0.00     0.135 A 
ATOM     78  C   UNL     1       0.886   8.745   2.300  1.00  0.00     0.135 A 
ATOM     79  F   UNL     1      -2.242   8.072   0.649  1.00  0.00    -0.206 F 
ATOM     80  C   UNL     1      -1.282  10.070   1.193  1.00  0.00     0.059 A 
ATOM     81  C   UNL     1       0.759  10.148   2.426  1.00  0.00     0.059 A 
ATOM     82  F   UNL     1       1.850   8.179   3.039  1.00  0.00    -0.206 F 
ATOM     83  C   UNL     1      -0.305  10.810   1.824  1.00  0.00     0.060 A 
BRANCH  83  84
ATOM     84  S   UNL     1      -0.543  12.595   1.957  1.00  0.00     0.124 S 
ATOM     85  O   UNL     1      -0.359  13.036   0.577  1.00  0.00    -0.237 OA
ATOM     86  O   UNL     1      -1.904  12.696   2.475  1.00  0.00    -0.237 OA
ATOM     87  O   UNL     1       0.505  13.009   2.886  1.00  0.00    -0.744 OA
ENDBRANCH  83  84
ENDBRANCH  62  76
BRANCH  63  88
ATOM     88  C   UNL     1       1.375  -1.741  -2.706  1.00  0.00     0.058 A 
ATOM     89  C   UNL     1       2.040  -2.105  -3.912  1.00  0.00     0.135 A 
ATOM     90  C   UNL     1       1.935  -2.269  -1.534  1.00  0.00     0.135 A 
ATOM     91  F   UNL     1       1.547  -1.689  -5.093  1.00  0.00    -0.206 F 
ATOM     92  C   UNL     1       3.353  -2.593  -3.905  1.00  0.00     0.059 A 
ATOM     93  C   UNL     1       3.236  -2.779  -1.500  1.00  0.00     0.059 A 
ATOM     94  F   UNL     1       1.311  -2.127  -0.366  1.00  0.00    -0.206 F 
ATOM     95  C   UNL     1       3.970  -2.839  -2.680  1.00  0.00     0.060 A 
BRANCH  95  96
ATOM     96  S   UNL     1       5.780  -2.899  -2.618  1.00  0.00     0.124 S 
ATOM     97  O   UNL     1       6.080  -4.132  -3.331  1.00  0.00    -0.237 OA
ATOM     98  O   UNL     1       6.128  -1.654  -3.301  1.00  0.00    -0.237 OA
ATOM     99  O   UNL     1       6.062  -2.909  -1.187  1.00  0.00    -0.744 OA
ENDBRANCH  95  96
ENDBRANCH  63  88
BRANCH  75 100
ATOM    100  C   UNL     1      -4.449   2.817  -0.350  1.00  0.00     0.058 A 
ATOM    101  C   UNL     1      -5.164   1.656  -0.008  1.00  0.00     0.135 A 
ATOM    102  C   UNL     1      -4.915   3.983   0.341  1.00  0.00     0.135 A 
ATOM    103  F   UNL     1      -4.902   0.469  -0.561  1.00  0.00    -0.206 F 
ATOM    104  C   UNL     1      -6.139   1.629   1.006  1.00  0.00     0.059 A 
ATOM    105  C   UNL     1      -5.818   3.963   1.407  1.00  0.00     0.059 A 
ATOM    106  F   UNL     1      -4.487   5.215   0.031  1.00  0.00    -0.206 F 
ATOM    107  C   UNL     1      -6.426   2.773   1.740  1.00  0.00     0.060 A 
BRANCH 107 108
ATOM    108  S   UNL     1      -7.599   2.684   3.104  1.00  0.00     0.124 S 
ATOM    109  O   UNL     1      -8.854   2.458   2.394  1.00  0.00    -0.237 OA
ATOM    110  O   UNL     1      -7.094   1.551   3.874  1.00  0.00    -0.237 OA
ATOM    111  O   UNL     1      -7.472   3.983   3.757  1.00  0.00    -0.744 OA
ENDBRANCH 107 108
ENDBRANCH  75 100
ENDBRANCH  49  50
ENDBRANCH  42  44
ENDBRANCH  41  42
ENDBRANCH  40  41
ENDBRANCH  39  40
ENDBRANCH  38  39
ENDBRANCH  37  38
ENDBRANCH  36  37
ENDBRANCH  35  36
ENDBRANCH   1  35
TORSDOF 27
