REMARK SMILES CN1C(=O)C[C@@H](C(=O)OCCOCCOCCOCCOC(=O)c2ccc(-c3c4nc(c(-c5c(F)cc(S(=O)(=O)[O-])cc5F)c5ccc([nH]5)c(-c5c(F)cc(S(=O)(=O)[O-])cc5F)c5nc(c(-c6c(F)cc(S(=O)(=O)[O-])cc6F)c6ccc3[nH]6)C=C5)C=C4)cc2)C12CCN(S(=O)(=O)c1ccccc1F)CC2
REMARK SMILES IDX 16 1 15 2 14 3 13 4 12 5 11 6 10 7 9 8 7 9 8 10 6 11 1 12
REMARK SMILES IDX 2 13 3 14 90 15 4 16 5 17 91 18 105 19 92 20 104 21 93 22
REMARK SMILES IDX 94 23 95 24 96 25 97 26 98 27 102 28 99 29 101 30 103 31
REMARK SMILES IDX 100 32 17 33 18 34 19 35 20 36 21 37 22 38 23 39 24 40 25 41
REMARK SMILES IDX 89 42 26 43 88 44 27 45 28 46 29 47 82 48 30 49 87 50 81 51
REMARK SMILES IDX 83 52 31 53 86 54 80 55 79 56 32 58 66 59 45 60 65 61 46 62
REMARK SMILES IDX 49 63 64 64 84 65 47 66 48 67 63 69 85 70 50 71 33 72 34 73
REMARK SMILES IDX 43 74 35 75 36 76 42 77 44 78 37 79 38 80 39 81 40 82 41 83
REMARK SMILES IDX 67 84 68 85 77 86 69 87 70 88 76 89 78 90 71 91 72 92 73 93
REMARK SMILES IDX 74 94 75 95 51 96 52 97 61 98 53 99 54 100 60 101 62 102
REMARK SMILES IDX 55 103 56 104 57 105 58 106 59 107
REMARK H PARENT 83 57 49 68
REMARK Flexibility Score: inf
ROOT
ATOM      1  C   UNL     1       0.334  -3.712  -4.880  1.00  0.00     0.188 C 
ENDROOT
BRANCH   1   2
ATOM      2  O   UNL     1      -0.211  -2.396  -4.816  1.00  0.00    -0.377 OA
BRANCH   2   3
ATOM      3  C   UNL     1      -1.345  -2.029  -5.575  1.00  0.00     0.188 C 
BRANCH   3   4
ATOM      4  C   UNL     1      -1.084  -1.247  -6.859  1.00  0.00     0.188 C 
BRANCH   4   5
ATOM      5  O   UNL     1       0.134  -1.456  -7.536  1.00  0.00    -0.376 OA
BRANCH   5   6
ATOM      6  C   UNL     1       1.365  -1.187  -6.865  1.00  0.00     0.202 C 
BRANCH   6   7
ATOM      7  C   UNL     1       1.543   0.029  -5.928  1.00  0.00     0.261 C 
BRANCH   7   8
ATOM      8  O   UNL     1       0.944  -0.047  -4.598  1.00  0.00    -0.463 OA
BRANCH   8   9
ATOM      9  C   UNL     1      -0.091   0.787  -4.377  1.00  0.00     0.311 C 
ATOM     10  O   UNL     1      -0.594   1.482  -5.264  1.00  0.00    -0.252 OA
BRANCH   9  11
ATOM     11  C   UNL     1      -0.601   0.984  -2.953  1.00  0.00     0.134 C 
ATOM     12  C   UNL     1       1.411   0.244   0.158  1.00  0.00     0.147 C 
ATOM     13  N   UNL     1       0.788   0.701  -1.077  1.00  0.00    -0.339 N 
ATOM     14  C   UNL     1       1.042   1.988  -1.526  1.00  0.00     0.223 C 
ATOM     15  C   UNL     1      -0.432   0.117  -1.665  1.00  0.00     0.059 C 
ATOM     16  O   UNL     1       1.889   2.757  -1.102  1.00  0.00    -0.275 OA
ATOM     17  C   UNL     1       0.004   2.345  -2.548  1.00  0.00     0.118 C 
ATOM     18  C   UNL     1      -0.305  -1.406  -1.818  1.00  0.00     0.046 C 
ATOM     19  C   UNL     1      -1.637   0.414  -0.702  1.00  0.00     0.046 C 
ATOM     20  C   UNL     1      -1.607  -2.157  -2.033  1.00  0.00     0.105 C 
ATOM     21  C   UNL     1      -2.912  -0.371  -1.015  1.00  0.00     0.105 C 
ATOM     22  N   UNL     1      -2.658  -1.833  -1.052  1.00  0.00    -0.198 NA
BRANCH  22  23
ATOM     23  S   UNL     1      -2.696  -2.615   0.465  1.00  0.00     0.245 S 
ATOM     24  O   UNL     1      -1.542  -2.201   1.219  1.00  0.00    -0.207 OA
ATOM     25  O   UNL     1      -4.029  -2.378   1.006  1.00  0.00    -0.207 OA
BRANCH  23  26
ATOM     26  C   UNL     1      -2.585  -4.350   0.142  1.00  0.00     0.118 A 
ATOM     27  C   UNL     1      -3.738  -5.146   0.092  1.00  0.00     0.025 A 
ATOM     28  C   UNL     1      -1.333  -4.952   0.096  1.00  0.00     0.143 A 
ATOM     29  C   UNL     1      -3.621  -6.536  -0.027  1.00  0.00     0.002 A 
ATOM     30  C   UNL     1      -1.218  -6.337  -0.009  1.00  0.00     0.041 A 
ATOM     31  F   UNL     1      -0.208  -4.227   0.106  1.00  0.00    -0.206 F 
ATOM     32  C   UNL     1      -2.361  -7.132  -0.073  1.00  0.00     0.003 A 
ENDBRANCH  23  26
ENDBRANCH  22  23
ENDBRANCH   9  11
ENDBRANCH   8   9
ENDBRANCH   7   8
ENDBRANCH   6   7
ENDBRANCH   5   6
ENDBRANCH   4   5
ENDBRANCH   3   4
ENDBRANCH   2   3
ENDBRANCH   1   2
BRANCH   1  33
ATOM     33  C   UNL     1      -0.246  -4.721  -5.874  1.00  0.00     0.188 C 
BRANCH  33  34
ATOM     34  O   UNL     1      -1.625  -5.066  -5.723  1.00  0.00    -0.376 OA
BRANCH  34  35
ATOM     35  C   UNL     1      -2.142  -5.165  -4.399  1.00  0.00     0.202 C 
BRANCH  35  36
ATOM     36  C   UNL     1      -1.698  -6.402  -3.631  1.00  0.00     0.261 C 
BRANCH  36  37
ATOM     37  O   UNL     1      -0.337  -6.266  -3.182  1.00  0.00    -0.460 OA
BRANCH  37  38
ATOM     38  C   UNL     1       0.489  -7.261  -3.570  1.00  0.00     0.338 C 
ATOM     39  O   UNL     1       0.177  -8.280  -4.166  1.00  0.00    -0.246 OA
BRANCH  38  40
ATOM     40  C   UNL     1       1.895  -6.897  -3.325  1.00  0.00     0.060 A 
ATOM     41  C   UNL     1       2.746  -6.878  -4.434  1.00  0.00     0.016 A 
ATOM     42  C   UNL     1       2.406  -6.745  -2.033  1.00  0.00     0.016 A 
ATOM     43  C   UNL     1       4.122  -6.799  -4.251  1.00  0.00     0.010 A 
ATOM     44  C   UNL     1       3.792  -6.669  -1.851  1.00  0.00     0.010 A 
ATOM     45  C   UNL     1       4.654  -6.759  -2.956  1.00  0.00    -0.014 A 
BRANCH  45  46
ATOM     46  C   UNL     1       6.104  -7.009  -2.776  1.00  0.00     0.031 A 
ATOM     47  C   UNL     1       6.560  -8.394  -2.397  1.00  0.00     0.074 A 
ATOM     48  C   UNL     1       6.999  -6.037  -3.019  1.00  0.00     0.049 A 
ATOM     49  N   UNL     1       7.774  -8.852  -2.234  1.00  0.00    -0.248 NA
ATOM     50  C   UNL     1       5.505  -9.397  -2.175  1.00  0.00     0.031 C 
ATOM     51  C   UNL     1       6.668  -4.670  -3.418  1.00  0.00     0.029 A 
ATOM     52  N   UNL     1       8.369  -6.052  -2.964  1.00  0.00    -0.354 N 
ATOM     53  C   UNL     1       7.630 -10.192  -1.888  1.00  0.00     0.074 A 
ATOM     54  C   UNL     1       6.211 -10.464  -1.830  1.00  0.00     0.031 C 
ATOM     55  C   UNL     1       7.807  -3.972  -3.563  1.00  0.00     0.029 A 
ATOM     56  C   UNL     1       8.943  -4.835  -3.242  1.00  0.00     0.049 A 
ATOM     57  H   UNL     1       8.891  -6.858  -2.747  1.00  0.00     0.167 HD
ATOM     58  C   UNL     1       8.596 -11.113  -1.652  1.00  0.00     0.037 A 
ATOM     59  C   UNL     1      10.236  -4.459  -3.220  1.00  0.00     0.037 A 
ATOM     60  C   UNL     1      10.006 -10.826  -1.709  1.00  0.00     0.049 A 
ATOM     61  C   UNL     1      11.292  -5.485  -2.905  1.00  0.00     0.074 A 
ATOM     62  C   UNL     1      11.069 -11.688  -1.511  1.00  0.00     0.029 A 
ATOM     63  N   UNL     1      10.549  -9.575  -1.969  1.00  0.00    -0.354 N 
ATOM     64  N   UNL     1      11.145  -6.759  -2.623  1.00  0.00    -0.248 NA
ATOM     65  C   UNL     1      12.688  -5.029  -2.915  1.00  0.00     0.031 C 
ATOM     66  C   UNL     1      12.253 -10.947  -1.593  1.00  0.00     0.029 A 
ATOM     67  C   UNL     1      11.931  -9.635  -1.906  1.00  0.00     0.049 A 
ATOM     68  H   UNL     1      10.028  -8.764  -2.170  1.00  0.00     0.167 HD
ATOM     69  C   UNL     1      12.431  -7.261  -2.444  1.00  0.00     0.074 A 
ATOM     70  C   UNL     1      13.341  -6.156  -2.665  1.00  0.00     0.031 C 
ATOM     71  C   UNL     1      12.822  -8.522  -2.128  1.00  0.00     0.037 A 
BRANCH  58  72
ATOM     72  C   UNL     1       8.158 -12.504  -1.275  1.00  0.00     0.058 A 
ATOM     73  C   UNL     1       7.540 -13.366  -2.197  1.00  0.00     0.135 A 
ATOM     74  C   UNL     1       8.376 -12.989   0.025  1.00  0.00     0.135 A 
ATOM     75  F   UNL     1       7.292 -12.951  -3.449  1.00  0.00    -0.206 F 
ATOM     76  C   UNL     1       7.124 -14.643  -1.834  1.00  0.00     0.059 A 
ATOM     77  C   UNL     1       7.994 -14.274   0.402  1.00  0.00     0.059 A 
ATOM     78  F   UNL     1       8.960 -12.210   0.948  1.00  0.00    -0.206 F 
ATOM     79  C   UNL     1       7.353 -15.088  -0.530  1.00  0.00     0.060 A 
BRANCH  79  80
ATOM     80  S   UNL     1       6.793 -16.741  -0.070  1.00  0.00     0.124 S 
ATOM     81  O   UNL     1       5.346 -16.558  -0.028  1.00  0.00    -0.237 OA
ATOM     82  O   UNL     1       7.296 -17.558  -1.171  1.00  0.00    -0.237 OA
ATOM     83  O   UNL     1       7.433 -16.971   1.221  1.00  0.00    -0.744 OA
ENDBRANCH  79  80
ENDBRANCH  58  72
BRANCH  59  84
ATOM     84  C   UNL     1      10.593  -3.041  -3.494  1.00  0.00     0.058 A 
ATOM     85  C   UNL     1      11.269  -2.669  -4.665  1.00  0.00     0.135 A 
ATOM     86  C   UNL     1      10.235  -2.023  -2.595  1.00  0.00     0.135 A 
ATOM     87  F   UNL     1      11.640  -3.604  -5.552  1.00  0.00    -0.206 F 
ATOM     88  C   UNL     1      11.584  -1.340  -4.932  1.00  0.00     0.059 A 
ATOM     89  C   UNL     1      10.514  -0.686  -2.852  1.00  0.00     0.059 A 
ATOM     90  F   UNL     1       9.576  -2.326  -1.465  1.00  0.00    -0.206 F 
ATOM     91  C   UNL     1      11.196  -0.354  -4.022  1.00  0.00     0.060 A 
BRANCH  91  92
ATOM     92  S   UNL     1      11.553   1.372  -4.412  1.00  0.00     0.124 S 
ATOM     93  O   UNL     1      13.000   1.421  -4.232  1.00  0.00    -0.237 OA
ATOM     94  O   UNL     1      11.076   1.478  -5.787  1.00  0.00    -0.237 OA
ATOM     95  O   UNL     1      10.769   2.109  -3.425  1.00  0.00    -0.744 OA
ENDBRANCH  91  92
ENDBRANCH  59  84
BRANCH  71  96
ATOM     96  C   UNL     1      14.301  -8.784  -2.029  1.00  0.00     0.058 A 
ATOM     97  C   UNL     1      15.070  -8.295  -0.962  1.00  0.00     0.135 A 
ATOM     98  C   UNL     1      14.944  -9.586  -2.987  1.00  0.00     0.135 A 
ATOM     99  F   UNL     1      14.506  -7.520  -0.022  1.00  0.00    -0.206 F 
ATOM    100  C   UNL     1      16.430  -8.569  -0.861  1.00  0.00     0.059 A 
ATOM    101  C   UNL     1      16.296  -9.898  -2.889  1.00  0.00     0.059 A 
ATOM    102  F   UNL     1      14.253 -10.091  -4.021  1.00  0.00    -0.206 F 
ATOM    103  C   UNL     1      17.034  -9.375  -1.829  1.00  0.00     0.060 A 
BRANCH 103 104
ATOM    104  S   UNL     1      18.792  -9.750  -1.668  1.00  0.00     0.124 S 
ATOM    105  O   UNL     1      19.400  -8.473  -2.026  1.00  0.00    -0.237 OA
ATOM    106  O   UNL     1      18.902 -10.133  -0.264  1.00  0.00    -0.237 OA
ATOM    107  O   UNL     1      18.998 -10.833  -2.625  1.00  0.00    -0.744 OA
ENDBRANCH 103 104
ENDBRANCH  71  96
ENDBRANCH  45  46
ENDBRANCH  38  40
ENDBRANCH  37  38
ENDBRANCH  36  37
ENDBRANCH  35  36
ENDBRANCH  34  35
ENDBRANCH  33  34
ENDBRANCH   1  33
TORSDOF 25
