REMARK SMILES Cc1cc(C)c(C#N)c(NC[C@H](CC(C)C)C(=O)OCCOCCOCCOCCOC(=O)c2ccc(-c3c4nc(c(-c5c(F)cc(S(=O)(=O)[O-])cc5F)c5ccc([nH]5)c(-c5c(F)cc(S(=O)(=O)[O-])cc5F)c5nc(c(-c6c(F)cc(S(=O)(=O)[O-])cc6F)c6ccc3[nH]6)C=C5)C=C4)cc2)n1
REMARK SMILES IDX 24 1 23 2 22 3 21 4 20 5 19 6 17 7 18 8 12 9 11 10 10 11
REMARK SMILES IDX 9 13 1 14 2 15 3 16 100 17 4 18 5 19 6 20 7 21 8 22 13 23
REMARK SMILES IDX 14 24 15 25 16 26 25 27 26 28 27 29 28 30 29 31 30 32 31 33
REMARK SMILES IDX 32 34 33 35 34 36 35 37 99 38 36 39 98 40 37 41 38 42 39 43
REMARK SMILES IDX 92 44 40 45 97 46 91 47 93 48 41 49 96 50 90 51 89 52 42 54
REMARK SMILES IDX 76 55 55 56 75 57 56 58 59 59 74 60 94 61 57 62 58 63 73 65
REMARK SMILES IDX 95 66 60 67 43 68 44 69 53 70 45 71 46 72 52 73 54 74 47 75
REMARK SMILES IDX 48 76 49 77 50 78 51 79 77 80 78 81 87 82 79 83 80 84 86 85
REMARK SMILES IDX 88 86 81 87 82 88 83 89 84 90 85 91 61 92 62 93 71 94 63 95
REMARK SMILES IDX 64 96 70 97 72 98 65 99 66 100 67 101 68 102 69 103
REMARK H PARENT 10 12 93 53 59 64
REMARK Flexibility Score: inf
ROOT
ATOM      1  C   UNL     1       4.379   1.561  -0.922  1.00  0.00     0.188 C 
ENDROOT
BRANCH   1   2
ATOM      2  C   UNL     1       5.319   1.966  -2.068  1.00  0.00     0.188 C 
BRANCH   2   3
ATOM      3  O   UNL     1       6.550   2.526  -1.691  1.00  0.00    -0.376 OA
BRANCH   3   4
ATOM      4  C   UNL     1       6.777   3.917  -1.582  1.00  0.00     0.202 C 
BRANCH   4   5
ATOM      5  C   UNL     1       5.699   4.961  -1.242  1.00  0.00     0.261 C 
BRANCH   5   6
ATOM      6  O   UNL     1       4.437   4.478  -0.765  1.00  0.00    -0.463 OA
BRANCH   6   7
ATOM      7  C   UNL     1       3.376   4.673  -1.587  1.00  0.00     0.310 C 
ATOM      8  O   UNL     1       3.485   5.137  -2.720  1.00  0.00    -0.252 OA
BRANCH   7   9
ATOM      9  C   UNL     1       2.035   4.133  -1.065  1.00  0.00     0.118 C 
BRANCH   9  10
ATOM     10  C   UNL     1       0.921   5.109  -1.441  1.00  0.00     0.129 C 
BRANCH  10  11
ATOM     11  N   UNL     1       1.219   6.449  -1.017  1.00  0.00    -0.368 N 
ATOM     12  H   UNL     1       1.417   6.540  -0.057  1.00  0.00     0.162 HD
BRANCH  11  13
ATOM     13  C   UNL     1       1.273   7.612  -1.721  1.00  0.00     0.144 A 
ATOM     14  C   UNL     1       1.776  10.993  -0.348  1.00  0.00     0.067 C 
ATOM     15  C   UNL     1       1.512   9.912  -1.351  1.00  0.00     0.040 A 
ATOM     16  C   UNL     1       1.310  10.201  -2.690  1.00  0.00     0.028 A 
ATOM     17  N   UNL     1       1.483   8.648  -0.877  1.00  0.00    -0.235 NA
ATOM     18  C   UNL     1       1.099   9.147  -3.580  1.00  0.00    -0.028 A 
ATOM     19  C   UNL     1       0.833   9.439  -5.033  1.00  0.00     0.046 C 
ATOM     20  C   UNL     1       1.119   7.821  -3.094  1.00  0.00     0.097 A 
BRANCH  20  21
ATOM     21  C   UNL     1       0.964   6.764  -4.046  1.00  0.00     0.103 C 
ATOM     22  N   UNL     1       0.799   5.957  -4.872  1.00  0.00    -0.192 NA
ENDBRANCH  20  21
ENDBRANCH  11  13
ENDBRANCH  10  11
ENDBRANCH   9  10
BRANCH   9  23
ATOM     23  C   UNL     1       1.790   3.510   0.335  1.00  0.00     0.020 C 
BRANCH  23  24
ATOM     24  C   UNL     1       2.710   3.792   1.528  1.00  0.00    -0.017 C 
ATOM     25  C   UNL     1       2.591   5.229   2.014  1.00  0.00     0.007 C 
ATOM     26  C   UNL     1       2.368   2.813   2.662  1.00  0.00     0.007 C 
ENDBRANCH  23  24
ENDBRANCH   9  23
ENDBRANCH   7   9
ENDBRANCH   6   7
ENDBRANCH   5   6
ENDBRANCH   4   5
ENDBRANCH   3   4
ENDBRANCH   2   3
ENDBRANCH   1   2
BRANCH   1  27
ATOM     27  O   UNL     1       4.797   1.261   0.394  1.00  0.00    -0.377 OA
BRANCH  27  28
ATOM     28  C   UNL     1       5.988   1.834   0.890  1.00  0.00     0.188 C 
BRANCH  28  29
ATOM     29  C   UNL     1       7.242   1.005   0.573  1.00  0.00     0.188 C 
BRANCH  29  30
ATOM     30  O   UNL     1       7.141  -0.273  -0.035  1.00  0.00    -0.376 OA
BRANCH  30  31
ATOM     31  C   UNL     1       6.033  -1.126   0.190  1.00  0.00     0.202 C 
BRANCH  31  32
ATOM     32  C   UNL     1       5.390  -1.351   1.577  1.00  0.00     0.261 C 
BRANCH  32  33
ATOM     33  O   UNL     1       5.680  -0.423   2.625  1.00  0.00    -0.460 OA
BRANCH  33  34
ATOM     34  C   UNL     1       6.841  -0.641   3.278  1.00  0.00     0.338 C 
ATOM     35  O   UNL     1       7.640  -1.537   3.072  1.00  0.00    -0.246 OA
BRANCH  34  36
ATOM     36  C   UNL     1       7.090   0.483   4.204  1.00  0.00     0.060 A 
ATOM     37  C   UNL     1       8.267   1.223   4.038  1.00  0.00     0.016 A 
ATOM     38  C   UNL     1       6.229   0.750   5.272  1.00  0.00     0.016 A 
ATOM     39  C   UNL     1       8.627   2.182   4.973  1.00  0.00     0.010 A 
ATOM     40  C   UNL     1       6.609   1.693   6.233  1.00  0.00     0.010 A 
ATOM     41  C   UNL     1       7.840   2.364   6.115  1.00  0.00    -0.014 A 
BRANCH  41  42
ATOM     42  C   UNL     1       8.460   3.043   7.277  1.00  0.00     0.031 A 
ATOM     43  C   UNL     1       9.035   2.187   8.376  1.00  0.00     0.074 A 
ATOM     44  C   UNL     1       8.616   4.378   7.296  1.00  0.00     0.049 A 
ATOM     45  N   UNL     1       9.673   2.543   9.460  1.00  0.00    -0.248 NA
ATOM     46  C   UNL     1       8.868   0.732   8.229  1.00  0.00     0.031 C 
ATOM     47  C   UNL     1       8.169   5.294   6.249  1.00  0.00     0.029 A 
ATOM     48  N   UNL     1       9.211   5.190   8.226  1.00  0.00    -0.354 N 
ATOM     49  C   UNL     1       9.966   1.359  10.131  1.00  0.00     0.074 A 
ATOM     50  C   UNL     1       9.404   0.280   9.352  1.00  0.00     0.031 C 
ATOM     51  C   UNL     1       8.517   6.547   6.590  1.00  0.00     0.029 A 
ATOM     52  C   UNL     1       9.177   6.523   7.894  1.00  0.00     0.049 A 
ATOM     53  H   UNL     1       9.624   4.851   9.053  1.00  0.00     0.167 HD
ATOM     54  C   UNL     1      10.650   1.189  11.288  1.00  0.00     0.037 A 
ATOM     55  C   UNL     1       9.620   7.597   8.575  1.00  0.00     0.037 A 
ATOM     56  C   UNL     1      11.205   2.276  12.052  1.00  0.00     0.049 A 
ATOM     57  C   UNL     1      10.303   7.390   9.902  1.00  0.00     0.074 A 
ATOM     58  C   UNL     1      11.927   2.219  13.230  1.00  0.00     0.029 A 
ATOM     59  N   UNL     1      11.088   3.619  11.720  1.00  0.00    -0.354 N 
ATOM     60  N   UNL     1      10.584   6.268  10.524  1.00  0.00    -0.248 NA
ATOM     61  C   UNL     1      10.738   8.597  10.617  1.00  0.00     0.031 C 
ATOM     62  C   UNL     1      12.177   3.529  13.652  1.00  0.00     0.029 A 
ATOM     63  C   UNL     1      11.691   4.402  12.691  1.00  0.00     0.049 A 
ATOM     64  H   UNL     1      10.642   3.964  10.913  1.00  0.00     0.167 HD
ATOM     65  C   UNL     1      11.268   6.632  11.680  1.00  0.00     0.074 A 
ATOM     66  C   UNL     1      11.363   8.078  11.664  1.00  0.00     0.031 C 
ATOM     67  C   UNL     1      11.779   5.843  12.660  1.00  0.00     0.037 A 
BRANCH  54  68
ATOM     68  C   UNL     1      10.777  -0.215  11.822  1.00  0.00     0.058 A 
ATOM     69  C   UNL     1      11.526  -1.208  11.167  1.00  0.00     0.135 A 
ATOM     70  C   UNL     1      10.128  -0.575  13.015  1.00  0.00     0.135 A 
ATOM     71  F   UNL     1      12.156  -0.930  10.013  1.00  0.00    -0.206 F 
ATOM     72  C   UNL     1      11.588  -2.513  11.649  1.00  0.00     0.059 A 
ATOM     73  C   UNL     1      10.209  -1.863  13.537  1.00  0.00     0.059 A 
ATOM     74  F   UNL     1       9.396   0.328  13.686  1.00  0.00    -0.206 F 
ATOM     75  C   UNL     1      10.924  -2.831  12.834  1.00  0.00     0.060 A 
BRANCH  75  76
ATOM     76  S   UNL     1      10.996  -4.530  13.437  1.00  0.00     0.124 S 
ATOM     77  O   UNL     1      10.180  -5.226  12.447  1.00  0.00    -0.237 OA
ATOM     78  O   UNL     1      12.427  -4.815  13.392  1.00  0.00    -0.237 OA
ATOM     79  O   UNL     1      10.419  -4.444  14.775  1.00  0.00    -0.744 OA
ENDBRANCH  75  76
ENDBRANCH  54  68
BRANCH  55  80
ATOM     80  C   UNL     1       9.448   8.962   8.008  1.00  0.00     0.058 A 
ATOM     81  C   UNL     1      10.555   9.725   7.608  1.00  0.00     0.135 A 
ATOM     82  C   UNL     1       8.174   9.530   7.848  1.00  0.00     0.135 A 
ATOM     83  F   UNL     1      11.796   9.232   7.750  1.00  0.00    -0.206 F 
ATOM     84  C   UNL     1      10.409  11.004   7.082  1.00  0.00     0.059 A 
ATOM     85  C   UNL     1       8.000  10.795   7.296  1.00  0.00     0.059 A 
ATOM     86  F   UNL     1       7.079   8.841   8.207  1.00  0.00    -0.206 F 
ATOM     87  C   UNL     1       9.125  11.527   6.922  1.00  0.00     0.060 A 
BRANCH  87  88
ATOM     88  S   UNL     1       8.946  13.164   6.181  1.00  0.00     0.124 S 
ATOM     89  O   UNL     1       9.498  14.023   7.222  1.00  0.00    -0.237 OA
ATOM     90  O   UNL     1       9.746  13.035   4.967  1.00  0.00    -0.237 OA
ATOM     91  O   UNL     1       7.507  13.281   5.964  1.00  0.00    -0.744 OA
ENDBRANCH  87  88
ENDBRANCH  55  80
BRANCH  67  92
ATOM     92  C   UNL     1      12.543   6.522  13.768  1.00  0.00     0.058 A 
ATOM     93  C   UNL     1      11.920   7.360  14.707  1.00  0.00     0.135 A 
ATOM     94  C   UNL     1      13.926   6.307  13.905  1.00  0.00     0.135 A 
ATOM     95  F   UNL     1      10.603   7.604  14.627  1.00  0.00    -0.206 F 
ATOM     96  C   UNL     1      12.647   7.997  15.709  1.00  0.00     0.059 A 
ATOM     97  C   UNL     1      14.664   6.899  14.924  1.00  0.00     0.059 A 
ATOM     98  F   UNL     1      14.574   5.503  13.047  1.00  0.00    -0.206 F 
ATOM     99  C   UNL     1      14.019   7.760  15.809  1.00  0.00     0.060 A 
BRANCH  99 100
ATOM    100  S   UNL     1      14.948   8.590  17.114  1.00  0.00     0.124 S 
ATOM    101  O   UNL     1      14.945   9.972  16.645  1.00  0.00    -0.237 OA
ATOM    102  O   UNL     1      14.133   8.320  18.295  1.00  0.00    -0.237 OA
ATOM    103  O   UNL     1      16.245   7.921  17.088  1.00  0.00    -0.744 OA
ENDBRANCH  99 100
ENDBRANCH  67  92
ENDBRANCH  41  42
ENDBRANCH  34  36
ENDBRANCH  33  34
ENDBRANCH  32  33
ENDBRANCH  31  32
ENDBRANCH  30  31
ENDBRANCH  29  30
ENDBRANCH  28  29
ENDBRANCH  27  28
ENDBRANCH   1  27
TORSDOF 29
