REMARK SMILES O=C(NC[C@@H]1CC[C@@H](C(=O)OCCOCCOCCOCCOC(=O)c2ccc(-c3c4nc(c(-c5c(F)cc(S(=O)(=O)[O-])cc5F)c5ccc([nH]5)c(-c5c(F)cc(S(=O)(=O)[O-])cc5F)c5nc(c(-c6c(F)cc(S(=O)(=O)[O-])cc6F)c6ccc3[nH]6)C=C5)C=C4)cc2)O1)c1ccc(Cl)cc1
REMARK SMILES IDX 17 1 16 2 15 3 14 4 13 5 12 6 11 7 9 8 10 9 8 10 5 11 6 12
REMARK SMILES IDX 92 13 7 14 4 15 3 16 1 17 2 18 93 20 94 21 99 22 95 23 98 24
REMARK SMILES IDX 96 25 97 26 18 27 19 28 20 29 21 30 22 31 23 32 24 33 25 34
REMARK SMILES IDX 26 35 27 36 91 37 28 38 90 39 29 40 30 41 31 42 84 43 32 44
REMARK SMILES IDX 89 45 83 46 85 47 33 48 88 49 82 50 81 51 34 53 68 54 47 55
REMARK SMILES IDX 67 56 48 57 51 58 66 59 86 60 49 61 50 62 65 64 87 65 52 66
REMARK SMILES IDX 35 67 36 68 45 69 37 70 38 71 44 72 46 73 39 74 40 75 41 76
REMARK SMILES IDX 42 77 43 78 69 79 70 80 79 81 71 82 72 83 78 84 80 85 73 86
REMARK SMILES IDX 74 87 75 88 76 89 77 90 53 91 54 92 63 93 55 94 56 95 62 96
REMARK SMILES IDX 64 97 57 98 58 99 59 100 60 101 61 102
REMARK H PARENT 3 19 85 52 51 63
REMARK Flexibility Score: inf
ROOT
ATOM      1  O   UNL     1       5.169  -2.987   5.882  1.00  0.00    -0.377 OA
ENDROOT
BRANCH   1   2
ATOM      2  C   UNL     1       5.136  -3.399   4.530  1.00  0.00     0.188 C 
BRANCH   2   3
ATOM      3  C   UNL     1       6.109  -4.537   4.158  1.00  0.00     0.188 C 
BRANCH   3   4
ATOM      4  O   UNL     1       6.917  -5.169   5.146  1.00  0.00    -0.376 OA
BRANCH   4   5
ATOM      5  C   UNL     1       7.432  -4.417   6.235  1.00  0.00     0.202 C 
BRANCH   5   6
ATOM      6  C   UNL     1       8.240  -3.133   5.976  1.00  0.00     0.261 C 
BRANCH   6   7
ATOM      7  O   UNL     1       7.715  -2.241   4.976  1.00  0.00    -0.461 OA
BRANCH   7   8
ATOM      8  C   UNL     1       8.367  -2.200   3.784  1.00  0.00     0.335 C 
ATOM      9  O   UNL     1       9.359  -2.868   3.511  1.00  0.00    -0.249 OA
BRANCH   8  10
ATOM     10  C   UNL     1       7.677  -1.280   2.757  1.00  0.00     0.228 C 
ATOM     11  C   UNL     1       5.518  -0.885   1.906  1.00  0.00     0.138 C 
ATOM     12  C   UNL     1       6.179   0.448   2.209  1.00  0.00     0.037 C 
ATOM     13  O   UNL     1       6.572  -1.870   2.041  1.00  0.00    -0.361 OA
ATOM     14  C   UNL     1       7.161   0.047   3.293  1.00  0.00     0.047 C 
BRANCH  11  15
ATOM     15  C   UNL     1       4.880  -1.019   0.519  1.00  0.00     0.148 C 
BRANCH  15  16
ATOM     16  N   UNL     1       3.424  -0.891   0.525  1.00  0.00    -0.349 N 
ATOM     17  O   UNL     1       1.379  -0.015   0.184  1.00  0.00    -0.269 OA
ATOM     18  C   UNL     1       2.593   0.081   0.031  1.00  0.00     0.251 C 
ATOM     19  H   UNL     1       2.955  -1.637   0.962  1.00  0.00     0.163 HD
BRANCH  18  20
ATOM     20  C   UNL     1       3.144   1.274  -0.644  1.00  0.00     0.039 A 
ATOM     21  C   UNL     1       4.074   1.172  -1.682  1.00  0.00     0.015 A 
ATOM     22  C   UNL     1       2.687   2.533  -0.234  1.00  0.00     0.015 A 
ATOM     23  C   UNL     1       4.638   2.328  -2.225  1.00  0.00     0.021 A 
ATOM     24  C   UNL     1       3.233   3.688  -0.797  1.00  0.00     0.021 A 
ATOM     25  C   UNL     1       4.225   3.580  -1.770  1.00  0.00     0.041 A 
ATOM     26  Cl  UNL     1       4.946   5.000  -2.420  1.00  0.00    -0.084 Cl
ENDBRANCH  18  20
ENDBRANCH  15  16
ENDBRANCH  11  15
ENDBRANCH   8  10
ENDBRANCH   7   8
ENDBRANCH   6   7
ENDBRANCH   5   6
ENDBRANCH   4   5
ENDBRANCH   3   4
ENDBRANCH   2   3
ENDBRANCH   1   2
BRANCH   1  27
ATOM     27  C   UNL     1       4.102  -3.450   6.693  1.00  0.00     0.188 C 
BRANCH  27  28
ATOM     28  C   UNL     1       3.788  -4.954   6.604  1.00  0.00     0.188 C 
BRANCH  28  29
ATOM     29  O   UNL     1       3.497  -5.387   5.277  1.00  0.00    -0.376 OA
BRANCH  29  30
ATOM     30  C   UNL     1       2.135  -5.579   4.923  1.00  0.00     0.202 C 
BRANCH  30  31
ATOM     31  C   UNL     1       1.275  -4.315   4.755  1.00  0.00     0.261 C 
BRANCH  31  32
ATOM     32  O   UNL     1       1.183  -3.445   5.893  1.00  0.00    -0.460 OA
BRANCH  32  33
ATOM     33  C   UNL     1       0.679  -3.952   7.041  1.00  0.00     0.338 C 
ATOM     34  O   UNL     1       0.234  -5.067   7.212  1.00  0.00    -0.246 OA
BRANCH  33  35
ATOM     35  C   UNL     1       0.970  -2.976   8.119  1.00  0.00     0.060 A 
ATOM     36  C   UNL     1       1.757  -3.381   9.205  1.00  0.00     0.016 A 
ATOM     37  C   UNL     1       0.500  -1.663   8.040  1.00  0.00     0.016 A 
ATOM     38  C   UNL     1       2.066  -2.477  10.224  1.00  0.00     0.010 A 
ATOM     39  C   UNL     1       0.783  -0.768   9.076  1.00  0.00     0.010 A 
ATOM     40  C   UNL     1       1.548  -1.177  10.184  1.00  0.00    -0.014 A 
BRANCH  40  41
ATOM     41  C   UNL     1       1.637  -0.300  11.377  1.00  0.00     0.031 A 
ATOM     42  C   UNL     1       0.453  -0.240  12.303  1.00  0.00     0.074 A 
ATOM     43  C   UNL     1       2.733   0.437  11.631  1.00  0.00     0.049 A 
ATOM     44  N   UNL     1       0.244   0.530  13.337  1.00  0.00    -0.248 NA
ATOM     45  C   UNL     1      -0.647  -1.177  12.015  1.00  0.00     0.031 C 
ATOM     46  C   UNL     1       3.962   0.425  10.840  1.00  0.00     0.029 A 
ATOM     47  N   UNL     1       2.979   1.357  12.621  1.00  0.00    -0.354 N 
ATOM     48  C   UNL     1      -1.015   0.184  13.816  1.00  0.00     0.074 A 
ATOM     49  C   UNL     1      -1.531  -0.850  12.947  1.00  0.00     0.031 C 
ATOM     50  C   UNL     1       4.823   1.319  11.360  1.00  0.00     0.029 A 
ATOM     51  C   UNL     1       4.191   1.995  12.493  1.00  0.00     0.049 A 
ATOM     52  H   UNL     1       2.347   1.543  13.353  1.00  0.00     0.167 HD
ATOM     53  C   UNL     1      -1.678   0.685  14.884  1.00  0.00     0.037 A 
ATOM     54  C   UNL     1       4.710   3.030  13.185  1.00  0.00     0.037 A 
ATOM     55  C   UNL     1      -1.157   1.717  15.740  1.00  0.00     0.049 A 
ATOM     56  C   UNL     1       3.914   3.637  14.315  1.00  0.00     0.074 A 
ATOM     57  C   UNL     1      -1.740   2.275  16.865  1.00  0.00     0.029 A 
ATOM     58  N   UNL     1       0.059   2.360  15.559  1.00  0.00    -0.354 N 
ATOM     59  N   UNL     1       2.739   3.282  14.780  1.00  0.00    -0.248 NA
ATOM     60  C   UNL     1       4.508   4.789  15.009  1.00  0.00     0.031 C 
ATOM     61  C   UNL     1      -0.906   3.298  17.324  1.00  0.00     0.029 A 
ATOM     62  C   UNL     1       0.226   3.337  16.525  1.00  0.00     0.049 A 
ATOM     63  H   UNL     1       0.707   2.152  14.847  1.00  0.00     0.167 HD
ATOM     64  C   UNL     1       2.464   4.153  15.831  1.00  0.00     0.074 A 
ATOM     65  C   UNL     1       3.602   5.041  15.945  1.00  0.00     0.031 C 
ATOM     66  C   UNL     1       1.368   4.213  16.628  1.00  0.00     0.037 A 
BRANCH  53  67
ATOM     67  C   UNL     1      -3.055   0.150  15.165  1.00  0.00     0.058 A 
ATOM     68  C   UNL     1      -3.264  -1.153  15.644  1.00  0.00     0.135 A 
ATOM     69  C   UNL     1      -4.183   0.968  14.982  1.00  0.00     0.135 A 
ATOM     70  F   UNL     1      -2.224  -1.984  15.817  1.00  0.00    -0.206 F 
ATOM     71  C   UNL     1      -4.542  -1.634  15.909  1.00  0.00     0.059 A 
ATOM     72  C   UNL     1      -5.467   0.518  15.269  1.00  0.00     0.059 A 
ATOM     73  F   UNL     1      -4.041   2.221  14.520  1.00  0.00    -0.206 F 
ATOM     74  C   UNL     1      -5.638  -0.789  15.720  1.00  0.00     0.060 A 
BRANCH  74  75
ATOM     75  S   UNL     1      -7.287  -1.428  16.077  1.00  0.00     0.124 S 
ATOM     76  O   UNL     1      -7.475  -2.377  14.984  1.00  0.00    -0.237 OA
ATOM     77  O   UNL     1      -7.113  -2.014  17.402  1.00  0.00    -0.237 OA
ATOM     78  O   UNL     1      -8.132  -0.239  16.026  1.00  0.00    -0.744 OA
ENDBRANCH  74  75
ENDBRANCH  53  67
BRANCH  54  79
ATOM     79  C   UNL     1       6.037   3.590  12.806  1.00  0.00     0.058 A 
ATOM     80  C   UNL     1       7.145   3.473  13.657  1.00  0.00     0.135 A 
ATOM     81  C   UNL     1       6.222   4.257  11.584  1.00  0.00     0.135 A 
ATOM     82  F   UNL     1       7.017   2.861  14.845  1.00  0.00    -0.206 F 
ATOM     83  C   UNL     1       8.387   4.003  13.317  1.00  0.00     0.059 A 
ATOM     84  C   UNL     1       7.460   4.770  11.208  1.00  0.00     0.059 A 
ATOM     85  F   UNL     1       5.196   4.396  10.730  1.00  0.00    -0.206 F 
ATOM     86  C   UNL     1       8.536   4.644  12.086  1.00  0.00     0.060 A 
BRANCH  86  87
ATOM     87  S   UNL     1      10.165   5.274  11.628  1.00  0.00     0.124 S 
ATOM     88  O   UNL     1      10.307   6.409  12.532  1.00  0.00    -0.237 OA
ATOM     89  O   UNL     1      11.023   4.125  11.904  1.00  0.00    -0.237 OA
ATOM     90  O   UNL     1      10.012   5.607  10.215  1.00  0.00    -0.744 OA
ENDBRANCH  86  87
ENDBRANCH  54  79
BRANCH  66  91
ATOM     91  C   UNL     1       1.340   5.259  17.711  1.00  0.00     0.058 A 
ATOM     92  C   UNL     1       1.150   6.617  17.416  1.00  0.00     0.135 A 
ATOM     93  C   UNL     1       1.409   4.886  19.064  1.00  0.00     0.135 A 
ATOM     94  F   UNL     1       1.087   7.030  16.140  1.00  0.00    -0.206 F 
ATOM     95  C   UNL     1       1.035   7.570  18.423  1.00  0.00     0.059 A 
ATOM     96  C   UNL     1       1.266   5.817  20.088  1.00  0.00     0.059 A 
ATOM     97  F   UNL     1       1.580   3.598  19.402  1.00  0.00    -0.206 F 
ATOM     98  C   UNL     1       1.083   7.159  19.757  1.00  0.00     0.060 A 
BRANCH  98  99
ATOM     99  S   UNL     1       0.863   8.399  21.051  1.00  0.00     0.124 S 
ATOM    100  O   UNL     1       2.111   9.149  20.957  1.00  0.00    -0.237 OA
ATOM    101  O   UNL     1      -0.336   9.103  20.605  1.00  0.00    -0.237 OA
ATOM    102  O   UNL     1       0.700   7.602  22.263  1.00  0.00    -0.744 OA
ENDBRANCH  98  99
ENDBRANCH  66  91
ENDBRANCH  40  41
ENDBRANCH  33  35
ENDBRANCH  32  33
ENDBRANCH  31  32
ENDBRANCH  30  31
ENDBRANCH  29  30
ENDBRANCH  28  29
ENDBRANCH  27  28
ENDBRANCH   1  27
TORSDOF 26
