REMARK SMILES CC[C@@H](CNC(=O)NCc1c(C)noc1C)C(=O)OCCOCCOCCOCCOC(=O)c1ccc(-c2c3nc(c(-c4c(F)cc(S(=O)(=O)[O-])cc4F)c4ccc([nH]4)c(-c4c(F)cc(S(=O)(=O)[O-])cc4F)c4nc(c(-c5c(F)cc(S(=O)(=O)[O-])cc5F)c5ccc2[nH]5)C=C4)C=C3)cc1
REMARK SMILES IDX 24 1 23 2 22 3 21 4 20 5 19 6 17 7 18 8 3 9 2 10 1 11 4 12
REMARK SMILES IDX 5 13 6 14 7 16 8 17 9 19 10 20 11 21 15 22 12 23 13 24 14 25
REMARK SMILES IDX 16 26 25 27 26 28 27 29 28 30 29 31 30 32 31 33 32 34 33 35
REMARK SMILES IDX 34 36 35 37 99 38 36 39 98 40 37 41 38 42 39 43 92 44 40 45
REMARK SMILES IDX 97 46 91 47 93 48 41 49 96 50 90 51 89 52 42 54 76 55 55 56
REMARK SMILES IDX 75 57 56 58 59 59 74 60 94 61 57 62 58 63 73 65 95 66 60 67
REMARK SMILES IDX 43 68 44 69 53 70 45 71 46 72 52 73 54 74 47 75 48 76 49 77
REMARK SMILES IDX 50 78 51 79 77 80 78 81 87 82 79 83 80 84 86 85 88 86 81 87
REMARK SMILES IDX 82 88 83 89 84 90 85 91 61 92 62 93 71 94 63 95 64 96 70 97
REMARK SMILES IDX 72 98 65 99 66 100 67 101 68 102 69 103
REMARK H PARENT 5 15 8 18 93 53 59 64
REMARK Flexibility Score: inf
ROOT
ATOM      1  C   UNL     1       0.894   3.015  -2.987  1.00  0.00     0.188 C 
ENDROOT
BRANCH   1   2
ATOM      2  C   UNL     1       1.533   2.917  -4.380  1.00  0.00     0.188 C 
BRANCH   2   3
ATOM      3  O   UNL     1       0.768   2.913  -5.573  1.00  0.00    -0.376 OA
BRANCH   3   4
ATOM      4  C   UNL     1      -0.485   2.259  -5.693  1.00  0.00     0.202 C 
BRANCH   4   5
ATOM      5  C   UNL     1      -0.719   0.813  -5.234  1.00  0.00     0.261 C 
BRANCH   5   6
ATOM      6  O   UNL     1      -0.514   0.504  -3.845  1.00  0.00    -0.463 OA
BRANCH   6   7
ATOM      7  C   UNL     1       0.674  -0.057  -3.529  1.00  0.00     0.310 C 
ATOM      8  O   UNL     1       1.616  -0.173  -4.310  1.00  0.00    -0.252 OA
BRANCH   7   9
ATOM      9  C   UNL     1       0.744  -0.652  -2.136  1.00  0.00     0.118 C 
BRANCH   9  10
ATOM     10  C   UNL     1       0.050   0.104  -0.989  1.00  0.00     0.014 C 
ATOM     11  C   UNL     1       0.616  -0.305   0.371  1.00  0.00     0.005 C 
ENDBRANCH   9  10
BRANCH   9  12
ATOM     12  C   UNL     1       0.331  -2.123  -2.223  1.00  0.00     0.133 C 
BRANCH  12  13
ATOM     13  N   UNL     1      -1.058  -2.295  -2.596  1.00  0.00    -0.337 N 
ATOM     14  C   UNL     1      -1.700  -2.477  -3.753  1.00  0.00     0.315 C 
ATOM     15  H   UNL     1      -1.667  -2.271  -1.822  1.00  0.00     0.165 HD
ATOM     16  O   UNL     1      -2.930  -2.418  -3.741  1.00  0.00    -0.249 OA
ATOM     17  N   UNL     1      -1.108  -2.735  -4.920  1.00  0.00    -0.334 N 
ATOM     18  H   UNL     1      -1.757  -2.813  -5.656  1.00  0.00     0.165 HD
BRANCH  17  19
ATOM     19  C   UNL     1       0.248  -2.929  -5.370  1.00  0.00     0.159 C 
BRANCH  19  20
ATOM     20  C   UNL     1       0.785  -4.279  -5.078  1.00  0.00     0.037 A 
ATOM     21  C   UNL     1       0.129  -5.503  -4.774  1.00  0.00     0.086 A 
ATOM     22  C   UNL     1       2.125  -4.614  -5.036  1.00  0.00     0.138 A 
ATOM     23  C   UNL     1      -1.322  -5.771  -4.619  1.00  0.00     0.071 C 
ATOM     24  N   UNL     1       1.009  -6.497  -4.593  1.00  0.00    -0.085 NA
ATOM     25  O   UNL     1       2.257  -5.934  -4.757  1.00  0.00    -0.361 OA
ATOM     26  C   UNL     1       3.377  -3.848  -5.202  1.00  0.00     0.091 C 
ENDBRANCH  19  20
ENDBRANCH  17  19
ENDBRANCH  12  13
ENDBRANCH   9  12
ENDBRANCH   7   9
ENDBRANCH   6   7
ENDBRANCH   5   6
ENDBRANCH   4   5
ENDBRANCH   3   4
ENDBRANCH   2   3
ENDBRANCH   1   2
BRANCH   1  27
ATOM     27  O   UNL     1      -0.515   2.945  -2.947  1.00  0.00    -0.377 OA
BRANCH  27  28
ATOM     28  C   UNL     1      -1.265   4.144  -3.105  1.00  0.00     0.188 C 
BRANCH  28  29
ATOM     29  C   UNL     1      -0.613   5.333  -3.834  1.00  0.00     0.188 C 
BRANCH  29  30
ATOM     30  O   UNL     1       0.705   5.632  -3.396  1.00  0.00    -0.376 OA
BRANCH  30  31
ATOM     31  C   UNL     1       0.889   6.574  -2.350  1.00  0.00     0.202 C 
BRANCH  31  32
ATOM     32  C   UNL     1       0.236   6.294  -0.986  1.00  0.00     0.261 C 
BRANCH  32  33
ATOM     33  O   UNL     1      -1.198   6.218  -0.952  1.00  0.00    -0.460 OA
BRANCH  33  34
ATOM     34  C   UNL     1      -1.909   7.234  -1.487  1.00  0.00     0.338 C 
ATOM     35  O   UNL     1      -1.476   8.278  -1.927  1.00  0.00    -0.246 OA
BRANCH  34  36
ATOM     36  C   UNL     1      -3.307   6.770  -1.639  1.00  0.00     0.060 A 
ATOM     37  C   UNL     1      -3.885   6.772  -2.915  1.00  0.00     0.016 A 
ATOM     38  C   UNL     1      -4.043   6.351  -0.529  1.00  0.00     0.016 A 
ATOM     39  C   UNL     1      -5.220   6.401  -3.078  1.00  0.00     0.010 A 
ATOM     40  C   UNL     1      -5.386   6.001  -0.690  1.00  0.00     0.010 A 
ATOM     41  C   UNL     1      -5.991   6.064  -1.959  1.00  0.00    -0.014 A 
BRANCH  41  42
ATOM     42  C   UNL     1      -7.467   5.988  -2.081  1.00  0.00     0.031 A 
ATOM     43  C   UNL     1      -8.276   7.190  -1.672  1.00  0.00     0.074 A 
ATOM     44  C   UNL     1      -8.078   4.891  -2.563  1.00  0.00     0.049 A 
ATOM     45  N   UNL     1      -9.573   7.347  -1.633  1.00  0.00    -0.248 NA
ATOM     46  C   UNL     1      -7.514   8.377  -1.245  1.00  0.00     0.031 C 
ATOM     47  C   UNL     1      -7.401   3.686  -3.038  1.00  0.00     0.029 A 
ATOM     48  N   UNL     1      -9.412   4.614  -2.725  1.00  0.00    -0.354 N 
ATOM     49  C   UNL     1      -9.783   8.640  -1.166  1.00  0.00     0.074 A 
ATOM     50  C   UNL     1      -8.482   9.215  -0.908  1.00  0.00     0.031 C 
ATOM     51  C   UNL     1      -8.327   2.791  -3.427  1.00  0.00     0.029 A 
ATOM     52  C   UNL     1      -9.660   3.345  -3.194  1.00  0.00     0.049 A 
ATOM     53  H   UNL     1     -10.125   5.262  -2.524  1.00  0.00     0.167 HD
ATOM     54  C   UNL     1     -10.956   9.289  -0.975  1.00  0.00     0.037 A 
ATOM     55  C   UNL     1     -10.829   2.701  -3.388  1.00  0.00     0.037 A 
ATOM     56  C   UNL     1     -12.247   8.708  -1.235  1.00  0.00     0.049 A 
ATOM     57  C   UNL     1     -12.123   3.419  -3.095  1.00  0.00     0.074 A 
ATOM     58  C   UNL     1     -13.494   9.289  -1.095  1.00  0.00     0.029 A 
ATOM     59  N   UNL     1     -12.457   7.410  -1.679  1.00  0.00    -0.354 N 
ATOM     60  N   UNL     1     -12.311   4.649  -2.676  1.00  0.00    -0.248 NA
ATOM     61  C   UNL     1     -13.367   2.663  -3.304  1.00  0.00     0.031 C 
ATOM     62  C   UNL     1     -14.461   8.323  -1.391  1.00  0.00     0.029 A 
ATOM     63  C   UNL     1     -13.816   7.162  -1.786  1.00  0.00     0.049 A 
ATOM     64  H   UNL     1     -11.746   6.762  -1.886  1.00  0.00     0.167 HD
ATOM     65  C   UNL     1     -13.691   4.823  -2.605  1.00  0.00     0.074 A 
ATOM     66  C   UNL     1     -14.289   3.576  -3.033  1.00  0.00     0.031 C 
ATOM     67  C   UNL     1     -14.398   5.917  -2.224  1.00  0.00     0.037 A 
BRANCH  54  68
ATOM     68  C   UNL     1     -10.899  10.688  -0.423  1.00  0.00     0.058 A 
ATOM     69  C   UNL     1     -10.412  11.768  -1.177  1.00  0.00     0.135 A 
ATOM     70  C   UNL     1     -11.369  10.957   0.873  1.00  0.00     0.135 A 
ATOM     71  F   UNL     1      -9.931  11.567  -2.414  1.00  0.00    -0.206 F 
ATOM     72  C   UNL     1     -10.371  13.058  -0.658  1.00  0.00     0.059 A 
ATOM     73  C   UNL     1     -11.366  12.244   1.401  1.00  0.00     0.059 A 
ATOM     74  F   UNL     1     -11.840   9.961   1.641  1.00  0.00    -0.206 F 
ATOM     75  C   UNL     1     -10.853  13.286   0.632  1.00  0.00     0.060 A 
BRANCH  75  76
ATOM     76  S   UNL     1     -10.800  14.967   1.288  1.00  0.00     0.124 S 
ATOM     77  O   UNL     1      -9.366  15.157   1.489  1.00  0.00    -0.237 OA
ATOM     78  O   UNL     1     -11.394  15.742   0.203  1.00  0.00    -0.237 OA
ATOM     79  O   UNL     1     -11.598  14.884   2.506  1.00  0.00    -0.744 OA
ENDBRANCH  75  76
ENDBRANCH  54  68
BRANCH  55  80
ATOM     80  C   UNL     1     -10.835   1.294  -3.875  1.00  0.00     0.058 A 
ATOM     81  C   UNL     1     -11.335   0.967  -5.144  1.00  0.00     0.135 A 
ATOM     82  C   UNL     1     -10.351   0.244  -3.077  1.00  0.00     0.135 A 
ATOM     83  F   UNL     1     -11.822   1.931  -5.941  1.00  0.00    -0.206 F 
ATOM     84  C   UNL     1     -11.372  -0.347  -5.599  1.00  0.00     0.059 A 
ATOM     85  C   UNL     1     -10.349  -1.075  -3.521  1.00  0.00     0.059 A 
ATOM     86  F   UNL     1      -9.857   0.501  -1.855  1.00  0.00    -0.206 F 
ATOM     87  C   UNL     1     -10.872  -1.362  -4.781  1.00  0.00     0.060 A 
BRANCH  87  88
ATOM     88  S   UNL     1     -10.889  -3.058  -5.402  1.00  0.00     0.124 S 
ATOM     89  O   UNL     1     -12.315  -3.362  -5.386  1.00  0.00    -0.237 OA
ATOM     90  O   UNL     1     -10.283  -2.905  -6.721  1.00  0.00    -0.237 OA
ATOM     91  O   UNL     1     -10.079  -3.782  -4.426  1.00  0.00    -0.744 OA
ENDBRANCH  87  88
ENDBRANCH  55  80
BRANCH  67  92
ATOM     92  C   UNL     1     -15.901   5.839  -2.296  1.00  0.00     0.058 A 
ATOM     93  C   UNL     1     -16.650   5.056  -1.404  1.00  0.00     0.135 A 
ATOM     94  C   UNL     1     -16.605   6.610  -3.237  1.00  0.00     0.135 A 
ATOM     95  F   UNL     1     -16.030   4.296  -0.487  1.00  0.00    -0.206 F 
ATOM     96  C   UNL     1     -18.040   5.021  -1.458  1.00  0.00     0.059 A 
ATOM     97  C   UNL     1     -17.995   6.616  -3.287  1.00  0.00     0.059 A 
ATOM     98  F   UNL     1     -15.941   7.388  -4.107  1.00  0.00    -0.206 F 
ATOM     99  C   UNL     1     -18.704   5.808  -2.401  1.00  0.00     0.060 A 
BRANCH  99 100
ATOM    100  S   UNL     1     -20.509   5.778  -2.436  1.00  0.00     0.124 S 
ATOM    101  O   UNL     1     -20.772   4.454  -2.988  1.00  0.00    -0.237 OA
ATOM    102  O   UNL     1     -20.851   5.957  -1.028  1.00  0.00    -0.237 OA
ATOM    103  O   UNL     1     -20.851   6.900  -3.305  1.00  0.00    -0.744 OA
ENDBRANCH  99 100
ENDBRANCH  67  92
ENDBRANCH  41  42
ENDBRANCH  34  36
ENDBRANCH  33  34
ENDBRANCH  32  33
ENDBRANCH  31  32
ENDBRANCH  30  31
ENDBRANCH  29  30
ENDBRANCH  28  29
ENDBRANCH  27  28
ENDBRANCH   1  27
TORSDOF 28
