REMARK SMILES Cc1ccc(NC(=O)C[C@H]([NH2+]Cc2cccnc2)C(=O)OCCOCCOCCOCCOC(=O)c2ccc(-c3c4nc(c(-c5c(F)cc(S(=O)(=O)[O-])cc5F)c5ccc([nH]5)c(-c5c(F)cc(S(=O)(=O)[O-])cc5F)c5nc(c(-c6c(F)cc(S(=O)(=O)[O-])cc6F)c6ccc3[nH]6)C=C5)C=C4)cc2)cc1Cl
REMARK SMILES IDX 27 1 26 2 25 3 24 4 23 5 22 6 21 7 19 8 20 9 10 10 9 11 7 12
REMARK SMILES IDX 6 13 8 15 5 16 1 17 2 18 3 19 103 20 4 21 102 22 104 23
REMARK SMILES IDX 11 24 12 27 13 28 14 29 18 30 15 31 17 32 16 33 28 34 29 35
REMARK SMILES IDX 30 36 31 37 32 38 33 39 34 40 35 41 36 42 37 43 101 44 38 45
REMARK SMILES IDX 100 46 39 47 40 48 41 49 94 50 42 51 99 52 93 53 95 54 43 55
REMARK SMILES IDX 98 56 92 57 91 58 44 60 78 61 57 62 77 63 58 64 61 65 76 66
REMARK SMILES IDX 96 67 59 68 60 69 75 71 97 72 62 73 45 74 46 75 55 76 47 77
REMARK SMILES IDX 48 78 54 79 56 80 49 81 50 82 51 83 52 84 53 85 79 86 80 87
REMARK SMILES IDX 89 88 81 89 82 90 88 91 90 92 83 93 84 94 85 95 86 96 87 97
REMARK SMILES IDX 63 98 64 99 73 100 65 101 66 102 72 103 74 104 67 105 68 106
REMARK SMILES IDX 69 107 70 108 71 109
REMARK H PARENT 6 14 11 25 11 26 95 59 61 70
REMARK Flexibility Score: inf
ROOT
ATOM      1  O   UNL     1       2.922  -4.851   0.317  1.00  0.00    -0.377 OA
ENDROOT
BRANCH   1   2
ATOM      2  C   UNL     1       2.205  -5.385  -0.772  1.00  0.00     0.188 C 
BRANCH   2   3
ATOM      3  C   UNL     1       2.936  -5.350  -2.111  1.00  0.00     0.188 C 
BRANCH   3   4
ATOM      4  O   UNL     1       3.889  -4.343  -2.425  1.00  0.00    -0.376 OA
BRANCH   4   5
ATOM      5  C   UNL     1       4.177  -3.308  -1.500  1.00  0.00     0.202 C 
BRANCH   5   6
ATOM      6  C   UNL     1       3.158  -2.160  -1.437  1.00  0.00     0.261 C 
BRANCH   6   7
ATOM      7  O   UNL     1       1.807  -2.449  -1.011  1.00  0.00    -0.459 OA
BRANCH   7   8
ATOM      8  C   UNL     1       0.851  -2.588  -1.970  1.00  0.00     0.365 C 
ATOM      9  O   UNL     1       1.085  -2.825  -3.151  1.00  0.00    -0.245 OA
BRANCH   8  10
ATOM     10  C   UNL     1      -0.589  -2.327  -1.450  1.00  0.00     0.303 C 
BRANCH  10  11
ATOM     11  C   UNL     1      -0.621  -0.975  -0.754  1.00  0.00     0.177 C 
BRANCH  11  12
ATOM     12  C   UNL     1       0.156  -0.531   0.481  1.00  0.00     0.231 C 
ATOM     13  N   UNL     1       0.326  -1.113   1.690  1.00  0.00    -0.326 N 
ATOM     14  H   UNL     1       0.591  -0.435   2.353  1.00  0.00     0.169 HD
ATOM     15  O   UNL     1       0.543   0.655   0.450  1.00  0.00    -0.274 OA
BRANCH  13  16
ATOM     16  C   UNL     1       0.245  -2.374   2.305  1.00  0.00     0.042 A 
ATOM     17  C   UNL     1      -0.227  -6.126   4.457  1.00  0.00     0.046 C 
ATOM     18  C   UNL     1      -0.004  -4.842   3.717  1.00  0.00    -0.032 A 
ATOM     19  C   UNL     1       0.118  -3.629   4.402  1.00  0.00     0.007 A 
ATOM     20  C   UNL     1       0.045  -4.803   2.327  1.00  0.00     0.046 A 
ATOM     21  C   UNL     1       0.230  -2.414   3.704  1.00  0.00     0.026 A 
ATOM     22  C   UNL     1       0.245  -3.589   1.655  1.00  0.00     0.047 A 
ATOM     23  Cl  UNL     1      -0.201  -6.244   1.393  1.00  0.00    -0.084 Cl
ENDBRANCH  13  16
ENDBRANCH  11  12
ENDBRANCH  10  11
BRANCH  10  24
ATOM     24  N   UNL     1      -1.267  -3.459  -0.773  1.00  0.00    -0.330 N 
ATOM     25  H   UNL     1      -0.751  -3.670   0.081  1.00  0.00     0.347 HD
ATOM     26  H   UNL     1      -1.274  -4.226  -1.446  1.00  0.00     0.347 HD
BRANCH  24  27
ATOM     27  C   UNL     1      -2.671  -3.226  -0.410  1.00  0.00     0.299 C 
BRANCH  27  28
ATOM     28  C   UNL     1      -3.095  -3.919   0.865  1.00  0.00     0.024 A 
ATOM     29  C   UNL     1      -3.432  -5.274   0.911  1.00  0.00     0.013 A 
ATOM     30  C   UNL     1      -3.176  -3.216   2.069  1.00  0.00     0.120 A 
ATOM     31  C   UNL     1      -3.808  -5.858   2.123  1.00  0.00     0.021 A 
ATOM     32  N   UNL     1      -3.560  -3.750   3.254  1.00  0.00    -0.264 NA
ATOM     33  C   UNL     1      -3.854  -5.064   3.256  1.00  0.00     0.111 A 
ENDBRANCH  27  28
ENDBRANCH  24  27
ENDBRANCH  10  24
ENDBRANCH   8  10
ENDBRANCH   7   8
ENDBRANCH   6   7
ENDBRANCH   5   6
ENDBRANCH   4   5
ENDBRANCH   3   4
ENDBRANCH   2   3
ENDBRANCH   1   2
BRANCH   1  34
ATOM     34  C   UNL     1       3.460  -5.765   1.255  1.00  0.00     0.188 C 
BRANCH  34  35
ATOM     35  C   UNL     1       4.348  -6.875   0.688  1.00  0.00     0.188 C 
BRANCH  35  36
ATOM     36  O   UNL     1       3.767  -7.905  -0.096  1.00  0.00    -0.376 OA
BRANCH  36  37
ATOM     37  C   UNL     1       2.643  -8.674   0.299  1.00  0.00     0.202 C 
BRANCH  37  38
ATOM     38  C   UNL     1       2.259  -9.059   1.737  1.00  0.00     0.261 C 
BRANCH  38  39
ATOM     39  O   UNL     1       2.611  -8.153   2.778  1.00  0.00    -0.460 OA
BRANCH  39  40
ATOM     40  C   UNL     1       3.734  -8.477   3.446  1.00  0.00     0.338 C 
ATOM     41  O   UNL     1       4.464  -9.443   3.230  1.00  0.00    -0.246 OA
BRANCH  40  42
ATOM     42  C   UNL     1       4.080  -7.406   4.390  1.00  0.00     0.060 A 
ATOM     43  C   UNL     1       5.355  -6.841   4.292  1.00  0.00     0.016 A 
ATOM     44  C   UNL     1       3.212  -7.037   5.421  1.00  0.00     0.016 A 
ATOM     45  C   UNL     1       5.801  -5.968   5.274  1.00  0.00     0.010 A 
ATOM     46  C   UNL     1       3.661  -6.156   6.409  1.00  0.00     0.010 A 
ATOM     47  C   UNL     1       4.982  -5.675   6.372  1.00  0.00    -0.014 A 
BRANCH  47  48
ATOM     48  C   UNL     1       5.613  -5.092   7.579  1.00  0.00     0.031 A 
ATOM     49  C   UNL     1       5.984  -6.019   8.708  1.00  0.00     0.074 A 
ATOM     50  C   UNL     1       5.939  -3.789   7.630  1.00  0.00     0.049 A 
ATOM     51  N   UNL     1       6.590  -5.755   9.836  1.00  0.00    -0.248 NA
ATOM     52  C   UNL     1       5.624  -7.438   8.541  1.00  0.00     0.031 C 
ATOM     53  C   UNL     1       5.672  -2.809   6.578  1.00  0.00     0.029 A 
ATOM     54  N   UNL     1       6.580  -3.071   8.607  1.00  0.00    -0.354 N 
ATOM     55  C   UNL     1       6.681  -6.967  10.510  1.00  0.00     0.074 A 
ATOM     56  C   UNL     1       6.029  -7.961   9.688  1.00  0.00     0.031 C 
ATOM     57  C   UNL     1       6.147  -1.614   6.968  1.00  0.00     0.029 A 
ATOM     58  C   UNL     1       6.728  -1.740   8.304  1.00  0.00     0.049 A 
ATOM     59  H   UNL     1       6.902  -3.472   9.446  1.00  0.00     0.167 HD
ATOM     60  C   UNL     1       7.269  -7.233  11.700  1.00  0.00     0.037 A 
ATOM     61  C   UNL     1       7.264  -0.738   9.029  1.00  0.00     0.037 A 
ATOM     62  C   UNL     1       7.924  -6.239  12.509  1.00  0.00     0.049 A 
ATOM     63  C   UNL     1       7.861  -1.047  10.379  1.00  0.00     0.074 A 
ATOM     64  C   UNL     1       8.562  -6.404  13.725  1.00  0.00     0.029 A 
ATOM     65  N   UNL     1       8.020  -4.893  12.186  1.00  0.00    -0.354 N 
ATOM     66  N   UNL     1       7.957  -2.201  10.997  1.00  0.00    -0.248 NA
ATOM     67  C   UNL     1       8.435   0.081  11.124  1.00  0.00     0.031 C 
ATOM     68  C   UNL     1       8.994  -5.149  14.165  1.00  0.00     0.029 A 
ATOM     69  C   UNL     1       8.685  -4.212  13.192  1.00  0.00     0.049 A 
ATOM     70  H   UNL     1       7.668  -4.483  11.363  1.00  0.00     0.167 HD
ATOM     71  C   UNL     1       8.633  -1.943  12.187  1.00  0.00     0.074 A 
ATOM     72  C   UNL     1       8.930  -0.525  12.194  1.00  0.00     0.031 C 
ATOM     73  C   UNL     1       8.980  -2.800  13.180  1.00  0.00     0.037 A 
BRANCH  60  74
ATOM     74  C   UNL     1       7.205  -8.647  12.211  1.00  0.00     0.058 A 
ATOM     75  C   UNL     1       7.926  -9.691  11.608  1.00  0.00     0.135 A 
ATOM     76  C   UNL     1       6.427  -8.958  13.338  1.00  0.00     0.135 A 
ATOM     77  F   UNL     1       8.668  -9.457  10.514  1.00  0.00    -0.206 F 
ATOM     78  C   UNL     1       7.857 -10.995  12.087  1.00  0.00     0.059 A 
ATOM     79  C   UNL     1       6.368 -10.249  13.854  1.00  0.00     0.059 A 
ATOM     80  F   UNL     1       5.712  -8.001  13.950  1.00  0.00    -0.206 F 
ATOM     81  C   UNL     1       7.076 -11.264  13.213  1.00  0.00     0.060 A 
BRANCH  81  82
ATOM     82  S   UNL     1       7.002 -12.960  13.827  1.00  0.00     0.124 S 
ATOM     83  O   UNL     1       6.207 -13.611  12.791  1.00  0.00    -0.237 OA
ATOM     84  O   UNL     1       8.412 -13.335  13.874  1.00  0.00    -0.237 OA
ATOM     85  O   UNL     1       6.349 -12.824  15.125  1.00  0.00    -0.744 OA
ENDBRANCH  81  82
ENDBRANCH  60  74
BRANCH  61  86
ATOM     86  C   UNL     1       7.258   0.651   8.496  1.00  0.00     0.058 A 
ATOM     87  C   UNL     1       8.447   1.302   8.139  1.00  0.00     0.135 A 
ATOM     88  C   UNL     1       6.054   1.358   8.339  1.00  0.00     0.135 A 
ATOM     89  F   UNL     1       9.624   0.674   8.280  1.00  0.00    -0.206 F 
ATOM     90  C   UNL     1       8.448   2.610   7.664  1.00  0.00     0.059 A 
ATOM     91  C   UNL     1       6.027   2.655   7.838  1.00  0.00     0.059 A 
ATOM     92  F   UNL     1       4.886   0.777   8.655  1.00  0.00    -0.206 F 
ATOM     93  C   UNL     1       7.231   3.277   7.513  1.00  0.00     0.060 A 
BRANCH  93  94
ATOM     94  S   UNL     1       7.240   4.958   6.854  1.00  0.00     0.124 S 
ATOM     95  O   UNL     1       7.803   5.708   7.970  1.00  0.00    -0.237 OA
ATOM     96  O   UNL     1       8.095   4.820   5.680  1.00  0.00    -0.237 OA
ATOM     97  O   UNL     1       5.831   5.213   6.568  1.00  0.00    -0.744 OA
ENDBRANCH  93  94
ENDBRANCH  61  86
BRANCH  73  98
ATOM     98  C   UNL     1       9.764  -2.241  14.338  1.00  0.00     0.058 A 
ATOM     99  C   UNL     1       9.188  -1.374  15.279  1.00  0.00     0.135 A 
ATOM    100  C   UNL     1      11.106  -2.614  14.528  1.00  0.00     0.135 A 
ATOM    101  F   UNL     1       7.910  -0.984  15.146  1.00  0.00    -0.206 F 
ATOM    102  C   UNL     1       9.924  -0.866  16.346  1.00  0.00     0.059 A 
ATOM    103  C   UNL     1      11.850  -2.146  15.606  1.00  0.00     0.059 A 
ATOM    104  F   UNL     1      11.704  -3.454  13.668  1.00  0.00    -0.206 F 
ATOM    105  C   UNL     1      11.255  -1.257  16.500  1.00  0.00     0.060 A 
BRANCH 105 106
ATOM    106  S   UNL     1      12.195  -0.600  17.894  1.00  0.00     0.124 S 
ATOM    107  O   UNL     1      12.411   0.782  17.477  1.00  0.00    -0.237 OA
ATOM    108  O   UNL     1      11.273  -0.789  19.009  1.00  0.00    -0.237 OA
ATOM    109  O   UNL     1      13.389  -1.440  17.926  1.00  0.00    -0.744 OA
ENDBRANCH 105 106
ENDBRANCH  73  98
ENDBRANCH  47  48
ENDBRANCH  40  42
ENDBRANCH  39  40
ENDBRANCH  38  39
ENDBRANCH  37  38
ENDBRANCH  36  37
ENDBRANCH  35  36
ENDBRANCH  34  35
ENDBRANCH   1  34
TORSDOF 29
