REMARK SMILES Cc1nc(NC(=O)[C@H]2[C@@H]3CC[C@@H](C3)[C@@H]2C(=O)OCCOCCOCCOCCOC(=O)c2ccc(-c3c4nc(c(-c5c(F)cc(S(=O)(=O)[O-])cc5F)c5ccc([nH]5)c(-c5c(F)cc(S(=O)(=O)[O-])cc5F)c5nc(c(-c6c(F)cc(S(=O)(=O)[O-])cc6F)c6ccc3[nH]6)C=C5)C=C4)cc2)sc1-c1ccccc1
REMARK SMILES IDX 23 1 22 2 21 3 20 4 19 5 18 6 17 7 15 8 16 9 14 10 8 11 9 12
REMARK SMILES IDX 10 13 13 14 12 15 11 16 6 17 5 18 7 20 4 21 1 22 2 23 3 24
REMARK SMILES IDX 99 25 98 26 100 27 101 28 105 29 102 30 104 31 103 32 24 33
REMARK SMILES IDX 25 34 26 35 27 36 28 37 29 38 30 39 31 40 32 41 33 42 97 43
REMARK SMILES IDX 34 44 96 45 35 46 36 47 37 48 90 49 38 50 95 51 89 52 91 53
REMARK SMILES IDX 39 54 94 55 88 56 87 57 40 59 74 60 53 61 73 62 54 63 57 64
REMARK SMILES IDX 72 65 92 66 55 67 56 68 71 70 93 71 58 72 41 73 42 74 51 75
REMARK SMILES IDX 43 76 44 77 50 78 52 79 45 80 46 81 47 82 48 83 49 84 75 85
REMARK SMILES IDX 76 86 85 87 77 88 78 89 84 90 86 91 79 92 80 93 81 94 82 95
REMARK SMILES IDX 83 96 59 97 60 98 69 99 61 100 62 101 68 102 70 103 63 104
REMARK SMILES IDX 64 105 65 106 66 107 67 108
REMARK H PARENT 5 19 91 58 57 69
REMARK Flexibility Score: inf
ROOT
ATOM      1  O   UNL     1      -0.492   0.000   2.556  1.00  0.00    -0.377 OA
ENDROOT
BRANCH   1   2
ATOM      2  C   UNL     1      -0.081   1.009   3.472  1.00  0.00     0.188 C 
BRANCH   2   3
ATOM      3  C   UNL     1      -1.038   2.200   3.487  1.00  0.00     0.188 C 
BRANCH   3   4
ATOM      4  O   UNL     1      -2.162   2.068   4.360  1.00  0.00    -0.376 OA
BRANCH   4   5
ATOM      5  C   UNL     1      -3.243   1.233   3.943  1.00  0.00     0.202 C 
BRANCH   5   6
ATOM      6  C   UNL     1      -4.245   1.862   2.968  1.00  0.00     0.261 C 
BRANCH   6   7
ATOM      7  O   UNL     1      -3.696   1.933   1.649  1.00  0.00    -0.463 OA
BRANCH   7   8
ATOM      8  C   UNL     1      -3.265   3.154   1.220  1.00  0.00     0.310 C 
ATOM      9  O   UNL     1      -3.418   4.214   1.811  1.00  0.00    -0.252 OA
BRANCH   8  10
ATOM     10  C   UNL     1      -2.448   2.952  -0.037  1.00  0.00     0.115 C 
ATOM     11  C   UNL     1      -1.214   3.842  -0.166  1.00  0.00     0.096 C 
ATOM     12  C   UNL     1      -1.544   4.678  -1.427  1.00  0.00     0.003 C 
ATOM     13  C   UNL     1      -2.799   5.547  -1.167  1.00  0.00     0.005 C 
ATOM     14  C   UNL     1      -2.101   3.597  -2.347  1.00  0.00     0.009 C 
ATOM     15  C   UNL     1      -3.209   3.201  -1.359  1.00  0.00     0.004 C 
ATOM     16  C   UNL     1      -3.956   4.538  -1.276  1.00  0.00     0.005 C 
BRANCH  11  17
ATOM     17  C   UNL     1       0.185   3.210  -0.309  1.00  0.00     0.230 C 
ATOM     18  N   UNL     1       0.537   1.950  -0.657  1.00  0.00    -0.302 N 
ATOM     19  H   UNL     1       1.511   1.831  -0.737  1.00  0.00     0.172 HD
ATOM     20  O   UNL     1       1.155   3.965  -0.099  1.00  0.00    -0.274 OA
BRANCH  18  21
ATOM     21  C   UNL     1      -0.163   0.805  -0.922  1.00  0.00     0.190 A 
ATOM     22  C   UNL     1      -3.150  -1.163  -1.070  1.00  0.00     0.068 C 
ATOM     23  C   UNL     1      -1.727  -0.773  -0.950  1.00  0.00     0.058 A 
ATOM     24  N   UNL     1      -1.422   0.575  -1.160  1.00  0.00    -0.225 NA
ATOM     25  C   UNL     1      -0.638  -1.577  -0.663  1.00  0.00     0.059 A 
ATOM     26  S   UNL     1       0.790  -0.597  -0.956  1.00  0.00    -0.096 S 
BRANCH  25  27
ATOM     27  C   UNL     1      -0.447  -3.034  -0.465  1.00  0.00    -0.006 A 
ATOM     28  C   UNL     1      -0.151  -3.830   1.167  1.00  0.00     0.009 A 
ATOM     29  C   UNL     1       0.307  -3.785  -1.928  1.00  0.00     0.009 A 
ATOM     30  C   UNL     1       1.019  -5.234   1.333  1.00  0.00     0.001 A 
ATOM     31  C   UNL     1       1.450  -5.160  -1.774  1.00  0.00     0.001 A 
ATOM     32  C   UNL     1       1.873  -5.849  -0.159  1.00  0.00     0.000 A 
ENDBRANCH  25  27
ENDBRANCH  18  21
ENDBRANCH  11  17
ENDBRANCH   8  10
ENDBRANCH   7   8
ENDBRANCH   6   7
ENDBRANCH   5   6
ENDBRANCH   4   5
ENDBRANCH   3   4
ENDBRANCH   2   3
ENDBRANCH   1   2
BRANCH   1  33
ATOM     33  C   UNL     1      -0.696  -1.273   3.165  1.00  0.00     0.188 C 
BRANCH  33  34
ATOM     34  C   UNL     1       0.578  -1.950   3.760  1.00  0.00     0.188 C 
BRANCH  34  35
ATOM     35  O   UNL     1       1.437  -2.778   2.953  1.00  0.00    -0.376 OA
BRANCH  35  36
ATOM     36  C   UNL     1       1.982  -2.222   1.749  1.00  0.00     0.202 C 
BRANCH  36  37
ATOM     37  C   UNL     1       2.373  -3.298   0.632  1.00  0.00     0.261 C 
BRANCH  37  38
ATOM     38  O   UNL     1       1.081  -4.085  -0.207  1.00  0.00    -0.460 OA
BRANCH  38  39
ATOM     39  C   UNL     1      -0.297  -5.348  -0.355  1.00  0.00     0.338 C 
ATOM     40  O   UNL     1      -0.199  -6.606  -0.198  1.00  0.00    -0.246 OA
BRANCH  39  41
ATOM     41  C   UNL     1      -1.841  -5.170  -0.534  1.00  0.00     0.060 A 
ATOM     42  C   UNL     1      -2.682  -4.959   0.594  1.00  0.00     0.016 A 
ATOM     43  C   UNL     1      -2.375  -5.848  -1.634  1.00  0.00     0.016 A 
ATOM     44  C   UNL     1      -3.964  -5.489   0.667  1.00  0.00     0.010 A 
ATOM     45  C   UNL     1      -3.653  -6.394  -1.556  1.00  0.00     0.010 A 
ATOM     46  C   UNL     1      -4.417  -6.270  -0.384  1.00  0.00    -0.014 A 
BRANCH  46  47
ATOM     47  C   UNL     1      -5.642  -7.077  -0.277  1.00  0.00     0.031 A 
ATOM     48  C   UNL     1      -5.506  -8.566  -0.211  1.00  0.00     0.074 A 
ATOM     49  C   UNL     1      -6.821  -6.464  -0.453  1.00  0.00     0.049 A 
ATOM     50  N   UNL     1      -6.332  -9.486  -0.622  1.00  0.00    -0.248 NA
ATOM     51  C   UNL     1      -4.250  -9.084   0.358  1.00  0.00     0.031 C 
ATOM     52  C   UNL     1      -7.029  -5.016  -0.450  1.00  0.00     0.029 A 
ATOM     53  N   UNL     1      -8.041  -6.989  -0.778  1.00  0.00    -0.354 N 
ATOM     54  C   UNL     1      -5.672 -10.695  -0.429  1.00  0.00     0.074 A 
ATOM     55  C   UNL     1      -4.388 -10.390   0.164  1.00  0.00     0.031 C 
ATOM     56  C   UNL     1      -8.280  -4.760  -0.859  1.00  0.00     0.029 A 
ATOM     57  C   UNL     1      -8.920  -6.023  -1.208  1.00  0.00     0.049 A 
ATOM     58  H   UNL     1      -8.265  -7.946  -0.712  1.00  0.00     0.167 HD
ATOM     59  C   UNL     1      -6.108 -11.935  -0.758  1.00  0.00     0.037 A 
ATOM     60  C   UNL     1     -10.067  -6.148  -1.897  1.00  0.00     0.037 A 
ATOM     61  C   UNL     1      -7.405 -12.171  -1.342  1.00  0.00     0.049 A 
ATOM     62  C   UNL     1     -10.533  -7.525  -2.269  1.00  0.00     0.074 A 
ATOM     63  C   UNL     1      -7.993 -13.372  -1.691  1.00  0.00     0.029 A 
ATOM     64  N   UNL     1      -8.315 -11.170  -1.662  1.00  0.00    -0.354 N 
ATOM     65  N   UNL     1      -9.913  -8.672  -2.109  1.00  0.00    -0.248 NA
ATOM     66  C   UNL     1     -11.849  -7.631  -2.904  1.00  0.00     0.031 C 
ATOM     67  C   UNL     1      -9.246 -13.095  -2.251  1.00  0.00     0.029 A 
ATOM     68  C   UNL     1      -9.459 -11.724  -2.206  1.00  0.00     0.049 A 
ATOM     69  H   UNL     1      -8.167 -10.207  -1.522  1.00  0.00     0.167 HD
ATOM     70  C   UNL     1     -10.782  -9.643  -2.587  1.00  0.00     0.074 A 
ATOM     71  C   UNL     1     -11.966  -8.945  -3.051  1.00  0.00     0.031 C 
ATOM     72  C   UNL     1     -10.626 -10.989  -2.631  1.00  0.00     0.037 A 
BRANCH  59  73
ATOM     73  C   UNL     1      -5.184 -13.103  -0.538  1.00  0.00     0.058 A 
ATOM     74  C   UNL     1      -4.846 -13.558   0.746  1.00  0.00     0.135 A 
ATOM     75  C   UNL     1      -4.658 -13.811  -1.634  1.00  0.00     0.135 A 
ATOM     76  F   UNL     1      -5.308 -12.918   1.832  1.00  0.00    -0.206 F 
ATOM     77  C   UNL     1      -4.004 -14.652   0.937  1.00  0.00     0.059 A 
ATOM     78  C   UNL     1      -3.836 -14.924  -1.467  1.00  0.00     0.059 A 
ATOM     79  F   UNL     1      -4.944 -13.425  -2.888  1.00  0.00    -0.206 F 
ATOM     80  C   UNL     1      -3.503 -15.328  -0.176  1.00  0.00     0.060 A 
BRANCH  80  81
ATOM     81  S   UNL     1      -2.422 -16.752   0.088  1.00  0.00     0.124 S 
ATOM     82  O   UNL     1      -1.183 -16.105   0.507  1.00  0.00    -0.237 OA
ATOM     83  O   UNL     1      -3.130 -17.495   1.126  1.00  0.00    -0.237 OA
ATOM     84  O   UNL     1      -2.381 -17.397  -1.221  1.00  0.00    -0.744 OA
ENDBRANCH  80  81
ENDBRANCH  59  73
BRANCH  60  85
ATOM     85  C   UNL     1     -10.822  -4.928  -2.270  1.00  0.00     0.058 A 
ATOM     86  C   UNL     1     -11.979  -4.575  -1.565  1.00  0.00     0.135 A 
ATOM     87  C   UNL     1     -10.357  -4.044  -3.257  1.00  0.00     0.135 A 
ATOM     88  F   UNL     1     -12.455  -5.388  -0.609  1.00  0.00    -0.206 F 
ATOM     89  C   UNL     1     -12.651  -3.386  -1.821  1.00  0.00     0.059 A 
ATOM     90  C   UNL     1     -11.000  -2.838  -3.518  1.00  0.00     0.059 A 
ATOM     91  F   UNL     1      -9.235  -4.325  -3.939  1.00  0.00    -0.206 F 
ATOM     92  C   UNL     1     -12.149  -2.519  -2.793  1.00  0.00     0.060 A 
BRANCH  92  93
ATOM     93  S   UNL     1     -12.983  -0.939  -3.048  1.00  0.00     0.124 S 
ATOM     94  O   UNL     1     -14.204  -1.358  -3.727  1.00  0.00    -0.237 OA
ATOM     95  O   UNL     1     -13.147  -0.457  -1.679  1.00  0.00    -0.237 OA
ATOM     96  O   UNL     1     -12.034  -0.184  -3.860  1.00  0.00    -0.744 OA
ENDBRANCH  92  93
ENDBRANCH  60  85
BRANCH  72  97
ATOM     97  C   UNL     1     -11.787 -11.796  -3.131  1.00  0.00     0.058 A 
ATOM     98  C   UNL     1     -12.079 -11.902  -4.498  1.00  0.00     0.135 A 
ATOM     99  C   UNL     1     -12.562 -12.539  -2.227  1.00  0.00     0.135 A 
ATOM    100  F   UNL     1     -11.371 -11.200  -5.397  1.00  0.00    -0.206 F 
ATOM    101  C   UNL     1     -13.106 -12.720  -4.954  1.00  0.00     0.059 A 
ATOM    102  C   UNL     1     -13.579 -13.380  -2.662  1.00  0.00     0.059 A 
ATOM    103  F   UNL     1     -12.315 -12.472  -0.909  1.00  0.00    -0.206 F 
ATOM    104  C   UNL     1     -13.846 -13.461  -4.028  1.00  0.00     0.060 A 
BRANCH 104 105
ATOM    105  S   UNL     1     -15.130 -14.572  -4.638  1.00  0.00     0.124 S 
ATOM    106  O   UNL     1     -16.183 -13.631  -5.003  1.00  0.00    -0.237 OA
ATOM    107  O   UNL     1     -14.462 -15.240  -5.751  1.00  0.00    -0.237 OA
ATOM    108  O   UNL     1     -15.418 -15.422  -3.487  1.00  0.00    -0.744 OA
ENDBRANCH 104 105
ENDBRANCH  72  97
ENDBRANCH  46  47
ENDBRANCH  39  41
ENDBRANCH  38  39
ENDBRANCH  37  38
ENDBRANCH  36  37
ENDBRANCH  35  36
ENDBRANCH  34  35
ENDBRANCH  33  34
ENDBRANCH   1  33
TORSDOF 26
