REMARK SMILES NC(=O)c1ccc(Oc2cccc(C(=O)OCCOCCOCCOCCOC(=O)c3ccc(-c4c5nc(c(-c6c(F)cc(S(=O)(=O)[O-])cc6F)c6ccc([nH]6)c(-c6c(F)cc(S(=O)(=O)[O-])cc6F)c6nc(c(-c7c(F)cc(S(=O)(=O)[O-])cc7F)c7ccc4[nH]7)C=C6)C=C5)cc3)c2)nc1
REMARK SMILES IDX 22 1 21 2 20 3 19 4 18 5 17 6 16 7 14 8 15 9 13 10 9 11
REMARK SMILES IDX 10 12 97 13 11 14 12 15 8 16 7 17 4 18 5 19 99 20 6 21 98 22
REMARK SMILES IDX 2 23 1 24 3 27 23 28 24 29 25 30 26 31 27 32 28 33 29 34
REMARK SMILES IDX 30 35 31 36 32 37 96 38 33 39 95 40 34 41 35 42 36 43 89 44
REMARK SMILES IDX 37 45 94 46 88 47 90 48 38 49 93 50 87 51 86 52 39 54 73 55
REMARK SMILES IDX 52 56 72 57 53 58 56 59 71 60 91 61 54 62 55 63 70 65 92 66
REMARK SMILES IDX 57 67 40 68 41 69 50 70 42 71 43 72 49 73 51 74 44 75 45 76
REMARK SMILES IDX 46 77 47 78 48 79 74 80 75 81 84 82 76 83 77 84 83 85 85 86
REMARK SMILES IDX 78 87 79 88 80 89 81 90 82 91 58 92 59 93 68 94 60 95 61 96
REMARK SMILES IDX 67 97 69 98 62 99 63 100 64 101 65 102 66 103
REMARK H PARENT 1 25 1 26 90 53 56 64
REMARK Flexibility Score: inf
ROOT
ATOM      1  O   UNL     1       3.242   3.926  -8.724  1.00  0.00    -0.377 OA
ENDROOT
BRANCH   1   2
ATOM      2  C   UNL     1       4.565   4.394  -8.536  1.00  0.00     0.188 C 
BRANCH   2   3
ATOM      3  C   UNL     1       5.642   3.420  -9.050  1.00  0.00     0.188 C 
BRANCH   3   4
ATOM      4  O   UNL     1       5.154   2.479  -9.990  1.00  0.00    -0.376 OA
BRANCH   4   5
ATOM      5  C   UNL     1       4.692   1.199  -9.592  1.00  0.00     0.202 C 
BRANCH   5   6
ATOM      6  C   UNL     1       3.907   0.908  -8.300  1.00  0.00     0.261 C 
BRANCH   6   7
ATOM      7  O   UNL     1       4.116   1.782  -7.195  1.00  0.00    -0.460 OA
BRANCH   7   8
ATOM      8  C   UNL     1       5.231   1.629  -6.461  1.00  0.00     0.338 C 
ATOM      9  O   UNL     1       6.096   0.779  -6.594  1.00  0.00    -0.246 OA
BRANCH   8  10
ATOM     10  C   UNL     1       5.331   2.805  -5.565  1.00  0.00     0.063 A 
ATOM     11  C   UNL     1       4.328   4.383  -4.047  1.00  0.00     0.130 A 
ATOM     12  C   UNL     1       5.563   5.001  -3.856  1.00  0.00     0.047 A 
ATOM     13  C   UNL     1       4.189   3.359  -4.984  1.00  0.00     0.062 A 
ATOM     14  C   UNL     1       6.691   4.513  -4.518  1.00  0.00     0.005 A 
ATOM     15  C   UNL     1       6.584   3.387  -5.338  1.00  0.00     0.016 A 
BRANCH  11  16
ATOM     16  O   UNL     1       3.279   4.788  -3.255  1.00  0.00    -0.439 OA
BRANCH  16  17
ATOM     17  C   UNL     1       2.584   3.816  -2.551  1.00  0.00     0.219 A 
ATOM     18  C   UNL     1       1.016   1.996  -1.187  1.00  0.00     0.058 A 
ATOM     19  C   UNL     1       2.214   1.572  -1.749  1.00  0.00     0.021 A 
ATOM     20  C   UNL     1       0.669   3.333  -1.345  1.00  0.00     0.129 A 
ATOM     21  C   UNL     1       3.024   2.500  -2.394  1.00  0.00     0.070 A 
ATOM     22  N   UNL     1       1.426   4.248  -2.010  1.00  0.00    -0.221 NA
BRANCH  18  23
ATOM     23  C   UNL     1       0.121   1.097  -0.430  1.00  0.00     0.250 C 
ATOM     24  N   UNL     1       0.628  -0.101  -0.006  1.00  0.00    -0.366 N 
ATOM     25  H   UNL     1       0.059  -0.724   0.501  1.00  0.00     0.159 HD
ATOM     26  H   UNL     1       1.561  -0.339  -0.208  1.00  0.00     0.159 HD
ATOM     27  O   UNL     1      -1.023   1.429  -0.152  1.00  0.00    -0.269 OA
ENDBRANCH  18  23
ENDBRANCH  16  17
ENDBRANCH  11  16
ENDBRANCH   8  10
ENDBRANCH   7   8
ENDBRANCH   6   7
ENDBRANCH   5   6
ENDBRANCH   4   5
ENDBRANCH   3   4
ENDBRANCH   2   3
ENDBRANCH   1   2
BRANCH   1  28
ATOM     28  C   UNL     1       2.653   4.060 -10.018  1.00  0.00     0.188 C 
BRANCH  28  29
ATOM     29  C   UNL     1       3.497   4.331 -11.288  1.00  0.00     0.188 C 
BRANCH  29  30
ATOM     30  O   UNL     1       4.615   5.190 -11.097  1.00  0.00    -0.376 OA
BRANCH  30  31
ATOM     31  C   UNL     1       4.523   6.521 -11.578  1.00  0.00     0.202 C 
BRANCH  31  32
ATOM     32  C   UNL     1       3.553   7.439 -10.822  1.00  0.00     0.261 C 
BRANCH  32  33
ATOM     33  O   UNL     1       2.184   7.011 -10.803  1.00  0.00    -0.460 OA
BRANCH  33  34
ATOM     34  C   UNL     1       1.556   6.898 -11.995  1.00  0.00     0.338 C 
ATOM     35  O   UNL     1       2.015   7.149 -13.093  1.00  0.00    -0.246 OA
BRANCH  34  36
ATOM     36  C   UNL     1       0.263   6.228 -11.754  1.00  0.00     0.060 A 
ATOM     37  C   UNL     1      -0.007   5.015 -12.400  1.00  0.00     0.016 A 
ATOM     38  C   UNL     1      -0.674   6.795 -10.887  1.00  0.00     0.016 A 
ATOM     39  C   UNL     1      -1.236   4.383 -12.208  1.00  0.00     0.010 A 
ATOM     40  C   UNL     1      -1.910   6.172 -10.711  1.00  0.00     0.010 A 
ATOM     41  C   UNL     1      -2.210   4.981 -11.396  1.00  0.00    -0.014 A 
BRANCH  41  42
ATOM     42  C   UNL     1      -3.606   4.478 -11.421  1.00  0.00     0.031 A 
ATOM     43  C   UNL     1      -4.597   5.186 -12.307  1.00  0.00     0.074 A 
ATOM     44  C   UNL     1      -3.983   3.413 -10.691  1.00  0.00     0.049 A 
ATOM     45  N   UNL     1      -5.881   4.987 -12.441  1.00  0.00    -0.248 NA
ATOM     46  C   UNL     1      -4.064   6.265 -13.157  1.00  0.00     0.031 C 
ATOM     47  C   UNL     1      -3.107   2.624  -9.827  1.00  0.00     0.029 A 
ATOM     48  N   UNL     1      -5.215   2.822 -10.551  1.00  0.00    -0.354 N 
ATOM     49  C   UNL     1      -6.308   5.908 -13.390  1.00  0.00     0.074 A 
ATOM     50  C   UNL     1      -5.156   6.694 -13.770  1.00  0.00     0.031 C 
ATOM     51  C   UNL     1      -3.835   1.665  -9.227  1.00  0.00     0.029 A 
ATOM     52  C   UNL     1      -5.233   1.793  -9.639  1.00  0.00     0.049 A 
ATOM     53  H   UNL     1      -6.010   3.107 -11.056  1.00  0.00     0.167 HD
ATOM     54  C   UNL     1      -7.547   6.073 -13.911  1.00  0.00     0.037 A 
ATOM     55  C   UNL     1      -6.266   1.064  -9.169  1.00  0.00     0.037 A 
ATOM     56  C   UNL     1      -8.693   5.295 -13.522  1.00  0.00     0.049 A 
ATOM     57  C   UNL     1      -7.655   1.327  -9.701  1.00  0.00     0.074 A 
ATOM     58  C   UNL     1      -9.996   5.396 -13.977  1.00  0.00     0.029 A 
ATOM     59  N   UNL     1      -8.674   4.272 -12.586  1.00  0.00    -0.354 N 
ATOM     60  N   UNL     1      -8.044   2.194 -10.607  1.00  0.00    -0.248 NA
ATOM     61  C   UNL     1      -8.746   0.507  -9.153  1.00  0.00     0.031 C 
ATOM     62  C   UNL     1     -10.774   4.463 -13.285  1.00  0.00     0.029 A 
ATOM     63  C   UNL     1      -9.945   3.742 -12.441  1.00  0.00     0.049 A 
ATOM     64  H   UNL     1      -7.876   3.967 -12.097  1.00  0.00     0.167 HD
ATOM     65  C   UNL     1      -9.415   1.999 -10.759  1.00  0.00     0.074 A 
ATOM     66  C   UNL     1      -9.784   0.923  -9.864  1.00  0.00     0.031 C 
ATOM     67  C   UNL     1     -10.290   2.651 -11.564  1.00  0.00     0.037 A 
BRANCH  54  68
ATOM     68  C   UNL     1      -7.730   7.136 -14.957  1.00  0.00     0.058 A 
ATOM     69  C   UNL     1      -7.217   6.982 -16.255  1.00  0.00     0.135 A 
ATOM     70  C   UNL     1      -8.475   8.293 -14.681  1.00  0.00     0.135 A 
ATOM     71  F   UNL     1      -6.477   5.906 -16.567  1.00  0.00    -0.206 F 
ATOM     72  C   UNL     1      -7.429   7.941 -17.239  1.00  0.00     0.059 A 
ATOM     73  C   UNL     1      -8.723   9.253 -15.657  1.00  0.00     0.059 A 
ATOM     74  F   UNL     1      -8.980   8.495 -13.454  1.00  0.00    -0.206 F 
ATOM     75  C   UNL     1      -8.190   9.070 -16.933  1.00  0.00     0.060 A 
BRANCH  75  76
ATOM     76  S   UNL     1      -8.488  10.284 -18.235  1.00  0.00     0.124 S 
ATOM     77  O   UNL     1      -7.162  10.871 -18.396  1.00  0.00    -0.237 OA
ATOM     78  O   UNL     1      -8.949   9.448 -19.339  1.00  0.00    -0.237 OA
ATOM     79  O   UNL     1      -9.497  11.166 -17.656  1.00  0.00    -0.744 OA
ENDBRANCH  75  76
ENDBRANCH  54  68
BRANCH  55  80
ATOM     80  C   UNL     1      -6.049   0.035  -8.112  1.00  0.00     0.058 A 
ATOM     81  C   UNL     1      -6.264  -1.328  -8.365  1.00  0.00     0.135 A 
ATOM     82  C   UNL     1      -5.674   0.402  -6.809  1.00  0.00     0.135 A 
ATOM     83  F   UNL     1      -6.633  -1.733  -9.590  1.00  0.00    -0.206 F 
ATOM     84  C   UNL     1      -6.154  -2.284  -7.360  1.00  0.00     0.059 A 
ATOM     85  C   UNL     1      -5.525  -0.539  -5.795  1.00  0.00     0.059 A 
ATOM     86  F   UNL     1      -5.444   1.691  -6.514  1.00  0.00    -0.206 F 
ATOM     87  C   UNL     1      -5.788  -1.879  -6.076  1.00  0.00     0.060 A 
BRANCH  87  88
ATOM     88  S   UNL     1      -5.643  -3.130  -4.781  1.00  0.00     0.124 S 
ATOM     89  O   UNL     1      -7.042  -3.450  -4.524  1.00  0.00    -0.237 OA
ATOM     90  O   UNL     1      -4.861  -4.169  -5.445  1.00  0.00    -0.237 OA
ATOM     91  O   UNL     1      -4.948  -2.425  -3.708  1.00  0.00    -0.744 OA
ENDBRANCH  87  88
ENDBRANCH  55  80
BRANCH  67  92
ATOM     92  C   UNL     1     -11.723   2.187 -11.562  1.00  0.00     0.058 A 
ATOM     93  C   UNL     1     -12.579   2.422 -10.476  1.00  0.00     0.135 A 
ATOM     94  C   UNL     1     -12.261   1.550 -12.693  1.00  0.00     0.135 A 
ATOM     95  F   UNL     1     -12.117   3.025  -9.369  1.00  0.00    -0.206 F 
ATOM     96  C   UNL     1     -13.911   2.018 -10.499  1.00  0.00     0.059 A 
ATOM     97  C   UNL     1     -13.597   1.166 -12.751  1.00  0.00     0.059 A 
ATOM     98  F   UNL     1     -11.490   1.312 -13.767  1.00  0.00    -0.206 F 
ATOM     99  C   UNL     1     -14.411   1.393 -11.643  1.00  0.00     0.060 A 
BRANCH  99 100
ATOM    100  S   UNL     1     -16.149   0.906 -11.673  1.00  0.00     0.124 S 
ATOM    101  O   UNL     1     -16.151  -0.237 -10.765  1.00  0.00    -0.237 OA
ATOM    102  O   UNL     1     -16.819   2.106 -11.182  1.00  0.00    -0.237 OA
ATOM    103  O   UNL     1     -16.391   0.591 -13.078  1.00  0.00    -0.744 OA
ENDBRANCH  99 100
ENDBRANCH  67  92
ENDBRANCH  41  42
ENDBRANCH  34  36
ENDBRANCH  33  34
ENDBRANCH  32  33
ENDBRANCH  31  32
ENDBRANCH  30  31
ENDBRANCH  29  30
ENDBRANCH  28  29
ENDBRANCH   1  28
TORSDOF 26
