REMARK SMILES COc1cccc(C(=O)Nc2ccc(NC(=O)[C@@H]3[C@@H](C(=O)OCCOCCOCCOCCOC(=O)c4ccc(-c5c6nc(c(-c7c(F)cc(S(=O)(=O)[O-])cc7F)c7ccc([nH]7)c(-c7c(F)cc(S(=O)(=O)[O-])cc7F)c7nc(c(-c8c(F)cc(S(=O)(=O)[O-])cc8F)c8ccc5[nH]8)C=C7)C=C6)cc4)[C@@H]4C=C[C@H]3C4)cc2)c1
REMARK SMILES IDX 27 1 26 2 25 3 24 4 23 5 22 6 20 7 21 8 19 9 18 10 106 11
REMARK SMILES IDX 103 12 105 13 107 14 104 15 16 16 15 17 17 19 14 20 11 21
REMARK SMILES IDX 12 22 109 23 13 24 108 25 10 26 8 27 9 28 7 30 3 31 4 32
REMARK SMILES IDX 110 33 5 34 6 35 2 36 1 37 28 38 29 39 30 40 31 41 32 42
REMARK SMILES IDX 33 43 34 44 35 45 36 46 37 47 38 48 102 49 39 50 101 51
REMARK SMILES IDX 40 52 41 53 42 54 95 55 43 56 100 57 94 58 96 59 44 60 99 61
REMARK SMILES IDX 93 62 92 63 45 65 79 66 58 67 78 68 59 69 62 70 77 71 97 72
REMARK SMILES IDX 60 73 61 74 76 76 98 77 63 78 46 79 47 80 56 81 48 82 49 83
REMARK SMILES IDX 55 84 57 85 50 86 51 87 52 88 53 89 54 90 80 91 81 92 90 93
REMARK SMILES IDX 82 94 83 95 89 96 91 97 84 98 85 99 86 100 87 101 88 102
REMARK SMILES IDX 64 103 65 104 74 105 66 106 67 107 73 108 75 109 68 110
REMARK SMILES IDX 69 111 70 112 71 113 72 114
REMARK H PARENT 15 18 10 29 96 64 62 75
REMARK Flexibility Score: inf
ROOT
ATOM      1  C   UNL     1       7.209  -5.077   1.751  1.00  0.00     0.188 C 
ENDROOT
BRANCH   1   2
ATOM      2  C   UNL     1       8.223  -5.262   0.606  1.00  0.00     0.188 C 
BRANCH   2   3
ATOM      3  O   UNL     1       9.244  -4.295   0.584  1.00  0.00    -0.376 OA
BRANCH   3   4
ATOM      4  C   UNL     1       9.098  -3.117  -0.180  1.00  0.00     0.202 C 
BRANCH   4   5
ATOM      5  C   UNL     1       7.757  -2.393  -0.398  1.00  0.00     0.261 C 
BRANCH   5   6
ATOM      6  O   UNL     1       6.530  -3.106  -0.158  1.00  0.00    -0.463 OA
BRANCH   6   7
ATOM      7  C   UNL     1       5.956  -3.766  -1.186  1.00  0.00     0.310 C 
ATOM      8  O   UNL     1       6.482  -3.881  -2.287  1.00  0.00    -0.252 OA
BRANCH   7   9
ATOM      9  C   UNL     1       4.608  -4.402  -0.856  1.00  0.00     0.119 C 
ATOM     10  C   UNL     1       3.565  -3.584  -0.054  1.00  0.00     0.100 C 
ATOM     11  C   UNL     1       2.750  -4.700   0.672  1.00  0.00     0.025 C 
ATOM     12  C   UNL     1       4.573  -5.764  -0.097  1.00  0.00     0.027 C 
ATOM     13  C   UNL     1       2.282  -5.824  -0.228  1.00  0.00    -0.027 C 
ATOM     14  C   UNL     1       3.939  -5.450   1.282  1.00  0.00     0.017 C 
ATOM     15  C   UNL     1       3.367  -6.491  -0.653  1.00  0.00    -0.027 C 
BRANCH  10  16
ATOM     16  C   UNL     1       2.808  -2.683  -0.986  1.00  0.00     0.228 C 
ATOM     17  N   UNL     1       3.179  -1.386  -1.206  1.00  0.00    -0.326 N 
ATOM     18  H   UNL     1       2.827  -1.033  -2.055  1.00  0.00     0.169 HD
ATOM     19  O   UNL     1       1.851  -3.108  -1.641  1.00  0.00    -0.274 OA
BRANCH  17  20
ATOM     20  C   UNL     1       3.948  -0.429  -0.503  1.00  0.00     0.041 A 
ATOM     21  C   UNL     1       4.734   1.661   1.193  1.00  0.00     0.041 A 
ATOM     22  C   UNL     1       5.219   0.382   1.407  1.00  0.00     0.028 A 
ATOM     23  C   UNL     1       4.069   1.950   0.006  1.00  0.00     0.028 A 
ATOM     24  C   UNL     1       4.792  -0.659   0.581  1.00  0.00     0.028 A 
ATOM     25  C   UNL     1       3.699   0.907  -0.851  1.00  0.00     0.028 A 
BRANCH  21  26
ATOM     26  N   UNL     1       4.814   2.543   2.271  1.00  0.00    -0.322 N 
ATOM     27  C   UNL     1       3.827   3.321   2.843  1.00  0.00     0.255 C 
ATOM     28  O   UNL     1       4.119   4.007   3.822  1.00  0.00    -0.269 OA
ATOM     29  H   UNL     1       5.703   2.621   2.684  1.00  0.00     0.170 HD
BRANCH  27  30
ATOM     30  C   UNL     1       2.401   3.293   2.405  1.00  0.00     0.043 A 
ATOM     31  C   UNL     1       0.433   2.206   1.472  1.00  0.00     0.119 A 
ATOM     32  C   UNL     1      -0.258   3.416   1.571  1.00  0.00     0.046 A 
ATOM     33  C   UNL     1       1.740   2.134   1.957  1.00  0.00     0.060 A 
ATOM     34  C   UNL     1       0.348   4.544   2.124  1.00  0.00     0.005 A 
ATOM     35  C   UNL     1       1.681   4.487   2.525  1.00  0.00     0.014 A 
BRANCH  31  36
ATOM     36  O   UNL     1      -0.287   1.208   0.879  1.00  0.00    -0.497 OA
ATOM     37  C   UNL     1       0.314  -0.057   0.644  1.00  0.00     0.278 C 
ENDBRANCH  31  36
ENDBRANCH  27  30
ENDBRANCH  21  26
ENDBRANCH  17  20
ENDBRANCH  10  16
ENDBRANCH   7   9
ENDBRANCH   6   7
ENDBRANCH   5   6
ENDBRANCH   4   5
ENDBRANCH   3   4
ENDBRANCH   2   3
ENDBRANCH   1   2
BRANCH   1  38
ATOM     38  O   UNL     1       7.441  -4.298   2.913  1.00  0.00    -0.377 OA
BRANCH  38  39
ATOM     39  C   UNL     1       8.768  -3.962   3.262  1.00  0.00     0.188 C 
BRANCH  39  40
ATOM     40  C   UNL     1       9.750  -5.136   3.400  1.00  0.00     0.188 C 
BRANCH  40  41
ATOM     41  O   UNL     1       9.217  -6.380   2.971  1.00  0.00    -0.376 OA
BRANCH  41  42
ATOM     42  C   UNL     1       8.692  -7.267   3.946  1.00  0.00     0.202 C 
BRANCH  42  43
ATOM     43  C   UNL     1       7.547  -6.809   4.867  1.00  0.00     0.261 C 
BRANCH  43  44
ATOM     44  O   UNL     1       7.726  -5.575   5.571  1.00  0.00    -0.460 OA
BRANCH  44  45
ATOM     45  C   UNL     1       8.737  -5.500   6.459  1.00  0.00     0.338 C 
ATOM     46  O   UNL     1       9.540  -6.375   6.740  1.00  0.00    -0.246 OA
BRANCH  45  47
ATOM     47  C   UNL     1       8.819  -4.093   6.895  1.00  0.00     0.060 A 
ATOM     48  C   UNL     1       9.963  -3.347   6.583  1.00  0.00     0.016 A 
ATOM     49  C   UNL     1       7.748  -3.505   7.572  1.00  0.00     0.016 A 
ATOM     50  C   UNL     1      10.045  -2.009   6.962  1.00  0.00     0.010 A 
ATOM     51  C   UNL     1       7.847  -2.175   7.984  1.00  0.00     0.010 A 
ATOM     52  C   UNL     1       9.008  -1.433   7.705  1.00  0.00    -0.014 A 
BRANCH  52  53
ATOM     53  C   UNL     1       9.243  -0.147   8.399  1.00  0.00     0.031 A 
ATOM     54  C   UNL     1       9.703  -0.204   9.830  1.00  0.00     0.074 A 
ATOM     55  C   UNL     1       9.087   1.032   7.771  1.00  0.00     0.049 A 
ATOM     56  N   UNL     1       9.922   0.769  10.673  1.00  0.00    -0.248 NA
ATOM     57  C   UNL     1       9.948  -1.548  10.384  1.00  0.00     0.031 C 
ATOM     58  C   UNL     1       8.703   1.202   6.371  1.00  0.00     0.029 A 
ATOM     59  N   UNL     1       9.229   2.313   8.241  1.00  0.00    -0.354 N 
ATOM     60  C   UNL     1      10.329   0.157  11.853  1.00  0.00     0.074 A 
ATOM     61  C   UNL     1      10.290  -1.270  11.632  1.00  0.00     0.031 C 
ATOM     62  C   UNL     1       8.624   2.518   6.099  1.00  0.00     0.029 A 
ATOM     63  C   UNL     1       8.918   3.279   7.312  1.00  0.00     0.049 A 
ATOM     64  H   UNL     1       9.525   2.522   9.156  1.00  0.00     0.167 HD
ATOM     65  C   UNL     1      10.713   0.737  13.014  1.00  0.00     0.037 A 
ATOM     66  C   UNL     1       8.855   4.619   7.444  1.00  0.00     0.037 A 
ATOM     67  C   UNL     1      10.733   2.159  13.225  1.00  0.00     0.049 A 
ATOM     68  C   UNL     1       9.189   5.238   8.780  1.00  0.00     0.074 A 
ATOM     69  C   UNL     1      11.090   2.855  14.366  1.00  0.00     0.029 A 
ATOM     70  N   UNL     1      10.375   3.105  12.274  1.00  0.00    -0.354 N 
ATOM     71  N   UNL     1       9.580   4.653   9.889  1.00  0.00    -0.248 NA
ATOM     72  C   UNL     1       9.077   6.700   8.883  1.00  0.00     0.031 C 
ATOM     73  C   UNL     1      10.897   4.218  14.122  1.00  0.00     0.029 A 
ATOM     74  C   UNL     1      10.483   4.377  12.809  1.00  0.00     0.049 A 
ATOM     75  H   UNL     1      10.087   2.900  11.355  1.00  0.00     0.167 HD
ATOM     76  C   UNL     1       9.797   5.677  10.807  1.00  0.00     0.074 A 
ATOM     77  C   UNL     1       9.502   6.918  10.120  1.00  0.00     0.031 C 
ATOM     78  C   UNL     1      10.205   5.601  12.099  1.00  0.00     0.037 A 
BRANCH  65  79
ATOM     79  C   UNL     1      11.114  -0.169  14.145  1.00  0.00     0.058 A 
ATOM     80  C   UNL     1      12.300  -0.920  14.104  1.00  0.00     0.135 A 
ATOM     81  C   UNL     1      10.315  -0.272  15.294  1.00  0.00     0.135 A 
ATOM     82  F   UNL     1      13.090  -0.881  13.019  1.00  0.00    -0.206 F 
ATOM     83  C   UNL     1      12.668  -1.757  15.153  1.00  0.00     0.059 A 
ATOM     84  C   UNL     1      10.678  -1.079  16.368  1.00  0.00     0.059 A 
ATOM     85  F   UNL     1       9.165   0.416  15.382  1.00  0.00    -0.206 F 
ATOM     86  C   UNL     1      11.851  -1.827  16.283  1.00  0.00     0.060 A 
BRANCH  86  87
ATOM     87  S   UNL     1      12.351  -2.907  17.640  1.00  0.00     0.124 S 
ATOM     88  O   UNL     1      12.137  -4.228  17.055  1.00  0.00    -0.237 OA
ATOM     89  O   UNL     1      13.744  -2.523  17.845  1.00  0.00    -0.237 OA
ATOM     90  O   UNL     1      11.437  -2.545  18.718  1.00  0.00    -0.744 OA
ENDBRANCH  86  87
ENDBRANCH  65  79
BRANCH  66  91
ATOM     91  C   UNL     1       8.447   5.473   6.293  1.00  0.00     0.058 A 
ATOM     92  C   UNL     1       9.347   6.373   5.702  1.00  0.00     0.135 A 
ATOM     93  C   UNL     1       7.142   5.428   5.778  1.00  0.00     0.135 A 
ATOM     94  F   UNL     1      10.604   6.464   6.163  1.00  0.00    -0.206 F 
ATOM     95  C   UNL     1       8.962   7.213   4.662  1.00  0.00     0.059 A 
ATOM     96  C   UNL     1       6.741   6.235   4.716  1.00  0.00     0.059 A 
ATOM     97  F   UNL     1       6.246   4.579   6.305  1.00  0.00    -0.206 F 
ATOM     98  C   UNL     1       7.656   7.136   4.173  1.00  0.00     0.060 A 
BRANCH  98  99
ATOM     99  S   UNL     1       7.189   8.216   2.802  1.00  0.00     0.124 S 
ATOM    100  O   UNL     1       7.171   9.524   3.449  1.00  0.00    -0.237 OA
ATOM    101  O   UNL     1       8.277   7.991   1.855  1.00  0.00    -0.237 OA
ATOM    102  O   UNL     1       5.890   7.701   2.383  1.00  0.00    -0.744 OA
ENDBRANCH  98  99
ENDBRANCH  66  91
BRANCH  78 103
ATOM    103  C   UNL     1      10.416   6.894  12.842  1.00  0.00     0.058 A 
ATOM    104  C   UNL     1       9.345   7.704  13.245  1.00  0.00     0.135 A 
ATOM    105  C   UNL     1      11.713   7.291  13.211  1.00  0.00     0.135 A 
ATOM    106  F   UNL     1       8.086   7.374  12.917  1.00  0.00    -0.206 F 
ATOM    107  C   UNL     1       9.552   8.876  13.967  1.00  0.00     0.059 A 
ATOM    108  C   UNL     1      11.941   8.440  13.960  1.00  0.00     0.059 A 
ATOM    109  F   UNL     1      12.774   6.545  12.862  1.00  0.00    -0.206 F 
ATOM    110  C   UNL     1      10.854   9.233  14.324  1.00  0.00     0.060 A 
BRANCH 110 111
ATOM    111  S   UNL     1      11.105  10.734  15.294  1.00  0.00     0.124 S 
ATOM    112  O   UNL     1      10.826  11.773  14.307  1.00  0.00    -0.237 OA
ATOM    113  O   UNL     1      10.115  10.587  16.356  1.00  0.00    -0.237 OA
ATOM    114  O   UNL     1      12.496  10.634  15.724  1.00  0.00    -0.744 OA
ENDBRANCH 110 111
ENDBRANCH  78 103
ENDBRANCH  52  53
ENDBRANCH  45  47
ENDBRANCH  44  45
ENDBRANCH  43  44
ENDBRANCH  42  43
ENDBRANCH  41  42
ENDBRANCH  40  41
ENDBRANCH  39  40
ENDBRANCH  38  39
ENDBRANCH   1  38
TORSDOF 28
