REMARK SMILES CC1(C)O[C@@H]2CC3[C@H]4CCC5=CC(=O)C=C[C@@]5(C)[C@]4(F)[C@H](O)C[C@]3(C)[C@]2(C(=O)OCCOCCOCCOCCOC(=O)c2ccc(-c3c4nc(c(-c5c(F)cc(S(=O)(=O)[O-])cc5F)c5ccc([nH]5)c(-c5c(F)cc(S(=O)(=O)[O-])cc5F)c5nc(c(-c6c(F)cc(S(=O)(=O)[O-])cc6F)c6ccc3[nH]6)C=C5)C=C4)cc2)O1
REMARK SMILES IDX 36 1 35 2 34 3 33 4 32 5 31 6 30 7 29 8 27 9 28 10 26 11
REMARK SMILES IDX 1 12 2 13 4 14 110 15 3 16 5 17 6 18 24 19 7 20 23 21 25 22
REMARK SMILES IDX 8 23 21 24 9 25 19 26 10 27 17 28 20 29 11 30 16 31 18 32
REMARK SMILES IDX 12 33 15 34 13 35 14 36 22 37 37 39 38 40 39 41 40 42 41 43
REMARK SMILES IDX 42 44 43 45 44 46 45 47 109 48 46 49 108 50 47 51 48 52
REMARK SMILES IDX 49 53 102 54 50 55 107 56 101 57 103 58 51 59 106 60 100 61
REMARK SMILES IDX 99 62 52 64 86 65 65 66 85 67 66 68 69 69 84 70 104 71 67 72
REMARK SMILES IDX 68 73 83 75 105 76 70 77 53 78 54 79 63 80 55 81 56 82 62 83
REMARK SMILES IDX 64 84 57 85 58 86 59 87 60 88 61 89 87 90 88 91 97 92 89 93
REMARK SMILES IDX 90 94 96 95 98 96 91 97 92 98 93 99 94 100 95 101 71 102
REMARK SMILES IDX 72 103 81 104 73 105 74 106 80 107 82 108 75 109 76 110
REMARK SMILES IDX 77 111 78 112 79 113
REMARK H PARENT 22 38 103 63 69 74
REMARK Flexibility Score: inf
ROOT
ATOM      1  C   UNL     1      -0.351  -2.156   4.391  1.00  0.00     0.188 C 
ENDROOT
BRANCH   1   2
ATOM      2  O   UNL     1      -0.135  -2.498   3.037  1.00  0.00    -0.377 OA
BRANCH   2   3
ATOM      3  C   UNL     1      -1.151  -2.201   2.110  1.00  0.00     0.188 C 
BRANCH   3   4
ATOM      4  C   UNL     1      -2.065  -3.386   1.825  1.00  0.00     0.188 C 
BRANCH   4   5
ATOM      5  O   UNL     1      -2.213  -4.302   2.889  1.00  0.00    -0.376 OA
BRANCH   5   6
ATOM      6  C   UNL     1      -1.183  -5.227   3.222  1.00  0.00     0.202 C 
BRANCH   6   7
ATOM      7  C   UNL     1       0.262  -5.290   2.654  1.00  0.00     0.261 C 
BRANCH   7   8
ATOM      8  O   UNL     1       0.581  -4.510   1.494  1.00  0.00    -0.461 OA
BRANCH   8   9
ATOM      9  C   UNL     1       0.446  -5.123   0.297  1.00  0.00     0.341 C 
ATOM     10  O   UNL     1       0.138  -6.304   0.193  1.00  0.00    -0.249 OA
BRANCH   9  11
ATOM     11  C   UNL     1       0.545  -4.124  -0.889  1.00  0.00     0.200 C 
ATOM     12  C   UNL     1       1.769  -1.238   0.654  1.00  0.00     0.075 C 
ATOM     13  C   UNL     1       1.274  -1.863  -0.650  1.00  0.00     0.165 C 
ATOM     14  O   UNL     1       2.374  -2.577  -1.210  1.00  0.00    -0.344 OA
ATOM     15  O   UNL     1       0.150  -2.773  -0.495  1.00  0.00    -0.329 OA
ATOM     16  C   UNL     1       0.828  -0.678  -1.552  1.00  0.00     0.075 C 
ATOM     17  C   UNL     1       1.918  -3.887  -1.586  1.00  0.00     0.166 C 
ATOM     18  C   UNL     1       1.636  -3.811  -3.147  1.00  0.00     0.040 C 
ATOM     19  C   UNL     1      -0.365  -4.648  -2.109  1.00  0.00     0.016 C 
ATOM     20  C   UNL     1       0.114  -3.611  -3.147  1.00  0.00     0.008 C 
ATOM     21  C   UNL     1      -1.897  -4.719  -1.942  1.00  0.00     0.046 C 
ATOM     22  C   UNL     1       0.071  -6.098  -2.517  1.00  0.00     0.015 C 
ATOM     23  C   UNL     1      -0.838  -2.686  -3.923  1.00  0.00     0.035 C 
ATOM     24  C   UNL     1      -2.687  -3.505  -2.409  1.00  0.00     0.154 C 
ATOM     25  C   UNL     1      -0.340  -2.201  -5.270  1.00  0.00     0.012 C 
ATOM     26  C   UNL     1      -2.314  -3.088  -3.873  1.00  0.00     0.152 C 
ATOM     27  C   UNL     1      -1.101  -0.916  -5.598  1.00  0.00     0.032 C 
ATOM     28  C   UNL     1      -3.237  -1.930  -4.471  1.00  0.00     0.044 C 
ATOM     29  F   UNL     1      -2.426  -4.199  -4.672  1.00  0.00    -0.239 F 
ATOM     30  C   UNL     1      -2.587  -1.148  -5.630  1.00  0.00    -0.053 C 
ATOM     31  C   UNL     1      -4.574  -2.502  -4.956  1.00  0.00    -0.009 C 
ATOM     32  C   UNL     1      -3.627  -0.878  -3.389  1.00  0.00     0.024 C 
ATOM     33  C   UNL     1      -3.328  -0.588  -6.604  1.00  0.00     0.052 C 
ATOM     34  C   UNL     1      -5.381  -1.787  -5.761  1.00  0.00     0.048 C 
ATOM     35  C   UNL     1      -4.803  -0.706  -6.593  1.00  0.00     0.178 C 
ATOM     36  O   UNL     1      -5.509   0.019  -7.280  1.00  0.00    -0.290 OA
BRANCH  24  37
ATOM     37  O   UNL     1      -2.500  -2.470  -1.439  1.00  0.00    -0.390 OA
ATOM     38  H   UNL     1      -1.556  -2.254  -1.373  1.00  0.00     0.211 HD
ENDBRANCH  24  37
ENDBRANCH   9  11
ENDBRANCH   8   9
ENDBRANCH   7   8
ENDBRANCH   6   7
ENDBRANCH   5   6
ENDBRANCH   4   5
ENDBRANCH   3   4
ENDBRANCH   2   3
ENDBRANCH   1   2
BRANCH   1  39
ATOM     39  C   UNL     1      -1.783  -1.954   4.927  1.00  0.00     0.188 C 
BRANCH  39  40
ATOM     40  O   UNL     1      -2.676  -1.244   4.082  1.00  0.00    -0.376 OA
BRANCH  40  41
ATOM     41  C   UNL     1      -2.773   0.171   4.180  1.00  0.00     0.202 C 
BRANCH  41  42
ATOM     42  C   UNL     1      -1.538   1.044   3.874  1.00  0.00     0.261 C 
BRANCH  42  43
ATOM     43  O   UNL     1      -0.360   0.816   4.660  1.00  0.00    -0.460 OA
BRANCH  43  44
ATOM     44  C   UNL     1      -0.469   0.878   6.003  1.00  0.00     0.338 C 
ATOM     45  O   UNL     1      -1.461   1.198   6.641  1.00  0.00    -0.246 OA
BRANCH  44  46
ATOM     46  C   UNL     1       0.746   0.271   6.591  1.00  0.00     0.060 A 
ATOM     47  C   UNL     1       0.600  -0.842   7.432  1.00  0.00     0.016 A 
ATOM     48  C   UNL     1       2.020   0.761   6.289  1.00  0.00     0.016 A 
ATOM     49  C   UNL     1       1.721  -1.444   8.004  1.00  0.00     0.010 A 
ATOM     50  C   UNL     1       3.141   0.179   6.892  1.00  0.00     0.010 A 
ATOM     51  C   UNL     1       2.992  -0.902   7.781  1.00  0.00    -0.014 A 
BRANCH  51  52
ATOM     52  C   UNL     1       4.116  -1.309   8.660  1.00  0.00     0.031 A 
ATOM     53  C   UNL     1       4.414  -0.447   9.860  1.00  0.00     0.074 A 
ATOM     54  C   UNL     1       4.834  -2.424   8.428  1.00  0.00     0.049 A 
ATOM     55  N   UNL     1       5.365  -0.561  10.748  1.00  0.00    -0.248 NA
ATOM     56  C   UNL     1       3.515   0.700  10.086  1.00  0.00     0.031 C 
ATOM     57  C   UNL     1       4.612  -3.363   7.329  1.00  0.00     0.029 A 
ATOM     58  N   UNL     1       5.909  -2.947   9.104  1.00  0.00    -0.354 N 
ATOM     59  C   UNL     1       5.195   0.507  11.621  1.00  0.00     0.074 A 
ATOM     60  C   UNL     1       4.057   1.265  11.154  1.00  0.00     0.031 C 
ATOM     61  C   UNL     1       5.539  -4.336   7.394  1.00  0.00     0.029 A 
ATOM     62  C   UNL     1       6.439  -4.072   8.516  1.00  0.00     0.049 A 
ATOM     63  H   UNL     1       6.267  -2.554   9.932  1.00  0.00     0.167 HD
ATOM     64  C   UNL     1       5.923   0.826  12.715  1.00  0.00     0.037 A 
ATOM     65  C   UNL     1       7.542  -4.783   8.831  1.00  0.00     0.037 A 
ATOM     66  C   UNL     1       7.042   0.056  13.188  1.00  0.00     0.049 A 
ATOM     67  C   UNL     1       8.369  -4.370  10.027  1.00  0.00     0.074 A 
ATOM     68  C   UNL     1       7.813   0.272  14.317  1.00  0.00     0.029 A 
ATOM     69  N   UNL     1       7.556  -1.065  12.559  1.00  0.00    -0.354 N 
ATOM     70  N   UNL     1       8.168  -3.386  10.872  1.00  0.00    -0.248 NA
ATOM     71  C   UNL     1       9.573  -5.165  10.314  1.00  0.00     0.031 C 
ATOM     72  C   UNL     1       8.836  -0.680  14.333  1.00  0.00     0.029 A 
ATOM     73  C   UNL     1       8.659  -1.531  13.254  1.00  0.00     0.049 A 
ATOM     74  H   UNL     1       7.192  -1.471  11.739  1.00  0.00     0.167 HD
ATOM     75  C   UNL     1       9.196  -3.470  11.809  1.00  0.00     0.074 A 
ATOM     76  C   UNL     1      10.009  -4.606  11.434  1.00  0.00     0.031 C 
ATOM     77  C   UNL     1       9.445  -2.679  12.882  1.00  0.00     0.037 A 
BRANCH  64  78
ATOM     78  C   UNL     1       5.567   2.077  13.467  1.00  0.00     0.058 A 
ATOM     79  C   UNL     1       4.428   2.160  14.280  1.00  0.00     0.135 A 
ATOM     80  C   UNL     1       6.438   3.180  13.441  1.00  0.00     0.135 A 
ATOM     81  F   UNL     1       3.549   1.145  14.320  1.00  0.00    -0.206 F 
ATOM     82  C   UNL     1       4.165   3.291  15.047  1.00  0.00     0.059 A 
ATOM     83  C   UNL     1       6.210   4.309  14.220  1.00  0.00     0.059 A 
ATOM     84  F   UNL     1       7.536   3.155  12.670  1.00  0.00    -0.206 F 
ATOM     85  C   UNL     1       5.070   4.355  15.020  1.00  0.00     0.060 A 
BRANCH  85  86
ATOM     86  S   UNL     1       4.749   5.786  16.072  1.00  0.00     0.124 S 
ATOM     87  O   UNL     1       3.597   6.386  15.406  1.00  0.00    -0.237 OA
ATOM     88  O   UNL     1       4.481   5.165  17.365  1.00  0.00    -0.237 OA
ATOM     89  O   UNL     1       5.989   6.553  15.992  1.00  0.00    -0.744 OA
ENDBRANCH  85  86
ENDBRANCH  64  78
BRANCH  65  90
ATOM     90  C   UNL     1       7.970  -5.937   7.989  1.00  0.00     0.058 A 
ATOM     91  C   UNL     1       8.002  -7.244   8.500  1.00  0.00     0.135 A 
ATOM     92  C   UNL     1       8.422  -5.743   6.674  1.00  0.00     0.135 A 
ATOM     93  F   UNL     1       7.592  -7.483   9.755  1.00  0.00    -0.206 F 
ATOM     94  C   UNL     1       8.504  -8.308   7.756  1.00  0.00     0.059 A 
ATOM     95  C   UNL     1       8.897  -6.797   5.898  1.00  0.00     0.059 A 
ATOM     96  F   UNL     1       8.406  -4.517   6.129  1.00  0.00    -0.206 F 
ATOM     97  C   UNL     1       8.955  -8.072   6.456  1.00  0.00     0.060 A 
BRANCH  97  98
ATOM     98  S   UNL     1       9.608  -9.457   5.498  1.00  0.00     0.124 S 
ATOM     99  O   UNL     1      10.893  -9.683   6.148  1.00  0.00    -0.237 OA
ATOM    100  O   UNL     1       8.593 -10.483   5.713  1.00  0.00    -0.237 OA
ATOM    101  O   UNL     1       9.672  -8.924   4.140  1.00  0.00    -0.744 OA
ENDBRANCH  97  98
ENDBRANCH  65  90
BRANCH  77 102
ATOM    102  C   UNL     1      10.608  -3.042  13.767  1.00  0.00     0.058 A 
ATOM    103  C   UNL     1      11.938  -2.874  13.354  1.00  0.00     0.135 A 
ATOM    104  C   UNL     1      10.382  -3.503  15.075  1.00  0.00     0.135 A 
ATOM    105  F   UNL     1      12.211  -2.438  12.114  1.00  0.00    -0.206 F 
ATOM    106  C   UNL     1      13.004  -3.179  14.195  1.00  0.00     0.059 A 
ATOM    107  C   UNL     1      11.432  -3.781  15.945  1.00  0.00     0.059 A 
ATOM    108  F   UNL     1       9.129  -3.668  15.528  1.00  0.00    -0.206 F 
ATOM    109  C   UNL     1      12.740  -3.629  15.491  1.00  0.00     0.060 A 
BRANCH 109 110
ATOM    110  S   UNL     1      14.132  -3.989  16.582  1.00  0.00     0.124 S 
ATOM    111  O   UNL     1      14.648  -5.225  16.003  1.00  0.00    -0.237 OA
ATOM    112  O   UNL     1      14.975  -2.809  16.413  1.00  0.00    -0.237 OA
ATOM    113  O   UNL     1      13.509  -4.124  17.896  1.00  0.00    -0.744 OA
ENDBRANCH 109 110
ENDBRANCH  77 102
ENDBRANCH  51  52
ENDBRANCH  44  46
ENDBRANCH  43  44
ENDBRANCH  42  43
ENDBRANCH  41  42
ENDBRANCH  40  41
ENDBRANCH  39  40
ENDBRANCH   1  39
TORSDOF 24
