REMARK SMILES CN(C)C(=O)c1cccc(NCc2cc(C(=O)OCCOCCOCCOCCOC(=O)c3ccc(-c4c5nc(c(-c6c(F)cc(S(=O)(=O)[O-])cc6F)c6ccc([nH]6)c(-c6c(F)cc(S(=O)(=O)[O-])cc6F)c6nc(c(-c7c(F)cc(S(=O)(=O)[O-])cc7F)c7ccc4[nH]7)C=C6)C=C5)cc3)cs2)c1
REMARK SMILES IDX 23 1 22 2 21 3 20 4 19 5 18 6 16 7 17 8 15 9 13 10 14 11
REMARK SMILES IDX 100 12 99 13 12 14 11 15 10 17 6 18 7 19 101 20 8 21 9 22
REMARK SMILES IDX 4 23 1 24 2 25 3 26 5 27 24 28 25 29 26 30 27 31 28 32 29 33
REMARK SMILES IDX 30 34 31 35 32 36 33 37 34 38 98 39 35 40 97 41 36 42 37 43
REMARK SMILES IDX 38 44 91 45 39 46 96 47 90 48 92 49 40 50 95 51 89 52 88 53
REMARK SMILES IDX 41 55 75 56 54 57 74 58 55 59 58 60 73 61 93 62 56 63 57 64
REMARK SMILES IDX 72 66 94 67 59 68 42 69 43 70 52 71 44 72 45 73 51 74 53 75
REMARK SMILES IDX 46 76 47 77 48 78 49 79 50 80 76 81 77 82 86 83 78 84 79 85
REMARK SMILES IDX 85 86 87 87 80 88 81 89 82 90 83 91 84 92 60 93 61 94 70 95
REMARK SMILES IDX 62 96 63 97 69 98 71 99 64 100 65 101 66 102 67 103 68 104
REMARK H PARENT 11 16 92 54 58 65
REMARK Flexibility Score: inf
ROOT
ATOM      1  C   UNL     1      -2.794  -9.193  -1.800  1.00  0.00     0.188 C 
ENDROOT
BRANCH   1   2
ATOM      2  C   UNL     1      -3.879 -10.223  -1.453  1.00  0.00     0.188 C 
BRANCH   2   3
ATOM      3  O   UNL     1      -3.674 -11.503  -2.046  1.00  0.00    -0.376 OA
BRANCH   3   4
ATOM      4  C   UNL     1      -4.594 -11.873  -3.065  1.00  0.00     0.202 C 
BRANCH   4   5
ATOM      5  C   UNL     1      -4.284 -11.266  -4.439  1.00  0.00     0.261 C 
BRANCH   5   6
ATOM      6  O   UNL     1      -4.339  -9.833  -4.500  1.00  0.00    -0.460 OA
BRANCH   6   7
ATOM      7  C   UNL     1      -5.515  -9.234  -4.187  1.00  0.00     0.339 C 
ATOM      8  O   UNL     1      -6.556  -9.826  -3.923  1.00  0.00    -0.246 OA
BRANCH   7   9
ATOM      9  C   UNL     1      -5.369  -7.788  -4.074  1.00  0.00     0.071 A 
ATOM     10  C   UNL     1      -4.529  -5.625  -4.444  1.00  0.00     0.025 A 
ATOM     11  C   UNL     1      -4.410  -6.965  -4.756  1.00  0.00     0.033 A 
ATOM     12  S   UNL     1      -5.740  -5.368  -3.260  1.00  0.00    -0.146 S 
ATOM     13  C   UNL     1      -6.144  -7.027  -3.219  1.00  0.00     0.080 A 
BRANCH  10  14
ATOM     14  C   UNL     1      -3.775  -4.464  -5.032  1.00  0.00     0.159 C 
BRANCH  14  15
ATOM     15  N   UNL     1      -3.018  -3.683  -4.069  1.00  0.00    -0.380 N 
ATOM     16  H   UNL     1      -3.524  -3.303  -3.315  1.00  0.00     0.160 HD
BRANCH  15  17
ATOM     17  C   UNL     1      -1.666  -3.418  -4.101  1.00  0.00     0.035 A 
ATOM     18  C   UNL     1       0.206  -2.100  -3.241  1.00  0.00     0.042 A 
ATOM     19  C   UNL     1       1.087  -2.739  -4.112  1.00  0.00     0.014 A 
ATOM     20  C   UNL     1      -1.159  -2.419  -3.257  1.00  0.00     0.039 A 
ATOM     21  C   UNL     1       0.602  -3.726  -4.963  1.00  0.00     0.003 A 
ATOM     22  C   UNL     1      -0.758  -4.062  -4.950  1.00  0.00     0.026 A 
BRANCH  18  23
ATOM     23  C   UNL     1       0.730  -1.044  -2.345  1.00  0.00     0.253 C 
ATOM     24  C   UNL     1       0.883  -0.000  -0.148  1.00  0.00     0.146 C 
ATOM     25  N   UNL     1       0.449  -1.107  -0.980  1.00  0.00    -0.345 N 
ATOM     26  C   UNL     1      -0.115  -2.263  -0.299  1.00  0.00     0.146 C 
ATOM     27  O   UNL     1       1.404  -0.146  -2.848  1.00  0.00    -0.269 OA
ENDBRANCH  18  23
ENDBRANCH  15  17
ENDBRANCH  14  15
ENDBRANCH  10  14
ENDBRANCH   7   9
ENDBRANCH   6   7
ENDBRANCH   5   6
ENDBRANCH   4   5
ENDBRANCH   3   4
ENDBRANCH   2   3
ENDBRANCH   1   2
BRANCH   1  28
ATOM     28  O   UNL     1      -1.783  -9.620  -2.693  1.00  0.00    -0.377 OA
BRANCH  28  29
ATOM     29  C   UNL     1      -0.932 -10.702  -2.327  1.00  0.00     0.188 C 
BRANCH  29  30
ATOM     30  C   UNL     1      -0.956 -11.336  -0.920  1.00  0.00     0.188 C 
BRANCH  30  31
ATOM     31  O   UNL     1      -1.258 -10.433   0.140  1.00  0.00    -0.376 OA
BRANCH  31  32
ATOM     32  C   UNL     1      -0.182 -10.124   1.017  1.00  0.00     0.202 C 
BRANCH  32  33
ATOM     33  C   UNL     1       0.749  -9.046   0.454  1.00  0.00     0.261 C 
BRANCH  33  34
ATOM     34  O   UNL     1       1.487  -9.450  -0.709  1.00  0.00    -0.460 OA
BRANCH  34  35
ATOM     35  C   UNL     1       2.333 -10.493  -0.560  1.00  0.00     0.338 C 
ATOM     36  O   UNL     1       2.571 -11.112   0.461  1.00  0.00    -0.246 OA
BRANCH  35  37
ATOM     37  C   UNL     1       2.805 -10.877  -1.902  1.00  0.00     0.060 A 
ATOM     38  C   UNL     1       2.622 -12.197  -2.333  1.00  0.00     0.016 A 
ATOM     39  C   UNL     1       3.422  -9.933  -2.726  1.00  0.00     0.016 A 
ATOM     40  C   UNL     1       3.088 -12.583  -3.589  1.00  0.00     0.010 A 
ATOM     41  C   UNL     1       3.902 -10.326  -3.974  1.00  0.00     0.010 A 
ATOM     42  C   UNL     1       3.763 -11.658  -4.398  1.00  0.00    -0.014 A 
BRANCH  42  43
ATOM     43  C   UNL     1       4.487 -12.110  -5.606  1.00  0.00     0.031 A 
ATOM     44  C   UNL     1       5.944 -12.454  -5.473  1.00  0.00     0.074 A 
ATOM     45  C   UNL     1       3.873 -12.183  -6.799  1.00  0.00     0.049 A 
ATOM     46  N   UNL     1       6.802 -12.797  -6.396  1.00  0.00    -0.248 NA
ATOM     47  C   UNL     1       6.508 -12.398  -4.114  1.00  0.00     0.031 C 
ATOM     48  C   UNL     1       2.461 -11.894  -7.044  1.00  0.00     0.029 A 
ATOM     49  N   UNL     1       4.372 -12.507  -8.035  1.00  0.00    -0.354 N 
ATOM     50  C   UNL     1       8.006 -12.998  -5.733  1.00  0.00     0.074 A 
ATOM     51  C   UNL     1       7.776 -12.713  -4.334  1.00  0.00     0.031 C 
ATOM     52  C   UNL     1       2.211 -12.035  -8.358  1.00  0.00     0.029 A 
ATOM     53  C   UNL     1       3.449 -12.397  -9.047  1.00  0.00     0.049 A 
ATOM     54  H   UNL     1       5.303 -12.792  -8.183  1.00  0.00     0.167 HD
ATOM     55  C   UNL     1       9.197 -13.389  -6.245  1.00  0.00     0.037 A 
ATOM     56  C   UNL     1       3.598 -12.548 -10.379  1.00  0.00     0.037 A 
ATOM     57  C   UNL     1       9.427 -13.654  -7.638  1.00  0.00     0.049 A 
ATOM     58  C   UNL     1       4.950 -12.916 -10.934  1.00  0.00     0.074 A 
ATOM     59  C   UNL     1      10.593 -14.070  -8.255  1.00  0.00     0.029 A 
ATOM     60  N   UNL     1       8.472 -13.516  -8.635  1.00  0.00    -0.354 N 
ATOM     61  N   UNL     1       6.074 -13.136 -10.294  1.00  0.00    -0.248 NA
ATOM     62  C   UNL     1       5.055 -13.054 -12.394  1.00  0.00     0.031 C 
ATOM     63  C   UNL     1      10.354 -14.145  -9.632  1.00  0.00     0.029 A 
ATOM     64  C   UNL     1       9.028 -13.817  -9.867  1.00  0.00     0.049 A 
ATOM     65  H   UNL     1       7.537 -13.245  -8.489  1.00  0.00     0.167 HD
ATOM     66  C   UNL     1       7.012 -13.461 -11.269  1.00  0.00     0.074 A 
ATOM     67  C   UNL     1       6.323 -13.415 -12.542  1.00  0.00     0.031 C 
ATOM     68  C   UNL     1       8.324 -13.771 -11.123  1.00  0.00     0.037 A 
BRANCH  55  69
ATOM     69  C   UNL     1      10.343 -13.528  -5.286  1.00  0.00     0.058 A 
ATOM     70  C   UNL     1      10.418 -14.600  -4.383  1.00  0.00     0.135 A 
ATOM     71  C   UNL     1      11.382 -12.584  -5.274  1.00  0.00     0.135 A 
ATOM     72  F   UNL     1       9.439 -15.517  -4.339  1.00  0.00    -0.206 F 
ATOM     73  C   UNL     1      11.472 -14.718  -3.484  1.00  0.00     0.059 A 
ATOM     74  C   UNL     1      12.457 -12.694  -4.398  1.00  0.00     0.059 A 
ATOM     75  F   UNL     1      11.352 -11.536  -6.112  1.00  0.00    -0.206 F 
ATOM     76  C   UNL     1      12.485 -13.757  -3.496  1.00  0.00     0.060 A 
BRANCH  76  77
ATOM     77  S   UNL     1      13.844 -13.919  -2.319  1.00  0.00     0.124 S 
ATOM     78  O   UNL     1      13.204 -13.495  -1.077  1.00  0.00    -0.237 OA
ATOM     79  O   UNL     1      14.171 -15.339  -2.410  1.00  0.00    -0.237 OA
ATOM     80  O   UNL     1      14.858 -13.011  -2.845  1.00  0.00    -0.744 OA
ENDBRANCH  76  77
ENDBRANCH  55  69
BRANCH  56  81
ATOM     81  C   UNL     1       2.438 -12.338 -11.284  1.00  0.00     0.058 A 
ATOM     82  C   UNL     1       1.829 -13.416 -11.940  1.00  0.00     0.135 A 
ATOM     83  C   UNL     1       1.917 -11.054 -11.510  1.00  0.00     0.135 A 
ATOM     84  F   UNL     1       2.300 -14.660 -11.765  1.00  0.00    -0.206 F 
ATOM     85  C   UNL     1       0.749 -13.232 -12.797  1.00  0.00     0.059 A 
ATOM     86  C   UNL     1       0.825 -10.846 -12.346  1.00  0.00     0.059 A 
ATOM     87  F   UNL     1       2.461  -9.990 -10.899  1.00  0.00    -0.206 F 
ATOM     88  C   UNL     1       0.252 -11.941 -12.992  1.00  0.00     0.060 A 
BRANCH  88  89
ATOM     89  S   UNL     1      -1.187 -11.716 -14.060  1.00  0.00     0.124 S 
ATOM     90  O   UNL     1      -0.595 -11.859 -15.385  1.00  0.00    -0.237 OA
ATOM     91  O   UNL     1      -2.062 -12.803 -13.631  1.00  0.00    -0.237 OA
ATOM     92  O   UNL     1      -1.652 -10.376 -13.716  1.00  0.00    -0.744 OA
ENDBRANCH  88  89
ENDBRANCH  56  81
BRANCH  68  93
ATOM     93  C   UNL     1       9.099 -14.115 -12.364  1.00  0.00     0.058 A 
ATOM     94  C   UNL     1       9.518 -13.125 -13.266  1.00  0.00     0.135 A 
ATOM     95  C   UNL     1       9.488 -15.441 -12.614  1.00  0.00     0.135 A 
ATOM     96  F   UNL     1       9.168 -11.844 -13.074  1.00  0.00    -0.206 F 
ATOM     97  C   UNL     1      10.287 -13.440 -14.382  1.00  0.00     0.059 A 
ATOM     98  C   UNL     1      10.275 -15.775 -13.712  1.00  0.00     0.059 A 
ATOM     99  F   UNL     1       9.121 -16.422 -11.775  1.00  0.00    -0.206 F 
ATOM    100  C   UNL     1      10.662 -14.768 -14.595  1.00  0.00     0.060 A 
BRANCH 100 101
ATOM    101  S   UNL     1      11.700 -15.160 -16.021  1.00  0.00     0.124 S 
ATOM    102  O   UNL     1      10.733 -15.102 -17.112  1.00  0.00    -0.237 OA
ATOM    103  O   UNL     1      12.690 -14.088 -15.993  1.00  0.00    -0.237 OA
ATOM    104  O   UNL     1      12.217 -16.489 -15.708  1.00  0.00    -0.744 OA
ENDBRANCH 100 101
ENDBRANCH  68  93
ENDBRANCH  42  43
ENDBRANCH  35  37
ENDBRANCH  34  35
ENDBRANCH  33  34
ENDBRANCH  32  33
ENDBRANCH  31  32
ENDBRANCH  30  31
ENDBRANCH  29  30
ENDBRANCH  28  29
ENDBRANCH   1  28
TORSDOF 27
