REMARK SMILES O=C(OCCOCCOCCOCCOC(=O)[C@@H]1C=C[C@H](NC(=O)N2CCO[C@@H]3CCC[C@@H]32)C1)c1ccc(-c2c3nc(c(-c4c(F)cc(S(=O)(=O)[O-])cc4F)c4ccc([nH]4)c(-c4c(F)cc(S(=O)(=O)[O-])cc4F)c4nc(c(-c5c(F)cc(S(=O)(=O)[O-])cc5F)c5ccc2[nH]5)C=C4)C=C3)cc1
REMARK SMILES IDX 8 1 7 2 6 3 5 4 4 5 3 6 2 7 1 8 35 9 36 10 100 11 37 12
REMARK SMILES IDX 99 13 38 14 39 15 40 16 93 17 41 18 98 19 92 20 94 21 42 22
REMARK SMILES IDX 97 23 91 24 90 25 43 27 77 28 56 29 76 30 57 31 60 32 75 33
REMARK SMILES IDX 95 34 58 35 59 36 74 38 96 39 61 40 44 41 45 42 54 43 46 44
REMARK SMILES IDX 47 45 53 46 55 47 48 48 49 49 50 50 51 51 52 52 78 53 79 54
REMARK SMILES IDX 88 55 80 56 81 57 87 58 89 59 82 60 83 61 84 62 85 63 86 64
REMARK SMILES IDX 62 65 63 66 72 67 64 68 65 69 71 70 73 71 66 72 67 73 68 74
REMARK SMILES IDX 69 75 70 76 9 77 10 78 11 79 12 80 13 81 14 82 15 83 16 84
REMARK SMILES IDX 17 85 18 86 19 87 34 88 20 89 21 90 22 91 23 92 24 94 25 95
REMARK SMILES IDX 26 96 33 97 27 98 29 99 32 100 28 101 30 102 31 103
REMARK H PARENT 94 26 60 37 22 93
REMARK Flexibility Score: inf
ROOT
ATOM      1  C   UNL     1       7.674  -2.310   3.610  1.00  0.00     0.188 C 
ENDROOT
BRANCH   1   2
ATOM      2  C   UNL     1       8.735  -1.884   2.600  1.00  0.00     0.188 C 
BRANCH   2   3
ATOM      3  O   UNL     1       9.390  -0.702   3.021  1.00  0.00    -0.376 OA
BRANCH   3   4
ATOM      4  C   UNL     1       9.533   0.363   2.091  1.00  0.00     0.202 C 
BRANCH   4   5
ATOM      5  C   UNL     1      10.514   0.080   0.966  1.00  0.00     0.261 C 
BRANCH   5   6
ATOM      6  O   UNL     1      11.785  -0.475   1.350  1.00  0.00    -0.460 OA
BRANCH   6   7
ATOM      7  C   UNL     1      11.858  -1.569   2.148  1.00  0.00     0.338 C 
ATOM      8  O   UNL     1      11.686  -2.727   1.807  1.00  0.00    -0.246 OA
BRANCH   7   9
ATOM      9  C   UNL     1      12.523  -1.145   3.396  1.00  0.00     0.060 A 
ATOM     10  C   UNL     1      11.981  -0.126   4.183  1.00  0.00     0.016 A 
ATOM     11  C   UNL     1      13.753  -1.702   3.733  1.00  0.00     0.016 A 
ATOM     12  C   UNL     1      12.682   0.427   5.221  1.00  0.00     0.010 A 
ATOM     13  C   UNL     1      14.461  -1.171   4.810  1.00  0.00     0.010 A 
ATOM     14  C   UNL     1      13.938  -0.077   5.520  1.00  0.00    -0.014 A 
BRANCH  14  15
ATOM     15  C   UNL     1      14.748   0.727   6.439  1.00  0.00     0.031 A 
ATOM     16  C   UNL     1      15.838   1.557   5.839  1.00  0.00     0.074 A 
ATOM     17  C   UNL     1      14.374   0.836   7.725  1.00  0.00     0.049 A 
ATOM     18  N   UNL     1      16.760   2.256   6.434  1.00  0.00    -0.248 NA
ATOM     19  C   UNL     1      15.891   1.620   4.364  1.00  0.00     0.031 C 
ATOM     20  C   UNL     1      13.191   0.204   8.322  1.00  0.00     0.029 A 
ATOM     21  N   UNL     1      14.931   1.537   8.756  1.00  0.00    -0.354 N 
ATOM     22  C   UNL     1      17.537   2.787   5.413  1.00  0.00     0.074 A 
ATOM     23  C   UNL     1      16.973   2.354   4.159  1.00  0.00     0.031 C 
ATOM     24  C   UNL     1      13.117   0.545   9.617  1.00  0.00     0.029 A 
ATOM     25  C   UNL     1      14.293   1.335   9.956  1.00  0.00     0.049 A 
ATOM     26  H   UNL     1      15.711   2.128   8.650  1.00  0.00     0.167 HD
ATOM     27  C   UNL     1      18.641   3.553   5.540  1.00  0.00     0.037 A 
ATOM     28  C   UNL     1      14.675   1.695  11.194  1.00  0.00     0.037 A 
ATOM     29  C   UNL     1      19.143   3.971   6.819  1.00  0.00     0.049 A 
ATOM     30  C   UNL     1      15.973   2.451  11.316  1.00  0.00     0.074 A 
ATOM     31  C   UNL     1      20.279   4.700   7.107  1.00  0.00     0.029 A 
ATOM     32  N   UNL     1      18.520   3.690   8.030  1.00  0.00    -0.354 N 
ATOM     33  N   UNL     1      16.768   2.878  10.360  1.00  0.00    -0.248 NA
ATOM     34  C   UNL     1      16.440   2.754  12.671  1.00  0.00     0.031 C 
ATOM     35  C   UNL     1      20.373   4.809   8.498  1.00  0.00     0.029 A 
ATOM     36  C   UNL     1      19.262   4.206   9.073  1.00  0.00     0.049 A 
ATOM     37  H   UNL     1      17.675   3.195   8.129  1.00  0.00     0.167 HD
ATOM     38  C   UNL     1      17.821   3.519  10.999  1.00  0.00     0.074 A 
ATOM     39  C   UNL     1      17.545   3.442  12.421  1.00  0.00     0.031 C 
ATOM     40  C   UNL     1      18.922   4.112  10.471  1.00  0.00     0.037 A 
BRANCH  27  41
ATOM     41  C   UNL     1      19.405   3.892   4.295  1.00  0.00     0.058 A 
ATOM     42  C   UNL     1      18.944   4.825   3.356  1.00  0.00     0.135 A 
ATOM     43  C   UNL     1      20.638   3.266   4.047  1.00  0.00     0.135 A 
ATOM     44  F   UNL     1      17.751   5.418   3.520  1.00  0.00    -0.206 F 
ATOM     45  C   UNL     1      19.680   5.130   2.214  1.00  0.00     0.059 A 
ATOM     46  C   UNL     1      21.402   3.572   2.925  1.00  0.00     0.059 A 
ATOM     47  F   UNL     1      21.110   2.342   4.899  1.00  0.00    -0.206 F 
ATOM     48  C   UNL     1      20.913   4.504   2.013  1.00  0.00     0.060 A 
BRANCH  48  49
ATOM     49  S   UNL     1      21.880   4.948   0.555  1.00  0.00     0.124 S 
ATOM     50  O   UNL     1      21.088   4.349  -0.516  1.00  0.00    -0.237 OA
ATOM     51  O   UNL     1      21.870   6.406   0.610  1.00  0.00    -0.237 OA
ATOM     52  O   UNL     1      23.175   4.322   0.801  1.00  0.00    -0.744 OA
ENDBRANCH  48  49
ENDBRANCH  27  41
BRANCH  28  53
ATOM     53  C   UNL     1      13.901   1.264  12.391  1.00  0.00     0.058 A 
ATOM     54  C   UNL     1      13.326   2.197  13.266  1.00  0.00     0.135 A 
ATOM     55  C   UNL     1      13.753  -0.098  12.708  1.00  0.00     0.135 A 
ATOM     56  F   UNL     1      13.436   3.510  13.014  1.00  0.00    -0.206 F 
ATOM     57  C   UNL     1      12.671   1.800  14.429  1.00  0.00     0.059 A 
ATOM     58  C   UNL     1      13.071  -0.520  13.845  1.00  0.00     0.059 A 
ATOM     59  F   UNL     1      14.269  -1.039  11.903  1.00  0.00    -0.206 F 
ATOM     60  C   UNL     1      12.554   0.438  14.713  1.00  0.00     0.060 A 
BRANCH  60  61
ATOM     61  S   UNL     1      11.717  -0.066  16.231  1.00  0.00     0.124 S 
ATOM     62  O   UNL     1      12.692   0.320  17.244  1.00  0.00    -0.237 OA
ATOM     63  O   UNL     1      10.494   0.728  16.184  1.00  0.00    -0.237 OA
ATOM     64  O   UNL     1      11.530  -1.503  16.050  1.00  0.00    -0.744 OA
ENDBRANCH  60  61
ENDBRANCH  28  53
BRANCH  40  65
ATOM     65  C   UNL     1      19.871   4.753  11.438  1.00  0.00     0.058 A 
ATOM     66  C   UNL     1      20.710   3.989  12.261  1.00  0.00     0.135 A 
ATOM     67  C   UNL     1      19.988   6.151  11.482  1.00  0.00     0.135 A 
ATOM     68  F   UNL     1      20.626   2.649  12.256  1.00  0.00    -0.206 F 
ATOM     69  C   UNL     1      21.621   4.592  13.117  1.00  0.00     0.059 A 
ATOM     70  C   UNL     1      20.917   6.774  12.304  1.00  0.00     0.059 A 
ATOM     71  F   UNL     1      19.214   6.921  10.700  1.00  0.00    -0.206 F 
ATOM     72  C   UNL     1      21.721   5.985  13.125  1.00  0.00     0.060 A 
BRANCH  72  73
ATOM     73  S   UNL     1      22.942   6.753  14.207  1.00  0.00     0.124 S 
ATOM     74  O   UNL     1      22.331   6.566  15.518  1.00  0.00    -0.237 OA
ATOM     75  O   UNL     1      24.136   5.957  13.942  1.00  0.00    -0.237 OA
ATOM     76  O   UNL     1      22.998   8.132  13.731  1.00  0.00    -0.744 OA
ENDBRANCH  72  73
ENDBRANCH  40  65
ENDBRANCH  14  15
ENDBRANCH   7   9
ENDBRANCH   6   7
ENDBRANCH   5   6
ENDBRANCH   4   5
ENDBRANCH   3   4
ENDBRANCH   2   3
ENDBRANCH   1   2
BRANCH   1  77
ATOM     77  O   UNL     1       6.651  -1.346   3.852  1.00  0.00    -0.377 OA
BRANCH  77  78
ATOM     78  C   UNL     1       7.083  -0.046   4.258  1.00  0.00     0.188 C 
BRANCH  78  79
ATOM     79  C   UNL     1       8.073   0.085   5.431  1.00  0.00     0.188 C 
BRANCH  79  80
ATOM     80  O   UNL     1       8.303  -1.126   6.127  1.00  0.00    -0.376 OA
BRANCH  80  81
ATOM     81  C   UNL     1       7.436  -1.452   7.200  1.00  0.00     0.202 C 
BRANCH  81  82
ATOM     82  C   UNL     1       6.020  -2.012   6.919  1.00  0.00     0.261 C 
BRANCH  82  83
ATOM     83  O   UNL     1       4.894  -1.240   6.401  1.00  0.00    -0.463 OA
BRANCH  83  84
ATOM     84  C   UNL     1       4.894   0.110   6.379  1.00  0.00     0.312 C 
ATOM     85  O   UNL     1       5.840   0.774   6.742  1.00  0.00    -0.252 OA
BRANCH  84  86
ATOM     86  C   UNL     1       3.625   0.729   5.774  1.00  0.00     0.124 C 
ATOM     87  C   UNL     1       3.981   1.753   4.724  1.00  0.00    -0.014 C 
ATOM     88  C   UNL     1       2.838   1.604   6.770  1.00  0.00     0.048 C 
ATOM     89  C   UNL     1       3.849   3.012   5.166  1.00  0.00    -0.006 C 
ATOM     90  C   UNL     1       3.272   3.076   6.546  1.00  0.00     0.107 C 
BRANCH  90  91
ATOM     91  N   UNL     1       4.258   3.578   7.479  1.00  0.00    -0.332 N 
ATOM     92  C   UNL     1       3.908   3.765   8.802  1.00  0.00     0.318 C 
ATOM     93  H   UNL     1       5.170   3.784   7.174  1.00  0.00     0.165 HD
ATOM     94  O   UNL     1       3.066   4.598   9.124  1.00  0.00    -0.249 OA
BRANCH  92  95
ATOM     95  N   UNL     1       4.526   2.896   9.696  1.00  0.00    -0.317 N 
ATOM     96  C   UNL     1       3.936   2.692  11.009  1.00  0.00     0.150 C 
ATOM     97  C   UNL     1       5.534   1.960   9.248  1.00  0.00     0.116 C 
ATOM     98  C   UNL     1       4.572   1.575  11.843  1.00  0.00     0.182 C 
ATOM     99  C   UNL     1       5.806   0.679  10.045  1.00  0.00     0.141 C 
ATOM    100  C   UNL     1       6.888   2.621   8.983  1.00  0.00     0.028 C 
ATOM    101  O   UNL     1       4.862   0.410  11.072  1.00  0.00    -0.374 OA
ATOM    102  C   UNL     1       7.263   0.773  10.492  1.00  0.00     0.034 C 
ATOM    103  C   UNL     1       7.944   1.621   9.424  1.00  0.00     0.005 C 
ENDBRANCH  92  95
ENDBRANCH  90  91
ENDBRANCH  84  86
ENDBRANCH  83  84
ENDBRANCH  82  83
ENDBRANCH  81  82
ENDBRANCH  80  81
ENDBRANCH  79  80
ENDBRANCH  78  79
ENDBRANCH  77  78
ENDBRANCH   1  77
TORSDOF 25
