REMARK SMILES C=CC[N@@H+](CC(=O)OCCOCCOCCOCCOC(=O)c1ccc(-c2c3nc(c(-c4c(F)cc(S(=O)(=O)[O-])cc4F)c4ccc([nH]4)c(-c4c(F)cc(S(=O)(=O)[O-])cc4F)c4nc(c(-c5c(F)cc(S(=O)(=O)[O-])cc5F)c5ccc2[nH]5)C=C4)C=C3)cc1)Cc1ccc(C(F)(F)F)cc1
REMARK SMILES IDX 13 1 12 2 11 3 10 4 9 5 8 6 6 7 7 8 5 9 4 10 3 12 2 13 1 14
REMARK SMILES IDX 89 15 90 16 91 17 99 18 92 19 98 20 93 21 94 22 95 23 96 24
REMARK SMILES IDX 97 25 14 26 15 27 16 28 17 29 18 30 19 31 20 32 21 33 22 34
REMARK SMILES IDX 23 35 24 36 88 37 25 38 87 39 26 40 27 41 28 42 81 43 29 44
REMARK SMILES IDX 86 45 80 46 82 47 30 48 85 49 79 50 78 51 31 53 65 54 44 55
REMARK SMILES IDX 64 56 45 57 48 58 63 59 83 60 46 61 47 62 62 64 84 65 49 66
REMARK SMILES IDX 32 67 33 68 42 69 34 70 35 71 41 72 43 73 36 74 37 75 38 76
REMARK SMILES IDX 39 77 40 78 66 79 67 80 76 81 68 82 69 83 75 84 77 85 70 86
REMARK SMILES IDX 71 87 72 88 73 89 74 90 50 91 51 92 60 93 52 94 53 95 59 96
REMARK SMILES IDX 61 97 54 98 55 99 56 100 57 101 58 102
REMARK H PARENT 4 11 82 52 48 63
REMARK Flexibility Score: inf
ROOT
ATOM      1  C   UNL     1      -2.136  -3.080  -1.313  1.00  0.00     0.188 C 
ENDROOT
BRANCH   1   2
ATOM      2  C   UNL     1      -4.124  -2.424  -0.696  1.00  0.00     0.188 C 
BRANCH   2   3
ATOM      3  O   UNL     1      -5.348  -1.960  -1.486  1.00  0.00    -0.376 OA
BRANCH   3   4
ATOM      4  C   UNL     1      -5.655  -0.574  -1.649  1.00  0.00     0.202 C 
BRANCH   4   5
ATOM      5  C   UNL     1      -5.382   0.590  -0.650  1.00  0.00     0.261 C 
BRANCH   5   6
ATOM      6  O   UNL     1      -4.352   0.517   0.355  1.00  0.00    -0.459 OA
BRANCH   6   7
ATOM      7  C   UNL     1      -4.716   0.006   1.561  1.00  0.00     0.361 C 
ATOM      8  O   UNL     1      -5.862  -0.366   1.813  1.00  0.00    -0.245 OA
BRANCH   7   9
ATOM      9  C   UNL     1      -3.618   0.001   2.634  1.00  0.00     0.387 C 
BRANCH   9  10
ATOM     10  N   UNL     1      -2.234  -0.395   2.305  1.00  0.00    -0.319 N 
ATOM     11  H   UNL     1      -1.812  -0.519   3.225  1.00  0.00     0.349 HD
BRANCH  10  12
ATOM     12  C   UNL     1      -1.359   0.670   1.836  1.00  0.00     0.291 C 
BRANCH  12  13
ATOM     13  C   UNL     1       0.085   0.282   1.641  1.00  0.00     0.025 C 
ATOM     14  C   UNL     1       0.718   0.231   0.460  1.00  0.00     0.010 C 
ENDBRANCH  12  13
ENDBRANCH  10  12
BRANCH  10  15
ATOM     15  C   UNL     1      -1.969  -1.787   1.961  1.00  0.00     0.299 C 
BRANCH  15  16
ATOM     16  C   UNL     1      -2.468  -2.246   0.620  1.00  0.00     0.006 A 
ATOM     17  C   UNL     1      -2.507  -1.085  -0.759  1.00  0.00     0.010 A 
ATOM     18  C   UNL     1      -3.081  -3.936   0.387  1.00  0.00     0.010 A 
ATOM     19  C   UNL     1      -3.162  -1.587  -2.354  1.00  0.00     0.013 A 
ATOM     20  C   UNL     1      -3.743  -4.447  -1.222  1.00  0.00     0.013 A 
ATOM     21  C   UNL     1      -3.773  -3.269  -2.599  1.00  0.00     0.056 A 
BRANCH  21  22
ATOM     22  C   UNL     1      -4.194  -3.656  -3.986  1.00  0.00     0.416 C 
ATOM     23  F   UNL     1      -5.531  -3.572  -4.199  1.00  0.00    -0.166 F 
ATOM     24  F   UNL     1      -3.610  -2.864  -4.932  1.00  0.00    -0.166 F 
ATOM     25  F   UNL     1      -3.832  -4.929  -4.304  1.00  0.00    -0.166 F 
ENDBRANCH  21  22
ENDBRANCH  15  16
ENDBRANCH  10  15
ENDBRANCH   9  10
ENDBRANCH   7   9
ENDBRANCH   6   7
ENDBRANCH   5   6
ENDBRANCH   4   5
ENDBRANCH   3   4
ENDBRANCH   2   3
ENDBRANCH   1   2
BRANCH   1  26
ATOM     26  O   UNL     1      -0.960  -2.312  -1.906  1.00  0.00    -0.377 OA
BRANCH  26  27
ATOM     27  C   UNL     1      -0.646  -2.518  -3.272  1.00  0.00     0.188 C 
BRANCH  27  28
ATOM     28  C   UNL     1      -0.484  -3.930  -3.871  1.00  0.00     0.188 C 
BRANCH  28  29
ATOM     29  O   UNL     1      -0.284  -5.106  -3.108  1.00  0.00    -0.376 OA
BRANCH  29  30
ATOM     30  C   UNL     1       0.501  -5.128  -1.934  1.00  0.00     0.202 C 
BRANCH  30  31
ATOM     31  C   UNL     1       1.938  -4.611  -1.916  1.00  0.00     0.261 C 
BRANCH  31  32
ATOM     32  O   UNL     1       2.131  -3.334  -2.517  1.00  0.00    -0.460 OA
BRANCH  32  33
ATOM     33  C   UNL     1       2.611  -3.351  -3.785  1.00  0.00     0.338 C 
ATOM     34  O   UNL     1       2.878  -4.320  -4.469  1.00  0.00    -0.246 OA
BRANCH  33  35
ATOM     35  C   UNL     1       2.574  -1.961  -4.270  1.00  0.00     0.060 A 
ATOM     36  C   UNL     1       1.727  -1.625  -5.343  1.00  0.00     0.016 A 
ATOM     37  C   UNL     1       3.309  -0.985  -3.599  1.00  0.00     0.016 A 
ATOM     38  C   UNL     1       1.601  -0.299  -5.740  1.00  0.00     0.010 A 
ATOM     39  C   UNL     1       3.253   0.325  -4.053  1.00  0.00     0.010 A 
ATOM     40  C   UNL     1       2.436   0.656  -5.151  1.00  0.00    -0.014 A 
BRANCH  40  41
ATOM     41  C   UNL     1       2.812   1.851  -5.928  1.00  0.00     0.031 A 
ATOM     42  C   UNL     1       3.945   1.659  -6.899  1.00  0.00     0.074 A 
ATOM     43  C   UNL     1       2.251   3.050  -5.714  1.00  0.00     0.049 A 
ATOM     44  N   UNL     1       4.661   2.550  -7.525  1.00  0.00    -0.248 NA
ATOM     45  C   UNL     1       4.345   0.265  -7.176  1.00  0.00     0.031 C 
ATOM     46  C   UNL     1       1.111   3.316  -4.840  1.00  0.00     0.029 A 
ATOM     47  N   UNL     1       2.603   4.282  -6.199  1.00  0.00    -0.354 N 
ATOM     48  C   UNL     1       5.596   1.823  -8.254  1.00  0.00     0.074 A 
ATOM     49  C   UNL     1       5.383   0.426  -7.975  1.00  0.00     0.031 C 
ATOM     50  C   UNL     1       0.879   4.643  -4.823  1.00  0.00     0.029 A 
ATOM     51  C   UNL     1       1.888   5.314  -5.641  1.00  0.00     0.049 A 
ATOM     52  H   UNL     1       3.301   4.415  -6.881  1.00  0.00     0.167 HD
ATOM     53  C   UNL     1       6.553   2.286  -9.085  1.00  0.00     0.037 A 
ATOM     54  C   UNL     1       2.073   6.645  -5.755  1.00  0.00     0.037 A 
ATOM     55  C   UNL     1       6.773   3.683  -9.317  1.00  0.00     0.049 A 
ATOM     56  C   UNL     1       3.217   7.144  -6.609  1.00  0.00     0.074 A 
ATOM     57  C   UNL     1       7.726   4.282 -10.114  1.00  0.00     0.029 A 
ATOM     58  N   UNL     1       6.025   4.698  -8.739  1.00  0.00    -0.354 N 
ATOM     59  N   UNL     1       4.103   6.455  -7.293  1.00  0.00    -0.248 NA
ATOM     60  C   UNL     1       3.393   8.600  -6.703  1.00  0.00     0.031 C 
ATOM     61  C   UNL     1       7.589   5.666  -9.977  1.00  0.00     0.029 A 
ATOM     62  C   UNL     1       6.502   5.925  -9.155  1.00  0.00     0.049 A 
ATOM     63  H   UNL     1       5.268   4.564  -8.123  1.00  0.00     0.167 HD
ATOM     64  C   UNL     1       4.899   7.394  -7.944  1.00  0.00     0.074 A 
ATOM     65  C   UNL     1       4.398   8.698  -7.562  1.00  0.00     0.031 C 
ATOM     66  C   UNL     1       5.944   7.202  -8.787  1.00  0.00     0.037 A 
BRANCH  53  67
ATOM     67  C   UNL     1       7.434   1.276  -9.761  1.00  0.00     0.058 A 
ATOM     68  C   UNL     1       6.937   0.409 -10.748  1.00  0.00     0.135 A 
ATOM     69  C   UNL     1       8.794   1.180  -9.428  1.00  0.00     0.135 A 
ATOM     70  F   UNL     1       5.635   0.431 -11.075  1.00  0.00    -0.206 F 
ATOM     71  C   UNL     1       7.755  -0.524 -11.374  1.00  0.00     0.059 A 
ATOM     72  C   UNL     1       9.639   0.277 -10.065  1.00  0.00     0.059 A 
ATOM     73  F   UNL     1       9.315   1.968  -8.474  1.00  0.00    -0.206 F 
ATOM     74  C   UNL     1       9.108  -0.575 -11.033  1.00  0.00     0.060 A 
BRANCH  74  75
ATOM     75  S   UNL     1      10.162  -1.762 -11.888  1.00  0.00     0.124 S 
ATOM     76  O   UNL     1       9.671  -3.029 -11.355  1.00  0.00    -0.237 OA
ATOM     77  O   UNL     1       9.848  -1.499 -13.289  1.00  0.00    -0.237 OA
ATOM     78  O   UNL     1      11.509  -1.386 -11.469  1.00  0.00    -0.744 OA
ENDBRANCH  74  75
ENDBRANCH  53  67
BRANCH  54  79
ATOM     79  C   UNL     1       1.179   7.602  -5.046  1.00  0.00     0.058 A 
ATOM     80  C   UNL     1       0.343   8.470  -5.764  1.00  0.00     0.135 A 
ATOM     81  C   UNL     1       1.163   7.697  -3.645  1.00  0.00     0.135 A 
ATOM     82  F   UNL     1       0.326   8.426  -7.105  1.00  0.00    -0.206 F 
ATOM     83  C   UNL     1      -0.449   9.419  -5.126  1.00  0.00     0.059 A 
ATOM     84  C   UNL     1       0.355   8.616  -2.982  1.00  0.00     0.059 A 
ATOM     85  F   UNL     1       1.933   6.884  -2.905  1.00  0.00    -0.206 F 
ATOM     86  C   UNL     1      -0.436   9.484  -3.732  1.00  0.00     0.060 A 
BRANCH  86  87
ATOM     87  S   UNL     1      -1.482  10.709  -2.917  1.00  0.00     0.124 S 
ATOM     88  O   UNL     1      -0.808  11.953  -3.269  1.00  0.00    -0.237 OA
ATOM     89  O   UNL     1      -2.774  10.479  -3.555  1.00  0.00    -0.237 OA
ATOM     90  O   UNL     1      -1.410  10.329  -1.509  1.00  0.00    -0.744 OA
ENDBRANCH  86  87
ENDBRANCH  54  79
BRANCH  66  91
ATOM     91  C   UNL     1       6.558   8.411  -9.437  1.00  0.00     0.058 A 
ATOM     92  C   UNL     1       7.370   9.309  -8.731  1.00  0.00     0.135 A 
ATOM     93  C   UNL     1       6.415   8.600 -10.823  1.00  0.00     0.135 A 
ATOM     94  F   UNL     1       7.536   9.174  -7.406  1.00  0.00    -0.206 F 
ATOM     95  C   UNL     1       8.011  10.362  -9.375  1.00  0.00     0.059 A 
ATOM     96  C   UNL     1       7.074   9.623 -11.492  1.00  0.00     0.059 A 
ATOM     97  F   UNL     1       5.659   7.757 -11.546  1.00  0.00    -0.206 F 
ATOM     98  C   UNL     1       7.866  10.503 -10.758  1.00  0.00     0.060 A 
BRANCH  98  99
ATOM     99  S   UNL     1       8.762  11.831 -11.589  1.00  0.00     0.124 S 
ATOM    100  O   UNL     1       8.042  13.010 -11.121  1.00  0.00    -0.237 OA
ATOM    101  O   UNL     1      10.115  11.665 -11.066  1.00  0.00    -0.237 OA
ATOM    102  O   UNL     1       8.600  11.517 -13.005  1.00  0.00    -0.744 OA
ENDBRANCH  98  99
ENDBRANCH  66  91
ENDBRANCH  40  41
ENDBRANCH  33  35
ENDBRANCH  32  33
ENDBRANCH  31  32
ENDBRANCH  30  31
ENDBRANCH  29  30
ENDBRANCH  28  29
ENDBRANCH  27  28
ENDBRANCH  26  27
ENDBRANCH   1  26
TORSDOF 29
