REMARK SMILES Cc1nc2n(n1)[C@@H](c1ccc([N+](=O)[O-])o1)CC(C(=O)OCCOCCOCCOCCOC(=O)c1ccc(-c3c4nc(c(-c5c(F)cc(S(=O)(=O)[O-])cc5F)c5ccc([nH]5)c(-c5c(F)cc(S(=O)(=O)[O-])cc5F)c5nc(c(-c6c(F)cc(S(=O)(=O)[O-])cc6F)c6ccc3[nH]6)C=C5)C=C4)cc1)=N2
REMARK SMILES IDX 27 1 26 2 25 3 24 4 23 5 22 6 21 7 20 8 18 9 19 10 17 11
REMARK SMILES IDX 1 12 2 13 3 14 6 15 4 16 5 17 101 18 7 19 16 20 8 21 9 22
REMARK SMILES IDX 15 23 10 24 11 25 12 26 13 27 14 28 28 29 29 30 30 31 31 32
REMARK SMILES IDX 32 33 33 34 34 35 35 36 36 37 100 38 37 39 99 40 38 41 39 42
REMARK SMILES IDX 40 43 93 44 41 45 98 46 92 47 94 48 42 49 97 50 91 51 90 52
REMARK SMILES IDX 43 54 77 55 56 56 76 57 57 58 60 59 75 60 95 61 58 62 59 63
REMARK SMILES IDX 74 65 96 66 61 67 44 68 45 69 54 70 46 71 47 72 53 73 55 74
REMARK SMILES IDX 48 75 49 76 50 77 51 78 52 79 78 80 79 81 88 82 80 83 81 84
REMARK SMILES IDX 87 85 89 86 82 87 83 88 84 89 85 90 86 91 62 92 63 93 72 94
REMARK SMILES IDX 64 95 65 96 71 97 73 98 66 99 67 100 68 101 69 102 70 103
REMARK H PARENT 94 53 60 64
REMARK Flexibility Score: inf
ROOT
ATOM      1  C   UNL     1      -5.083   2.168   8.113  1.00  0.00     0.188 C 
ENDROOT
BRANCH   1   2
ATOM      2  O   UNL     1      -3.696   2.055   7.785  1.00  0.00    -0.377 OA
BRANCH   2   3
ATOM      3  C   UNL     1      -3.409   1.261   6.646  1.00  0.00     0.188 C 
BRANCH   3   4
ATOM      4  C   UNL     1      -2.916  -0.176   6.937  1.00  0.00     0.188 C 
BRANCH   4   5
ATOM      5  O   UNL     1      -2.787  -0.687   8.263  1.00  0.00    -0.376 OA
BRANCH   5   6
ATOM      6  C   UNL     1      -2.406   0.155   9.342  1.00  0.00     0.202 C 
BRANCH   6   7
ATOM      7  C   UNL     1      -1.064   0.889   9.250  1.00  0.00     0.261 C 
BRANCH   7   8
ATOM      8  O   UNL     1      -0.865   1.505   7.973  1.00  0.00    -0.459 OA
BRANCH   8   9
ATOM      9  C   UNL     1       0.296   1.231   7.358  1.00  0.00     0.352 C 
ATOM     10  O   UNL     1       1.295   0.713   7.814  1.00  0.00    -0.245 OA
BRANCH   9  11
ATOM     11  C   UNL     1       0.164   1.587   5.884  1.00  0.00     0.132 C 
ATOM     12  C   UNL     1       0.688   0.416   0.255  1.00  0.00     0.092 C 
ATOM     13  C   UNL     1       0.411   0.917   1.616  1.00  0.00     0.149 A 
ATOM     14  N   UNL     1       0.364   0.086   2.700  1.00  0.00    -0.195 NA
ATOM     15  N   UNL     1       0.263   2.217   1.898  1.00  0.00    -0.154 NA
ATOM     16  C   UNL     1       0.203   0.896   3.722  1.00  0.00     0.249 A 
ATOM     17  N   UNL     1       0.063   2.167   3.233  1.00  0.00    -0.219 N 
ATOM     18  N   UNL     1       0.247   0.609   5.038  1.00  0.00    -0.209 NA
ATOM     19  C   UNL     1      -0.077   3.355   4.053  1.00  0.00     0.184 C 
ATOM     20  C   UNL     1      -0.089   3.037   5.555  1.00  0.00     0.100 C 
BRANCH  19  21
ATOM     21  C   UNL     1      -1.272   4.176   3.636  1.00  0.00     0.136 A 
ATOM     22  C   UNL     1      -2.177   4.125   2.585  1.00  0.00     0.056 A 
ATOM     23  O   UNL     1      -1.539   5.279   4.408  1.00  0.00    -0.404 OA
ATOM     24  C   UNL     1      -3.033   5.249   2.711  1.00  0.00     0.134 A 
ATOM     25  C   UNL     1      -2.604   5.906   3.837  1.00  0.00     0.433 A 
BRANCH  25  26
ATOM     26  N   UNL     1      -3.050   7.111   4.464  1.00  0.00     0.102 N 
ATOM     27  O   UNL     1      -3.948   7.731   3.880  1.00  0.00    -0.256 OA
ATOM     28  O   UNL     1      -2.500   7.444   5.521  1.00  0.00    -0.256 OA
ENDBRANCH  25  26
ENDBRANCH  19  21
ENDBRANCH   9  11
ENDBRANCH   8   9
ENDBRANCH   7   8
ENDBRANCH   6   7
ENDBRANCH   5   6
ENDBRANCH   4   5
ENDBRANCH   3   4
ENDBRANCH   2   3
ENDBRANCH   1   2
BRANCH   1  29
ATOM     29  C   UNL     1      -5.854   0.839   8.205  1.00  0.00     0.188 C 
BRANCH  29  30
ATOM     30  O   UNL     1      -5.908   0.159   6.950  1.00  0.00    -0.376 OA
BRANCH  30  31
ATOM     31  C   UNL     1      -7.111   0.301   6.199  1.00  0.00     0.202 C 
BRANCH  31  32
ATOM     32  C   UNL     1      -7.371   1.717   5.662  1.00  0.00     0.261 C 
BRANCH  32  33
ATOM     33  O   UNL     1      -7.715   2.676   6.675  1.00  0.00    -0.460 OA
BRANCH  33  34
ATOM     34  C   UNL     1      -8.843   2.399   7.363  1.00  0.00     0.338 C 
ATOM     35  O   UNL     1      -9.583   1.446   7.221  1.00  0.00    -0.246 OA
BRANCH  34  36
ATOM     36  C   UNL     1      -9.009   3.404   8.409  1.00  0.00     0.060 A 
ATOM     37  C   UNL     1      -8.769   3.055   9.741  1.00  0.00     0.016 A 
ATOM     38  C   UNL     1      -9.585   4.622   8.063  1.00  0.00     0.016 A 
ATOM     39  C   UNL     1      -9.185   3.914  10.750  1.00  0.00     0.010 A 
ATOM     40  C   UNL     1     -10.030   5.460   9.075  1.00  0.00     0.010 A 
ATOM     41  C   UNL     1      -9.879   5.090  10.422  1.00  0.00    -0.014 A 
BRANCH  41  42
ATOM     42  C   UNL     1     -10.574   5.825  11.504  1.00  0.00     0.031 A 
ATOM     43  C   UNL     1     -10.651   7.308  11.359  1.00  0.00     0.074 A 
ATOM     44  C   UNL     1     -11.608   5.217  12.132  1.00  0.00     0.049 A 
ATOM     45  N   UNL     1     -11.463   7.869  10.513  1.00  0.00    -0.248 NA
ATOM     46  C   UNL     1      -9.671   8.228  11.934  1.00  0.00     0.031 C 
ATOM     47  C   UNL     1     -12.371   4.104  11.537  1.00  0.00     0.029 A 
ATOM     48  N   UNL     1     -12.338   5.566  13.243  1.00  0.00    -0.354 N 
ATOM     49  C   UNL     1     -11.056   9.176  10.354  1.00  0.00     0.074 A 
ATOM     50  C   UNL     1      -9.968   9.369  11.288  1.00  0.00     0.031 C 
ATOM     51  C   UNL     1     -13.546   3.986  12.183  1.00  0.00     0.029 A 
ATOM     52  C   UNL     1     -13.560   4.897  13.319  1.00  0.00     0.049 A 
ATOM     53  H   UNL     1     -12.031   6.219  13.914  1.00  0.00     0.167 HD
ATOM     54  C   UNL     1     -11.609  10.002   9.430  1.00  0.00     0.037 A 
ATOM     55  C   UNL     1     -14.698   5.390  13.877  1.00  0.00     0.037 A 
ATOM     56  C   UNL     1     -12.650   9.432   8.625  1.00  0.00     0.049 A 
ATOM     57  C   UNL     1     -15.059   6.475  12.894  1.00  0.00     0.074 A 
ATOM     58  C   UNL     1     -12.752   8.830   7.390  1.00  0.00     0.029 A 
ATOM     59  N   UNL     1     -13.918   9.364   9.154  1.00  0.00    -0.354 N 
ATOM     60  N   UNL     1     -15.658   6.301  11.744  1.00  0.00    -0.248 NA
ATOM     61  C   UNL     1     -14.409   7.778  13.047  1.00  0.00     0.031 C 
ATOM     62  C   UNL     1     -13.947   8.046   7.442  1.00  0.00     0.029 A 
ATOM     63  C   UNL     1     -14.466   8.179   8.729  1.00  0.00     0.049 A 
ATOM     64  H   UNL     1     -14.350  10.038   9.728  1.00  0.00     0.167 HD
ATOM     65  C   UNL     1     -15.220   7.351  10.934  1.00  0.00     0.074 A 
ATOM     66  C   UNL     1     -14.492   8.246  11.809  1.00  0.00     0.031 C 
ATOM     67  C   UNL     1     -15.298   7.345   9.571  1.00  0.00     0.037 A 
BRANCH  54  68
ATOM     68  C   UNL     1     -11.281  11.429   9.275  1.00  0.00     0.058 A 
ATOM     69  C   UNL     1     -12.174  12.370   9.806  1.00  0.00     0.135 A 
ATOM     70  C   UNL     1     -10.255  11.877   8.438  1.00  0.00     0.135 A 
ATOM     71  F   UNL     1     -13.177  11.967  10.604  1.00  0.00    -0.206 F 
ATOM     72  C   UNL     1     -12.090  13.713   9.474  1.00  0.00     0.059 A 
ATOM     73  C   UNL     1     -10.147  13.223   8.094  1.00  0.00     0.059 A 
ATOM     74  F   UNL     1      -9.386  11.005   7.904  1.00  0.00    -0.206 F 
ATOM     75  C   UNL     1     -11.089  14.125   8.595  1.00  0.00     0.060 A 
BRANCH  75  76
ATOM     76  S   UNL     1     -11.079  15.855   8.081  1.00  0.00     0.124 S 
ATOM     77  O   UNL     1     -12.314  15.944   7.311  1.00  0.00    -0.237 OA
ATOM     78  O   UNL     1     -11.078  16.552   9.364  1.00  0.00    -0.237 OA
ATOM     79  O   UNL     1      -9.846  15.973   7.308  1.00  0.00    -0.744 OA
ENDBRANCH  75  76
ENDBRANCH  54  68
BRANCH  55  80
ATOM     80  C   UNL     1     -14.617   5.567  15.361  1.00  0.00     0.058 A 
ATOM     81  C   UNL     1     -14.188   4.463  16.134  1.00  0.00     0.135 A 
ATOM     82  C   UNL     1     -14.904   6.740  16.072  1.00  0.00     0.135 A 
ATOM     83  F   UNL     1     -14.015   3.261  15.560  1.00  0.00    -0.206 F 
ATOM     84  C   UNL     1     -13.904   4.564  17.491  1.00  0.00     0.059 A 
ATOM     85  C   UNL     1     -14.605   6.875  17.429  1.00  0.00     0.059 A 
ATOM     86  F   UNL     1     -15.461   7.798  15.470  1.00  0.00    -0.206 F 
ATOM     87  C   UNL     1     -14.072   5.791  18.122  1.00  0.00     0.060 A 
BRANCH  87  88
ATOM     88  S   UNL     1     -13.520   5.962  19.830  1.00  0.00     0.124 S 
ATOM     89  O   UNL     1     -14.485   5.133  20.543  1.00  0.00    -0.237 OA
ATOM     90  O   UNL     1     -12.159   5.438  19.760  1.00  0.00    -0.237 OA
ATOM     91  O   UNL     1     -13.618   7.398  20.074  1.00  0.00    -0.744 OA
ENDBRANCH  87  88
ENDBRANCH  55  80
BRANCH  67  92
ATOM     92  C   UNL     1     -16.097   6.244   8.956  1.00  0.00     0.058 A 
ATOM     93  C   UNL     1     -17.497   6.281   8.998  1.00  0.00     0.135 A 
ATOM     94  C   UNL     1     -15.490   5.198   8.240  1.00  0.00     0.135 A 
ATOM     95  F   UNL     1     -18.129   7.264   9.660  1.00  0.00    -0.206 F 
ATOM     96  C   UNL     1     -18.269   5.343   8.318  1.00  0.00     0.059 A 
ATOM     97  C   UNL     1     -16.242   4.263   7.535  1.00  0.00     0.059 A 
ATOM     98  F   UNL     1     -14.152   5.100   8.175  1.00  0.00    -0.206 F 
ATOM     99  C   UNL     1     -17.633   4.349   7.572  1.00  0.00     0.060 A 
BRANCH  99 100
ATOM    100  S   UNL     1     -18.644   3.236   6.573  1.00  0.00     0.124 S 
ATOM    101  O   UNL     1     -19.213   2.351   7.583  1.00  0.00    -0.237 OA
ATOM    102  O   UNL     1     -19.583   4.153   5.933  1.00  0.00    -0.237 OA
ATOM    103  O   UNL     1     -17.678   2.616   5.668  1.00  0.00    -0.744 OA
ENDBRANCH  99 100
ENDBRANCH  67  92
ENDBRANCH  41  42
ENDBRANCH  34  36
ENDBRANCH  33  34
ENDBRANCH  32  33
ENDBRANCH  31  32
ENDBRANCH  30  31
ENDBRANCH  29  30
ENDBRANCH   1  29
TORSDOF 25
