REMARK SMILES O=C(OCCOCCOCCOCCOC(=O)c1ccc(-c2c3nc(c(-c4c(F)cc(S(=O)(=O)[O-])cc4F)c4ccc([nH]4)c(-c4c(F)cc(S(=O)(=O)[O-])cc4F)c4nc(c(-c5c(F)cc(S(=O)(=O)[O-])cc5F)c5ccc2[nH]5)C=C4)C=C3)cc1)C1=Cc2cc(Cl)cc(C#Cc3ccccc3)c2O[C@@H]1C(F)(F)F
REMARK SMILES IDX 10 1 9 2 8 3 7 4 6 5 5 6 4 7 3 8 2 9 1 10 84 11 85 12 102 13
REMARK SMILES IDX 86 14 101 15 87 16 100 17 88 18 91 19 89 20 90 21 103 22
REMARK SMILES IDX 104 23 105 24 106 25 92 26 93 27 94 28 95 29 99 30 96 31
REMARK SMILES IDX 98 32 97 33 11 34 12 35 13 36 14 37 15 38 16 39 17 40 18 41
REMARK SMILES IDX 19 42 83 43 20 44 82 45 21 46 22 47 23 48 76 49 24 50 81 51
REMARK SMILES IDX 75 52 77 53 25 54 80 55 74 56 73 57 26 59 60 60 39 61 59 62
REMARK SMILES IDX 40 63 43 64 58 65 78 66 41 67 42 68 57 70 79 71 44 72 27 73
REMARK SMILES IDX 28 74 37 75 29 76 30 77 36 78 38 79 31 80 32 81 33 82 34 83
REMARK SMILES IDX 35 84 61 85 62 86 71 87 63 88 64 89 70 90 72 91 65 92 66 93
REMARK SMILES IDX 67 94 68 95 69 96 45 97 46 98 55 99 47 100 48 101 54 102
REMARK SMILES IDX 56 103 49 104 50 105 51 106 52 107 53 108
REMARK H PARENT 77 58 43 69
REMARK Flexibility Score: inf
ROOT
ATOM      1  C   UNL     1       3.092  -4.097  -1.782  1.00  0.00     0.188 C 
ENDROOT
BRANCH   1   2
ATOM      2  O   UNL     1       1.769  -3.992  -2.307  1.00  0.00    -0.377 OA
BRANCH   2   3
ATOM      3  C   UNL     1       0.869  -3.120  -1.633  1.00  0.00     0.188 C 
BRANCH   3   4
ATOM      4  C   UNL     1       1.147  -1.627  -1.802  1.00  0.00     0.188 C 
BRANCH   4   5
ATOM      5  O   UNL     1       2.314  -1.160  -1.165  1.00  0.00    -0.376 OA
BRANCH   5   6
ATOM      6  C   UNL     1       2.547  -1.528   0.176  1.00  0.00     0.202 C 
BRANCH   6   7
ATOM      7  C   UNL     1       2.230  -0.509   1.270  1.00  0.00     0.261 C 
BRANCH   7   8
ATOM      8  O   UNL     1       1.930   0.812   0.781  1.00  0.00    -0.460 OA
BRANCH   8   9
ATOM      9  C   UNL     1       2.727   1.834   1.204  1.00  0.00     0.338 C 
ATOM     10  O   UNL     1       2.370   2.633   2.057  1.00  0.00    -0.246 OA
BRANCH   9  11
ATOM     11  C   UNL     1       3.977   2.006   0.397  1.00  0.00     0.087 C 
ATOM     12  C   UNL     1       5.109   2.240   1.088  1.00  0.00     0.027 C 
ATOM     13  C   UNL     1       4.067   1.137  -0.818  1.00  0.00     0.316 C 
ATOM     14  C   UNL     1       6.086   1.141   1.079  1.00  0.00     0.020 A 
ATOM     15  O   UNL     1       4.872  -0.056  -0.583  1.00  0.00    -0.474 OA
ATOM     16  C   UNL     1       7.317   1.218   1.718  1.00  0.00     0.032 A 
ATOM     17  C   UNL     1       5.677  -0.087   0.544  1.00  0.00     0.143 A 
ATOM     18  C   UNL     1       8.052   0.046   1.906  1.00  0.00     0.043 A 
ATOM     19  C   UNL     1       6.232  -1.293   1.035  1.00  0.00     0.069 A 
ATOM     20  Cl  UNL     1       9.661   0.144   2.503  1.00  0.00    -0.084 Cl
ATOM     21  C   UNL     1       7.477  -1.206   1.661  1.00  0.00     0.041 A 
BRANCH  13  22
ATOM     22  C   UNL     1       4.328   1.968  -2.084  1.00  0.00     0.430 C 
ATOM     23  F   UNL     1       4.001   1.294  -3.211  1.00  0.00    -0.167 F 
ATOM     24  F   UNL     1       3.540   3.083  -2.079  1.00  0.00    -0.167 F 
ATOM     25  F   UNL     1       5.601   2.394  -2.204  1.00  0.00    -0.167 F 
ENDBRANCH  13  22
BRANCH  19  26
ATOM     26  C   UNL     1       5.499  -2.563   1.170  1.00  0.00    -0.058 C 
ATOM     27  C   UNL     1       4.871  -3.568   1.406  1.00  0.00    -0.062 C 
BRANCH  27  28
ATOM     28  C   UNL     1       4.176  -4.838   1.642  1.00  0.00     0.025 A 
ATOM     29  C   UNL     1       2.866  -4.983   2.112  1.00  0.00     0.017 A 
ATOM     30  C   UNL     1       4.855  -6.009   1.340  1.00  0.00     0.017 A 
ATOM     31  C   UNL     1       2.287  -6.266   2.269  1.00  0.00     0.001 A 
ATOM     32  C   UNL     1       4.325  -7.284   1.579  1.00  0.00     0.001 A 
ATOM     33  C   UNL     1       3.024  -7.419   2.019  1.00  0.00     0.000 A 
ENDBRANCH  27  28
ENDBRANCH  19  26
ENDBRANCH   9  11
ENDBRANCH   8   9
ENDBRANCH   7   8
ENDBRANCH   6   7
ENDBRANCH   5   6
ENDBRANCH   4   5
ENDBRANCH   3   4
ENDBRANCH   2   3
ENDBRANCH   1   2
BRANCH   1  34
ATOM     34  C   UNL     1       4.132  -3.208  -2.488  1.00  0.00     0.188 C 
BRANCH  34  35
ATOM     35  O   UNL     1       3.606  -2.551  -3.632  1.00  0.00    -0.376 OA
BRANCH  35  36
ATOM     36  C   UNL     1       3.732  -3.245  -4.871  1.00  0.00     0.202 C 
BRANCH  36  37
ATOM     37  C   UNL     1       3.169  -4.678  -4.940  1.00  0.00     0.261 C 
BRANCH  37  38
ATOM     38  O   UNL     1       3.841  -5.657  -4.109  1.00  0.00    -0.460 OA
BRANCH  38  39
ATOM     39  C   UNL     1       5.180  -5.806  -4.237  1.00  0.00     0.338 C 
ATOM     40  O   UNL     1       5.871  -5.333  -5.123  1.00  0.00    -0.246 OA
BRANCH  39  41
ATOM     41  C   UNL     1       5.737  -6.460  -3.013  1.00  0.00     0.060 A 
ATOM     42  C   UNL     1       6.936  -5.973  -2.465  1.00  0.00     0.016 A 
ATOM     43  C   UNL     1       5.099  -7.528  -2.390  1.00  0.00     0.016 A 
ATOM     44  C   UNL     1       7.538  -6.589  -1.347  1.00  0.00     0.010 A 
ATOM     45  C   UNL     1       5.698  -8.133  -1.272  1.00  0.00     0.010 A 
ATOM     46  C   UNL     1       6.952  -7.710  -0.751  1.00  0.00    -0.014 A 
BRANCH  46  47
ATOM     47  C   UNL     1       7.635  -8.548   0.308  1.00  0.00     0.031 A 
ATOM     48  C   UNL     1       7.890 -10.005  -0.029  1.00  0.00     0.074 A 
ATOM     49  C   UNL     1       7.943  -8.136   1.565  1.00  0.00     0.049 A 
ATOM     50  N   UNL     1       8.323 -10.976   0.735  1.00  0.00    -0.248 NA
ATOM     51  C   UNL     1       7.606 -10.420  -1.415  1.00  0.00     0.031 C 
ATOM     52  C   UNL     1       7.840  -6.780   2.099  1.00  0.00     0.029 A 
ATOM     53  N   UNL     1       8.324  -8.868   2.676  1.00  0.00    -0.354 N 
ATOM     54  C   UNL     1       8.405 -12.090  -0.092  1.00  0.00     0.074 A 
ATOM     55  C   UNL     1       7.812 -11.724  -1.357  1.00  0.00     0.031 C 
ATOM     56  C   UNL     1       7.929  -6.809   3.442  1.00  0.00     0.029 A 
ATOM     57  C   UNL     1       8.246  -8.166   3.866  1.00  0.00     0.049 A 
ATOM     58  H   UNL     1       8.622  -9.804   2.625  1.00  0.00     0.167 HD
ATOM     59  C   UNL     1       9.016 -13.278   0.127  1.00  0.00     0.037 A 
ATOM     60  C   UNL     1       8.444  -8.546   5.147  1.00  0.00     0.037 A 
ATOM     61  C   UNL     1       9.637 -13.653   1.366  1.00  0.00     0.049 A 
ATOM     62  C   UNL     1       9.035  -9.907   5.418  1.00  0.00     0.074 A 
ATOM     63  C   UNL     1      10.357 -14.799   1.657  1.00  0.00     0.029 A 
ATOM     64  N   UNL     1       9.608 -12.894   2.524  1.00  0.00    -0.354 N 
ATOM     65  N   UNL     1       9.254 -10.891   4.580  1.00  0.00    -0.248 NA
ATOM     66  C   UNL     1       9.502 -10.171   6.787  1.00  0.00     0.031 C 
ATOM     67  C   UNL     1      10.723 -14.754   3.006  1.00  0.00     0.029 A 
ATOM     68  C   UNL     1      10.277 -13.556   3.540  1.00  0.00     0.049 A 
ATOM     69  H   UNL     1       9.176 -12.014   2.612  1.00  0.00     0.167 HD
ATOM     70  C   UNL     1       9.956 -11.853   5.301  1.00  0.00     0.074 A 
ATOM     71  C   UNL     1      10.114 -11.337   6.643  1.00  0.00     0.031 C 
ATOM     72  C   UNL     1      10.446 -13.044   4.876  1.00  0.00     0.037 A 
BRANCH  59  73
ATOM     73  C   UNL     1       9.115 -14.216  -1.045  1.00  0.00     0.058 A 
ATOM     74  C   UNL     1       9.895 -13.885  -2.169  1.00  0.00     0.135 A 
ATOM     75  C   UNL     1       8.452 -15.451  -1.050  1.00  0.00     0.135 A 
ATOM     76  F   UNL     1      10.539 -12.707  -2.224  1.00  0.00    -0.206 F 
ATOM     77  C   UNL     1       9.979 -14.724  -3.271  1.00  0.00     0.059 A 
ATOM     78  C   UNL     1       8.553 -16.325  -2.129  1.00  0.00     0.059 A 
ATOM     79  F   UNL     1       7.694 -15.817  -0.005  1.00  0.00    -0.206 F 
ATOM     80  C   UNL     1       9.306 -15.945  -3.240  1.00  0.00     0.060 A 
BRANCH  80  81
ATOM     81  S   UNL     1       9.447 -17.029  -4.675  1.00  0.00     0.124 S 
ATOM     82  O   UNL     1       8.659 -16.303  -5.667  1.00  0.00    -0.237 OA
ATOM     83  O   UNL     1      10.888 -17.052  -4.905  1.00  0.00    -0.237 OA
ATOM     84  O   UNL     1       8.867 -18.285  -4.210  1.00  0.00    -0.744 OA
ENDBRANCH  80  81
ENDBRANCH  59  73
BRANCH  60  85
ATOM     85  C   UNL     1       8.212  -7.603   6.284  1.00  0.00     0.058 A 
ATOM     86  C   UNL     1       9.285  -6.993   6.953  1.00  0.00     0.135 A 
ATOM     87  C   UNL     1       6.919  -7.346   6.770  1.00  0.00     0.135 A 
ATOM     88  F   UNL     1      10.542  -7.219   6.541  1.00  0.00    -0.206 F 
ATOM     89  C   UNL     1       9.093  -6.195   8.078  1.00  0.00     0.059 A 
ATOM     90  C   UNL     1       6.699  -6.532   7.883  1.00  0.00     0.059 A 
ATOM     91  F   UNL     1       5.854  -7.900   6.171  1.00  0.00    -0.206 F 
ATOM     92  C   UNL     1       7.795  -5.971   8.538  1.00  0.00     0.060 A 
BRANCH  92  93
ATOM     93  S   UNL     1       7.567  -4.914   9.988  1.00  0.00     0.124 S 
ATOM     94  O   UNL     1       8.128  -5.740  11.051  1.00  0.00    -0.237 OA
ATOM     95  O   UNL     1       8.341  -3.731   9.624  1.00  0.00    -0.237 OA
ATOM     96  O   UNL     1       6.121  -4.717  10.038  1.00  0.00    -0.744 OA
ENDBRANCH  92  93
ENDBRANCH  60  85
BRANCH  72  97
ATOM     97  C   UNL     1      11.252 -13.857   5.853  1.00  0.00     0.058 A 
ATOM     98  C   UNL     1      10.670 -14.456   6.981  1.00  0.00     0.135 A 
ATOM     99  C   UNL     1      12.627 -14.059   5.642  1.00  0.00     0.135 A 
ATOM    100  F   UNL     1       9.361 -14.295   7.232  1.00  0.00    -0.206 F 
ATOM    101  C   UNL     1      11.430 -15.186   7.890  1.00  0.00     0.059 A 
ATOM    102  C   UNL     1      13.398 -14.817   6.517  1.00  0.00     0.059 A 
ATOM    103  F   UNL     1      13.235 -13.523   4.572  1.00  0.00    -0.206 F 
ATOM    104  C   UNL     1      12.794 -15.359   7.650  1.00  0.00     0.060 A 
BRANCH 104 105
ATOM    105  S   UNL     1      13.765 -16.313   8.835  1.00  0.00     0.124 S 
ATOM    106  O   UNL     1      13.846 -15.388   9.960  1.00  0.00    -0.237 OA
ATOM    107  O   UNL     1      12.931 -17.493   9.043  1.00  0.00    -0.237 OA
ATOM    108  O   UNL     1      15.020 -16.556   8.129  1.00  0.00    -0.744 OA
ENDBRANCH 104 105
ENDBRANCH  72  97
ENDBRANCH  46  47
ENDBRANCH  39  41
ENDBRANCH  38  39
ENDBRANCH  37  38
ENDBRANCH  36  37
ENDBRANCH  35  36
ENDBRANCH  34  35
ENDBRANCH   1  34
TORSDOF 26
