REMARK SMILES O=C(OCCOCCOCCOCCOC(=O)c1ccc(-n2cc(CSc3nc4ccccc4c(=O)n3-c3ccc(Cl)cc3)nn2)cc1)c1ccc(-c2c3nc(c(-c4c(F)cc(S(=O)(=O)[O-])cc4F)c4ccc([nH]4)c(-c4c(F)cc(S(=O)(=O)[O-])cc4F)c4nc(c(-c5c(F)cc(S(=O)(=O)[O-])cc5F)c5ccc2[nH]5)C=C4)C=C3)cc1
REMARK SMILES IDX 10 1 9 2 8 3 7 4 6 5 5 6 4 7 3 8 2 9 1 10 49 11 50 12 114 13
REMARK SMILES IDX 51 14 113 15 52 16 53 17 54 18 107 19 55 20 112 21 106 22
REMARK SMILES IDX 108 23 56 24 111 25 105 26 104 27 57 29 91 30 70 31 90 32
REMARK SMILES IDX 71 33 74 34 89 35 109 36 72 37 73 38 88 40 110 41 75 42
REMARK SMILES IDX 58 43 59 44 68 45 60 46 61 47 67 48 69 49 62 50 63 51 64 52
REMARK SMILES IDX 65 53 66 54 92 55 93 56 102 57 94 58 95 59 101 60 103 61
REMARK SMILES IDX 96 62 97 63 98 64 99 65 100 66 76 67 77 68 86 69 78 70 79 71
REMARK SMILES IDX 85 72 87 73 80 74 81 75 82 76 83 77 84 78 11 79 12 80 13 81
REMARK SMILES IDX 14 82 15 83 16 84 17 85 18 86 19 87 48 88 20 89 47 90 21 91
REMARK SMILES IDX 22 92 23 93 46 94 24 95 45 96 25 97 26 98 27 99 28 100
REMARK SMILES IDX 37 101 29 102 35 103 30 104 34 105 36 106 31 107 33 108
REMARK SMILES IDX 32 109 38 110 39 111 44 112 40 113 43 114 41 115 42 116
REMARK H PARENT 108 28 74 39
REMARK Flexibility Score: inf
ROOT
ATOM      1  C   UNL     1       4.169   3.211  -1.390  1.00  0.00     0.188 C 
ENDROOT
BRANCH   1   2
ATOM      2  O   UNL     1       2.837   3.316  -0.946  1.00  0.00    -0.377 OA
BRANCH   2   3
ATOM      3  C   UNL     1       2.322   2.107  -0.415  1.00  0.00     0.188 C 
BRANCH   3   4
ATOM      4  C   UNL     1       3.089   1.461   0.754  1.00  0.00     0.188 C 
BRANCH   4   5
ATOM      5  O   UNL     1       4.426   0.984   0.731  1.00  0.00    -0.376 OA
BRANCH   5   6
ATOM      6  C   UNL     1       5.197   0.360  -0.275  1.00  0.00     0.202 C 
BRANCH   6   7
ATOM      7  C   UNL     1       4.689  -0.606  -1.348  1.00  0.00     0.261 C 
BRANCH   7   8
ATOM      8  O   UNL     1       3.330  -0.465  -1.720  1.00  0.00    -0.460 OA
BRANCH   8   9
ATOM      9  C   UNL     1       2.276  -1.074  -1.139  1.00  0.00     0.338 C 
ATOM     10  O   UNL     1       1.190  -1.038  -1.716  1.00  0.00    -0.246 OA
BRANCH   9  11
ATOM     11  C   UNL     1       2.326  -1.638   0.236  1.00  0.00     0.060 A 
ATOM     12  C   UNL     1       3.466  -2.107   0.901  1.00  0.00     0.016 A 
ATOM     13  C   UNL     1       1.079  -1.701   0.889  1.00  0.00     0.016 A 
ATOM     14  C   UNL     1       3.352  -2.798   2.082  1.00  0.00     0.010 A 
ATOM     15  C   UNL     1       0.955  -2.373   2.086  1.00  0.00     0.010 A 
ATOM     16  C   UNL     1       2.082  -3.022   2.580  1.00  0.00    -0.014 A 
BRANCH  16  17
ATOM     17  C   UNL     1       1.955  -4.168   3.452  1.00  0.00     0.031 A 
ATOM     18  C   UNL     1       2.511  -3.998   4.815  1.00  0.00     0.074 A 
ATOM     19  C   UNL     1       1.353  -5.256   2.929  1.00  0.00     0.049 A 
ATOM     20  N   UNL     1       3.394  -4.720   5.427  1.00  0.00    -0.248 NA
ATOM     21  C   UNL     1       2.143  -2.765   5.535  1.00  0.00     0.031 C 
ATOM     22  C   UNL     1       0.679  -5.372   1.623  1.00  0.00     0.029 A 
ATOM     23  N   UNL     1       1.080  -6.448   3.513  1.00  0.00    -0.354 N 
ATOM     24  C   UNL     1       3.499  -4.169   6.702  1.00  0.00     0.074 A 
ATOM     25  C   UNL     1       2.858  -2.881   6.652  1.00  0.00     0.031 C 
ATOM     26  C   UNL     1      -0.147  -6.435   1.638  1.00  0.00     0.029 A 
ATOM     27  C   UNL     1       0.045  -7.139   2.886  1.00  0.00     0.049 A 
ATOM     28  H   UNL     1       1.563  -6.790   4.299  1.00  0.00     0.167 HD
ATOM     29  C   UNL     1       3.854  -4.918   7.780  1.00  0.00     0.037 A 
ATOM     30  C   UNL     1      -0.705  -8.094   3.484  1.00  0.00     0.037 A 
ATOM     31  C   UNL     1       4.598  -6.088   7.405  1.00  0.00     0.049 A 
ATOM     32  C   UNL     1       0.110  -8.607   4.623  1.00  0.00     0.074 A 
ATOM     33  C   UNL     1       5.809  -6.294   6.773  1.00  0.00     0.029 A 
ATOM     34  N   UNL     1       3.939  -7.293   7.347  1.00  0.00    -0.354 N 
ATOM     35  N   UNL     1       1.255  -9.226   4.467  1.00  0.00    -0.248 NA
ATOM     36  C   UNL     1      -0.086  -7.992   5.929  1.00  0.00     0.031 C 
ATOM     37  C   UNL     1       5.611  -7.444   5.955  1.00  0.00     0.029 A 
ATOM     38  C   UNL     1       4.311  -7.903   6.173  1.00  0.00     0.049 A 
ATOM     39  H   UNL     1       3.316  -7.651   8.020  1.00  0.00     0.167 HD
ATOM     40  C   UNL     1       2.069  -8.753   5.491  1.00  0.00     0.074 A 
ATOM     41  C   UNL     1       1.166  -8.042   6.394  1.00  0.00     0.031 C 
ATOM     42  C   UNL     1       3.432  -8.731   5.374  1.00  0.00     0.037 A 
BRANCH  29  43
ATOM     43  C   UNL     1       3.189  -4.751   9.122  1.00  0.00     0.058 A 
ATOM     44  C   UNL     1       3.745  -5.346  10.269  1.00  0.00     0.135 A 
ATOM     45  C   UNL     1       1.873  -4.251   9.267  1.00  0.00     0.135 A 
ATOM     46  F   UNL     1       4.979  -5.874  10.232  1.00  0.00    -0.206 F 
ATOM     47  C   UNL     1       3.024  -5.480  11.458  1.00  0.00     0.059 A 
ATOM     48  C   UNL     1       1.161  -4.320  10.455  1.00  0.00     0.059 A 
ATOM     49  F   UNL     1       1.177  -3.762   8.233  1.00  0.00    -0.206 F 
ATOM     50  C   UNL     1       1.726  -4.977  11.533  1.00  0.00     0.060 A 
BRANCH  50  51
ATOM     51  S   UNL     1       0.742  -5.262  13.013  1.00  0.00     0.124 S 
ATOM     52  O   UNL     1       0.501  -6.698  12.927  1.00  0.00    -0.237 OA
ATOM     53  O   UNL     1       1.649  -4.827  14.070  1.00  0.00    -0.237 OA
ATOM     54  O   UNL     1      -0.427  -4.411  12.809  1.00  0.00    -0.744 OA
ENDBRANCH  50  51
ENDBRANCH  29  43
BRANCH  30  55
ATOM     55  C   UNL     1      -2.189  -8.163   3.406  1.00  0.00     0.058 A 
ATOM     56  C   UNL     1      -2.890  -9.315   3.792  1.00  0.00     0.135 A 
ATOM     57  C   UNL     1      -2.977  -7.015   3.150  1.00  0.00     0.135 A 
ATOM     58  F   UNL     1      -2.220 -10.438   4.090  1.00  0.00    -0.206 F 
ATOM     59  C   UNL     1      -4.284  -9.326   3.932  1.00  0.00     0.059 A 
ATOM     60  C   UNL     1      -4.364  -7.008   3.262  1.00  0.00     0.059 A 
ATOM     61  F   UNL     1      -2.415  -5.832   2.861  1.00  0.00    -0.206 F 
ATOM     62  C   UNL     1      -5.011  -8.162   3.673  1.00  0.00     0.060 A 
BRANCH  62  63
ATOM     63  S   UNL     1      -6.792  -8.131   3.981  1.00  0.00     0.124 S 
ATOM     64  O   UNL     1      -7.292  -9.033   2.950  1.00  0.00    -0.237 OA
ATOM     65  O   UNL     1      -6.874  -8.621   5.353  1.00  0.00    -0.237 OA
ATOM     66  O   UNL     1      -7.144  -6.724   3.803  1.00  0.00    -0.744 OA
ENDBRANCH  62  63
ENDBRANCH  30  55
BRANCH  42  67
ATOM     67  C   UNL     1       4.056  -9.404   4.173  1.00  0.00     0.058 A 
ATOM     68  C   UNL     1       3.919  -8.921   2.858  1.00  0.00     0.135 A 
ATOM     69  C   UNL     1       4.975 -10.442   4.374  1.00  0.00     0.135 A 
ATOM     70  F   UNL     1       3.151  -7.855   2.599  1.00  0.00    -0.206 F 
ATOM     71  C   UNL     1       4.630  -9.467   1.788  1.00  0.00     0.059 A 
ATOM     72  C   UNL     1       5.720 -10.984   3.327  1.00  0.00     0.059 A 
ATOM     73  F   UNL     1       5.211 -10.898   5.615  1.00  0.00    -0.206 F 
ATOM     74  C   UNL     1       5.535 -10.497   2.034  1.00  0.00     0.060 A 
BRANCH  74  75
ATOM     75  S   UNL     1       6.534 -11.129   0.665  1.00  0.00     0.124 S 
ATOM     76  O   UNL     1       5.552 -11.877  -0.111  1.00  0.00    -0.237 OA
ATOM     77  O   UNL     1       7.032  -9.904   0.044  1.00  0.00    -0.237 OA
ATOM     78  O   UNL     1       7.553 -11.937   1.331  1.00  0.00    -0.744 OA
ENDBRANCH  74  75
ENDBRANCH  42  67
ENDBRANCH  16  17
ENDBRANCH   9  11
ENDBRANCH   8   9
ENDBRANCH   7   8
ENDBRANCH   6   7
ENDBRANCH   5   6
ENDBRANCH   4   5
ENDBRANCH   3   4
ENDBRANCH   2   3
ENDBRANCH   1   2
BRANCH   1  79
ATOM     79  C   UNL     1       5.197   3.794  -0.399  1.00  0.00     0.188 C 
BRANCH  79  80
ATOM     80  O   UNL     1       4.795   4.291   0.867  1.00  0.00    -0.376 OA
BRANCH  80  81
ATOM     81  C   UNL     1       3.629   5.090   0.981  1.00  0.00     0.202 C 
BRANCH  81  82
ATOM     82  C   UNL     1       3.350   6.258   0.012  1.00  0.00     0.261 C 
BRANCH  82  83
ATOM     83  O   UNL     1       3.667   6.048  -1.372  1.00  0.00    -0.460 OA
BRANCH  83  84
ATOM     84  C   UNL     1       4.791   6.662  -1.837  1.00  0.00     0.338 C 
ATOM     85  O   UNL     1       5.519   7.413  -1.245  1.00  0.00    -0.246 OA
BRANCH  84  86
ATOM     86  C   UNL     1       5.125   6.063  -3.158  1.00  0.00     0.060 A 
ATOM     87  C   UNL     1       6.358   5.405  -3.275  1.00  0.00     0.018 A 
ATOM     88  C   UNL     1       4.225   6.078  -4.230  1.00  0.00     0.018 A 
ATOM     89  C   UNL     1       6.694   4.755  -4.458  1.00  0.00     0.029 A 
ATOM     90  C   UNL     1       4.563   5.433  -5.428  1.00  0.00     0.029 A 
ATOM     91  C   UNL     1       5.803   4.787  -5.534  1.00  0.00     0.066 A 
BRANCH  91  92
ATOM     92  N   UNL     1       6.275   4.365  -6.792  1.00  0.00    -0.220 N 
ATOM     93  C   UNL     1       7.406   4.892  -7.382  1.00  0.00     0.141 A 
ATOM     94  N   UNL     1       5.550   3.708  -7.711  1.00  0.00    -0.062 NA
ATOM     95  C   UNL     1       7.290   4.615  -8.720  1.00  0.00     0.093 A 
ATOM     96  N   UNL     1       6.202   3.776  -8.866  1.00  0.00    -0.134 NA
BRANCH  95  97
ATOM     97  C   UNL     1       7.826   5.256  -9.947  1.00  0.00     0.138 C 
BRANCH  97  98
ATOM     98  S   UNL     1       9.482   5.829 -10.265  1.00  0.00    -0.081 SA
BRANCH  98  99
ATOM     99  C   UNL     1      10.445   6.181  -8.863  1.00  0.00     0.176 A 
ATOM    100  N   UNL     1      11.684   5.823  -9.043  1.00  0.00    -0.223 NA
ATOM    101  N   UNL     1      10.026   6.774  -7.681  1.00  0.00    -0.255 N 
ATOM    102  C   UNL     1      12.575   5.915  -7.972  1.00  0.00     0.079 A 
ATOM    103  C   UNL     1      10.661   6.254  -6.541  1.00  0.00     0.266 A 
ATOM    104  C   UNL     1      13.953   5.840  -8.170  1.00  0.00     0.029 A 
ATOM    105  C   UNL     1      12.091   5.960  -6.676  1.00  0.00     0.066 A 
ATOM    106  O   UNL     1      10.119   5.988  -5.469  1.00  0.00    -0.268 OA
ATOM    107  C   UNL     1      14.816   5.740  -7.072  1.00  0.00     0.002 A 
ATOM    108  C   UNL     1      12.928   5.800  -5.570  1.00  0.00     0.016 A 
ATOM    109  C   UNL     1      14.301   5.680  -5.775  1.00  0.00     0.001 A 
BRANCH 101 110
ATOM    110  C   UNL     1       8.964   7.751  -7.494  1.00  0.00     0.051 A 
ATOM    111  C   UNL     1       8.729   8.299  -6.213  1.00  0.00     0.028 A 
ATOM    112  C   UNL     1       8.113   8.200  -8.508  1.00  0.00     0.028 A 
ATOM    113  C   UNL     1       7.582   9.041  -5.913  1.00  0.00     0.022 A 
ATOM    114  C   UNL     1       6.933   8.903  -8.212  1.00  0.00     0.022 A 
ATOM    115  C   UNL     1       6.652   9.284  -6.908  1.00  0.00     0.041 A 
ATOM    116  Cl  UNL     1       5.169  10.061  -6.530  1.00  0.00    -0.084 Cl
ENDBRANCH 101 110
ENDBRANCH  98  99
ENDBRANCH  97  98
ENDBRANCH  95  97
ENDBRANCH  91  92
ENDBRANCH  84  86
ENDBRANCH  83  84
ENDBRANCH  82  83
ENDBRANCH  81  82
ENDBRANCH  80  81
ENDBRANCH  79  80
ENDBRANCH   1  79
TORSDOF 28
