REMARK SMILES COc1ccc(Br)c([C@H]2[NH2+][C@H](C(=O)OCCOCCOCCOCCOC(=O)c3ccc(-c4c5nc(c(-c6c(F)cc(S(=O)(=O)[O-])cc6F)c6ccc([nH]6)c(-c6c(F)cc(S(=O)(=O)[O-])cc6F)c6nc(c(-c7c(F)cc(S(=O)(=O)[O-])cc7F)c7ccc4[nH]7)C=C6)C=C5)cc3)CS2)c1O
REMARK SMILES IDX 21 1 20 2 19 3 18 4 17 5 16 6 15 7 14 8 12 9 13 10 11 11
REMARK SMILES IDX 9 12 10 13 96 14 95 17 8 18 3 19 4 20 97 21 5 22 6 23 7 24
REMARK SMILES IDX 2 25 1 26 98 27 22 29 23 30 24 31 25 32 26 33 27 34 28 35
REMARK SMILES IDX 29 36 30 37 94 38 31 39 93 40 32 41 33 42 34 43 87 44 35 45
REMARK SMILES IDX 92 46 86 47 88 48 36 49 91 50 85 51 84 52 37 54 71 55 50 56
REMARK SMILES IDX 70 57 51 58 54 59 69 60 89 61 52 62 53 63 68 65 90 66 55 67
REMARK SMILES IDX 38 68 39 69 48 70 40 71 41 72 47 73 49 74 42 75 43 76 44 77
REMARK SMILES IDX 45 78 46 79 72 80 73 81 82 82 74 83 75 84 81 85 83 86 76 87
REMARK SMILES IDX 77 88 78 89 79 90 80 91 56 92 57 93 66 94 58 95 59 96 65 97
REMARK SMILES IDX 67 98 60 99 61 100 62 101 63 102 64 103
REMARK H PARENT 10 15 10 16 98 28 88 53 54 64
REMARK Flexibility Score: inf
ROOT
ATOM      1  C   UNL     1       3.099   0.832  -6.402  1.00  0.00     0.188 C 
ENDROOT
BRANCH   1   2
ATOM      2  O   UNL     1       3.550   0.853  -5.059  1.00  0.00    -0.377 OA
BRANCH   2   3
ATOM      3  C   UNL     1       4.930   1.067  -4.848  1.00  0.00     0.188 C 
BRANCH   3   4
ATOM      4  C   UNL     1       5.719  -0.195  -4.457  1.00  0.00     0.188 C 
BRANCH   4   5
ATOM      5  O   UNL     1       5.108  -1.481  -4.423  1.00  0.00    -0.376 OA
BRANCH   5   6
ATOM      6  C   UNL     1       3.733  -1.621  -4.097  1.00  0.00     0.202 C 
BRANCH   6   7
ATOM      7  C   UNL     1       3.176  -1.045  -2.780  1.00  0.00     0.261 C 
BRANCH   7   8
ATOM      8  O   UNL     1       3.608   0.280  -2.403  1.00  0.00    -0.459 OA
BRANCH   8   9
ATOM      9  C   UNL     1       4.585   0.331  -1.469  1.00  0.00     0.365 C 
ATOM     10  O   UNL     1       5.086  -0.668  -0.950  1.00  0.00    -0.245 OA
BRANCH   9  11
ATOM     11  C   UNL     1       5.023   1.730  -1.020  1.00  0.00     0.304 C 
ATOM     12  C   UNL     1       3.730   3.621  -1.821  1.00  0.00     0.279 C 
ATOM     13  N   UNL     1       4.983   2.862  -1.985  1.00  0.00    -0.319 N 
ATOM     14  S   UNL     1       3.213   3.457  -0.090  1.00  0.00    -0.087 SA
ATOM     15  H   UNL     1       5.776   3.480  -1.814  1.00  0.00     0.348 HD
ATOM     16  H   UNL     1       5.029   2.493  -2.935  1.00  0.00     0.348 HD
ATOM     17  C   UNL     1       4.333   2.089   0.281  1.00  0.00     0.153 C 
BRANCH  12  18
ATOM     18  C   UNL     1       3.870   5.046  -2.389  1.00  0.00     0.080 A 
ATOM     19  C   UNL     1       4.502   7.436  -2.225  1.00  0.00     0.161 A 
ATOM     20  C   UNL     1       4.247   7.644  -3.571  1.00  0.00     0.051 A 
ATOM     21  C   UNL     1       4.345   6.155  -1.652  1.00  0.00     0.169 A 
ATOM     22  C   UNL     1       3.784   6.582  -4.332  1.00  0.00     0.020 A 
ATOM     23  C   UNL     1       3.558   5.322  -3.743  1.00  0.00     0.032 A 
ATOM     24  Br  UNL     1       2.677   4.091  -4.883  1.00  0.00    -0.050 Br
BRANCH  19  25
ATOM     25  O   UNL     1       4.743   8.551  -1.461  1.00  0.00    -0.493 OA
ATOM     26  C   UNL     1       6.086   8.627  -0.992  1.00  0.00     0.278 C 
ENDBRANCH  19  25
BRANCH  21  27
ATOM     27  O   UNL     1       4.622   6.037  -0.317  1.00  0.00    -0.504 OA
ATOM     28  H   UNL     1       4.937   6.778   0.163  1.00  0.00     0.293 HD
ENDBRANCH  21  27
ENDBRANCH  12  18
ENDBRANCH   9  11
ENDBRANCH   8   9
ENDBRANCH   7   8
ENDBRANCH   6   7
ENDBRANCH   5   6
ENDBRANCH   4   5
ENDBRANCH   3   4
ENDBRANCH   2   3
ENDBRANCH   1   2
BRANCH   1  29
ATOM     29  C   UNL     1       3.939   0.037  -7.412  1.00  0.00     0.188 C 
BRANCH  29  30
ATOM     30  O   UNL     1       5.312   0.413  -7.425  1.00  0.00    -0.376 OA
BRANCH  30  31
ATOM     31  C   UNL     1       5.750   1.342  -8.406  1.00  0.00     0.202 C 
BRANCH  31  32
ATOM     32  C   UNL     1       5.257   2.800  -8.318  1.00  0.00     0.261 C 
BRANCH  32  33
ATOM     33  O   UNL     1       3.839   3.026  -8.342  1.00  0.00    -0.460 OA
BRANCH  33  34
ATOM     34  C   UNL     1       3.130   2.560  -9.389  1.00  0.00     0.338 C 
ATOM     35  O   UNL     1       3.575   2.002 -10.380  1.00  0.00    -0.246 OA
BRANCH  34  36
ATOM     36  C   UNL     1       1.692   2.656  -9.048  1.00  0.00     0.060 A 
ATOM     37  C   UNL     1       0.919   1.487  -9.041  1.00  0.00     0.016 A 
ATOM     38  C   UNL     1       1.109   3.885  -8.730  1.00  0.00     0.016 A 
ATOM     39  C   UNL     1      -0.447   1.550  -8.759  1.00  0.00     0.010 A 
ATOM     40  C   UNL     1      -0.265   3.950  -8.470  1.00  0.00     0.010 A 
ATOM     41  C   UNL     1      -1.057   2.788  -8.520  1.00  0.00    -0.014 A 
BRANCH  41  42
ATOM     42  C   UNL     1      -2.540   2.894  -8.529  1.00  0.00     0.031 A 
ATOM     43  C   UNL     1      -3.211   3.362  -9.794  1.00  0.00     0.074 A 
ATOM     44  C   UNL     1      -3.280   2.558  -7.456  1.00  0.00     0.049 A 
ATOM     45  N   UNL     1      -4.478   3.582 -10.032  1.00  0.00    -0.248 NA
ATOM     46  C   UNL     1      -2.331   3.620 -10.947  1.00  0.00     0.031 C 
ATOM     47  C   UNL     1      -2.756   2.047  -6.191  1.00  0.00     0.029 A 
ATOM     48  N   UNL     1      -4.640   2.605  -7.261  1.00  0.00    -0.354 N 
ATOM     49  C   UNL     1      -4.546   4.015 -11.351  1.00  0.00     0.074 A 
ATOM     50  C   UNL     1      -3.192   4.052 -11.857  1.00  0.00     0.031 C 
ATOM     51  C   UNL     1      -3.782   1.839  -5.346  1.00  0.00     0.029 A 
ATOM     52  C   UNL     1      -5.031   2.236  -5.995  1.00  0.00     0.049 A 
ATOM     53  H   UNL     1      -5.275   2.878  -7.962  1.00  0.00     0.167 HD
ATOM     54  C   UNL     1      -5.639   4.346 -12.078  1.00  0.00     0.037 A 
ATOM     55  C   UNL     1      -6.253   2.243  -5.422  1.00  0.00     0.037 A 
ATOM     56  C   UNL     1      -6.987   4.298 -11.574  1.00  0.00     0.049 A 
ATOM     57  C   UNL     1      -7.447   2.687  -6.233  1.00  0.00     0.074 A 
ATOM     58  C   UNL     1      -8.163   4.588 -12.243  1.00  0.00     0.029 A 
ATOM     59  N   UNL     1      -7.338   3.947 -10.280  1.00  0.00    -0.354 N 
ATOM     60  N   UNL     1      -7.501   3.065  -7.489  1.00  0.00    -0.248 NA
ATOM     61  C   UNL     1      -8.750   2.702  -5.549  1.00  0.00     0.031 C 
ATOM     62  C   UNL     1      -9.220   4.474 -11.335  1.00  0.00     0.029 A 
ATOM     63  C   UNL     1      -8.710   4.045 -10.120  1.00  0.00     0.049 A 
ATOM     64  H   UNL     1      -6.706   3.670  -9.578  1.00  0.00     0.167 HD
ATOM     65  C   UNL     1      -8.844   3.325  -7.753  1.00  0.00     0.074 A 
ATOM     66  C   UNL     1      -9.569   3.052  -6.531  1.00  0.00     0.031 C 
ATOM     67  C   UNL     1      -9.425   3.750  -8.903  1.00  0.00     0.037 A 
BRANCH  54  68
ATOM     68  C   UNL     1      -5.430   4.818 -13.491  1.00  0.00     0.058 A 
ATOM     69  C   UNL     1      -5.037   3.945 -14.517  1.00  0.00     0.135 A 
ATOM     70  C   UNL     1      -5.691   6.155 -13.834  1.00  0.00     0.135 A 
ATOM     71  F   UNL     1      -4.754   2.661 -14.242  1.00  0.00    -0.206 F 
ATOM     72  C   UNL     1      -4.899   4.382 -15.831  1.00  0.00     0.059 A 
ATOM     73  C   UNL     1      -5.587   6.608 -15.145  1.00  0.00     0.059 A 
ATOM     74  F   UNL     1      -6.062   7.035 -12.890  1.00  0.00    -0.206 F 
ATOM     75  C   UNL     1      -5.184   5.715 -16.136  1.00  0.00     0.060 A 
BRANCH  75  76
ATOM     76  S   UNL     1      -5.034   6.257 -17.851  1.00  0.00     0.124 S 
ATOM     77  O   UNL     1      -3.587   6.226 -18.042  1.00  0.00    -0.237 OA
ATOM     78  O   UNL     1      -5.790   5.234 -18.566  1.00  0.00    -0.237 OA
ATOM     79  O   UNL     1      -5.636   7.586 -17.843  1.00  0.00    -0.744 OA
ENDBRANCH  75  76
ENDBRANCH  54  68
BRANCH  55  80
ATOM     80  C   UNL     1      -6.421   1.839  -3.997  1.00  0.00     0.058 A 
ATOM     81  C   UNL     1      -7.153   0.693  -3.647  1.00  0.00     0.135 A 
ATOM     82  C   UNL     1      -5.891   2.614  -2.954  1.00  0.00     0.135 A 
ATOM     83  F   UNL     1      -7.694  -0.075  -4.605  1.00  0.00    -0.206 F 
ATOM     84  C   UNL     1      -7.378   0.347  -2.318  1.00  0.00     0.059 A 
ATOM     85  C   UNL     1      -6.074   2.271  -1.617  1.00  0.00     0.059 A 
ATOM     86  F   UNL     1      -5.178   3.717  -3.230  1.00  0.00    -0.206 F 
ATOM     87  C   UNL     1      -6.834   1.143  -1.309  1.00  0.00     0.060 A 
BRANCH  87  88
ATOM     88  S   UNL     1      -7.116   0.673   0.412  1.00  0.00     0.124 S 
ATOM     89  O   UNL     1      -8.531   0.987   0.574  1.00  0.00    -0.237 OA
ATOM     90  O   UNL     1      -6.773  -0.745   0.401  1.00  0.00    -0.237 OA
ATOM     91  O   UNL     1      -6.192   1.529   1.150  1.00  0.00    -0.744 OA
ENDBRANCH  87  88
ENDBRANCH  55  80
BRANCH  67  92
ATOM     92  C   UNL     1     -10.924   3.895  -8.922  1.00  0.00     0.058 A 
ATOM     93  C   UNL     1     -11.583   4.919  -8.225  1.00  0.00     0.135 A 
ATOM     94  C   UNL     1     -11.708   3.028  -9.704  1.00  0.00     0.135 A 
ATOM     95  F   UNL     1     -10.885   5.774  -7.460  1.00  0.00    -0.206 F 
ATOM     96  C   UNL     1     -12.966   5.063  -8.279  1.00  0.00     0.059 A 
ATOM     97  C   UNL     1     -13.088   3.174  -9.800  1.00  0.00     0.059 A 
ATOM     98  F   UNL     1     -11.130   2.039 -10.403  1.00  0.00    -0.206 F 
ATOM     99  C   UNL     1     -13.710   4.187  -9.073  1.00  0.00     0.060 A 
BRANCH  99 100
ATOM    100  S   UNL     1     -15.500   4.408  -9.161  1.00  0.00     0.124 S 
ATOM    101  O   UNL     1     -15.918   3.957  -7.838  1.00  0.00    -0.237 OA
ATOM    102  O   UNL     1     -15.626   5.840  -9.412  1.00  0.00    -0.237 OA
ATOM    103  O   UNL     1     -15.896   3.546 -10.271  1.00  0.00    -0.744 OA
ENDBRANCH  99 100
ENDBRANCH  67  92
ENDBRANCH  41  42
ENDBRANCH  34  36
ENDBRANCH  33  34
ENDBRANCH  32  33
ENDBRANCH  31  32
ENDBRANCH  30  31
ENDBRANCH  29  30
ENDBRANCH   1  29
TORSDOF 26
