REMARK SMILES O=C(NCc1ccc(C(=O)OCCOCCOCCOCCOC(=O)c2ccc(-c3c4nc(c(-c5c(F)cc(S(=O)(=O)[O-])cc5F)c5ccc([nH]5)c(-c5c(F)cc(S(=O)(=O)[O-])cc5F)c5nc(c(-c6c(F)cc(S(=O)(=O)[O-])cc6F)c6ccc3[nH]6)C=C5)C=C4)cc2)o1)Nc1ccc(F)c(Cl)c1
REMARK SMILES IDX 17 1 16 2 15 3 14 4 13 5 12 6 11 7 9 8 10 9 8 10 5 11 6 12
REMARK SMILES IDX 92 13 7 14 4 15 3 16 1 17 2 18 93 19 94 22 95 23 101 24
REMARK SMILES IDX 96 25 99 26 97 27 100 28 98 29 18 30 19 31 20 32 21 33 22 34
REMARK SMILES IDX 23 35 24 36 25 37 26 38 27 39 91 40 28 41 90 42 29 43 30 44
REMARK SMILES IDX 31 45 84 46 32 47 89 48 83 49 85 50 33 51 88 52 82 53 81 54
REMARK SMILES IDX 34 56 68 57 47 58 67 59 48 60 51 61 66 62 86 63 49 64 50 65
REMARK SMILES IDX 65 67 87 68 52 69 35 70 36 71 45 72 37 73 38 74 44 75 46 76
REMARK SMILES IDX 39 77 40 78 41 79 42 80 43 81 69 82 70 83 79 84 71 85 72 86
REMARK SMILES IDX 78 87 80 88 73 89 74 90 75 91 76 92 77 93 53 94 54 95 63 96
REMARK SMILES IDX 55 97 56 98 62 99 64 100 57 101 58 102 59 103 60 104 61 105
REMARK H PARENT 3 20 93 21 85 55 51 66
REMARK Flexibility Score: inf
ROOT
ATOM      1  O   UNL     1       5.059  -7.074   1.003  1.00  0.00    -0.377 OA
ENDROOT
BRANCH   1   2
ATOM      2  C   UNL     1       4.175  -5.975   0.832  1.00  0.00     0.188 C 
BRANCH   2   3
ATOM      3  C   UNL     1       3.086  -6.272  -0.211  1.00  0.00     0.188 C 
BRANCH   3   4
ATOM      4  O   UNL     1       3.081  -7.638  -0.623  1.00  0.00    -0.376 OA
BRANCH   4   5
ATOM      5  C   UNL     1       3.696  -7.943  -1.870  1.00  0.00     0.202 C 
BRANCH   5   6
ATOM      6  C   UNL     1       5.213  -7.727  -2.010  1.00  0.00     0.261 C 
BRANCH   6   7
ATOM      7  O   UNL     1       5.699  -6.399  -1.764  1.00  0.00    -0.457 OA
BRANCH   7   8
ATOM      8  C   UNL     1       5.266  -5.373  -2.540  1.00  0.00     0.374 C 
ATOM      9  O   UNL     1       4.540  -5.492  -3.519  1.00  0.00    -0.242 OA
BRANCH   8  10
ATOM     10  C   UNL     1       5.687  -4.135  -1.917  1.00  0.00     0.211 A 
ATOM     11  C   UNL     1       5.421  -2.050  -1.236  1.00  0.00     0.124 A 
ATOM     12  C   UNL     1       6.542  -2.528  -0.591  1.00  0.00     0.048 A 
ATOM     13  O   UNL     1       4.919  -3.007  -2.074  1.00  0.00    -0.452 OA
ATOM     14  C   UNL     1       6.715  -3.861  -1.028  1.00  0.00     0.058 A 
BRANCH  11  15
ATOM     15  C   UNL     1       4.691  -0.758  -1.159  1.00  0.00     0.193 C 
BRANCH  15  16
ATOM     16  N   UNL     1       3.308  -1.017  -0.810  1.00  0.00    -0.331 N 
ATOM     17  O   UNL     1       1.355  -0.938   0.228  1.00  0.00    -0.248 OA
ATOM     18  C   UNL     1       2.481  -0.462   0.113  1.00  0.00     0.319 C 
ATOM     19  N   UNL     1       2.978   0.589   0.834  1.00  0.00    -0.308 N 
ATOM     20  H   UNL     1       2.889  -1.730  -1.343  1.00  0.00     0.165 HD
ATOM     21  H   UNL     1       3.844   0.952   0.537  1.00  0.00     0.171 HD
BRANCH  19  22
ATOM     22  C   UNL     1       2.389   1.212   1.958  1.00  0.00     0.044 A 
ATOM     23  C   UNL     1       3.018   2.363   2.456  1.00  0.00     0.029 A 
ATOM     24  C   UNL     1       1.244   0.732   2.605  1.00  0.00     0.049 A 
ATOM     25  C   UNL     1       2.507   3.029   3.574  1.00  0.00     0.043 A 
ATOM     26  C   UNL     1       0.735   1.399   3.725  1.00  0.00     0.078 A 
ATOM     27  C   UNL     1       1.367   2.543   4.202  1.00  0.00     0.141 A 
ATOM     28  Cl  UNL     1      -0.673   0.790   4.510  1.00  0.00    -0.081 Cl
ATOM     29  F   UNL     1       0.893   3.197   5.273  1.00  0.00    -0.205 F 
ENDBRANCH  19  22
ENDBRANCH  15  16
ENDBRANCH  11  15
ENDBRANCH   8  10
ENDBRANCH   7   8
ENDBRANCH   6   7
ENDBRANCH   5   6
ENDBRANCH   4   5
ENDBRANCH   3   4
ENDBRANCH   2   3
ENDBRANCH   1   2
BRANCH   1  30
ATOM     30  C   UNL     1       4.739  -7.973   2.065  1.00  0.00     0.188 C 
BRANCH  30  31
ATOM     31  C   UNL     1       3.267  -8.372   2.290  1.00  0.00     0.188 C 
BRANCH  31  32
ATOM     32  O   UNL     1       2.423  -7.259   2.604  1.00  0.00    -0.376 OA
BRANCH  32  33
ATOM     33  C   UNL     1       2.007  -7.150   3.963  1.00  0.00     0.202 C 
BRANCH  33  34
ATOM     34  C   UNL     1       3.070  -6.536   4.883  1.00  0.00     0.261 C 
BRANCH  34  35
ATOM     35  O   UNL     1       4.242  -7.346   5.070  1.00  0.00    -0.460 OA
BRANCH  35  36
ATOM     36  C   UNL     1       4.056  -8.572   5.607  1.00  0.00     0.338 C 
ATOM     37  O   UNL     1       3.015  -9.038   6.030  1.00  0.00    -0.246 OA
BRANCH  36  38
ATOM     38  C   UNL     1       5.303  -9.341   5.428  1.00  0.00     0.060 A 
ATOM     39  C   UNL     1       5.231 -10.600   4.819  1.00  0.00     0.016 A 
ATOM     40  C   UNL     1       6.526  -8.834   5.873  1.00  0.00     0.016 A 
ATOM     41  C   UNL     1       6.382 -11.377   4.696  1.00  0.00     0.010 A 
ATOM     42  C   UNL     1       7.675  -9.618   5.762  1.00  0.00     0.010 A 
ATOM     43  C   UNL     1       7.600 -10.907   5.206  1.00  0.00    -0.014 A 
BRANCH  43  44
ATOM     44  C   UNL     1       8.755 -11.826   5.329  1.00  0.00     0.031 A 
ATOM     45  C   UNL     1       8.960 -12.545   6.634  1.00  0.00     0.074 A 
ATOM     46  C   UNL     1       9.608 -12.013   4.308  1.00  0.00     0.049 A 
ATOM     47  N   UNL     1       9.911 -13.370   6.986  1.00  0.00    -0.248 NA
ATOM     48  C   UNL     1       7.957 -12.295   7.683  1.00  0.00     0.031 C 
ATOM     49  C   UNL     1       9.503 -11.384   2.992  1.00  0.00     0.029 A 
ATOM     50  N   UNL     1      10.741 -12.781   4.227  1.00  0.00    -0.354 N 
ATOM     51  C   UNL     1       9.623 -13.738   8.294  1.00  0.00     0.074 A 
ATOM     52  C   UNL     1       8.427 -13.024   8.684  1.00  0.00     0.031 C 
ATOM     53  C   UNL     1      10.543 -11.782   2.238  1.00  0.00     0.029 A 
ATOM     54  C   UNL     1      11.395 -12.674   3.023  1.00  0.00     0.049 A 
ATOM     55  H   UNL     1      11.056 -13.356   4.962  1.00  0.00     0.167 HD
ATOM     56  C   UNL     1      10.290 -14.601   9.097  1.00  0.00     0.037 A 
ATOM     57  C   UNL     1      12.556 -13.222   2.613  1.00  0.00     0.037 A 
ATOM     58  C   UNL     1      11.487 -15.299   8.712  1.00  0.00     0.049 A 
ATOM     59  C   UNL     1      13.313 -14.136   3.540  1.00  0.00     0.074 A 
ATOM     60  C   UNL     1      12.226 -16.210   9.444  1.00  0.00     0.029 A 
ATOM     61  N   UNL     1      12.127 -15.153   7.490  1.00  0.00    -0.354 N 
ATOM     62  N   UNL     1      13.009 -14.509   4.761  1.00  0.00    -0.248 NA
ATOM     63  C   UNL     1      14.569 -14.707   3.034  1.00  0.00     0.031 C 
ATOM     64  C   UNL     1      13.338 -16.585   8.680  1.00  0.00     0.029 A 
ATOM     65  C   UNL     1      13.267 -15.939   7.456  1.00  0.00     0.049 A 
ATOM     66  H   UNL     1      11.817 -14.576   6.755  1.00  0.00     0.167 HD
ATOM     67  C   UNL     1      14.023 -15.374   5.160  1.00  0.00     0.074 A 
ATOM     68  C   UNL     1      14.945 -15.475   4.048  1.00  0.00     0.031 C 
ATOM     69  C   UNL     1      14.175 -16.028   6.339  1.00  0.00     0.037 A 
BRANCH  56  70
ATOM     70  C   UNL     1       9.745 -14.809  10.480  1.00  0.00     0.058 A 
ATOM     71  C   UNL     1       8.570 -15.545  10.704  1.00  0.00     0.135 A 
ATOM     72  C   UNL     1      10.401 -14.264  11.594  1.00  0.00     0.135 A 
ATOM     73  F   UNL     1       7.894 -16.069   9.670  1.00  0.00    -0.206 F 
ATOM     74  C   UNL     1       8.046 -15.704  11.982  1.00  0.00     0.059 A 
ATOM     75  C   UNL     1       9.908 -14.430  12.884  1.00  0.00     0.059 A 
ATOM     76  F   UNL     1      11.525 -13.548  11.433  1.00  0.00    -0.206 F 
ATOM     77  C   UNL     1       8.719 -15.137  13.066  1.00  0.00     0.060 A 
BRANCH  77  78
ATOM     78  S   UNL     1       8.019 -15.332  14.718  1.00  0.00     0.124 S 
ATOM     79  O   UNL     1       6.918 -14.374  14.681  1.00  0.00    -0.237 OA
ATOM     80  O   UNL     1       7.633 -16.740  14.732  1.00  0.00    -0.237 OA
ATOM     81  O   UNL     1       9.128 -14.981  15.600  1.00  0.00    -0.744 OA
ENDBRANCH  77  78
ENDBRANCH  56  70
BRANCH  57  82
ATOM     82  C   UNL     1      13.075 -12.916   1.254  1.00  0.00     0.058 A 
ATOM     83  C   UNL     1      13.049 -13.880   0.236  1.00  0.00     0.135 A 
ATOM     84  C   UNL     1      13.591 -11.649   0.945  1.00  0.00     0.135 A 
ATOM     85  F   UNL     1      12.576 -15.110   0.488  1.00  0.00    -0.206 F 
ATOM     86  C   UNL     1      13.520 -13.600  -1.043  1.00  0.00     0.059 A 
ATOM     87  C   UNL     1      14.049 -11.338  -0.332  1.00  0.00     0.059 A 
ATOM     88  F   UNL     1      13.630 -10.691   1.884  1.00  0.00    -0.206 F 
ATOM     89  C   UNL     1      14.014 -12.323  -1.318  1.00  0.00     0.060 A 
BRANCH  89  90
ATOM     90  S   UNL     1      14.558 -11.946  -2.999  1.00  0.00     0.124 S 
ATOM     91  O   UNL     1      15.842 -12.635  -3.054  1.00  0.00    -0.237 OA
ATOM     92  O   UNL     1      13.487 -12.523  -3.806  1.00  0.00    -0.237 OA
ATOM     93  O   UNL     1      14.622 -10.487  -3.009  1.00  0.00    -0.744 OA
ENDBRANCH  89  90
ENDBRANCH  57  82
BRANCH  69  94
ATOM     94  C   UNL     1      15.368 -16.930   6.483  1.00  0.00     0.058 A 
ATOM     95  C   UNL     1      16.659 -16.417   6.682  1.00  0.00     0.135 A 
ATOM     96  C   UNL     1      15.208 -18.326   6.483  1.00  0.00     0.135 A 
ATOM     97  F   UNL     1      16.865 -15.091   6.685  1.00  0.00    -0.206 F 
ATOM     98  C   UNL     1      17.754 -17.257   6.857  1.00  0.00     0.059 A 
ATOM     99  C   UNL     1      16.286 -19.183   6.679  1.00  0.00     0.059 A 
ATOM    100  F   UNL     1      13.992 -18.867   6.308  1.00  0.00    -0.206 F 
ATOM    101  C   UNL     1      17.558 -18.639   6.854  1.00  0.00     0.060 A 
BRANCH 101 102
ATOM    102  S   UNL     1      18.980 -19.720   7.120  1.00  0.00     0.124 S 
ATOM    103  O   UNL     1      19.636 -19.666   5.818  1.00  0.00    -0.237 OA
ATOM    104  O   UNL     1      19.683 -19.053   8.212  1.00  0.00    -0.237 OA
ATOM    105  O   UNL     1      18.372 -21.001   7.466  1.00  0.00    -0.744 OA
ENDBRANCH 101 102
ENDBRANCH  69  94
ENDBRANCH  43  44
ENDBRANCH  36  38
ENDBRANCH  35  36
ENDBRANCH  34  35
ENDBRANCH  33  34
ENDBRANCH  32  33
ENDBRANCH  31  32
ENDBRANCH  30  31
ENDBRANCH   1  30
TORSDOF 26
