REMARK SMILES CC(C)n1c2c(c3ccccc31)[C@@H](c1ccccc1)N(CC(=O)OCCOCCOCCOCCOC(=O)c1ccc(-c3c4nc(c(-c5c(F)cc(S(=O)(=O)[O-])cc5F)c5ccc([nH]5)c(-c5c(F)cc(S(=O)(=O)[O-])cc5F)c5nc(c(-c6c(F)cc(S(=O)(=O)[O-])cc6F)c6ccc3[nH]6)C=C5)C=C4)cc1)C2=O
REMARK SMILES IDX 31 1 30 2 29 3 28 4 27 5 26 6 25 7 24 8 22 9 23 10 21 11
REMARK SMILES IDX 20 12 4 13 5 14 12 15 6 16 105 17 7 18 11 19 13 20 106 21
REMARK SMILES IDX 8 22 10 23 9 24 2 25 1 26 3 27 14 28 15 29 19 30 16 31 18 32
REMARK SMILES IDX 17 33 32 34 33 35 34 36 35 37 36 38 37 39 38 40 39 41 40 42
REMARK SMILES IDX 104 43 41 44 103 45 42 46 43 47 44 48 97 49 45 50 102 51
REMARK SMILES IDX 96 52 98 53 46 54 101 55 95 56 94 57 47 59 81 60 60 61 80 62
REMARK SMILES IDX 61 63 64 64 79 65 99 66 62 67 63 68 78 70 100 71 65 72 48 73
REMARK SMILES IDX 49 74 58 75 50 76 51 77 57 78 59 79 52 80 53 81 54 82 55 83
REMARK SMILES IDX 56 84 82 85 83 86 92 87 84 88 85 89 91 90 93 91 86 92 87 93
REMARK SMILES IDX 88 94 89 95 90 96 66 97 67 98 76 99 68 100 69 101 75 102
REMARK SMILES IDX 77 103 70 104 71 105 72 106 73 107 74 108
REMARK H PARENT 98 58 64 69
REMARK Flexibility Score: inf
ROOT
ATOM      1  C   UNL     1      -5.660  -0.727   1.585  1.00  0.00     0.188 C 
ENDROOT
BRANCH   1   2
ATOM      2  O   UNL     1      -5.466  -1.950   0.902  1.00  0.00    -0.377 OA
BRANCH   2   3
ATOM      3  C   UNL     1      -6.544  -2.624   0.307  1.00  0.00     0.188 C 
BRANCH   3   4
ATOM      4  C   UNL     1      -7.114  -3.772   1.126  1.00  0.00     0.188 C 
BRANCH   4   5
ATOM      5  O   UNL     1      -7.058  -3.678   2.533  1.00  0.00    -0.376 OA
BRANCH   5   6
ATOM      6  C   UNL     1      -5.792  -3.604   3.195  1.00  0.00     0.202 C 
BRANCH   6   7
ATOM      7  C   UNL     1      -4.521  -4.323   2.683  1.00  0.00     0.261 C 
BRANCH   7   8
ATOM      8  O   UNL     1      -3.936  -3.803   1.455  1.00  0.00    -0.462 OA
BRANCH   8   9
ATOM      9  C   UNL     1      -3.959  -4.622   0.377  1.00  0.00     0.325 C 
ATOM     10  O   UNL     1      -4.420  -5.765   0.400  1.00  0.00    -0.250 OA
BRANCH   9  11
ATOM     11  C   UNL     1      -3.388  -4.069  -0.949  1.00  0.00     0.243 C 
BRANCH  11  12
ATOM     12  N   UNL     1      -3.021  -2.691  -1.288  1.00  0.00    -0.315 N 
ATOM     13  N   UNL     1      -0.909   0.203  -1.468  1.00  0.00    -0.334 N 
ATOM     14  C   UNL     1      -1.748  -0.862  -1.453  1.00  0.00     0.114 A 
ATOM     15  C   UNL     1      -1.690   1.350  -1.608  1.00  0.00     0.049 A 
ATOM     16  C   UNL     1      -2.994  -0.473  -1.857  1.00  0.00     0.018 A 
ATOM     17  C   UNL     1      -1.708  -2.244  -1.096  1.00  0.00     0.272 C 
ATOM     18  C   UNL     1      -2.985   0.936  -1.972  1.00  0.00     0.006 A 
ATOM     19  C   UNL     1      -1.374   2.708  -1.430  1.00  0.00     0.027 A 
ATOM     20  C   UNL     1      -3.938  -1.635  -1.837  1.00  0.00     0.150 C 
ATOM     21  O   UNL     1      -0.756  -2.886  -0.705  1.00  0.00    -0.267 OA
ATOM     22  C   UNL     1      -3.939   1.920  -2.288  1.00  0.00     0.011 A 
ATOM     23  C   UNL     1      -2.381   3.655  -1.637  1.00  0.00     0.002 A 
ATOM     24  C   UNL     1      -3.639   3.271  -2.087  1.00  0.00     0.001 A 
BRANCH  13  25
ATOM     25  C   UNL     1       0.546   0.186  -1.360  1.00  0.00     0.082 C 
ATOM     26  C   UNL     1       1.007  -0.011   0.078  1.00  0.00     0.031 C 
ATOM     27  C   UNL     1       1.203  -0.802  -2.329  1.00  0.00     0.031 C 
ENDBRANCH  13  25
BRANCH  20  28
ATOM     28  C   UNL     1      -4.545  -1.874  -3.222  1.00  0.00    -0.021 A 
ATOM     29  C   UNL     1      -5.544  -2.861  -3.366  1.00  0.00     0.006 A 
ATOM     30  C   UNL     1      -4.287  -1.092  -4.364  1.00  0.00     0.006 A 
ATOM     31  C   UNL     1      -6.253  -3.049  -4.558  1.00  0.00     0.000 A 
ATOM     32  C   UNL     1      -5.009  -1.263  -5.556  1.00  0.00     0.000 A 
ATOM     33  C   UNL     1      -5.994  -2.239  -5.652  1.00  0.00     0.000 A 
ENDBRANCH  20  28
ENDBRANCH  11  12
ENDBRANCH   9  11
ENDBRANCH   8   9
ENDBRANCH   7   8
ENDBRANCH   6   7
ENDBRANCH   5   6
ENDBRANCH   4   5
ENDBRANCH   3   4
ENDBRANCH   2   3
ENDBRANCH   1   2
BRANCH   1  34
ATOM     34  C   UNL     1      -7.087  -0.286   1.918  1.00  0.00     0.188 C 
BRANCH  34  35
ATOM     35  O   UNL     1      -7.880  -0.130   0.747  1.00  0.00    -0.376 OA
BRANCH  35  36
ATOM     36  C   UNL     1      -7.971   1.156   0.150  1.00  0.00     0.202 C 
BRANCH  36  37
ATOM     37  C   UNL     1      -6.683   1.897  -0.229  1.00  0.00     0.261 C 
BRANCH  37  38
ATOM     38  O   UNL     1      -5.741   2.030   0.840  1.00  0.00    -0.460 OA
BRANCH  38  39
ATOM     39  C   UNL     1      -5.739   3.096   1.662  1.00  0.00     0.338 C 
ATOM     40  O   UNL     1      -6.329   4.147   1.516  1.00  0.00    -0.246 OA
BRANCH  39  41
ATOM     41  C   UNL     1      -5.181   2.549   2.924  1.00  0.00     0.060 A 
ATOM     42  C   UNL     1      -3.968   1.846   2.947  1.00  0.00     0.016 A 
ATOM     43  C   UNL     1      -6.074   2.464   3.999  1.00  0.00     0.016 A 
ATOM     44  C   UNL     1      -3.701   0.986   4.014  1.00  0.00     0.010 A 
ATOM     45  C   UNL     1      -5.823   1.572   5.038  1.00  0.00     0.010 A 
ATOM     46  C   UNL     1      -4.655   0.803   5.031  1.00  0.00    -0.014 A 
BRANCH  46  47
ATOM     47  C   UNL     1      -4.301  -0.032   6.191  1.00  0.00     0.031 A 
ATOM     48  C   UNL     1      -3.216   0.570   7.018  1.00  0.00     0.074 A 
ATOM     49  C   UNL     1      -4.971  -1.120   6.633  1.00  0.00     0.049 A 
ATOM     50  N   UNL     1      -2.068   0.070   7.339  1.00  0.00    -0.248 NA
ATOM     51  C   UNL     1      -3.405   1.968   7.444  1.00  0.00     0.031 C 
ATOM     52  C   UNL     1      -6.236  -1.650   6.122  1.00  0.00     0.029 A 
ATOM     53  N   UNL     1      -4.718  -1.932   7.712  1.00  0.00    -0.354 N 
ATOM     54  C   UNL     1      -1.474   1.013   8.175  1.00  0.00     0.074 A 
ATOM     55  C   UNL     1      -2.256   2.216   8.068  1.00  0.00     0.031 C 
ATOM     56  C   UNL     1      -6.729  -2.560   6.992  1.00  0.00     0.029 A 
ATOM     57  C   UNL     1      -5.793  -2.739   8.090  1.00  0.00     0.049 A 
ATOM     58  H   UNL     1      -3.852  -1.943   8.180  1.00  0.00     0.167 HD
ATOM     59  C   UNL     1      -0.518   0.680   9.082  1.00  0.00     0.037 A 
ATOM     60  C   UNL     1      -5.952  -3.436   9.249  1.00  0.00     0.037 A 
ATOM     61  C   UNL     1       0.111  -0.573   8.771  1.00  0.00     0.049 A 
ATOM     62  C   UNL     1      -4.611  -3.597   9.866  1.00  0.00     0.074 A 
ATOM     63  C   UNL     1       0.817  -1.060   7.689  1.00  0.00     0.029 A 
ATOM     64  N   UNL     1      -0.230  -1.671   9.520  1.00  0.00    -0.354 N 
ATOM     65  N   UNL     1      -3.658  -4.340   9.379  1.00  0.00    -0.248 NA
ATOM     66  C   UNL     1      -4.190  -2.596  10.833  1.00  0.00     0.031 C 
ATOM     67  C   UNL     1       0.455  -2.434   7.595  1.00  0.00     0.029 A 
ATOM     68  C   UNL     1      -0.413  -2.715   8.650  1.00  0.00     0.049 A 
ATOM     69  H   UNL     1      -0.324  -1.704  10.499  1.00  0.00     0.167 HD
ATOM     70  C   UNL     1      -2.495  -3.629   9.633  1.00  0.00     0.074 A 
ATOM     71  C   UNL     1      -2.876  -2.612  10.608  1.00  0.00     0.031 C 
ATOM     72  C   UNL     1      -1.400  -3.756   8.831  1.00  0.00     0.037 A 
BRANCH  59  73
ATOM     73  C   UNL     1      -0.408   1.345  10.429  1.00  0.00     0.058 A 
ATOM     74  C   UNL     1       0.751   1.175  11.208  1.00  0.00     0.135 A 
ATOM     75  C   UNL     1      -1.512   1.932  11.091  1.00  0.00     0.135 A 
ATOM     76  F   UNL     1       1.843   0.595  10.687  1.00  0.00    -0.206 F 
ATOM     77  C   UNL     1       0.797   1.530  12.557  1.00  0.00     0.059 A 
ATOM     78  C   UNL     1      -1.469   2.348  12.414  1.00  0.00     0.059 A 
ATOM     79  F   UNL     1      -2.715   2.040  10.509  1.00  0.00    -0.206 F 
ATOM     80  C   UNL     1      -0.322   2.109  13.152  1.00  0.00     0.060 A 
BRANCH  80  81
ATOM     81  S   UNL     1      -0.297   2.482  14.913  1.00  0.00     0.124 S 
ATOM     82  O   UNL     1      -0.281   1.143  15.492  1.00  0.00    -0.237 OA
ATOM     83  O   UNL     1       0.937   3.250  15.041  1.00  0.00    -0.237 OA
ATOM     84  O   UNL     1      -1.526   3.244  15.112  1.00  0.00    -0.744 OA
ENDBRANCH  80  81
ENDBRANCH  59  73
BRANCH  60  85
ATOM     85  C   UNL     1      -7.205  -3.690  10.028  1.00  0.00     0.058 A 
ATOM     86  C   UNL     1      -7.225  -4.569  11.131  1.00  0.00     0.135 A 
ATOM     87  C   UNL     1      -8.336  -2.859   9.893  1.00  0.00     0.135 A 
ATOM     88  F   UNL     1      -6.190  -5.393  11.358  1.00  0.00    -0.206 F 
ATOM     89  C   UNL     1      -8.265  -4.573  12.073  1.00  0.00     0.059 A 
ATOM     90  C   UNL     1      -9.389  -2.857  10.807  1.00  0.00     0.059 A 
ATOM     91  F   UNL     1      -8.412  -1.940   8.920  1.00  0.00    -0.206 F 
ATOM     92  C   UNL     1      -9.332  -3.690  11.915  1.00  0.00     0.060 A 
BRANCH  92  93
ATOM     93  S   UNL     1     -10.566  -3.526  13.229  1.00  0.00     0.124 S 
ATOM     94  O   UNL     1     -11.260  -4.807  13.158  1.00  0.00    -0.237 OA
ATOM     95  O   UNL     1      -9.734  -3.314  14.408  1.00  0.00    -0.237 OA
ATOM     96  O   UNL     1     -11.353  -2.367  12.811  1.00  0.00    -0.744 OA
ENDBRANCH  92  93
ENDBRANCH  60  85
BRANCH  72  97
ATOM     97  C   UNL     1      -1.315  -4.944   7.910  1.00  0.00     0.058 A 
ATOM     98  C   UNL     1      -2.207  -5.220   6.858  1.00  0.00     0.135 A 
ATOM     99  C   UNL     1      -0.186  -5.772   8.028  1.00  0.00     0.135 A 
ATOM    100  F   UNL     1      -3.256  -4.420   6.611  1.00  0.00    -0.206 F 
ATOM    101  C   UNL     1      -2.004  -6.298   5.992  1.00  0.00     0.059 A 
ATOM    102  C   UNL     1       0.053  -6.828   7.157  1.00  0.00     0.059 A 
ATOM    103  F   UNL     1       0.731  -5.527   8.979  1.00  0.00    -0.206 F 
ATOM    104  C   UNL     1      -0.870  -7.095   6.149  1.00  0.00     0.060 A 
BRANCH 104 105
ATOM    105  S   UNL     1      -0.577  -8.452   4.994  1.00  0.00     0.124 S 
ATOM    106  O   UNL     1      -1.645  -9.384   5.339  1.00  0.00    -0.237 OA
ATOM    107  O   UNL     1      -0.702  -7.793   3.698  1.00  0.00    -0.237 OA
ATOM    108  O   UNL     1       0.773  -8.902   5.328  1.00  0.00    -0.744 OA
ENDBRANCH 104 105
ENDBRANCH  72  97
ENDBRANCH  46  47
ENDBRANCH  39  41
ENDBRANCH  38  39
ENDBRANCH  37  38
ENDBRANCH  36  37
ENDBRANCH  35  36
ENDBRANCH  34  35
ENDBRANCH   1  34
TORSDOF 26
