REMARK SMILES O=C(Cn1cc(NC(=O)N2CC[N@@H+]3CCC[C@@H]3C2)cn1)OCCOCCOCCOCCOC(=O)c1ccc(-c2c3nc(c(-c4c(F)cc(S(=O)(=O)[O-])cc4F)c4ccc([nH]4)c(-c4c(F)cc(S(=O)(=O)[O-])cc4F)c4nc(c(-c5c(F)cc(S(=O)(=O)[O-])cc5F)c5ccc2[nH]5)C=C4)C=C3)cc1
REMARK SMILES IDX 27 1 26 2 25 3 24 4 23 5 22 6 21 7 2 8 1 9 3 10 4 11 5 12
REMARK SMILES IDX 20 13 6 14 19 15 7 16 8 17 9 19 10 20 11 21 18 22 12 23
REMARK SMILES IDX 17 24 13 25 16 26 14 27 15 29 28 30 29 31 30 32 31 33 32 34
REMARK SMILES IDX 33 35 34 36 35 37 36 38 37 39 101 40 38 41 100 42 39 43
REMARK SMILES IDX 40 44 41 45 94 46 42 47 99 48 93 49 95 50 43 51 98 52 92 53
REMARK SMILES IDX 91 54 44 56 78 57 57 58 77 59 58 60 61 61 76 62 96 63 59 64
REMARK SMILES IDX 60 65 75 67 97 68 62 69 45 70 46 71 55 72 47 73 48 74 54 75
REMARK SMILES IDX 56 76 49 77 50 78 51 79 52 80 53 81 79 82 80 83 89 84 81 85
REMARK SMILES IDX 82 86 88 87 90 88 83 89 84 90 85 91 86 92 87 93 63 94 64 95
REMARK SMILES IDX 73 96 65 97 66 98 72 99 74 100 67 101 68 102 69 103 70 104
REMARK SMILES IDX 71 105
REMARK H PARENT 7 18 13 28 95 55 61 66
REMARK Flexibility Score: inf
ROOT
ATOM      1  O   UNL     1       2.961  -3.034   2.346  1.00  0.00    -0.377 OA
ENDROOT
BRANCH   1   2
ATOM      2  C   UNL     1       2.021  -2.119   1.812  1.00  0.00     0.188 C 
BRANCH   2   3
ATOM      3  C   UNL     1       2.227  -1.729   0.350  1.00  0.00     0.188 C 
BRANCH   3   4
ATOM      4  O   UNL     1       3.549  -1.530  -0.098  1.00  0.00    -0.376 OA
BRANCH   4   5
ATOM      5  C   UNL     1       4.289  -0.342   0.076  1.00  0.00     0.202 C 
BRANCH   5   6
ATOM      6  C   UNL     1       3.673   0.955   0.600  1.00  0.00     0.261 C 
BRANCH   6   7
ATOM      7  O   UNL     1       2.267   1.229   0.417  1.00  0.00    -0.462 OA
BRANCH   7   8
ATOM      8  C   UNL     1       1.542   1.353  -0.713  1.00  0.00     0.327 C 
ATOM      9  O   UNL     1       0.387   1.775  -0.641  1.00  0.00    -0.250 OA
BRANCH   8  10
ATOM     10  C   UNL     1       2.087   0.887  -2.024  1.00  0.00     0.266 C 
BRANCH  10  11
ATOM     11  N   UNL     1       3.191   1.695  -2.460  1.00  0.00    -0.259 N 
ATOM     12  C   UNL     1       3.205   3.031  -2.738  1.00  0.00     0.135 A 
ATOM     13  N   UNL     1       4.390   1.116  -2.582  1.00  0.00    -0.179 NA
ATOM     14  C   UNL     1       4.525   3.339  -2.962  1.00  0.00     0.081 A 
ATOM     15  C   UNL     1       5.221   2.141  -2.709  1.00  0.00     0.161 A 
BRANCH  14  16
ATOM     16  N   UNL     1       5.015   4.572  -3.320  1.00  0.00    -0.305 N 
ATOM     17  C   UNL     1       6.312   4.828  -3.669  1.00  0.00     0.322 C 
ATOM     18  H   UNL     1       4.385   5.329  -3.326  1.00  0.00     0.171 HD
ATOM     19  O   UNL     1       6.800   5.927  -3.409  1.00  0.00    -0.248 OA
BRANCH  17  20
ATOM     20  N   UNL     1       7.021   3.825  -4.304  1.00  0.00    -0.313 N 
ATOM     21  C   UNL     1       6.449   3.039  -5.421  1.00  0.00     0.183 C 
ATOM     22  C   UNL     1       8.476   3.831  -4.217  1.00  0.00     0.186 C 
ATOM     23  C   UNL     1       7.503   2.233  -6.201  1.00  0.00     0.284 C 
ATOM     24  C   UNL     1       9.105   4.011  -5.606  1.00  0.00     0.204 C 
ATOM     25  N   UNL     1       8.627   3.065  -6.646  1.00  0.00    -0.330 N 
ATOM     26  C   UNL     1      10.623   3.865  -5.579  1.00  0.00     0.073 C 
ATOM     27  C   UNL     1       9.767   2.266  -7.096  1.00  0.00     0.262 C 
ATOM     28  H   UNL     1       8.249   3.599  -7.428  1.00  0.00     0.348 HD
ATOM     29  C   UNL     1      10.942   3.205  -6.907  1.00  0.00     0.068 C 
ENDBRANCH  17  20
ENDBRANCH  14  16
ENDBRANCH  10  11
ENDBRANCH   8  10
ENDBRANCH   7   8
ENDBRANCH   6   7
ENDBRANCH   5   6
ENDBRANCH   4   5
ENDBRANCH   3   4
ENDBRANCH   2   3
ENDBRANCH   1   2
BRANCH   1  30
ATOM     30  C   UNL     1       4.289  -2.569   2.464  1.00  0.00     0.188 C 
BRANCH  30  31
ATOM     31  C   UNL     1       5.327  -3.420   1.699  1.00  0.00     0.188 C 
BRANCH  31  32
ATOM     32  O   UNL     1       5.044  -4.147   0.506  1.00  0.00    -0.376 OA
BRANCH  32  33
ATOM     33  C   UNL     1       3.815  -4.814   0.249  1.00  0.00     0.202 C 
BRANCH  33  34
ATOM     34  C   UNL     1       3.312  -5.986   1.094  1.00  0.00     0.261 C 
BRANCH  34  35
ATOM     35  O   UNL     1       3.174  -5.652   2.459  1.00  0.00    -0.460 OA
BRANCH  35  36
ATOM     36  C   UNL     1       4.304  -5.839   3.166  1.00  0.00     0.338 C 
ATOM     37  O   UNL     1       5.328  -6.375   2.784  1.00  0.00    -0.246 OA
BRANCH  36  38
ATOM     38  C   UNL     1       4.109  -5.310   4.522  1.00  0.00     0.060 A 
ATOM     39  C   UNL     1       5.113  -5.635   5.429  1.00  0.00     0.016 A 
ATOM     40  C   UNL     1       2.879  -4.762   4.926  1.00  0.00     0.016 A 
ATOM     41  C   UNL     1       4.753  -5.759   6.743  1.00  0.00     0.010 A 
ATOM     42  C   UNL     1       2.529  -4.844   6.248  1.00  0.00     0.010 A 
ATOM     43  C   UNL     1       3.421  -5.503   7.084  1.00  0.00    -0.014 A 
BRANCH  43  44
ATOM     44  C   UNL     1       2.935  -6.192   8.255  1.00  0.00     0.031 A 
ATOM     45  C   UNL     1       3.360  -5.608   9.531  1.00  0.00     0.074 A 
ATOM     46  C   UNL     1       2.170  -7.293   8.133  1.00  0.00     0.049 A 
ATOM     47  N   UNL     1       4.163  -6.108  10.406  1.00  0.00    -0.248 NA
ATOM     48  C   UNL     1       2.936  -4.226   9.792  1.00  0.00     0.031 C 
ATOM     49  C   UNL     1       1.481  -7.792   6.936  1.00  0.00     0.029 A 
ATOM     50  N   UNL     1       1.756  -8.144   9.105  1.00  0.00    -0.354 N 
ATOM     51  C   UNL     1       4.171  -5.192  11.445  1.00  0.00     0.074 A 
ATOM     52  C   UNL     1       3.547  -3.989  10.950  1.00  0.00     0.031 C 
ATOM     53  C   UNL     1       0.558  -8.704   7.309  1.00  0.00     0.029 A 
ATOM     54  C   UNL     1       0.680  -8.935   8.738  1.00  0.00     0.049 A 
ATOM     55  H   UNL     1       2.181  -8.195   9.991  1.00  0.00     0.167 HD
ATOM     56  C   UNL     1       4.446  -5.563  12.721  1.00  0.00     0.037 A 
ATOM     57  C   UNL     1      -0.120  -9.623   9.586  1.00  0.00     0.037 A 
ATOM     58  C   UNL     1       5.135  -6.822  12.798  1.00  0.00     0.049 A 
ATOM     59  C   UNL     1       0.631  -9.804  10.858  1.00  0.00     0.074 A 
ATOM     60  C   UNL     1       6.331  -7.297  12.295  1.00  0.00     0.029 A 
ATOM     61  N   UNL     1       4.423  -7.933  13.182  1.00  0.00    -0.354 N 
ATOM     62  N   UNL     1       1.701 -10.544  10.986  1.00  0.00    -0.248 NA
ATOM     63  C   UNL     1       0.434  -8.823  11.916  1.00  0.00     0.031 C 
ATOM     64  C   UNL     1       6.098  -8.670  11.993  1.00  0.00     0.029 A 
ATOM     65  C   UNL     1       4.779  -8.960  12.342  1.00  0.00     0.049 A 
ATOM     66  H   UNL     1       3.777  -7.983  13.923  1.00  0.00     0.167 HD
ATOM     67  C   UNL     1       2.505  -9.867  11.895  1.00  0.00     0.074 A 
ATOM     68  C   UNL     1       1.627  -8.880  12.513  1.00  0.00     0.031 C 
ATOM     69  C   UNL     1       3.866  -9.981  11.866  1.00  0.00     0.037 A 
BRANCH  56  70
ATOM     70  C   UNL     1       3.752  -4.922  13.883  1.00  0.00     0.058 A 
ATOM     71  C   UNL     1       4.307  -4.997  15.169  1.00  0.00     0.135 A 
ATOM     72  C   UNL     1       2.425  -4.437  13.800  1.00  0.00     0.135 A 
ATOM     73  F   UNL     1       5.546  -5.482  15.348  1.00  0.00    -0.206 F 
ATOM     74  C   UNL     1       3.581  -4.638  16.303  1.00  0.00     0.059 A 
ATOM     75  C   UNL     1       1.707  -4.016  14.906  1.00  0.00     0.059 A 
ATOM     76  F   UNL     1       1.741  -4.444  12.647  1.00  0.00    -0.206 F 
ATOM     77  C   UNL     1       2.278  -4.161  16.160  1.00  0.00     0.060 A 
BRANCH  77  78
ATOM     78  S   UNL     1       1.292  -3.805  17.622  1.00  0.00     0.124 S 
ATOM     79  O   UNL     1       0.925  -5.150  18.050  1.00  0.00    -0.237 OA
ATOM     80  O   UNL     1       2.244  -3.099  18.472  1.00  0.00    -0.237 OA
ATOM     81  O   UNL     1       0.203  -2.986  17.098  1.00  0.00    -0.744 OA
ENDBRANCH  77  78
ENDBRANCH  56  70
BRANCH  57  82
ATOM     82  C   UNL     1      -1.595  -9.765   9.475  1.00  0.00     0.058 A 
ATOM     83  C   UNL     1      -2.296 -10.687  10.268  1.00  0.00     0.135 A 
ATOM     84  C   UNL     1      -2.382  -8.829   8.769  1.00  0.00     0.135 A 
ATOM     85  F   UNL     1      -1.628 -11.589  11.003  1.00  0.00    -0.206 F 
ATOM     86  C   UNL     1      -3.691 -10.665  10.377  1.00  0.00     0.059 A 
ATOM     87  C   UNL     1      -3.771  -8.801   8.844  1.00  0.00     0.059 A 
ATOM     88  F   UNL     1      -1.822  -7.845   8.050  1.00  0.00    -0.206 F 
ATOM     89  C   UNL     1      -4.419  -9.708   9.669  1.00  0.00     0.060 A 
BRANCH  89  90
ATOM     90  S   UNL     1      -6.203  -9.576   9.921  1.00  0.00     0.124 S 
ATOM     91  O   UNL     1      -6.686 -10.803   9.298  1.00  0.00    -0.237 OA
ATOM     92  O   UNL     1      -6.303  -9.514  11.375  1.00  0.00    -0.237 OA
ATOM     93  O   UNL     1      -6.554  -8.342   9.223  1.00  0.00    -0.744 OA
ENDBRANCH  89  90
ENDBRANCH  57  82
BRANCH  69  94
ATOM     94  C   UNL     1       4.464 -11.093  11.040  1.00  0.00     0.058 A 
ATOM     95  C   UNL     1       4.374 -11.158   9.639  1.00  0.00     0.135 A 
ATOM     96  C   UNL     1       5.284 -12.040  11.672  1.00  0.00     0.135 A 
ATOM     97  F   UNL     1       3.702 -10.224   8.951  1.00  0.00    -0.206 F 
ATOM     98  C   UNL     1       5.030 -12.145   8.902  1.00  0.00     0.059 A 
ATOM     99  C   UNL     1       5.973 -13.017  10.955  1.00  0.00     0.059 A 
ATOM    100  F   UNL     1       5.468 -11.991  13.002  1.00  0.00    -0.206 F 
ATOM    101  C   UNL     1       5.830 -13.072   9.569  1.00  0.00     0.060 A 
BRANCH 101 102
ATOM    102  S   UNL     1       6.753 -14.290   8.605  1.00  0.00     0.124 S 
ATOM    103  O   UNL     1       5.710 -15.239   8.230  1.00  0.00    -0.237 OA
ATOM    104  O   UNL     1       7.303 -13.488   7.516  1.00  0.00    -0.237 OA
ATOM    105  O   UNL     1       7.744 -14.794   9.553  1.00  0.00    -0.744 OA
ENDBRANCH 101 102
ENDBRANCH  69  94
ENDBRANCH  43  44
ENDBRANCH  36  38
ENDBRANCH  35  36
ENDBRANCH  34  35
ENDBRANCH  33  34
ENDBRANCH  32  33
ENDBRANCH  31  32
ENDBRANCH  30  31
ENDBRANCH   1  30
TORSDOF 26
