REMARK SMILES COc1ccc(-c2cccc(/C=C\C(=O)OCCOCCOCCOCCOC(=O)c3ccc(-c4c5nc(c(-c6c(F)cc(S(=O)(=O)[O-])cc6F)c6ccc([nH]6)c(-c6c(F)cc(S(=O)(=O)[O-])cc6F)c6nc(c(-c7c(F)cc(S(=O)(=O)[O-])cc7F)c7ccc4[nH]7)C=C6)C=C5)cc3)c2)c(Cl)c1OC
REMARK SMILES IDX 22 1 21 2 20 3 19 4 18 5 17 6 16 7 14 8 15 9 13 10 12 11
REMARK SMILES IDX 11 12 7 13 8 14 97 15 9 16 10 17 6 18 3 19 4 20 100 21 5 22
REMARK SMILES IDX 98 23 99 24 2 25 1 26 101 27 102 28 23 29 24 30 25 31 26 32
REMARK SMILES IDX 27 33 28 34 29 35 30 36 31 37 32 38 96 39 33 40 95 41 34 42
REMARK SMILES IDX 35 43 36 44 89 45 37 46 94 47 88 48 90 49 38 50 93 51 87 52
REMARK SMILES IDX 86 53 39 55 73 56 52 57 72 58 53 59 56 60 71 61 91 62 54 63
REMARK SMILES IDX 55 64 70 66 92 67 57 68 40 69 41 70 50 71 42 72 43 73 49 74
REMARK SMILES IDX 51 75 44 76 45 77 46 78 47 79 48 80 74 81 75 82 84 83 76 84
REMARK SMILES IDX 77 85 83 86 85 87 78 88 79 89 80 90 81 91 82 92 58 93 59 94
REMARK SMILES IDX 68 95 60 96 61 97 67 98 69 99 62 100 63 101 64 102 65 103
REMARK SMILES IDX 66 104
REMARK H PARENT 90 54 56 65
REMARK Flexibility Score: inf
ROOT
ATOM      1  O   UNL     1       0.765   2.230 -11.257  1.00  0.00    -0.377 OA
ENDROOT
BRANCH   1   2
ATOM      2  C   UNL     1       0.620   3.634 -11.473  1.00  0.00     0.188 C 
BRANCH   2   3
ATOM      3  C   UNL     1       1.725   4.492 -12.148  1.00  0.00     0.188 C 
BRANCH   3   4
ATOM      4  O   UNL     1       2.791   3.714 -12.636  1.00  0.00    -0.376 OA
BRANCH   4   5
ATOM      5  C   UNL     1       4.150   4.042 -12.485  1.00  0.00     0.202 C 
BRANCH   5   6
ATOM      6  C   UNL     1       4.758   4.257 -11.093  1.00  0.00     0.261 C 
BRANCH   6   7
ATOM      7  O   UNL     1       3.822   4.551 -10.063  1.00  0.00    -0.460 OA
BRANCH   7   8
ATOM      8  C   UNL     1       3.543   5.816  -9.732  1.00  0.00     0.330 C 
ATOM      9  O   UNL     1       4.056   6.816 -10.209  1.00  0.00    -0.247 OA
BRANCH   8  10
ATOM     10  C   UNL     1       2.326   5.861  -8.880  1.00  0.00     0.094 C 
ATOM     11  C   UNL     1       1.718   4.939  -8.108  1.00  0.00     0.015 C 
BRANCH  11  12
ATOM     12  C   UNL     1       2.085   3.558  -7.735  1.00  0.00    -0.025 A 
ATOM     13  C   UNL     1       2.100   1.828  -6.009  1.00  0.00    -0.016 A 
ATOM     14  C   UNL     1       2.791   0.965  -6.866  1.00  0.00     0.009 A 
ATOM     15  C   UNL     1       1.796   3.135  -6.434  1.00  0.00     0.017 A 
ATOM     16  C   UNL     1       3.029   1.344  -8.174  1.00  0.00     0.001 A 
ATOM     17  C   UNL     1       2.611   2.602  -8.607  1.00  0.00     0.008 A 
BRANCH  13  18
ATOM     18  C   UNL     1       1.606   1.313  -4.729  1.00  0.00     0.004 A 
ATOM     19  C   UNL     1       0.797   0.190  -2.303  1.00  0.00     0.162 A 
ATOM     20  C   UNL     1       2.115   0.625  -2.470  1.00  0.00     0.051 A 
ATOM     21  C   UNL     1      -0.152   0.293  -3.352  1.00  0.00     0.180 A 
ATOM     22  C   UNL     1       2.513   1.193  -3.671  1.00  0.00     0.014 A 
ATOM     23  C   UNL     1       0.265   0.857  -4.572  1.00  0.00     0.094 A 
ATOM     24  Cl  UNL     1      -0.785   1.011  -5.959  1.00  0.00    -0.079 Cl
BRANCH  19  25
ATOM     25  O   UNL     1       0.367  -0.419  -1.144  1.00  0.00    -0.493 OA
ATOM     26  C   UNL     1       0.979   0.037   0.054  1.00  0.00     0.278 C 
ENDBRANCH  19  25
BRANCH  21  27
ATOM     27  O   UNL     1      -1.385  -0.187  -2.989  1.00  0.00    -0.491 OA
ATOM     28  C   UNL     1      -2.483  -0.209  -3.878  1.00  0.00     0.278 C 
ENDBRANCH  21  27
ENDBRANCH  13  18
ENDBRANCH  11  12
ENDBRANCH   8  10
ENDBRANCH   7   8
ENDBRANCH   6   7
ENDBRANCH   5   6
ENDBRANCH   4   5
ENDBRANCH   3   4
ENDBRANCH   2   3
ENDBRANCH   1   2
BRANCH   1  29
ATOM     29  C   UNL     1       1.638   1.464 -12.080  1.00  0.00     0.188 C 
BRANCH  29  30
ATOM     30  C   UNL     1       1.448   1.554 -13.609  1.00  0.00     0.188 C 
BRANCH  30  31
ATOM     31  O   UNL     1       0.576   2.600 -14.011  1.00  0.00    -0.376 OA
BRANCH  31  32
ATOM     32  C   UNL     1      -0.739   2.234 -14.398  1.00  0.00     0.202 C 
BRANCH  32  33
ATOM     33  C   UNL     1      -1.623   1.426 -13.429  1.00  0.00     0.261 C 
BRANCH  33  34
ATOM     34  O   UNL     1      -1.035   0.276 -12.802  1.00  0.00    -0.460 OA
BRANCH  34  35
ATOM     35  C   UNL     1      -0.789  -0.799 -13.574  1.00  0.00     0.338 C 
ATOM     36  O   UNL     1      -1.004  -0.903 -14.776  1.00  0.00    -0.246 OA
BRANCH  35  37
ATOM     37  C   UNL     1      -0.031  -1.775 -12.766  1.00  0.00     0.060 A 
ATOM     38  C   UNL     1       1.270  -2.116 -13.159  1.00  0.00     0.016 A 
ATOM     39  C   UNL     1      -0.598  -2.351 -11.625  1.00  0.00     0.016 A 
ATOM     40  C   UNL     1       1.992  -3.064 -12.434  1.00  0.00     0.010 A 
ATOM     41  C   UNL     1       0.120  -3.317 -10.912  1.00  0.00     0.010 A 
ATOM     42  C   UNL     1       1.404  -3.705 -11.335  1.00  0.00    -0.014 A 
BRANCH  42  43
ATOM     43  C   UNL     1       2.061  -4.904 -10.757  1.00  0.00     0.031 A 
ATOM     44  C   UNL     1       1.575  -6.263 -11.183  1.00  0.00     0.074 A 
ATOM     45  C   UNL     1       3.097  -4.790  -9.906  1.00  0.00     0.049 A 
ATOM     46  N   UNL     1       1.991  -7.447 -10.816  1.00  0.00    -0.248 NA
ATOM     47  C   UNL     1       0.468  -6.289 -12.153  1.00  0.00     0.031 C 
ATOM     48  C   UNL     1       3.676  -3.530  -9.444  1.00  0.00     0.029 A 
ATOM     49  N   UNL     1       3.841  -5.756  -9.275  1.00  0.00    -0.354 N 
ATOM     50  C   UNL     1       1.192  -8.357 -11.501  1.00  0.00     0.074 A 
ATOM     51  C   UNL     1       0.248  -7.588 -12.281  1.00  0.00     0.031 C 
ATOM     52  C   UNL     1       4.680  -3.800  -8.591  1.00  0.00     0.029 A 
ATOM     53  C   UNL     1       4.794  -5.249  -8.424  1.00  0.00     0.049 A 
ATOM     54  H   UNL     1       3.706  -6.720  -9.419  1.00  0.00     0.167 HD
ATOM     55  C   UNL     1       1.246  -9.710 -11.485  1.00  0.00     0.037 A 
ATOM     56  C   UNL     1       5.643  -5.882  -7.589  1.00  0.00     0.037 A 
ATOM     57  C   UNL     1       2.188 -10.469 -10.702  1.00  0.00     0.049 A 
ATOM     58  C   UNL     1       5.651  -7.390  -7.547  1.00  0.00     0.074 A 
ATOM     59  C   UNL     1       2.345 -11.842 -10.640  1.00  0.00     0.029 A 
ATOM     60  N   UNL     1       3.121  -9.921  -9.834  1.00  0.00    -0.354 N 
ATOM     61  N   UNL     1       4.918  -8.239  -8.229  1.00  0.00    -0.248 NA
ATOM     62  C   UNL     1       6.606  -8.025  -6.630  1.00  0.00     0.031 C 
ATOM     63  C   UNL     1       3.327 -12.127  -9.686  1.00  0.00     0.029 A 
ATOM     64  C   UNL     1       3.834 -10.930  -9.205  1.00  0.00     0.049 A 
ATOM     65  H   UNL     1       3.257  -8.957  -9.685  1.00  0.00     0.167 HD
ATOM     66  C   UNL     1       5.341  -9.508  -7.840  1.00  0.00     0.074 A 
ATOM     67  C   UNL     1       6.406  -9.312  -6.878  1.00  0.00     0.031 C 
ATOM     68  C   UNL     1       4.891 -10.723  -8.244  1.00  0.00     0.037 A 
BRANCH  55  69
ATOM     69  C   UNL     1       0.231 -10.459 -12.307  1.00  0.00     0.058 A 
ATOM     70  C   UNL     1       0.259 -10.456 -13.712  1.00  0.00     0.135 A 
ATOM     71  C   UNL     1      -0.773 -11.213 -11.677  1.00  0.00     0.135 A 
ATOM     72  F   UNL     1       1.184  -9.738 -14.369  1.00  0.00    -0.206 F 
ATOM     73  C   UNL     1      -0.688 -11.150 -14.460  1.00  0.00     0.059 A 
ATOM     74  C   UNL     1      -1.710 -11.940 -12.405  1.00  0.00     0.059 A 
ATOM     75  F   UNL     1      -0.850 -11.249 -10.337  1.00  0.00    -0.206 F 
ATOM     76  C   UNL     1      -1.668 -11.890 -13.797  1.00  0.00     0.060 A 
BRANCH  76  77
ATOM     77  S   UNL     1      -2.886 -12.787 -14.782  1.00  0.00     0.124 S 
ATOM     78  O   UNL     1      -3.688 -11.694 -15.322  1.00  0.00    -0.237 OA
ATOM     79  O   UNL     1      -2.047 -13.493 -15.745  1.00  0.00    -0.237 OA
ATOM     80  O   UNL     1      -3.560 -13.634 -13.803  1.00  0.00    -0.744 OA
ENDBRANCH  76  77
ENDBRANCH  55  69
BRANCH  56  81
ATOM     81  C   UNL     1       6.544  -5.088  -6.709  1.00  0.00     0.058 A 
ATOM     82  C   UNL     1       7.934  -5.083  -6.897  1.00  0.00     0.135 A 
ATOM     83  C   UNL     1       6.025  -4.308  -5.663  1.00  0.00     0.135 A 
ATOM     84  F   UNL     1       8.482  -5.824  -7.872  1.00  0.00    -0.206 F 
ATOM     85  C   UNL     1       8.778  -4.338  -6.078  1.00  0.00     0.059 A 
ATOM     86  C   UNL     1       6.845  -3.532  -4.850  1.00  0.00     0.059 A 
ATOM     87  F   UNL     1       4.702  -4.270  -5.444  1.00  0.00    -0.206 F 
ATOM     88  C   UNL     1       8.222  -3.559  -5.062  1.00  0.00     0.060 A 
BRANCH  88  89
ATOM     89  S   UNL     1       9.319  -2.539  -4.052  1.00  0.00     0.124 S 
ATOM     90  O   UNL     1      10.006  -3.546  -3.252  1.00  0.00    -0.237 OA
ATOM     91  O   UNL     1      10.126  -1.866  -5.065  1.00  0.00    -0.237 OA
ATOM     92  O   UNL     1       8.396  -1.674  -3.323  1.00  0.00    -0.744 OA
ENDBRANCH  88  89
ENDBRANCH  56  81
BRANCH  68  93
ATOM     93  C   UNL     1       5.569 -11.942  -7.673  1.00  0.00     0.058 A 
ATOM     94  C   UNL     1       5.421 -12.314  -6.327  1.00  0.00     0.135 A 
ATOM     95  C   UNL     1       6.352 -12.770  -8.495  1.00  0.00     0.135 A 
ATOM     96  F   UNL     1       4.687 -11.560  -5.494  1.00  0.00    -0.206 F 
ATOM     97  C   UNL     1       6.055 -13.439  -5.808  1.00  0.00     0.059 A 
ATOM     98  C   UNL     1       6.967 -13.919  -8.006  1.00  0.00     0.059 A 
ATOM     99  F   UNL     1       6.518 -12.472  -9.794  1.00  0.00    -0.206 F 
ATOM    100  C   UNL     1       6.827 -14.235  -6.657  1.00  0.00     0.060 A 
BRANCH 100 101
ATOM    101  S   UNL     1       7.639 -15.696  -5.973  1.00  0.00     0.124 S 
ATOM    102  O   UNL     1       8.700 -15.095  -5.172  1.00  0.00    -0.237 OA
ATOM    103  O   UNL     1       6.559 -16.330  -5.222  1.00  0.00    -0.237 OA
ATOM    104  O   UNL     1       8.084 -16.425  -7.157  1.00  0.00    -0.744 OA
ENDBRANCH 100 101
ENDBRANCH  68  93
ENDBRANCH  42  43
ENDBRANCH  35  37
ENDBRANCH  34  35
ENDBRANCH  33  34
ENDBRANCH  32  33
ENDBRANCH  31  32
ENDBRANCH  30  31
ENDBRANCH  29  30
ENDBRANCH   1  29
TORSDOF 27
