REMARK SMILES O=C(N[C@@H](Cc1ccc(O)cc1)C(=O)N[C@@H](Cc1c[nH]c2ccccc12)C(=O)N[C@@H](CO)C(=O)OCCOCCOCCOCCOC(=O)c1ccc(-c2c3nc(c(-c4c(F)cc(S(=O)(=O)[O-])cc4F)c4ccc([nH]4)c(-c4c(F)cc(S(=O)(=O)[O-])cc4F)c4nc(c(-c5c(F)cc(S(=O)(=O)[O-])cc5F)c5ccc2[nH]5)C=C4)C=C3)cc1)c1ccc(F)cc1
REMARK SMILES IDX 39 1 38 2 37 3 36 4 35 5 33 6 34 7 30 8 29 9 27 10 28 11
REMARK SMILES IDX 16 13 15 14 13 15 14 16 4 18 3 19 1 20 2 21 116 23 117 24
REMARK SMILES IDX 122 25 118 26 121 27 119 28 120 29 5 30 6 31 7 32 12 33 8 34
REMARK SMILES IDX 11 35 9 36 10 37 17 39 18 40 19 41 26 42 20 43 21 44 25 45
REMARK SMILES IDX 22 47 24 48 23 49 31 50 32 51 40 53 41 54 42 55 43 56 44 57
REMARK SMILES IDX 45 58 46 59 47 60 48 61 49 62 50 63 51 64 115 65 52 66
REMARK SMILES IDX 114 67 53 68 54 69 55 70 108 71 56 72 113 73 107 74 109 75
REMARK SMILES IDX 57 76 112 77 106 78 105 79 58 81 92 82 71 83 91 84 72 85
REMARK SMILES IDX 75 86 90 87 110 88 73 89 74 90 89 92 111 93 76 94 59 95
REMARK SMILES IDX 60 96 69 97 61 98 62 99 68 100 70 101 63 102 64 103 65 104
REMARK SMILES IDX 66 105 67 106 93 107 94 108 103 109 95 110 96 111 102 112
REMARK SMILES IDX 104 113 97 114 98 115 99 116 100 117 101 118 77 119 78 120
REMARK SMILES IDX 87 121 79 122 80 123 86 124 88 125 81 126 82 127 83 128
REMARK SMILES IDX 84 129 85 130
REMARK H PARENT 29 12 15 17 3 22 10 38 20 46 32 52 109 80 75 91
REMARK Flexibility Score: inf
ROOT
ATOM      1  C   UNL     1       1.845   2.011   9.089  1.00  0.00     0.188 C 
ENDROOT
BRANCH   1   2
ATOM      2  O   UNL     1       2.206   2.158  10.456  1.00  0.00    -0.376 OA
BRANCH   2   3
ATOM      3  C   UNL     1       3.187   1.240  10.933  1.00  0.00     0.202 C 
BRANCH   3   4
ATOM      4  C   UNL     1       4.625   1.600  10.552  1.00  0.00     0.261 C 
BRANCH   4   5
ATOM      5  O   UNL     1       4.939   1.350   9.163  1.00  0.00    -0.462 OA
BRANCH   5   6
ATOM      6  C   UNL     1       5.367   0.112   8.800  1.00  0.00     0.331 C 
ATOM      7  O   UNL     1       5.401  -0.851   9.557  1.00  0.00    -0.250 OA
BRANCH   6   8
ATOM      8  C   UNL     1       5.832   0.068   7.317  1.00  0.00     0.218 C 
BRANCH   8   9
ATOM      9  N   UNL     1       5.387   1.234   6.524  1.00  0.00    -0.339 N 
ATOM     10  C   UNL     1       5.289   1.361   5.180  1.00  0.00     0.243 C 
ATOM     11  O   UNL     1       6.046   2.218   4.700  1.00  0.00    -0.273 OA
ATOM     12  H   UNL     1       5.126   2.027   7.046  1.00  0.00     0.164 HD
BRANCH  10  13
ATOM     13  C   UNL     1       4.412   0.492   4.210  1.00  0.00     0.175 C 
BRANCH  13  14
ATOM     14  N   UNL     1       5.265  -0.288   3.319  1.00  0.00    -0.342 N 
ATOM     15  C   UNL     1       5.519  -0.101   1.991  1.00  0.00     0.243 C 
ATOM     16  O   UNL     1       6.484  -0.724   1.528  1.00  0.00    -0.273 OA
ATOM     17  H   UNL     1       5.720  -1.056   3.734  1.00  0.00     0.164 HD
BRANCH  15  18
ATOM     18  C   UNL     1       4.656   0.788   1.038  1.00  0.00     0.176 C 
BRANCH  18  19
ATOM     19  N   UNL     1       3.235   0.424   1.020  1.00  0.00    -0.340 N 
ATOM     20  O   UNL     1       1.285  -0.222   0.089  1.00  0.00    -0.269 OA
ATOM     21  C   UNL     1       2.508  -0.155   0.009  1.00  0.00     0.251 C 
ATOM     22  H   UNL     1       2.734   0.621   1.845  1.00  0.00     0.164 HD
BRANCH  21  23
ATOM     23  C   UNL     1       3.186  -0.686  -1.194  1.00  0.00     0.040 A 
ATOM     24  C   UNL     1       4.184  -1.663  -1.078  1.00  0.00     0.017 A 
ATOM     25  C   UNL     1       2.791  -0.226  -2.457  1.00  0.00     0.017 A 
ATOM     26  C   UNL     1       4.828  -2.135  -2.222  1.00  0.00     0.040 A 
ATOM     27  C   UNL     1       3.433  -0.709  -3.600  1.00  0.00     0.040 A 
ATOM     28  C   UNL     1       4.450  -1.651  -3.471  1.00  0.00     0.123 A 
ATOM     29  F   UNL     1       5.072  -2.104  -4.567  1.00  0.00    -0.207 F 
ENDBRANCH  21  23
ENDBRANCH  18  19
BRANCH  18  30
ATOM     30  C   UNL     1       4.940   2.308   0.942  1.00  0.00     0.070 C 
BRANCH  30  31
ATOM     31  C   UNL     1       4.488   3.300   1.988  1.00  0.00    -0.045 A 
ATOM     32  C   UNL     1       5.409   4.271   2.423  1.00  0.00     0.007 A 
ATOM     33  C   UNL     1       3.187   3.350   2.506  1.00  0.00     0.007 A 
ATOM     34  C   UNL     1       5.089   5.167   3.444  1.00  0.00     0.046 A 
ATOM     35  C   UNL     1       2.876   4.218   3.557  1.00  0.00     0.046 A 
ATOM     36  C   UNL     1       3.838   5.098   4.033  1.00  0.00     0.115 A 
BRANCH  36  37
ATOM     37  O   UNL     1       3.521   5.894   5.088  1.00  0.00    -0.508 OA
ATOM     38  H   UNL     1       4.154   6.496   5.427  1.00  0.00     0.293 HD
ENDBRANCH  36  37
ENDBRANCH  30  31
ENDBRANCH  18  30
ENDBRANCH  15  18
ENDBRANCH  13  14
BRANCH  13  39
ATOM     39  C   UNL     1       3.051  -0.167   4.509  1.00  0.00     0.072 C 
BRANCH  39  40
ATOM     40  C   UNL     1       2.905  -1.045   5.698  1.00  0.00    -0.020 A 
ATOM     41  C   UNL     1       2.871  -0.549   6.974  1.00  0.00     0.087 A 
ATOM     42  C   UNL     1       2.616  -2.442   5.823  1.00  0.00     0.003 A 
ATOM     43  N   UNL     1       2.750  -1.562   7.869  1.00  0.00    -0.361 N 
ATOM     44  C   UNL     1       2.578  -2.738   7.191  1.00  0.00     0.046 A 
ATOM     45  C   UNL     1       2.362  -3.494   4.921  1.00  0.00     0.010 A 
ATOM     46  H   UNL     1       2.780  -1.466   8.848  1.00  0.00     0.166 HD
ATOM     47  C   UNL     1       2.374  -4.020   7.705  1.00  0.00     0.026 A 
ATOM     48  C   UNL     1       2.113  -4.782   5.420  1.00  0.00     0.001 A 
ATOM     49  C   UNL     1       2.138  -5.042   6.790  1.00  0.00     0.002 A 
ENDBRANCH  39  40
ENDBRANCH  13  39
ENDBRANCH  10  13
ENDBRANCH   8   9
BRANCH   8  50
ATOM     50  C   UNL     1       7.366  -0.003   7.335  1.00  0.00     0.193 C 
BRANCH  50  51
ATOM     51  O   UNL     1       7.936   1.215   7.814  1.00  0.00    -0.394 OA
ATOM     52  H   UNL     1       7.678   1.944   7.228  1.00  0.00     0.210 HD
ENDBRANCH  50  51
ENDBRANCH   8  50
ENDBRANCH   6   8
ENDBRANCH   5   6
ENDBRANCH   4   5
ENDBRANCH   3   4
ENDBRANCH   2   3
ENDBRANCH   1   2
BRANCH   1  53
ATOM     53  C   UNL     1       2.622   2.919   8.121  1.00  0.00     0.188 C 
BRANCH  53  54
ATOM     54  O   UNL     1       3.032   4.187   8.600  1.00  0.00    -0.377 OA
BRANCH  54  55
ATOM     55  C   UNL     1       2.150   4.875   9.472  1.00  0.00     0.188 C 
BRANCH  55  56
ATOM     56  C   UNL     1       0.642   4.846   9.162  1.00  0.00     0.188 C 
BRANCH  56  57
ATOM     57  O   UNL     1       0.344   4.418   7.834  1.00  0.00    -0.376 OA
BRANCH  57  58
ATOM     58  C   UNL     1      -0.337   5.364   7.022  1.00  0.00     0.202 C 
BRANCH  58  59
ATOM     59  C   UNL     1       0.579   6.406   6.372  1.00  0.00     0.261 C 
BRANCH  59  60
ATOM     60  O   UNL     1       1.477   7.064   7.277  1.00  0.00    -0.460 OA
BRANCH  60  61
ATOM     61  C   UNL     1       0.911   7.954   8.119  1.00  0.00     0.338 C 
ATOM     62  O   UNL     1      -0.267   8.270   8.155  1.00  0.00    -0.246 OA
BRANCH  61  63
ATOM     63  C   UNL     1       1.902   8.311   9.156  1.00  0.00     0.060 A 
ATOM     64  C   UNL     1       1.507   8.195  10.495  1.00  0.00     0.016 A 
ATOM     65  C   UNL     1       3.210   8.696   8.834  1.00  0.00     0.016 A 
ATOM     66  C   UNL     1       2.397   8.520  11.515  1.00  0.00     0.010 A 
ATOM     67  C   UNL     1       4.092   9.061   9.857  1.00  0.00     0.010 A 
ATOM     68  C   UNL     1       3.665   9.026  11.196  1.00  0.00    -0.014 A 
BRANCH  68  69
ATOM     69  C   UNL     1       4.343   9.851  12.225  1.00  0.00     0.031 A 
ATOM     70  C   UNL     1       3.920  11.297  12.309  1.00  0.00     0.074 A 
ATOM     71  C   UNL     1       5.212   9.337  13.113  1.00  0.00     0.049 A 
ATOM     72  N   UNL     1       4.250  12.214  13.178  1.00  0.00    -0.248 NA
ATOM     73  C   UNL     1       2.975  11.762  11.275  1.00  0.00     0.031 C 
ATOM     74  C   UNL     1       5.664   7.948  13.159  1.00  0.00     0.029 A 
ATOM     75  N   UNL     1       5.857   9.937  14.165  1.00  0.00    -0.354 N 
ATOM     76  C   UNL     1       3.529  13.347  12.816  1.00  0.00     0.074 A 
ATOM     77  C   UNL     1       2.781  13.022  11.624  1.00  0.00     0.031 C 
ATOM     78  C   UNL     1       6.518   7.803  14.190  1.00  0.00     0.029 A 
ATOM     79  C   UNL     1       6.675   9.087  14.872  1.00  0.00     0.049 A 
ATOM     80  H   UNL     1       5.745  10.888  14.393  1.00  0.00     0.167 HD
ATOM     81  C   UNL     1       3.476  14.551  13.429  1.00  0.00     0.037 A 
ATOM     82  C   UNL     1       7.453   9.329  15.946  1.00  0.00     0.037 A 
ATOM     83  C   UNL     1       4.254  14.892  14.586  1.00  0.00     0.049 A 
ATOM     84  C   UNL     1       7.448  10.710  16.561  1.00  0.00     0.074 A 
ATOM     85  C   UNL     1       4.326  16.100  15.254  1.00  0.00     0.029 A 
ATOM     86  N   UNL     1       5.104  14.015  15.243  1.00  0.00    -0.354 N 
ATOM     87  N   UNL     1       6.756  11.770  16.212  1.00  0.00    -0.248 NA
ATOM     88  C   UNL     1       8.321  10.921  17.725  1.00  0.00     0.031 C 
ATOM     89  C   UNL     1       5.246  15.962  16.299  1.00  0.00     0.029 A 
ATOM     90  C   UNL     1       5.710  14.656  16.308  1.00  0.00     0.049 A 
ATOM     91  H   UNL     1       5.253  13.075  14.989  1.00  0.00     0.167 HD
ATOM     92  C   UNL     1       7.078  12.758  17.139  1.00  0.00     0.074 A 
ATOM     93  C   UNL     1       8.024  12.167  18.064  1.00  0.00     0.031 C 
ATOM     94  C   UNL     1       6.631  14.036  17.225  1.00  0.00     0.037 A 
BRANCH  81  95
ATOM     95  C   UNL     1       2.562  15.580  12.831  1.00  0.00     0.058 A 
ATOM     96  C   UNL     1       1.167  15.476  12.951  1.00  0.00     0.135 A 
ATOM     97  C   UNL     1       3.081  16.668  12.113  1.00  0.00     0.135 A 
ATOM     98  F   UNL     1       0.620  14.434  13.598  1.00  0.00    -0.206 F 
ATOM     99  C   UNL     1       0.316  16.405  12.363  1.00  0.00     0.059 A 
ATOM    100  C   UNL     1       2.249  17.622  11.535  1.00  0.00     0.059 A 
ATOM    101  F   UNL     1       4.407  16.803  11.954  1.00  0.00    -0.206 F 
ATOM    102  C   UNL     1       0.867  17.474  11.655  1.00  0.00     0.060 A 
BRANCH 102 103
ATOM    103  S   UNL     1      -0.248  18.673  10.895  1.00  0.00     0.124 S 
ATOM    104  O   UNL     1      -0.754  17.917   9.753  1.00  0.00    -0.237 OA
ATOM    105  O   UNL     1      -1.209  18.927  11.963  1.00  0.00    -0.237 OA
ATOM    106  O   UNL     1       0.630  19.792  10.567  1.00  0.00    -0.744 OA
ENDBRANCH 102 103
ENDBRANCH  81  95
BRANCH  82 107
ATOM    107  C   UNL     1       8.300   8.252  16.529  1.00  0.00     0.058 A 
ATOM    108  C   UNL     1       8.031   7.720  17.799  1.00  0.00     0.135 A 
ATOM    109  C   UNL     1       9.428   7.770  15.846  1.00  0.00     0.135 A 
ATOM    110  F   UNL     1       6.972   8.156  18.498  1.00  0.00    -0.206 F 
ATOM    111  C   UNL     1       8.865   6.771  18.386  1.00  0.00     0.059 A 
ATOM    112  C   UNL     1      10.263   6.804  16.401  1.00  0.00     0.059 A 
ATOM    113  F   UNL     1       9.726   8.240  14.625  1.00  0.00    -0.206 F 
ATOM    114  C   UNL     1       9.982   6.323  17.680  1.00  0.00     0.060 A 
BRANCH 114 115
ATOM    115  S   UNL     1      11.052   5.081  18.439  1.00  0.00     0.124 S 
ATOM    116  O   UNL     1      11.779   5.879  19.419  1.00  0.00    -0.237 OA
ATOM    117  O   UNL     1      10.085   4.130  18.980  1.00  0.00    -0.237 OA
ATOM    118  O   UNL     1      11.841   4.588  17.315  1.00  0.00    -0.744 OA
ENDBRANCH 114 115
ENDBRANCH  82 107
BRANCH  94 119
ATOM    119  C   UNL     1       7.109  14.858  18.389  1.00  0.00     0.058 A 
ATOM    120  C   UNL     1       8.420  15.351  18.462  1.00  0.00     0.135 A 
ATOM    121  C   UNL     1       6.225  15.182  19.431  1.00  0.00     0.135 A 
ATOM    122  F   UNL     1       9.302  15.070  17.490  1.00  0.00    -0.206 F 
ATOM    123  C   UNL     1       8.852  16.103  19.549  1.00  0.00     0.059 A 
ATOM    124  C   UNL     1       6.628  15.956  20.515  1.00  0.00     0.059 A 
ATOM    125  F   UNL     1       4.954  14.751  19.400  1.00  0.00    -0.206 F 
ATOM    126  C   UNL     1       7.949  16.394  20.574  1.00  0.00     0.060 A 
BRANCH 126 127
ATOM    127  S   UNL     1       8.517  17.371  21.982  1.00  0.00     0.124 S 
ATOM    128  O   UNL     1       9.256  16.374  22.750  1.00  0.00    -0.237 OA
ATOM    129  O   UNL     1       9.324  18.406  21.344  1.00  0.00    -0.237 OA
ATOM    130  O   UNL     1       7.275  17.840  22.590  1.00  0.00    -0.744 OA
ENDBRANCH 126 127
ENDBRANCH  94 119
ENDBRANCH  68  69
ENDBRANCH  61  63
ENDBRANCH  60  61
ENDBRANCH  59  60
ENDBRANCH  58  59
ENDBRANCH  57  58
ENDBRANCH  56  57
ENDBRANCH  55  56
ENDBRANCH  54  55
ENDBRANCH  53  54
ENDBRANCH   1  53
TORSDOF 36
