REMARK SMILES CC(=O)NS(=O)(=O)c1cc(-c2ccn(C(F)F)c(=O)c2)ccc1C(=O)OCCOCCOCCOCCOC(=O)c1ccc(-c2c3nc(c(-c4c(F)cc(S(=O)(=O)[O-])cc4F)c4ccc([nH]4)c(-c4c(F)cc(S(=O)(=O)[O-])cc4F)c4nc(c(-c5c(F)cc(S(=O)(=O)[O-])cc5F)c5ccc2[nH]5)C=C4)C=C3)cc1
REMARK SMILES IDX 33 1 32 2 31 3 30 4 29 5 28 6 27 7 26 8 24 9 25 10 23 11
REMARK SMILES IDX 8 12 9 13 10 14 22 15 21 16 5 17 6 18 7 19 4 20 1 21 2 22
REMARK SMILES IDX 3 23 11 25 12 26 20 27 13 28 18 29 14 30 19 31 15 32 16 33
REMARK SMILES IDX 17 34 34 35 35 36 36 37 37 38 38 39 39 40 40 41 41 42 42 43
REMARK SMILES IDX 106 44 43 45 105 46 44 47 45 48 46 49 99 50 47 51 104 52
REMARK SMILES IDX 98 53 100 54 48 55 103 56 97 57 96 58 49 60 83 61 62 62
REMARK SMILES IDX 82 63 63 64 66 65 81 66 101 67 64 68 65 69 80 71 102 72
REMARK SMILES IDX 67 73 50 74 51 75 60 76 52 77 53 78 59 79 61 80 54 81 55 82
REMARK SMILES IDX 56 83 57 84 58 85 84 86 85 87 94 88 86 89 87 90 93 91 95 92
REMARK SMILES IDX 88 93 89 94 90 95 91 96 92 97 68 98 69 99 78 100 70 101
REMARK SMILES IDX 71 102 77 103 79 104 72 105 73 106 74 107 75 108 76 109
REMARK H PARENT 4 24 100 59 66 70
REMARK Flexibility Score: inf
ROOT
ATOM      1  C   UNL     1       3.407   1.302   3.833  1.00  0.00     0.188 C 
ENDROOT
BRANCH   1   2
ATOM      2  O   UNL     1       3.610   0.602   2.613  1.00  0.00    -0.377 OA
BRANCH   2   3
ATOM      3  C   UNL     1       3.490   1.290   1.382  1.00  0.00     0.188 C 
BRANCH   3   4
ATOM      4  C   UNL     1       2.368   2.326   1.180  1.00  0.00     0.188 C 
BRANCH   4   5
ATOM      5  O   UNL     1       1.475   2.488   2.274  1.00  0.00    -0.376 OA
BRANCH   5   6
ATOM      6  C   UNL     1       0.172   1.948   2.113  1.00  0.00     0.202 C 
BRANCH   6   7
ATOM      7  C   UNL     1       0.099   0.432   2.305  1.00  0.00     0.261 C 
BRANCH   7   8
ATOM      8  O   UNL     1       0.910  -0.330   1.393  1.00  0.00    -0.460 OA
BRANCH   8   9
ATOM      9  C   UNL     1       0.605  -0.228   0.089  1.00  0.00     0.339 C 
ATOM     10  O   UNL     1      -0.249   0.468  -0.431  1.00  0.00    -0.246 OA
BRANCH   9  11
ATOM     11  C   UNL     1       1.530  -1.052  -0.697  1.00  0.00     0.080 A 
ATOM     12  C   UNL     1       1.684  -2.426  -0.539  1.00  0.00     0.103 A 
ATOM     13  C   UNL     1       2.570  -3.128  -1.379  1.00  0.00     0.032 A 
ATOM     14  C   UNL     1       3.268  -2.467  -2.399  1.00  0.00    -0.017 A 
ATOM     15  C   UNL     1       2.229  -0.386  -1.716  1.00  0.00     0.018 A 
ATOM     16  C   UNL     1       3.095  -1.087  -2.554  1.00  0.00     0.010 A 
BRANCH  12  17
ATOM     17  S   UNL     1       0.702  -3.409   0.561  1.00  0.00     0.264 S 
ATOM     18  O   UNL     1       1.438  -3.492   1.796  1.00  0.00    -0.201 OA
ATOM     19  O   UNL     1       0.337  -4.601  -0.182  1.00  0.00    -0.201 OA
BRANCH  17  20
ATOM     20  N   UNL     1      -0.696  -2.598   0.881  1.00  0.00    -0.249 N 
ATOM     21  C   UNL     1      -1.657  -2.429  -1.427  1.00  0.00     0.115 C 
ATOM     22  C   UNL     1      -1.773  -2.246   0.060  1.00  0.00     0.230 C 
ATOM     23  O   UNL     1      -2.745  -1.708   0.571  1.00  0.00    -0.274 OA
ATOM     24  H   UNL     1      -0.790  -2.310   1.817  1.00  0.00     0.183 HD
ENDBRANCH  17  20
ENDBRANCH  12  17
BRANCH  14  25
ATOM     25  C   UNL     1       4.108  -3.197  -3.371  1.00  0.00    -0.011 A 
ATOM     26  C   UNL     1       5.481  -2.830  -3.666  1.00  0.00     0.027 A 
ATOM     27  C   UNL     1       3.532  -4.181  -4.086  1.00  0.00     0.080 A 
ATOM     28  C   UNL     1       6.142  -3.416  -4.671  1.00  0.00     0.095 A 
ATOM     29  C   UNL     1       4.261  -4.857  -5.193  1.00  0.00     0.255 A 
ATOM     30  N   UNL     1       5.546  -4.402  -5.436  1.00  0.00    -0.258 N 
ATOM     31  O   UNL     1       3.682  -5.733  -5.828  1.00  0.00    -0.269 OA
BRANCH  30  32
ATOM     32  C   UNL     1       6.241  -4.982  -6.555  1.00  0.00     0.451 C 
ATOM     33  F   UNL     1       6.354  -6.326  -6.427  1.00  0.00    -0.185 F 
ATOM     34  F   UNL     1       5.588  -4.724  -7.715  1.00  0.00    -0.185 F 
ENDBRANCH  30  32
ENDBRANCH  14  25
ENDBRANCH   9  11
ENDBRANCH   8   9
ENDBRANCH   7   8
ENDBRANCH   6   7
ENDBRANCH   5   6
ENDBRANCH   4   5
ENDBRANCH   3   4
ENDBRANCH   2   3
ENDBRANCH   1   2
BRANCH   1  35
ATOM     35  C   UNL     1       3.836   2.777   3.951  1.00  0.00     0.188 C 
BRANCH  35  36
ATOM     36  O   UNL     1       4.669   3.242   2.894  1.00  0.00    -0.376 OA
BRANCH  36  37
ATOM     37  C   UNL     1       6.051   3.366   3.203  1.00  0.00     0.202 C 
BRANCH  37  38
ATOM     38  C   UNL     1       6.797   2.032   3.345  1.00  0.00     0.261 C 
BRANCH  38  39
ATOM     39  O   UNL     1       6.375   1.207   4.442  1.00  0.00    -0.460 OA
BRANCH  39  40
ATOM     40  C   UNL     1       6.466   1.739   5.681  1.00  0.00     0.338 C 
ATOM     41  O   UNL     1       6.928   2.825   5.982  1.00  0.00    -0.246 OA
BRANCH  40  42
ATOM     42  C   UNL     1       5.724   0.865   6.609  1.00  0.00     0.060 A 
ATOM     43  C   UNL     1       4.687   1.422   7.367  1.00  0.00     0.016 A 
ATOM     44  C   UNL     1       6.057  -0.486   6.738  1.00  0.00     0.016 A 
ATOM     45  C   UNL     1       4.023   0.642   8.310  1.00  0.00     0.010 A 
ATOM     46  C   UNL     1       5.409  -1.261   7.701  1.00  0.00     0.010 A 
ATOM     47  C   UNL     1       4.429  -0.682   8.526  1.00  0.00    -0.014 A 
BRANCH  47  48
ATOM     48  C   UNL     1       4.050  -1.334   9.802  1.00  0.00     0.031 A 
ATOM     49  C   UNL     1       4.977  -1.146  10.975  1.00  0.00     0.074 A 
ATOM     50  C   UNL     1       2.903  -2.019   9.940  1.00  0.00     0.049 A 
ATOM     51  N   UNL     1       4.858  -1.565  12.206  1.00  0.00    -0.248 NA
ATOM     52  C   UNL     1       6.207  -0.374  10.719  1.00  0.00     0.031 C 
ATOM     53  C   UNL     1       1.916  -2.246   8.887  1.00  0.00     0.029 A 
ATOM     54  N   UNL     1       2.377  -2.651  11.039  1.00  0.00    -0.354 N 
ATOM     55  C   UNL     1       5.989  -1.103  12.870  1.00  0.00     0.074 A 
ATOM     56  C   UNL     1       6.801  -0.404  11.900  1.00  0.00     0.031 C 
ATOM     57  C   UNL     1       0.903  -2.976   9.391  1.00  0.00     0.029 A 
ATOM     58  C   UNL     1       1.179  -3.277  10.796  1.00  0.00     0.049 A 
ATOM     59  H   UNL     1       2.818  -2.656  11.919  1.00  0.00     0.167 HD
ATOM     60  C   UNL     1       6.320  -1.239  14.175  1.00  0.00     0.037 A 
ATOM     61  C   UNL     1       0.403  -4.013  11.616  1.00  0.00     0.037 A 
ATOM     62  C   UNL     1       5.519  -1.946  15.136  1.00  0.00     0.049 A 
ATOM     63  C   UNL     1       0.814  -4.193  13.056  1.00  0.00     0.074 A 
ATOM     64  C   UNL     1       5.761  -2.140  16.483  1.00  0.00     0.029 A 
ATOM     65  N   UNL     1       4.323  -2.587  14.845  1.00  0.00    -0.354 N 
ATOM     66  N   UNL     1       1.870  -3.725  13.680  1.00  0.00    -0.248 NA
ATOM     67  C   UNL     1      -0.079  -4.992  13.907  1.00  0.00     0.031 C 
ATOM     68  C   UNL     1       4.730  -2.934  17.000  1.00  0.00     0.029 A 
ATOM     69  C   UNL     1       3.823  -3.192  15.985  1.00  0.00     0.049 A 
ATOM     70  H   UNL     1       3.894  -2.607  13.960  1.00  0.00     0.167 HD
ATOM     71  C   UNL     1       1.754  -4.149  15.001  1.00  0.00     0.074 A 
ATOM     72  C   UNL     1       0.518  -4.901  15.088  1.00  0.00     0.031 C 
ATOM     73  C   UNL     1       2.589  -3.935  16.049  1.00  0.00     0.037 A 
BRANCH  60  74
ATOM     74  C   UNL     1       7.619  -0.630  14.620  1.00  0.00     0.058 A 
ATOM     75  C   UNL     1       7.782   0.760  14.733  1.00  0.00     0.135 A 
ATOM     76  C   UNL     1       8.717  -1.447  14.931  1.00  0.00     0.135 A 
ATOM     77  F   UNL     1       6.772   1.588  14.421  1.00  0.00    -0.206 F 
ATOM     78  C   UNL     1       8.997   1.321  15.113  1.00  0.00     0.059 A 
ATOM     79  C   UNL     1       9.934  -0.909  15.337  1.00  0.00     0.059 A 
ATOM     80  F   UNL     1       8.617  -2.782  14.829  1.00  0.00    -0.206 F 
ATOM     81  C   UNL     1      10.069   0.476  15.410  1.00  0.00     0.060 A 
BRANCH  81  82
ATOM     82  S   UNL     1      11.642   1.216  15.897  1.00  0.00     0.124 S 
ATOM     83  O   UNL     1      12.133   1.722  14.619  1.00  0.00    -0.237 OA
ATOM     84  O   UNL     1      11.227   2.229  16.862  1.00  0.00    -0.237 OA
ATOM     85  O   UNL     1      12.387   0.092  16.455  1.00  0.00    -0.744 OA
ENDBRANCH  81  82
ENDBRANCH  60  74
BRANCH  61  86
ATOM     86  C   UNL     1      -0.846  -4.636  11.100  1.00  0.00     0.058 A 
ATOM     87  C   UNL     1      -2.109  -4.178  11.504  1.00  0.00     0.135 A 
ATOM     88  C   UNL     1      -0.798  -5.708  10.196  1.00  0.00     0.135 A 
ATOM     89  F   UNL     1      -2.207  -3.165  12.377  1.00  0.00    -0.206 F 
ATOM     90  C   UNL     1      -3.281  -4.769  11.041  1.00  0.00     0.059 A 
ATOM     91  C   UNL     1      -1.956  -6.300   9.700  1.00  0.00     0.059 A 
ATOM     92  F   UNL     1       0.385  -6.179   9.773  1.00  0.00    -0.206 F 
ATOM     93  C   UNL     1      -3.194  -5.829  10.136  1.00  0.00     0.060 A 
BRANCH  93  94
ATOM     94  S   UNL     1      -4.721  -6.554   9.498  1.00  0.00     0.124 S 
ATOM     95  O   UNL     1      -5.183  -7.323  10.648  1.00  0.00    -0.237 OA
ATOM     96  O   UNL     1      -5.506  -5.369   9.164  1.00  0.00    -0.237 OA
ATOM     97  O   UNL     1      -4.266  -7.338   8.354  1.00  0.00    -0.744 OA
ENDBRANCH  93  94
ENDBRANCH  61  86
BRANCH  73  98
ATOM     98  C   UNL     1       2.177  -4.489  17.385  1.00  0.00     0.058 A 
ATOM     99  C   UNL     1       2.224  -5.864  17.663  1.00  0.00     0.135 A 
ATOM    100  C   UNL     1       1.763  -3.627  18.414  1.00  0.00     0.135 A 
ATOM    101  F   UNL     1       2.614  -6.731  16.715  1.00  0.00    -0.206 F 
ATOM    102  C   UNL     1       1.839  -6.369  18.901  1.00  0.00     0.059 A 
ATOM    103  C   UNL     1       1.400  -4.107  19.668  1.00  0.00     0.059 A 
ATOM    104  F   UNL     1       1.716  -2.301  18.207  1.00  0.00    -0.206 F 
ATOM    105  C   UNL     1       1.423  -5.482  19.895  1.00  0.00     0.060 A 
BRANCH 105 106
ATOM    106  S   UNL     1       0.928  -6.145  21.500  1.00  0.00     0.124 S 
ATOM    107  O   UNL     1      -0.401  -6.668  21.203  1.00  0.00    -0.237 OA
ATOM    108  O   UNL     1       1.959  -7.145  21.760  1.00  0.00    -0.237 OA
ATOM    109  O   UNL     1       0.963  -4.976  22.375  1.00  0.00    -0.744 OA
ENDBRANCH 105 106
ENDBRANCH  73  98
ENDBRANCH  47  48
ENDBRANCH  40  42
ENDBRANCH  39  40
ENDBRANCH  38  39
ENDBRANCH  37  38
ENDBRANCH  36  37
ENDBRANCH  35  36
ENDBRANCH   1  35
TORSDOF 27
