REMARK SMILES C/C(=N/OCC(=O)OCCOCCOCCOCCOC(=O)c1ccc(-c2c3nc(c(-c4c(F)cc(S(=O)(=O)[O-])cc4F)c4ccc([nH]4)c(-c4c(F)cc(S(=O)(=O)[O-])cc4F)c4nc(c(-c5c(F)cc(S(=O)(=O)[O-])cc5F)c5ccc2[nH]5)C=C4)C=C3)cc1)c1ccc(C)cc1
REMARK SMILES IDX 14 1 13 2 12 3 11 4 10 5 9 6 8 7 6 8 7 9 5 10 4 11 3 12 1 13
REMARK SMILES IDX 2 14 89 15 90 16 95 17 91 18 94 19 92 20 93 21 15 22 16 23
REMARK SMILES IDX 17 24 18 25 19 26 20 27 21 28 22 29 23 30 24 31 88 32 25 33
REMARK SMILES IDX 87 34 26 35 27 36 28 37 81 38 29 39 86 40 80 41 82 42 30 43
REMARK SMILES IDX 85 44 79 45 78 46 31 48 65 49 44 50 64 51 45 52 48 53 63 54
REMARK SMILES IDX 83 55 46 56 47 57 62 59 84 60 49 61 32 62 33 63 42 64 34 65
REMARK SMILES IDX 35 66 41 67 43 68 36 69 37 70 38 71 39 72 40 73 66 74 67 75
REMARK SMILES IDX 76 76 68 77 69 78 75 79 77 80 70 81 71 82 72 83 73 84 74 85
REMARK SMILES IDX 50 86 51 87 60 88 52 89 53 90 59 91 61 92 54 93 55 94 56 95
REMARK SMILES IDX 57 96 58 97
REMARK H PARENT 82 47 48 58
REMARK Flexibility Score: inf
ROOT
ATOM      1  O   UNL     1       1.368   2.824   0.693  1.00  0.00    -0.377 OA
ENDROOT
BRANCH   1   2
ATOM      2  C   UNL     1       0.075   3.164   1.150  1.00  0.00     0.188 C 
BRANCH   2   3
ATOM      3  C   UNL     1      -0.494   4.576   0.977  1.00  0.00     0.188 C 
BRANCH   3   4
ATOM      4  O   UNL     1       0.356   5.630   1.363  1.00  0.00    -0.376 OA
BRANCH   4   5
ATOM      5  C   UNL     1       0.502   6.086   2.692  1.00  0.00     0.202 C 
BRANCH   5   6
ATOM      6  C   UNL     1       0.098   5.341   3.983  1.00  0.00     0.261 C 
BRANCH   6   7
ATOM      7  O   UNL     1      -0.272   3.962   3.891  1.00  0.00    -0.461 OA
BRANCH   7   8
ATOM      8  C   UNL     1      -1.579   3.653   4.105  1.00  0.00     0.347 C 
ATOM      9  O   UNL     1      -2.437   4.484   4.396  1.00  0.00    -0.248 OA
BRANCH   8  10
ATOM     10  C   UNL     1      -1.935   2.171   3.876  1.00  0.00     0.386 C 
BRANCH  10  11
ATOM     11  O   UNL     1      -0.944   1.190   3.610  1.00  0.00    -0.384 OA
BRANCH  11  12
ATOM     12  N   UNL     1      -1.032   0.757   2.264  1.00  0.00    -0.091 NA
ATOM     13  C   UNL     1       0.069  -0.525   0.522  1.00  0.00     0.071 C 
ATOM     14  C   UNL     1      -0.182  -0.192   1.980  1.00  0.00     0.084 C 
BRANCH  14  15
ATOM     15  C   UNL     1       0.533  -1.018   2.980  1.00  0.00    -0.001 A 
ATOM     16  C   UNL     1      -0.219  -1.569   4.021  1.00  0.00     0.010 A 
ATOM     17  C   UNL     1       1.901  -1.281   2.882  1.00  0.00     0.010 A 
ATOM     18  C   UNL     1       0.403  -2.333   5.002  1.00  0.00     0.004 A 
ATOM     19  C   UNL     1       2.522  -2.055   3.866  1.00  0.00     0.004 A 
ATOM     20  C   UNL     1       1.779  -2.574   4.938  1.00  0.00    -0.051 A 
ATOM     21  C   UNL     1       2.440  -3.335   6.048  1.00  0.00     0.044 C 
ENDBRANCH  14  15
ENDBRANCH  11  12
ENDBRANCH  10  11
ENDBRANCH   8  10
ENDBRANCH   7   8
ENDBRANCH   6   7
ENDBRANCH   5   6
ENDBRANCH   4   5
ENDBRANCH   3   4
ENDBRANCH   2   3
ENDBRANCH   1   2
BRANCH   1  22
ATOM     22  C   UNL     1       2.398   3.719   1.040  1.00  0.00     0.188 C 
BRANCH  22  23
ATOM     23  C   UNL     1       2.734   4.681  -0.111  1.00  0.00     0.188 C 
BRANCH  23  24
ATOM     24  O   UNL     1       2.156   4.522  -1.405  1.00  0.00    -0.376 OA
BRANCH  24  25
ATOM     25  C   UNL     1       1.739   3.250  -1.877  1.00  0.00     0.202 C 
BRANCH  25  26
ATOM     26  C   UNL     1       2.721   2.064  -1.938  1.00  0.00     0.261 C 
BRANCH  26  27
ATOM     27  O   UNL     1       3.668   1.941  -0.872  1.00  0.00    -0.460 OA
BRANCH  27  28
ATOM     28  C   UNL     1       4.878   2.505  -1.108  1.00  0.00     0.338 C 
ATOM     29  O   UNL     1       5.237   3.083  -2.114  1.00  0.00    -0.246 OA
BRANCH  28  30
ATOM     30  C   UNL     1       5.685   2.445   0.129  1.00  0.00     0.060 A 
ATOM     31  C   UNL     1       6.139   3.648   0.690  1.00  0.00     0.016 A 
ATOM     32  C   UNL     1       6.032   1.220   0.699  1.00  0.00     0.016 A 
ATOM     33  C   UNL     1       6.965   3.632   1.810  1.00  0.00     0.010 A 
ATOM     34  C   UNL     1       6.892   1.203   1.798  1.00  0.00     0.010 A 
ATOM     35  C   UNL     1       7.389   2.407   2.333  1.00  0.00    -0.014 A 
BRANCH  35  36
ATOM     36  C   UNL     1       8.538   2.365   3.264  1.00  0.00     0.031 A 
ATOM     37  C   UNL     1       9.898   2.103   2.680  1.00  0.00     0.074 A 
ATOM     38  C   UNL     1       8.377   2.541   4.585  1.00  0.00     0.049 A 
ATOM     39  N   UNL     1      11.033   1.878   3.284  1.00  0.00    -0.248 NA
ATOM     40  C   UNL     1       9.981   2.081   1.209  1.00  0.00     0.031 C 
ATOM     41  C   UNL     1       7.119   2.882   5.247  1.00  0.00     0.029 A 
ATOM     42  N   UNL     1       9.283   2.440   5.610  1.00  0.00    -0.354 N 
ATOM     43  C   UNL     1      11.958   1.655   2.271  1.00  0.00     0.074 A 
ATOM     44  C   UNL     1      11.250   1.758   1.015  1.00  0.00     0.031 C 
ATOM     45  C   UNL     1       7.330   2.945   6.574  1.00  0.00     0.029 A 
ATOM     46  C   UNL     1       8.723   2.599   6.855  1.00  0.00     0.049 A 
ATOM     47  H   UNL     1      10.242   2.269   5.467  1.00  0.00     0.167 HD
ATOM     48  C   UNL     1      13.278   1.379   2.383  1.00  0.00     0.037 A 
ATOM     49  C   UNL     1       9.272   2.447   8.077  1.00  0.00     0.037 A 
ATOM     50  C   UNL     1      13.962   1.278   3.644  1.00  0.00     0.049 A 
ATOM     51  C   UNL     1      10.723   2.048   8.183  1.00  0.00     0.074 A 
ATOM     52  C   UNL     1      15.300   1.025   3.878  1.00  0.00     0.029 A 
ATOM     53  N   UNL     1      13.354   1.410   4.885  1.00  0.00    -0.354 N 
ATOM     54  N   UNL     1      11.595   1.843   7.223  1.00  0.00    -0.248 NA
ATOM     55  C   UNL     1      11.264   1.850   9.535  1.00  0.00     0.031 C 
ATOM     56  C   UNL     1      15.488   0.934   5.261  1.00  0.00     0.029 A 
ATOM     57  C   UNL     1      14.283   1.208   5.890  1.00  0.00     0.049 A 
ATOM     58  H   UNL     1      12.402   1.617   5.029  1.00  0.00     0.167 HD
ATOM     59  C   UNL     1      12.797   1.541   7.855  1.00  0.00     0.074 A 
ATOM     60  C   UNL     1      12.537   1.575   9.279  1.00  0.00     0.031 C 
ATOM     61  C   UNL     1      14.008   1.272   7.306  1.00  0.00     0.037 A 
BRANCH  48  62
ATOM     62  C   UNL     1      14.043   1.106   1.117  1.00  0.00     0.058 A 
ATOM     63  C   UNL     1      14.300   2.105   0.164  1.00  0.00     0.135 A 
ATOM     64  C   UNL     1      14.525  -0.187   0.852  1.00  0.00     0.135 A 
ATOM     65  F   UNL     1      13.848   3.355   0.354  1.00  0.00    -0.206 F 
ATOM     66  C   UNL     1      14.967   1.822  -1.024  1.00  0.00     0.059 A 
ATOM     67  C   UNL     1      15.225  -0.484  -0.312  1.00  0.00     0.059 A 
ATOM     68  F   UNL     1      14.307  -1.182   1.726  1.00  0.00    -0.206 F 
ATOM     69  C   UNL     1      15.422   0.523  -1.255  1.00  0.00     0.060 A 
BRANCH  69  70
ATOM     70  S   UNL     1      16.264   0.165  -2.811  1.00  0.00     0.124 S 
ATOM     71  O   UNL     1      15.158   0.227  -3.761  1.00  0.00    -0.237 OA
ATOM     72  O   UNL     1      17.234   1.252  -2.896  1.00  0.00    -0.237 OA
ATOM     73  O   UNL     1      16.831  -1.162  -2.595  1.00  0.00    -0.744 OA
ENDBRANCH  69  70
ENDBRANCH  48  62
BRANCH  49  74
ATOM     74  C   UNL     1       8.449   2.676   9.294  1.00  0.00     0.058 A 
ATOM     75  C   UNL     1       8.697   3.776  10.129  1.00  0.00     0.135 A 
ATOM     76  C   UNL     1       7.390   1.822   9.639  1.00  0.00     0.135 A 
ATOM     77  F   UNL     1       9.707   4.614   9.851  1.00  0.00    -0.206 F 
ATOM     78  C   UNL     1       7.928   4.020  11.262  1.00  0.00     0.059 A 
ATOM     79  C   UNL     1       6.589   2.060  10.752  1.00  0.00     0.059 A 
ATOM     80  F   UNL     1       7.105   0.758   8.871  1.00  0.00    -0.206 F 
ATOM     81  C   UNL     1       6.870   3.160  11.561  1.00  0.00     0.060 A 
BRANCH  81  82
ATOM     82  S   UNL     1       5.839   3.529  12.997  1.00  0.00     0.124 S 
ATOM     83  O   UNL     1       6.756   3.255  14.097  1.00  0.00    -0.237 OA
ATOM     84  O   UNL     1       5.505   4.933  12.777  1.00  0.00    -0.237 OA
ATOM     85  O   UNL     1       4.724   2.597  12.858  1.00  0.00    -0.744 OA
ENDBRANCH  81  82
ENDBRANCH  49  74
BRANCH  61  86
ATOM     86  C   UNL     1      15.174   1.059   8.231  1.00  0.00     0.058 A 
ATOM     87  C   UNL     1      15.337  -0.124   8.965  1.00  0.00     0.135 A 
ATOM     88  C   UNL     1      16.208   2.011   8.281  1.00  0.00     0.135 A 
ATOM     89  F   UNL     1      14.375  -1.061   8.960  1.00  0.00    -0.206 F 
ATOM     90  C   UNL     1      16.486  -0.360   9.713  1.00  0.00     0.059 A 
ATOM     91  C   UNL     1      17.377   1.783   8.998  1.00  0.00     0.059 A 
ATOM     92  F   UNL     1      16.104   3.158   7.590  1.00  0.00    -0.206 F 
ATOM     93  C   UNL     1      17.508   0.593   9.711  1.00  0.00     0.060 A 
BRANCH  93  94
ATOM     94  S   UNL     1      19.032   0.231  10.608  1.00  0.00     0.124 S 
ATOM     95  O   UNL     1      18.590   0.334  11.995  1.00  0.00    -0.237 OA
ATOM     96  O   UNL     1      19.353  -1.115  10.143  1.00  0.00    -0.237 OA
ATOM     97  O   UNL     1      19.947   1.277  10.162  1.00  0.00    -0.744 OA
ENDBRANCH  93  94
ENDBRANCH  61  86
ENDBRANCH  35  36
ENDBRANCH  28  30
ENDBRANCH  27  28
ENDBRANCH  26  27
ENDBRANCH  25  26
ENDBRANCH  24  25
ENDBRANCH  23  24
ENDBRANCH  22  23
ENDBRANCH   1  22
TORSDOF 26
