REMARK SMILES Nc1cc(C(=O)OCCOCCOCCOCCOC(=O)c2ccc(-c3c4nc(c(-c5c(F)cc(S(=O)(=O)[O-])cc5F)c5ccc([nH]5)c(-c5c(F)cc(S(=O)(=O)[O-])cc5F)c5nc(c(-c6c(F)cc(S(=O)(=O)[O-])cc6F)c6ccc3[nH]6)C=C5)C=C4)cc2)ccc1N1CC2(CCOCC2)C1
REMARK SMILES IDX 14 1 13 2 12 3 11 4 10 5 9 6 8 7 7 8 5 9 6 10 4 11 2 12 3 13
REMARK SMILES IDX 90 14 89 15 88 16 1 17 91 20 92 21 99 22 93 23 94 24 98 25
REMARK SMILES IDX 95 26 97 27 96 28 15 29 16 30 17 31 18 32 19 33 20 34 21 35
REMARK SMILES IDX 22 36 23 37 87 38 24 39 86 40 25 41 26 42 27 43 80 44 28 45
REMARK SMILES IDX 85 46 79 47 81 48 29 49 84 50 78 51 77 52 30 54 64 55 43 56
REMARK SMILES IDX 63 57 44 58 47 59 62 60 82 61 45 62 46 63 61 65 83 66 48 67
REMARK SMILES IDX 31 68 32 69 41 70 33 71 34 72 40 73 42 74 35 75 36 76 37 77
REMARK SMILES IDX 38 78 39 79 65 80 66 81 75 82 67 83 68 84 74 85 76 86 69 87
REMARK SMILES IDX 70 88 71 89 72 90 73 91 49 92 50 93 59 94 51 95 52 96 58 97
REMARK SMILES IDX 60 98 53 99 54 100 55 101 56 102 57 103
REMARK H PARENT 1 18 1 19 81 53 47 64
REMARK Flexibility Score: inf
ROOT
ATOM      1  C   UNL     1      -4.009  -3.454  -2.843  1.00  0.00     0.188 C 
ENDROOT
BRANCH   1   2
ATOM      2  O   UNL     1      -3.236  -2.382  -2.308  1.00  0.00    -0.377 OA
BRANCH   2   3
ATOM      3  C   UNL     1      -1.847  -2.551  -2.076  1.00  0.00     0.188 C 
BRANCH   3   4
ATOM      4  C   UNL     1      -1.388  -3.761  -1.238  1.00  0.00     0.188 C 
BRANCH   4   5
ATOM      5  O   UNL     1      -2.405  -4.721  -1.014  1.00  0.00    -0.376 OA
BRANCH   5   6
ATOM      6  C   UNL     1      -3.006  -4.804   0.265  1.00  0.00     0.202 C 
BRANCH   6   7
ATOM      7  C   UNL     1      -3.661  -3.562   0.892  1.00  0.00     0.261 C 
BRANCH   7   8
ATOM      8  O   UNL     1      -2.957  -2.323   0.747  1.00  0.00    -0.460 OA
BRANCH   8   9
ATOM      9  C   UNL     1      -1.863  -2.142   1.514  1.00  0.00     0.338 C 
ATOM     10  O   UNL     1      -1.400  -2.922   2.326  1.00  0.00    -0.246 OA
BRANCH   9  11
ATOM     11  C   UNL     1      -1.172  -0.921   1.040  1.00  0.00     0.062 A 
ATOM     12  C   UNL     1       0.929   0.103   0.316  1.00  0.00     0.056 A 
ATOM     13  C   UNL     1       0.202  -1.002   0.785  1.00  0.00     0.043 A 
ATOM     14  C   UNL     1       0.255   1.330   0.126  1.00  0.00     0.060 A 
ATOM     15  C   UNL     1      -1.140   1.378   0.348  1.00  0.00     0.029 A 
ATOM     16  C   UNL     1      -1.857   0.262   0.783  1.00  0.00     0.018 A 
BRANCH  12  17
ATOM     17  N   UNL     1       2.277  -0.090   0.047  1.00  0.00    -0.397 N 
ATOM     18  H   UNL     1       2.688  -0.972   0.202  1.00  0.00     0.156 HD
ATOM     19  H   UNL     1       2.822   0.653  -0.298  1.00  0.00     0.156 HD
ENDBRANCH  12  17
BRANCH  14  20
ATOM     20  N   UNL     1       0.877   2.562  -0.180  1.00  0.00    -0.369 N 
ATOM     21  C   UNL     1       2.000   2.957  -0.962  1.00  0.00     0.125 C 
ATOM     22  C   UNL     1       1.040   3.616   0.784  1.00  0.00     0.125 C 
ATOM     23  C   UNL     1       2.458   3.842   0.225  1.00  0.00     0.010 C 
ATOM     24  C   UNL     1       2.774   5.306  -0.086  1.00  0.00     0.039 C 
ATOM     25  C   UNL     1       3.569   3.251   1.105  1.00  0.00     0.039 C 
ATOM     26  C   UNL     1       4.161   5.394  -0.711  1.00  0.00     0.161 C 
ATOM     27  C   UNL     1       4.907   3.440   0.403  1.00  0.00     0.161 C 
ATOM     28  O   UNL     1       5.144   4.829   0.162  1.00  0.00    -0.381 OA
ENDBRANCH  14  20
ENDBRANCH   9  11
ENDBRANCH   8   9
ENDBRANCH   7   8
ENDBRANCH   6   7
ENDBRANCH   5   6
ENDBRANCH   4   5
ENDBRANCH   3   4
ENDBRANCH   2   3
ENDBRANCH   1   2
BRANCH   1  29
ATOM     29  C   UNL     1      -3.365  -4.646  -3.593  1.00  0.00     0.188 C 
BRANCH  29  30
ATOM     30  O   UNL     1      -2.002  -4.470  -3.944  1.00  0.00    -0.376 OA
BRANCH  30  31
ATOM     31  C   UNL     1      -1.703  -4.253  -5.311  1.00  0.00     0.202 C 
BRANCH  31  32
ATOM     32  C   UNL     1      -2.217  -2.942  -5.919  1.00  0.00     0.261 C 
BRANCH  32  33
ATOM     33  O   UNL     1      -3.629  -2.711  -5.814  1.00  0.00    -0.460 OA
BRANCH  33  34
ATOM     34  C   UNL     1      -4.446  -3.568  -6.471  1.00  0.00     0.338 C 
ATOM     35  O   UNL     1      -4.118  -4.518  -7.150  1.00  0.00    -0.246 OA
BRANCH  34  36
ATOM     36  C   UNL     1      -5.832  -3.252  -6.066  1.00  0.00     0.060 A 
ATOM     37  C   UNL     1      -6.598  -4.234  -5.423  1.00  0.00     0.016 A 
ATOM     38  C   UNL     1      -6.364  -1.984  -6.308  1.00  0.00     0.016 A 
ATOM     39  C   UNL     1      -7.915  -3.956  -5.050  1.00  0.00     0.010 A 
ATOM     40  C   UNL     1      -7.687  -1.715  -5.953  1.00  0.00     0.010 A 
ATOM     41  C   UNL     1      -8.479  -2.709  -5.352  1.00  0.00    -0.014 A 
BRANCH  41  42
ATOM     42  C   UNL     1      -9.943  -2.506  -5.223  1.00  0.00     0.031 A 
ATOM     43  C   UNL     1     -10.789  -2.638  -6.462  1.00  0.00     0.074 A 
ATOM     44  C   UNL     1     -10.512  -2.217  -4.039  1.00  0.00     0.049 A 
ATOM     45  N   UNL     1     -12.071  -2.442  -6.617  1.00  0.00    -0.248 NA
ATOM     46  C   UNL     1     -10.088  -3.042  -7.693  1.00  0.00     0.031 C 
ATOM     47  C   UNL     1      -9.804  -2.103  -2.764  1.00  0.00     0.029 A 
ATOM     48  N   UNL     1     -11.822  -1.956  -3.720  1.00  0.00    -0.354 N 
ATOM     49  C   UNL     1     -12.330  -2.686  -7.960  1.00  0.00     0.074 A 
ATOM     50  C   UNL     1     -11.069  -3.019  -8.584  1.00  0.00     0.031 C 
ATOM     51  C   UNL     1     -10.688  -1.780  -1.803  1.00  0.00     0.029 A 
ATOM     52  C   UNL     1     -12.015  -1.630  -2.398  1.00  0.00     0.049 A 
ATOM     53  H   UNL     1     -12.554  -1.999  -4.377  1.00  0.00     0.167 HD
ATOM     54  C   UNL     1     -13.515  -2.643  -8.614  1.00  0.00     0.037 A 
ATOM     55  C   UNL     1     -13.131  -1.232  -1.753  1.00  0.00     0.037 A 
ATOM     56  C   UNL     1     -14.768  -2.315  -7.986  1.00  0.00     0.049 A 
ATOM     57  C   UNL     1     -14.428  -1.124  -2.520  1.00  0.00     0.074 A 
ATOM     58  C   UNL     1     -16.027  -2.268  -8.557  1.00  0.00     0.029 A 
ATOM     59  N   UNL     1     -14.919  -1.969  -6.652  1.00  0.00    -0.354 N 
ATOM     60  N   UNL     1     -14.665  -1.386  -3.784  1.00  0.00    -0.248 NA
ATOM     61  C   UNL     1     -15.609  -0.667  -1.772  1.00  0.00     0.031 C 
ATOM     62  C   UNL     1     -16.931  -1.835  -7.582  1.00  0.00     0.029 A 
ATOM     63  C   UNL     1     -16.247  -1.678  -6.387  1.00  0.00     0.049 A 
ATOM     64  H   UNL     1     -14.191  -1.935  -5.990  1.00  0.00     0.167 HD
ATOM     65  C   UNL     1     -16.027  -1.162  -3.972  1.00  0.00     0.074 A 
ATOM     66  C   UNL     1     -16.562  -0.752  -2.690  1.00  0.00     0.031 C 
ATOM     67  C   UNL     1     -16.769  -1.286  -5.101  1.00  0.00     0.037 A 
BRANCH  54  68
ATOM     68  C   UNL     1     -13.513  -2.931 -10.090  1.00  0.00     0.058 A 
ATOM     69  C   UNL     1     -13.293  -4.223 -10.595  1.00  0.00     0.135 A 
ATOM     70  C   UNL     1     -13.788  -1.907 -11.011  1.00  0.00     0.135 A 
ATOM     71  F   UNL     1     -13.004  -5.235  -9.761  1.00  0.00    -0.206 F 
ATOM     72  C   UNL     1     -13.331  -4.486 -11.960  1.00  0.00     0.059 A 
ATOM     73  C   UNL     1     -13.860  -2.153 -12.378  1.00  0.00     0.059 A 
ATOM     74  F   UNL     1     -13.999  -0.652 -10.583  1.00  0.00    -0.206 F 
ATOM     75  C   UNL     1     -13.621  -3.444 -12.844  1.00  0.00     0.060 A 
BRANCH  75  76
ATOM     76  S   UNL     1     -13.696  -3.809 -14.610  1.00  0.00     0.124 S 
ATOM     77  O   UNL     1     -12.289  -4.048 -14.918  1.00  0.00    -0.237 OA
ATOM     78  O   UNL     1     -14.561  -4.984 -14.648  1.00  0.00    -0.237 OA
ATOM     79  O   UNL     1     -14.265  -2.595 -15.186  1.00  0.00    -0.744 OA
ENDBRANCH  75  76
ENDBRANCH  54  68
BRANCH  55  80
ATOM     80  C   UNL     1     -13.081  -0.885  -0.305  1.00  0.00     0.058 A 
ATOM     81  C   UNL     1     -13.755  -1.659   0.651  1.00  0.00     0.135 A 
ATOM     82  C   UNL     1     -12.381   0.245   0.148  1.00  0.00     0.135 A 
ATOM     83  F   UNL     1     -14.450  -2.741   0.269  1.00  0.00    -0.206 F 
ATOM     84  C   UNL     1     -13.758  -1.314   2.000  1.00  0.00     0.059 A 
ATOM     85  C   UNL     1     -12.344   0.593   1.495  1.00  0.00     0.059 A 
ATOM     86  F   UNL     1     -11.712   1.017  -0.723  1.00  0.00    -0.206 F 
ATOM     87  C   UNL     1     -13.048  -0.185   2.412  1.00  0.00     0.060 A 
BRANCH  87  88
ATOM     88  S   UNL     1     -13.033   0.235   4.168  1.00  0.00     0.124 S 
ATOM     89  O   UNL     1     -14.397   0.712   4.368  1.00  0.00    -0.237 OA
ATOM     90  O   UNL     1     -12.707  -1.046   4.786  1.00  0.00    -0.237 OA
ATOM     91  O   UNL     1     -11.989   1.251   4.261  1.00  0.00    -0.744 OA
ENDBRANCH  87  88
ENDBRANCH  55  80
BRANCH  67  92
ATOM     92  C   UNL     1     -18.249  -1.029  -5.000  1.00  0.00     0.058 A 
ATOM     93  C   UNL     1     -18.770   0.261  -4.819  1.00  0.00     0.135 A 
ATOM     94  C   UNL     1     -19.162  -2.087  -5.148  1.00  0.00     0.135 A 
ATOM     95  F   UNL     1     -17.943   1.309  -4.668  1.00  0.00    -0.206 F 
ATOM     96  C   UNL     1     -20.141   0.491  -4.764  1.00  0.00     0.059 A 
ATOM     97  C   UNL     1     -20.537  -1.877  -5.129  1.00  0.00     0.059 A 
ATOM     98  F   UNL     1     -18.720  -3.341  -5.336  1.00  0.00    -0.206 F 
ATOM     99  C   UNL     1     -21.017  -0.585  -4.923  1.00  0.00     0.060 A 
BRANCH  99 100
ATOM    100  S   UNL     1     -22.794  -0.267  -4.883  1.00  0.00     0.124 S 
ATOM    101  O   UNL     1     -23.012   0.012  -3.468  1.00  0.00    -0.237 OA
ATOM    102  O   UNL     1     -22.927   0.875  -5.783  1.00  0.00    -0.237 OA
ATOM    103  O   UNL     1     -23.375  -1.514  -5.373  1.00  0.00    -0.744 OA
ENDBRANCH  99 100
ENDBRANCH  67  92
ENDBRANCH  41  42
ENDBRANCH  34  36
ENDBRANCH  33  34
ENDBRANCH  32  33
ENDBRANCH  31  32
ENDBRANCH  30  31
ENDBRANCH  29  30
ENDBRANCH   1  29
TORSDOF 25
