REMARK SMILES Cc1cc([N+](=O)[O-])ccc1NC(=O)[C@@H]1[C@@H](C(=O)OCCOCCOCCOCCOC(=O)c2ccc(-c3c4nc(c(-c5c(F)cc(S(=O)(=O)[O-])cc5F)c5ccc([nH]5)c(-c5c(F)cc(S(=O)(=O)[O-])cc5F)c5nc(c(-c6c(F)cc(S(=O)(=O)[O-])cc6F)c6ccc3[nH]6)C=C5)C=C4)cc2)[C@H]2C=C[C@@H]1C2
REMARK SMILES IDX 24 1 23 2 22 3 21 4 20 5 19 6 18 7 16 8 17 9 15 10 14 11
REMARK SMILES IDX 102 12 99 13 101 14 103 15 100 16 12 17 11 18 13 20 10 21
REMARK SMILES IDX 1 22 2 23 3 24 4 25 9 26 8 27 5 28 6 29 7 30 25 31 26 32
REMARK SMILES IDX 27 33 28 34 29 35 30 36 31 37 32 38 33 39 34 40 98 41 35 42
REMARK SMILES IDX 97 43 36 44 37 45 38 46 91 47 39 48 96 49 90 50 92 51 40 52
REMARK SMILES IDX 95 53 89 54 88 55 41 57 75 58 54 59 74 60 55 61 58 62 73 63
REMARK SMILES IDX 93 64 56 65 57 66 72 68 94 69 59 70 42 71 43 72 52 73 44 74
REMARK SMILES IDX 45 75 51 76 53 77 46 78 47 79 48 80 49 81 50 82 76 83 77 84
REMARK SMILES IDX 86 85 78 86 79 87 85 88 87 89 80 90 81 91 82 92 83 93 84 94
REMARK SMILES IDX 60 95 61 96 70 97 62 98 63 99 69 100 71 101 64 102 65 103
REMARK SMILES IDX 66 104 67 105 68 106
REMARK H PARENT 11 19 92 56 58 67
REMARK Flexibility Score: inf
ROOT
ATOM      1  O   UNL     1       0.306   6.634  -2.874  1.00  0.00    -0.377 OA
ENDROOT
BRANCH   1   2
ATOM      2  C   UNL     1       0.371   5.296  -2.395  1.00  0.00     0.188 C 
BRANCH   2   3
ATOM      3  C   UNL     1      -0.926   4.548  -2.583  1.00  0.00     0.188 C 
BRANCH   3   4
ATOM      4  O   UNL     1      -1.748   4.926  -1.492  1.00  0.00    -0.376 OA
BRANCH   4   5
ATOM      5  C   UNL     1      -3.088   4.809  -1.907  1.00  0.00     0.202 C 
BRANCH   5   6
ATOM      6  C   UNL     1      -4.089   5.199  -0.870  1.00  0.00     0.261 C 
BRANCH   6   7
ATOM      7  O   UNL     1      -3.832   4.894   0.467  1.00  0.00    -0.463 OA
BRANCH   7   8
ATOM      8  C   UNL     1      -3.031   3.835   0.492  1.00  0.00     0.310 C 
ATOM      9  O   UNL     1      -3.146   2.825  -0.209  1.00  0.00    -0.252 OA
BRANCH   8  10
ATOM     10  C   UNL     1      -1.883   4.105   1.379  1.00  0.00     0.119 C 
ATOM     11  C   UNL     1      -1.023   2.825   1.322  1.00  0.00     0.100 C 
ATOM     12  C   UNL     1      -1.141   2.320   2.760  1.00  0.00     0.025 C 
ATOM     13  C   UNL     1      -2.394   4.170   2.830  1.00  0.00     0.027 C 
ATOM     14  C   UNL     1      -2.604   1.892   2.934  1.00  0.00    -0.027 C 
ATOM     15  C   UNL     1      -1.181   3.621   3.565  1.00  0.00     0.017 C 
ATOM     16  C   UNL     1      -3.347   3.009   3.033  1.00  0.00    -0.027 C 
BRANCH  11  17
ATOM     17  C   UNL     1       0.337   3.029   0.679  1.00  0.00     0.228 C 
ATOM     18  N   UNL     1       0.894   2.024  -0.090  1.00  0.00    -0.326 N 
ATOM     19  H   UNL     1       1.759   2.236  -0.509  1.00  0.00     0.169 HD
ATOM     20  O   UNL     1       1.013   4.040   0.883  1.00  0.00    -0.274 OA
BRANCH  18  21
ATOM     21  C   UNL     1       0.385   0.734  -0.354  1.00  0.00     0.044 A 
ATOM     22  C   UNL     1       2.667  -0.327   0.131  1.00  0.00     0.047 C 
ATOM     23  C   UNL     1       1.183  -0.389  -0.091  1.00  0.00    -0.021 A 
ATOM     24  C   UNL     1       0.561  -1.651  -0.010  1.00  0.00     0.091 A 
ATOM     25  C   UNL     1      -0.816  -1.787  -0.241  1.00  0.00     0.269 A 
ATOM     26  C   UNL     1      -0.933   0.540  -0.795  1.00  0.00     0.033 A 
ATOM     27  C   UNL     1      -1.558  -0.703  -0.695  1.00  0.00     0.088 A 
BRANCH  25  28
ATOM     28  N   UNL     1      -1.481  -3.061   0.053  1.00  0.00     0.062 N 
ATOM     29  O   UNL     1      -0.760  -4.049   0.262  1.00  0.00    -0.258 OA
ATOM     30  O   UNL     1      -2.716  -3.059   0.155  1.00  0.00    -0.258 OA
ENDBRANCH  25  28
ENDBRANCH  18  21
ENDBRANCH  11  17
ENDBRANCH   8  10
ENDBRANCH   7   8
ENDBRANCH   6   7
ENDBRANCH   5   6
ENDBRANCH   4   5
ENDBRANCH   3   4
ENDBRANCH   2   3
ENDBRANCH   1   2
BRANCH   1  31
ATOM     31  C   UNL     1       0.073   6.768  -4.261  1.00  0.00     0.188 C 
BRANCH  31  32
ATOM     32  C   UNL     1       1.086   7.677  -4.955  1.00  0.00     0.188 C 
BRANCH  32  33
ATOM     33  O   UNL     1       2.406   7.677  -4.442  1.00  0.00    -0.376 OA
BRANCH  33  34
ATOM     34  C   UNL     1       2.511   8.287  -3.139  1.00  0.00     0.202 C 
BRANCH  34  35
ATOM     35  C   UNL     1       1.788   9.671  -2.895  1.00  0.00     0.261 C 
BRANCH  35  36
ATOM     36  O   UNL     1       0.312   9.524  -3.052  1.00  0.00    -0.460 OA
BRANCH  36  37
ATOM     37  C   UNL     1      -0.721  10.427  -3.103  1.00  0.00     0.338 C 
ATOM     38  O   UNL     1      -1.363  10.680  -2.084  1.00  0.00    -0.246 OA
BRANCH  37  39
ATOM     39  C   UNL     1      -1.475  10.585  -4.468  1.00  0.00     0.060 A 
ATOM     40  C   UNL     1      -2.820  10.947  -4.353  1.00  0.00     0.016 A 
ATOM     41  C   UNL     1      -1.263   9.717  -5.522  1.00  0.00     0.016 A 
ATOM     42  C   UNL     1      -3.835  10.035  -4.707  1.00  0.00     0.010 A 
ATOM     43  C   UNL     1      -2.234   8.739  -5.793  1.00  0.00     0.010 A 
ATOM     44  C   UNL     1      -3.438   8.755  -5.083  1.00  0.00    -0.014 A 
BRANCH  44  45
ATOM     45  C   UNL     1      -3.724   7.601  -4.097  1.00  0.00     0.031 A 
ATOM     46  C   UNL     1      -3.999   6.136  -4.633  1.00  0.00     0.074 A 
ATOM     47  C   UNL     1      -3.412   8.030  -2.817  1.00  0.00     0.049 A 
ATOM     48  N   UNL     1      -4.737   5.184  -4.082  1.00  0.00    -0.248 NA
ATOM     49  C   UNL     1      -3.519   5.688  -5.945  1.00  0.00     0.031 C 
ATOM     50  C   UNL     1      -2.512   7.658  -1.705  1.00  0.00     0.029 A 
ATOM     51  N   UNL     1      -4.214   8.966  -2.136  1.00  0.00    -0.354 N 
ATOM     52  C   UNL     1      -4.568   3.967  -4.795  1.00  0.00     0.074 A 
ATOM     53  C   UNL     1      -3.931   4.415  -6.009  1.00  0.00     0.031 C 
ATOM     54  C   UNL     1      -3.048   8.001  -0.509  1.00  0.00     0.029 A 
ATOM     55  C   UNL     1      -4.352   8.550  -0.806  1.00  0.00     0.049 A 
ATOM     56  H   UNL     1      -4.610   9.777  -2.529  1.00  0.00     0.167 HD
ATOM     57  C   UNL     1      -4.859   2.694  -4.301  1.00  0.00     0.037 A 
ATOM     58  C   UNL     1      -5.278   8.909   0.109  1.00  0.00     0.037 A 
ATOM     59  C   UNL     1      -5.482   2.711  -2.932  1.00  0.00     0.049 A 
ATOM     60  C   UNL     1      -6.335   7.776   0.272  1.00  0.00     0.074 A 
ATOM     61  C   UNL     1      -5.213   1.998  -1.772  1.00  0.00     0.029 A 
ATOM     62  N   UNL     1      -6.469   3.644  -2.541  1.00  0.00    -0.354 N 
ATOM     63  N   UNL     1      -6.237   6.554  -0.218  1.00  0.00    -0.248 NA
ATOM     64  C   UNL     1      -7.558   7.899   1.070  1.00  0.00     0.031 C 
ATOM     65  C   UNL     1      -5.938   2.564  -0.682  1.00  0.00     0.029 A 
ATOM     66  C   UNL     1      -6.690   3.637  -1.151  1.00  0.00     0.049 A 
ATOM     67  H   UNL     1      -6.947   4.232  -3.169  1.00  0.00     0.167 HD
ATOM     68  C   UNL     1      -7.353   5.775   0.065  1.00  0.00     0.074 A 
ATOM     69  C   UNL     1      -8.097   6.665   0.965  1.00  0.00     0.031 C 
ATOM     70  C   UNL     1      -7.673   4.524  -0.475  1.00  0.00     0.037 A 
BRANCH  57  71
ATOM     71  C   UNL     1      -4.392   1.264  -4.952  1.00  0.00     0.058 A 
ATOM     72  C   UNL     1      -4.620   0.009  -4.300  1.00  0.00     0.135 A 
ATOM     73  C   UNL     1      -3.694   1.059  -6.173  1.00  0.00     0.135 A 
ATOM     74  F   UNL     1      -5.373  -0.084  -3.199  1.00  0.00    -0.206 F 
ATOM     75  C   UNL     1      -4.135  -1.251  -4.742  1.00  0.00     0.059 A 
ATOM     76  C   UNL     1      -3.244  -0.197  -6.665  1.00  0.00     0.059 A 
ATOM     77  F   UNL     1      -3.391   2.055  -7.003  1.00  0.00    -0.206 F 
ATOM     78  C   UNL     1      -3.437  -1.350  -5.930  1.00  0.00     0.060 A 
BRANCH  78  79
ATOM     79  S   UNL     1      -2.841  -2.958  -6.519  1.00  0.00     0.124 S 
ATOM     80  O   UNL     1      -1.755  -3.242  -5.585  1.00  0.00    -0.237 OA
ATOM     81  O   UNL     1      -4.022  -3.805  -6.396  1.00  0.00    -0.237 OA
ATOM     82  O   UNL     1      -2.419  -2.685  -7.891  1.00  0.00    -0.744 OA
ENDBRANCH  78  79
ENDBRANCH  57  71
BRANCH  58  83
ATOM     83  C   UNL     1      -5.363  10.418   0.043  1.00  0.00     0.058 A 
ATOM     84  C   UNL     1      -4.262  11.092   0.648  1.00  0.00     0.135 A 
ATOM     85  C   UNL     1      -5.923  11.052  -1.081  1.00  0.00     0.135 A 
ATOM     86  F   UNL     1      -3.669  10.550   1.726  1.00  0.00    -0.206 F 
ATOM     87  C   UNL     1      -3.635  12.203   0.061  1.00  0.00     0.059 A 
ATOM     88  C   UNL     1      -5.304  12.166  -1.684  1.00  0.00     0.059 A 
ATOM     89  F   UNL     1      -6.925  10.457  -1.745  1.00  0.00    -0.206 F 
ATOM     90  C   UNL     1      -4.138  12.713  -1.132  1.00  0.00     0.060 A 
BRANCH  90  91
ATOM     91  S   UNL     1      -3.199  14.011  -2.014  1.00  0.00     0.124 S 
ATOM     92  O   UNL     1      -3.448  15.183  -1.185  1.00  0.00    -0.237 OA
ATOM     93  O   UNL     1      -1.825  13.521  -2.008  1.00  0.00    -0.237 OA
ATOM     94  O   UNL     1      -3.824  14.035  -3.335  1.00  0.00    -0.744 OA
ENDBRANCH  90  91
ENDBRANCH  58  83
BRANCH  70  95
ATOM     95  C   UNL     1      -9.074   3.920  -0.428  1.00  0.00     0.058 A 
ATOM     96  C   UNL     1     -10.234   4.703  -0.381  1.00  0.00     0.135 A 
ATOM     97  C   UNL     1      -9.298   2.532  -0.661  1.00  0.00     0.135 A 
ATOM     98  F   UNL     1     -10.182   6.041  -0.364  1.00  0.00    -0.206 F 
ATOM     99  C   UNL     1     -11.511   4.152  -0.430  1.00  0.00     0.059 A 
ATOM    100  C   UNL     1     -10.561   1.976  -0.806  1.00  0.00     0.059 A 
ATOM    101  F   UNL     1      -8.303   1.646  -0.793  1.00  0.00    -0.206 F 
ATOM    102  C   UNL     1     -11.665   2.788  -0.641  1.00  0.00     0.060 A 
BRANCH 102 103
ATOM    103  S   UNL     1     -13.314   2.091  -0.750  1.00  0.00     0.124 S 
ATOM    104  O   UNL     1     -13.621   1.870   0.659  1.00  0.00    -0.237 OA
ATOM    105  O   UNL     1     -14.067   3.159  -1.402  1.00  0.00    -0.237 OA
ATOM    106  O   UNL     1     -13.122   0.888  -1.554  1.00  0.00    -0.744 OA
ENDBRANCH 102 103
ENDBRANCH  70  95
ENDBRANCH  44  45
ENDBRANCH  37  39
ENDBRANCH  36  37
ENDBRANCH  35  36
ENDBRANCH  34  35
ENDBRANCH  33  34
ENDBRANCH  32  33
ENDBRANCH  31  32
ENDBRANCH   1  31
TORSDOF 26
