REMARK SMILES C[C@H]1[NH2+]CC[C@H]1C(=O)N(C)CCCC(=O)OCCOCCOCCOCCOC(=O)c1ccc(-c2c3nc(c(-c4c(F)cc(S(=O)(=O)[O-])cc4F)c4ccc([nH]4)c(-c4c(F)cc(S(=O)(=O)[O-])cc4F)c4nc(c(-c5c(F)cc(S(=O)(=O)[O-])cc5F)c5ccc2[nH]5)C=C4)C=C3)cc1
REMARK SMILES IDX 21 1 20 2 19 3 18 4 17 5 16 6 14 7 15 8 13 9 12 10 11 11
REMARK SMILES IDX 9 12 10 13 7 14 8 15 6 16 1 17 2 18 3 19 4 20 5 23 22 24
REMARK SMILES IDX 23 25 24 26 25 27 26 28 27 29 28 30 29 31 30 32 31 33 32 34
REMARK SMILES IDX 96 35 33 36 95 37 34 38 35 39 36 40 89 41 37 42 94 43 88 44
REMARK SMILES IDX 90 45 38 46 93 47 87 48 86 49 39 51 73 52 52 53 72 54 53 55
REMARK SMILES IDX 56 56 71 57 91 58 54 59 55 60 70 62 92 63 57 64 40 65 41 66
REMARK SMILES IDX 50 67 42 68 43 69 49 70 51 71 44 72 45 73 46 74 47 75 48 76
REMARK SMILES IDX 74 77 75 78 84 79 76 80 77 81 83 82 85 83 78 84 79 85 80 86
REMARK SMILES IDX 81 87 82 88 58 89 59 90 68 91 60 92 61 93 67 94 69 95 62 96
REMARK SMILES IDX 63 97 64 98 65 99 66 100
REMARK H PARENT 3 21 3 22 90 50 56 61
REMARK Flexibility Score: inf
ROOT
ATOM      1  C   UNL     1       3.064   7.025  -0.030  1.00  0.00     0.188 C 
ENDROOT
BRANCH   1   2
ATOM      2  C   UNL     1       2.427   7.675  -1.275  1.00  0.00     0.188 C 
BRANCH   2   3
ATOM      3  O   UNL     1       1.188   8.307  -1.037  1.00  0.00    -0.376 OA
BRANCH   3   4
ATOM      4  C   UNL     1      -0.013   7.660  -1.415  1.00  0.00     0.202 C 
BRANCH   4   5
ATOM      5  C   UNL     1      -0.224   6.150  -1.226  1.00  0.00     0.261 C 
BRANCH   5   6
ATOM      6  O   UNL     1       0.950   5.383  -0.950  1.00  0.00    -0.463 OA
BRANCH   6   7
ATOM      7  C   UNL     1       1.426   4.598  -1.937  1.00  0.00     0.305 C 
ATOM      8  O   UNL     1       1.094   4.693  -3.116  1.00  0.00    -0.252 OA
BRANCH   7   9
ATOM      9  C   UNL     1       2.502   3.624  -1.484  1.00  0.00     0.124 C 
BRANCH   9  10
ATOM     10  C   UNL     1       2.917   3.440  -0.014  1.00  0.00     0.033 C 
BRANCH  10  11
ATOM     11  C   UNL     1       1.867   3.463   1.103  1.00  0.00     0.119 C 
BRANCH  11  12
ATOM     12  N   UNL     1       1.075   2.237   1.157  1.00  0.00    -0.345 N 
ATOM     13  C   UNL     1       1.056   1.562   2.445  1.00  0.00     0.146 C 
BRANCH  12  14
ATOM     14  C   UNL     1       0.169   2.017   0.143  1.00  0.00     0.231 C 
ATOM     15  O   UNL     1      -0.235   2.953  -0.554  1.00  0.00    -0.274 OA
BRANCH  14  16
ATOM     16  C   UNL     1      -0.346   0.639  -0.206  1.00  0.00     0.142 C 
ATOM     17  C   UNL     1       1.907  -0.640   0.365  1.00  0.00     0.076 C 
ATOM     18  C   UNL     1       0.580  -0.566  -0.381  1.00  0.00     0.192 C 
ATOM     19  N   UNL     1      -0.243  -1.749  -0.039  1.00  0.00    -0.343 N 
ATOM     20  C   UNL     1      -1.615  -1.292   0.229  1.00  0.00     0.261 C 
ATOM     21  H   UNL     1       0.137  -2.206   0.790  1.00  0.00     0.346 HD
ATOM     22  H   UNL     1      -0.238  -2.417  -0.810  1.00  0.00     0.346 HD
ATOM     23  C   UNL     1      -1.530   0.171   0.604  1.00  0.00     0.081 C 
ENDBRANCH  14  16
ENDBRANCH  12  14
ENDBRANCH  11  12
ENDBRANCH  10  11
ENDBRANCH   9  10
ENDBRANCH   7   9
ENDBRANCH   6   7
ENDBRANCH   5   6
ENDBRANCH   4   5
ENDBRANCH   3   4
ENDBRANCH   2   3
ENDBRANCH   1   2
BRANCH   1  24
ATOM     24  O   UNL     1       2.297   6.769   1.140  1.00  0.00    -0.377 OA
BRANCH  24  25
ATOM     25  C   UNL     1       1.444   7.786   1.663  1.00  0.00     0.188 C 
BRANCH  25  26
ATOM     26  C   UNL     1       1.823   9.273   1.495  1.00  0.00     0.188 C 
BRANCH  26  27
ATOM     27  O   UNL     1       3.120   9.499   0.968  1.00  0.00    -0.376 OA
BRANCH  27  28
ATOM     28  C   UNL     1       4.165   9.770   1.889  1.00  0.00     0.202 C 
BRANCH  28  29
ATOM     29  C   UNL     1       4.448   8.731   2.987  1.00  0.00     0.261 C 
BRANCH  29  30
ATOM     30  O   UNL     1       3.364   8.435   3.882  1.00  0.00    -0.460 OA
BRANCH  30  31
ATOM     31  C   UNL     1       2.845   9.463   4.591  1.00  0.00     0.338 C 
ATOM     32  O   UNL     1       3.211  10.619   4.589  1.00  0.00    -0.246 OA
BRANCH  31  33
ATOM     33  C   UNL     1       1.618   8.968   5.247  1.00  0.00     0.060 A 
ATOM     34  C   UNL     1       0.384   9.530   4.896  1.00  0.00     0.016 A 
ATOM     35  C   UNL     1       1.695   7.962   6.212  1.00  0.00     0.016 A 
ATOM     36  C   UNL     1      -0.778   9.114   5.543  1.00  0.00     0.010 A 
ATOM     37  C   UNL     1       0.533   7.562   6.874  1.00  0.00     0.010 A 
ATOM     38  C   UNL     1      -0.700   8.165   6.570  1.00  0.00    -0.014 A 
BRANCH  38  39
ATOM     39  C   UNL     1      -1.863   7.965   7.466  1.00  0.00     0.031 A 
ATOM     40  C   UNL     1      -1.876   8.686   8.785  1.00  0.00     0.074 A 
ATOM     41  C   UNL     1      -2.892   7.176   7.112  1.00  0.00     0.049 A 
ATOM     42  N   UNL     1      -2.755   8.638   9.751  1.00  0.00    -0.248 NA
ATOM     43  C   UNL     1      -0.734   9.575   9.052  1.00  0.00     0.031 C 
ATOM     44  C   UNL     1      -3.005   6.453   5.847  1.00  0.00     0.029 A 
ATOM     45  N   UNL     1      -4.032   6.841   7.798  1.00  0.00    -0.354 N 
ATOM     46  C   UNL     1      -2.265   9.475  10.747  1.00  0.00     0.074 A 
ATOM     47  C   UNL     1      -0.998   9.994  10.280  1.00  0.00     0.031 C 
ATOM     48  C   UNL     1      -4.143   5.738   5.857  1.00  0.00     0.029 A 
ATOM     49  C   UNL     1      -4.819   5.928   7.141  1.00  0.00     0.049 A 
ATOM     50  H   UNL     1      -4.263   7.219   8.678  1.00  0.00     0.167 HD
ATOM     51  C   UNL     1      -2.823   9.784  11.942  1.00  0.00     0.037 A 
ATOM     52  C   UNL     1      -5.940   5.295   7.543  1.00  0.00     0.037 A 
ATOM     53  C   UNL     1      -4.083   9.257  12.397  1.00  0.00     0.049 A 
ATOM     54  C   UNL     1      -6.524   5.614   8.894  1.00  0.00     0.074 A 
ATOM     55  C   UNL     1      -4.757   9.536  13.572  1.00  0.00     0.029 A 
ATOM     56  N   UNL     1      -4.848   8.325  11.708  1.00  0.00    -0.354 N 
ATOM     57  N   UNL     1      -6.077   6.439   9.812  1.00  0.00    -0.248 NA
ATOM     58  C   UNL     1      -7.769   4.925   9.262  1.00  0.00     0.031 C 
ATOM     59  C   UNL     1      -5.893   8.721  13.626  1.00  0.00     0.029 A 
ATOM     60  C   UNL     1      -5.968   7.988  12.451  1.00  0.00     0.049 A 
ATOM     61  H   UNL     1      -4.627   7.958  10.822  1.00  0.00     0.167 HD
ATOM     62  C   UNL     1      -6.995   6.385  10.857  1.00  0.00     0.074 A 
ATOM     63  C   UNL     1      -8.029   5.454  10.450  1.00  0.00     0.031 C 
ATOM     64  C   UNL     1      -6.986   7.051  12.040  1.00  0.00     0.037 A 
BRANCH  51  65
ATOM     65  C   UNL     1      -2.040  10.689  12.856  1.00  0.00     0.058 A 
ATOM     66  C   UNL     1      -1.813  12.043  12.559  1.00  0.00     0.135 A 
ATOM     67  C   UNL     1      -1.493  10.183  14.047  1.00  0.00     0.135 A 
ATOM     68  F   UNL     1      -2.297  12.578  11.426  1.00  0.00    -0.206 F 
ATOM     69  C   UNL     1      -1.032  12.848  13.383  1.00  0.00     0.059 A 
ATOM     70  C   UNL     1      -0.739  10.979  14.903  1.00  0.00     0.059 A 
ATOM     71  F   UNL     1      -1.677   8.896  14.383  1.00  0.00    -0.206 F 
ATOM     72  C   UNL     1      -0.493  12.304  14.550  1.00  0.00     0.060 A 
BRANCH  72  73
ATOM     73  S   UNL     1       0.548  13.349  15.591  1.00  0.00     0.124 S 
ATOM     74  O   UNL     1       1.756  13.455  14.778  1.00  0.00    -0.237 OA
ATOM     75  O   UNL     1      -0.248  14.566  15.705  1.00  0.00    -0.237 OA
ATOM     76  O   UNL     1       0.686  12.575  16.820  1.00  0.00    -0.744 OA
ENDBRANCH  72  73
ENDBRANCH  51  65
BRANCH  52  77
ATOM     77  C   UNL     1      -6.560   4.280   6.650  1.00  0.00     0.058 A 
ATOM     78  C   UNL     1      -7.774   4.525   5.994  1.00  0.00     0.135 A 
ATOM     79  C   UNL     1      -5.912   3.061   6.392  1.00  0.00     0.135 A 
ATOM     80  F   UNL     1      -8.440   5.667   6.220  1.00  0.00    -0.206 F 
ATOM     81  C   UNL     1      -8.320   3.603   5.105  1.00  0.00     0.059 A 
ATOM     82  C   UNL     1      -6.424   2.136   5.489  1.00  0.00     0.059 A 
ATOM     83  F   UNL     1      -4.743   2.781   6.990  1.00  0.00    -0.206 F 
ATOM     84  C   UNL     1      -7.628   2.417   4.848  1.00  0.00     0.060 A 
BRANCH  84  85
ATOM     85  S   UNL     1      -8.289   1.277   3.612  1.00  0.00     0.124 S 
ATOM     86  O   UNL     1      -9.457   0.740   4.301  1.00  0.00    -0.237 OA
ATOM     87  O   UNL     1      -8.562   2.170   2.490  1.00  0.00    -0.237 OA
ATOM     88  O   UNL     1      -7.191   0.337   3.403  1.00  0.00    -0.744 OA
ENDBRANCH  84  85
ENDBRANCH  52  77
BRANCH  64  89
ATOM     89  C   UNL     1      -8.142   6.822  12.979  1.00  0.00     0.058 A 
ATOM     90  C   UNL     1      -8.312   5.612  13.669  1.00  0.00     0.135 A 
ATOM     91  C   UNL     1      -9.059   7.855  13.238  1.00  0.00     0.135 A 
ATOM     92  F   UNL     1      -7.468   4.589  13.458  1.00  0.00    -0.206 F 
ATOM     93  C   UNL     1      -9.363   5.425  14.562  1.00  0.00     0.059 A 
ATOM     94  C   UNL     1     -10.098   7.701  14.151  1.00  0.00     0.059 A 
ATOM     95  F   UNL     1      -8.938   9.039  12.616  1.00  0.00    -0.206 F 
ATOM     96  C   UNL     1     -10.249   6.477  14.799  1.00  0.00     0.060 A 
BRANCH  96  97
ATOM     97  S   UNL     1     -11.590   6.230  15.982  1.00  0.00     0.124 S 
ATOM     98  O   UNL     1     -12.469   5.327  15.247  1.00  0.00    -0.237 OA
ATOM     99  O   UNL     1     -10.894   5.648  17.125  1.00  0.00    -0.237 OA
ATOM    100  O   UNL     1     -12.111   7.578  16.193  1.00  0.00    -0.744 OA
ENDBRANCH  96  97
ENDBRANCH  64  89
ENDBRANCH  38  39
ENDBRANCH  31  33
ENDBRANCH  30  31
ENDBRANCH  29  30
ENDBRANCH  28  29
ENDBRANCH  27  28
ENDBRANCH  26  27
ENDBRANCH  25  26
ENDBRANCH  24  25
ENDBRANCH   1  24
TORSDOF 28
