REMARK SMILES CC(C)(C)[NH2+]CC(=O)N[C@](C)(C(=O)OCCOCCOCCOCCOC(=O)c1ccc(-c2c3nc(c(-c4c(F)cc(S(=O)(=O)[O-])cc4F)c4ccc([nH]4)c(-c4c(F)cc(S(=O)(=O)[O-])cc4F)c4nc(c(-c5c(F)cc(S(=O)(=O)[O-])cc5F)c5ccc2[nH]5)C=C4)C=C3)cc1)C1CC1
REMARK SMILES IDX 19 1 18 2 17 3 16 4 15 5 14 6 12 7 13 8 10 9 11 10 9 11 7 12
REMARK SMILES IDX 8 13 6 15 5 16 2 19 1 20 3 21 4 22 95 23 96 24 97 25 20 26
REMARK SMILES IDX 21 27 22 28 23 29 24 30 25 31 26 32 27 33 28 34 29 35 30 36
REMARK SMILES IDX 94 37 31 38 93 39 32 40 33 41 34 42 87 43 35 44 92 45 86 46
REMARK SMILES IDX 88 47 36 48 91 49 85 50 84 51 37 53 71 54 50 55 70 56 51 57
REMARK SMILES IDX 54 58 69 59 89 60 52 61 53 62 68 64 90 65 55 66 38 67 39 68
REMARK SMILES IDX 48 69 40 70 41 71 47 72 49 73 42 74 43 75 44 76 45 77 46 78
REMARK SMILES IDX 72 79 73 80 82 81 74 82 75 83 81 84 83 85 76 86 77 87 78 88
REMARK SMILES IDX 79 89 80 90 56 91 57 92 66 93 58 94 59 95 65 96 67 97 60 98
REMARK SMILES IDX 61 99 62 100 63 101 64 102
REMARK H PARENT 9 14 5 17 5 18 88 52 54 63
REMARK Flexibility Score: inf
ROOT
ATOM      1  C   UNL     1       5.158  -0.912   1.949  1.00  0.00     0.188 C 
ENDROOT
BRANCH   1   2
ATOM      2  C   UNL     1       4.852   0.448   2.619  1.00  0.00     0.188 C 
BRANCH   2   3
ATOM      3  O   UNL     1       5.177   0.507   3.995  1.00  0.00    -0.376 OA
BRANCH   3   4
ATOM      4  C   UNL     1       4.064   0.478   4.875  1.00  0.00     0.202 C 
BRANCH   4   5
ATOM      5  C   UNL     1       3.213  -0.805   4.873  1.00  0.00     0.261 C 
BRANCH   5   6
ATOM      6  O   UNL     1       2.902  -1.327   3.561  1.00  0.00    -0.461 OA
BRANCH   6   7
ATOM      7  C   UNL     1       1.675  -1.104   3.040  1.00  0.00     0.331 C 
ATOM      8  O   UNL     1       0.800  -0.471   3.627  1.00  0.00    -0.249 OA
BRANCH   7   9
ATOM      9  C   UNL     1       1.481  -1.662   1.576  1.00  0.00     0.138 C 
ATOM     10  C   UNL     1       2.239  -2.965   1.269  1.00  0.00     0.048 C 
BRANCH   9  11
ATOM     11  N   UNL     1      -0.015  -1.990   1.587  1.00  0.00    -0.335 N 
ATOM     12  C   UNL     1      -1.013  -2.325   0.718  1.00  0.00     0.276 C 
ATOM     13  O   UNL     1      -2.142  -2.453   1.212  1.00  0.00    -0.268 OA
ATOM     14  H   UNL     1      -0.366  -1.944   2.506  1.00  0.00     0.164 HD
BRANCH  12  15
ATOM     15  C   UNL     1      -0.848  -2.515  -0.804  1.00  0.00     0.362 C 
BRANCH  15  16
ATOM     16  N   UNL     1      -1.498  -1.456  -1.665  1.00  0.00    -0.334 N 
ATOM     17  H   UNL     1      -1.576  -1.829  -2.611  1.00  0.00     0.347 HD
ATOM     18  H   UNL     1      -2.391  -1.252  -1.217  1.00  0.00     0.347 HD
BRANCH  16  19
ATOM     19  C   UNL     1      -0.796  -0.159  -1.750  1.00  0.00     0.088 C 
ATOM     20  C   UNL     1       0.574  -0.423  -2.441  1.00  0.00     0.078 C 
ATOM     21  C   UNL     1      -1.003   0.544  -0.386  1.00  0.00     0.078 C 
ATOM     22  C   UNL     1      -1.387   0.913  -2.703  1.00  0.00     0.078 C 
ENDBRANCH  16  19
ENDBRANCH  15  16
ENDBRANCH  12  15
ENDBRANCH   9  11
BRANCH   9  23
ATOM     23  C   UNL     1       1.721  -0.618   0.503  1.00  0.00     0.026 C 
ATOM     24  C   UNL     1       1.836   0.880   0.757  1.00  0.00     0.007 C 
ATOM     25  C   UNL     1       2.904   0.178  -0.017  1.00  0.00     0.007 C 
ENDBRANCH   9  23
ENDBRANCH   7   9
ENDBRANCH   6   7
ENDBRANCH   5   6
ENDBRANCH   4   5
ENDBRANCH   3   4
ENDBRANCH   2   3
ENDBRANCH   1   2
BRANCH   1  26
ATOM     26  O   UNL     1       5.978  -1.841   2.613  1.00  0.00    -0.377 OA
BRANCH  26  27
ATOM     27  C   UNL     1       7.075  -1.302   3.321  1.00  0.00     0.188 C 
BRANCH  27  28
ATOM     28  C   UNL     1       7.869  -0.134   2.688  1.00  0.00     0.188 C 
BRANCH  28  29
ATOM     29  O   UNL     1       7.470   0.261   1.377  1.00  0.00    -0.376 OA
BRANCH  29  30
ATOM     30  C   UNL     1       8.274  -0.178   0.290  1.00  0.00     0.202 C 
BRANCH  30  31
ATOM     31  C   UNL     1       8.180  -1.670  -0.061  1.00  0.00     0.261 C 
BRANCH  31  32
ATOM     32  O   UNL     1       8.553  -2.576   0.987  1.00  0.00    -0.460 OA
BRANCH  32  33
ATOM     33  C   UNL     1       9.815  -2.457   1.482  1.00  0.00     0.338 C 
ATOM     34  O   UNL     1      10.683  -1.728   1.095  1.00  0.00    -0.246 OA
BRANCH  33  35
ATOM     35  C   UNL     1       9.841  -3.217   2.757  1.00  0.00     0.060 A 
ATOM     36  C   UNL     1      10.173  -2.521   3.928  1.00  0.00     0.016 A 
ATOM     37  C   UNL     1       9.432  -4.553   2.814  1.00  0.00     0.016 A 
ATOM     38  C   UNL     1      10.094  -3.160   5.161  1.00  0.00     0.010 A 
ATOM     39  C   UNL     1       9.411  -5.211   4.046  1.00  0.00     0.010 A 
ATOM     40  C   UNL     1       9.771  -4.522   5.217  1.00  0.00    -0.014 A 
BRANCH  40  41
ATOM     41  C   UNL     1      10.117  -5.253   6.455  1.00  0.00     0.031 A 
ATOM     42  C   UNL     1      11.514  -5.804   6.548  1.00  0.00     0.074 A 
ATOM     43  C   UNL     1       9.271  -5.336   7.495  1.00  0.00     0.049 A 
ATOM     44  N   UNL     1      12.116  -6.380   7.554  1.00  0.00    -0.248 NA
ATOM     45  C   UNL     1      12.350  -5.673   5.341  1.00  0.00     0.031 C 
ATOM     46  C   UNL     1       7.909  -4.806   7.529  1.00  0.00     0.029 A 
ATOM     47  N   UNL     1       9.449  -5.891   8.738  1.00  0.00    -0.354 N 
ATOM     48  C   UNL     1      13.401  -6.663   7.107  1.00  0.00     0.074 A 
ATOM     49  C   UNL     1      13.482  -6.237   5.729  1.00  0.00     0.031 C 
ATOM     50  C   UNL     1       7.372  -5.064   8.736  1.00  0.00     0.029 A 
ATOM     51  C   UNL     1       8.348  -5.784   9.554  1.00  0.00     0.049 A 
ATOM     52  H   UNL     1      10.287  -6.324   9.018  1.00  0.00     0.167 HD
ATOM     53  C   UNL     1      14.429  -7.216   7.789  1.00  0.00     0.037 A 
ATOM     54  C   UNL     1       8.159  -6.223  10.814  1.00  0.00     0.037 A 
ATOM     55  C   UNL     1      14.335  -7.658   9.154  1.00  0.00     0.049 A 
ATOM     56  C   UNL     1       9.300  -6.900  11.534  1.00  0.00     0.074 A 
ATOM     57  C   UNL     1      15.313  -8.238   9.940  1.00  0.00     0.029 A 
ATOM     58  N   UNL     1      13.188  -7.581   9.931  1.00  0.00    -0.354 N 
ATOM     59  N   UNL     1      10.521  -7.136  11.112  1.00  0.00    -0.248 NA
ATOM     60  C   UNL     1       9.041  -7.357  12.906  1.00  0.00     0.031 C 
ATOM     61  C   UNL     1      14.743  -8.561  11.176  1.00  0.00     0.029 A 
ATOM     62  C   UNL     1      13.427  -8.125  11.181  1.00  0.00     0.049 A 
ATOM     63  H   UNL     1      12.331  -7.196   9.637  1.00  0.00     0.167 HD
ATOM     64  C   UNL     1      11.183  -7.742  12.176  1.00  0.00     0.074 A 
ATOM     65  C   UNL     1      10.231  -7.818  13.266  1.00  0.00     0.031 C 
ATOM     66  C   UNL     1      12.461  -8.195  12.251  1.00  0.00     0.037 A 
BRANCH  53  67
ATOM     67  C   UNL     1      15.725  -7.402   7.053  1.00  0.00     0.058 A 
ATOM     68  C   UNL     1      16.537  -6.313   6.695  1.00  0.00     0.135 A 
ATOM     69  C   UNL     1      16.166  -8.689   6.707  1.00  0.00     0.135 A 
ATOM     70  F   UNL     1      16.148  -5.059   6.974  1.00  0.00    -0.206 F 
ATOM     71  C   UNL     1      17.730  -6.493   6.003  1.00  0.00     0.059 A 
ATOM     72  C   UNL     1      17.369  -8.894   6.040  1.00  0.00     0.059 A 
ATOM     73  F   UNL     1      15.421  -9.763   7.011  1.00  0.00    -0.206 F 
ATOM     74  C   UNL     1      18.139  -7.788   5.683  1.00  0.00     0.060 A 
BRANCH  74  75
ATOM     75  S   UNL     1      19.697  -8.006   4.798  1.00  0.00     0.124 S 
ATOM     76  O   UNL     1      19.350  -7.511   3.470  1.00  0.00    -0.237 OA
ATOM     77  O   UNL     1      20.611  -7.169   5.568  1.00  0.00    -0.237 OA
ATOM     78  O   UNL     1      19.941  -9.443   4.887  1.00  0.00    -0.744 OA
ENDBRANCH  74  75
ENDBRANCH  53  67
BRANCH  54  79
ATOM     79  C   UNL     1       6.841  -6.038  11.482  1.00  0.00     0.058 A 
ATOM     80  C   UNL     1       6.690  -5.179  12.582  1.00  0.00     0.135 A 
ATOM     81  C   UNL     1       5.704  -6.734  11.041  1.00  0.00     0.135 A 
ATOM     82  F   UNL     1       7.748  -4.501  13.052  1.00  0.00    -0.206 F 
ATOM     83  C   UNL     1       5.467  -5.029  13.230  1.00  0.00     0.059 A 
ATOM     84  C   UNL     1       4.465  -6.580  11.654  1.00  0.00     0.059 A 
ATOM     85  F   UNL     1       5.790  -7.564   9.989  1.00  0.00    -0.206 F 
ATOM     86  C   UNL     1       4.359  -5.732  12.755  1.00  0.00     0.060 A 
BRANCH  86  87
ATOM     87  S   UNL     1       2.765  -5.492  13.570  1.00  0.00     0.124 S 
ATOM     88  O   UNL     1       2.968  -6.198  14.830  1.00  0.00    -0.237 OA
ATOM     89  O   UNL     1       2.684  -4.037  13.658  1.00  0.00    -0.237 OA
ATOM     90  O   UNL     1       1.819  -6.109  12.645  1.00  0.00    -0.744 OA
ENDBRANCH  86  87
ENDBRANCH  54  79
BRANCH  66  91
ATOM     91  C   UNL     1      12.910  -8.780  13.563  1.00  0.00     0.058 A 
ATOM     92  C   UNL     1      12.423 -10.010  14.033  1.00  0.00     0.135 A 
ATOM     93  C   UNL     1      13.856  -8.106  14.354  1.00  0.00     0.135 A 
ATOM     94  F   UNL     1      11.520 -10.697  13.317  1.00  0.00    -0.206 F 
ATOM     95  C   UNL     1      12.819 -10.526  15.263  1.00  0.00     0.059 A 
ATOM     96  C   UNL     1      14.292  -8.621  15.571  1.00  0.00     0.059 A 
ATOM     97  F   UNL     1      14.371  -6.936  13.944  1.00  0.00    -0.206 F 
ATOM     98  C   UNL     1      13.749  -9.820  16.028  1.00  0.00     0.060 A 
BRANCH  98  99
ATOM     99  S   UNL     1      14.242 -10.491  17.629  1.00  0.00     0.124 S 
ATOM    100  O   UNL     1      13.062 -10.210  18.440  1.00  0.00    -0.237 OA
ATOM    101  O   UNL     1      14.480 -11.897  17.320  1.00  0.00    -0.237 OA
ATOM    102  O   UNL     1      15.434  -9.720  17.968  1.00  0.00    -0.744 OA
ENDBRANCH  98  99
ENDBRANCH  66  91
ENDBRANCH  40  41
ENDBRANCH  33  35
ENDBRANCH  32  33
ENDBRANCH  31  32
ENDBRANCH  30  31
ENDBRANCH  29  30
ENDBRANCH  28  29
ENDBRANCH  27  28
ENDBRANCH  26  27
ENDBRANCH   1  26
TORSDOF 28
