REMARK SMILES O=C(OCCOCCOCCOCCOC(=O)[C@@H]1C[N@@H+](CCOc2ccc(F)cc2)C[C@H]1C1CC1)c1ccc(-c2c3nc(c(-c4c(F)cc(S(=O)(=O)[O-])cc4F)c4ccc([nH]4)c(-c4c(F)cc(S(=O)(=O)[O-])cc4F)c4nc(c(-c5c(F)cc(S(=O)(=O)[O-])cc5F)c5ccc2[nH]5)C=C4)C=C3)cc1
REMARK SMILES IDX 10 1 9 2 8 3 7 4 6 5 5 6 4 7 3 8 2 9 1 10 36 11 37 12 101 13
REMARK SMILES IDX 38 14 100 15 39 16 40 17 41 18 94 19 42 20 99 21 93 22 95 23
REMARK SMILES IDX 43 24 98 25 92 26 91 27 44 29 78 30 57 31 77 32 58 33 61 34
REMARK SMILES IDX 76 35 96 36 59 37 60 38 75 40 97 41 62 42 45 43 46 44 55 45
REMARK SMILES IDX 47 46 48 47 54 48 56 49 49 50 50 51 51 52 52 53 53 54 79 55
REMARK SMILES IDX 80 56 89 57 81 58 82 59 88 60 90 61 83 62 84 63 85 64 86 65
REMARK SMILES IDX 87 66 63 67 64 68 73 69 65 70 66 71 72 72 74 73 67 74 68 75
REMARK SMILES IDX 69 76 70 77 71 78 11 79 12 80 13 81 14 82 15 83 16 84 17 85
REMARK SMILES IDX 18 86 19 87 32 88 20 89 31 90 33 92 34 93 35 94 21 95 22 96
REMARK SMILES IDX 23 97 24 98 25 99 30 100 26 101 29 102 27 103 28 104
REMARK H PARENT 95 28 61 39 20 91
REMARK Flexibility Score: inf
ROOT
ATOM      1  C   UNL     1       3.961   3.196  -0.524  1.00  0.00     0.188 C 
ENDROOT
BRANCH   1   2
ATOM      2  O   UNL     1       2.716   3.422  -1.181  1.00  0.00    -0.377 OA
BRANCH   2   3
ATOM      3  C   UNL     1       1.941   2.293  -1.592  1.00  0.00     0.188 C 
BRANCH   3   4
ATOM      4  C   UNL     1       2.200   0.912  -0.971  1.00  0.00     0.188 C 
BRANCH   4   5
ATOM      5  O   UNL     1       3.596   0.652  -0.888  1.00  0.00    -0.376 OA
BRANCH   5   6
ATOM      6  C   UNL     1       4.103  -0.576  -1.367  1.00  0.00     0.202 C 
BRANCH   6   7
ATOM      7  C   UNL     1       4.017  -1.741  -0.381  1.00  0.00     0.261 C 
BRANCH   7   8
ATOM      8  O   UNL     1       2.668  -1.911   0.080  1.00  0.00    -0.460 OA
BRANCH   8   9
ATOM      9  C   UNL     1       2.110  -1.395   1.201  1.00  0.00     0.338 C 
ATOM     10  O   UNL     1       0.900  -1.532   1.376  1.00  0.00    -0.246 OA
BRANCH   9  11
ATOM     11  C   UNL     1       2.897  -0.697   2.260  1.00  0.00     0.060 A 
ATOM     12  C   UNL     1       4.008   0.118   2.030  1.00  0.00     0.016 A 
ATOM     13  C   UNL     1       2.433  -0.825   3.578  1.00  0.00     0.016 A 
ATOM     14  C   UNL     1       4.706   0.707   3.068  1.00  0.00     0.010 A 
ATOM     15  C   UNL     1       3.110  -0.209   4.632  1.00  0.00     0.010 A 
ATOM     16  C   UNL     1       4.274   0.525   4.375  1.00  0.00    -0.014 A 
BRANCH  16  17
ATOM     17  C   UNL     1       5.186   0.930   5.454  1.00  0.00     0.031 A 
ATOM     18  C   UNL     1       5.946  -0.157   6.150  1.00  0.00     0.074 A 
ATOM     19  C   UNL     1       5.432   2.233   5.674  1.00  0.00     0.049 A 
ATOM     20  N   UNL     1       6.716  -0.089   7.197  1.00  0.00    -0.248 NA
ATOM     21  C   UNL     1       5.827  -1.512   5.577  1.00  0.00     0.031 C 
ATOM     22  C   UNL     1       4.860   3.342   4.905  1.00  0.00     0.029 A 
ATOM     23  N   UNL     1       6.252   2.845   6.580  1.00  0.00    -0.354 N 
ATOM     24  C   UNL     1       7.136  -1.392   7.435  1.00  0.00     0.074 A 
ATOM     25  C   UNL     1       6.534  -2.234   6.431  1.00  0.00     0.031 C 
ATOM     26  C   UNL     1       5.368   4.499   5.359  1.00  0.00     0.029 A 
ATOM     27  C   UNL     1       6.228   4.217   6.503  1.00  0.00     0.049 A 
ATOM     28  H   UNL     1       6.807   2.350   7.226  1.00  0.00     0.167 HD
ATOM     29  C   UNL     1       7.955  -1.830   8.417  1.00  0.00     0.037 A 
ATOM     30  C   UNL     1       6.806   5.130   7.304  1.00  0.00     0.037 A 
ATOM     31  C   UNL     1       8.540  -0.941   9.382  1.00  0.00     0.049 A 
ATOM     32  C   UNL     1       7.612   4.616   8.467  1.00  0.00     0.074 A 
ATOM     33  C   UNL     1       9.313  -1.245  10.484  1.00  0.00     0.029 A 
ATOM     34  N   UNL     1       8.417   0.444   9.341  1.00  0.00    -0.354 N 
ATOM     35  N   UNL     1       7.903   3.372   8.778  1.00  0.00    -0.248 NA
ATOM     36  C   UNL     1       8.145   5.612   9.401  1.00  0.00     0.031 C 
ATOM     37  C   UNL     1       9.622  -0.045  11.133  1.00  0.00     0.029 A 
ATOM     38  C   UNL     1       9.091   1.012  10.404  1.00  0.00     0.049 A 
ATOM     39  H   UNL     1       7.921   0.946   8.654  1.00  0.00     0.167 HD
ATOM     40  C   UNL     1       8.665   3.434   9.936  1.00  0.00     0.074 A 
ATOM     41  C   UNL     1       8.802   4.843  10.260  1.00  0.00     0.031 C 
ATOM     42  C   UNL     1       9.201   2.427  10.672  1.00  0.00     0.037 A 
BRANCH  29  43
ATOM     43  C   UNL     1       8.191  -3.311   8.515  1.00  0.00     0.058 A 
ATOM     44  C   UNL     1       7.614  -4.050   9.561  1.00  0.00     0.135 A 
ATOM     45  C   UNL     1       8.957  -4.011   7.568  1.00  0.00     0.135 A 
ATOM     46  F   UNL     1       6.851  -3.439  10.481  1.00  0.00    -0.206 F 
ATOM     47  C   UNL     1       7.794  -5.425   9.669  1.00  0.00     0.059 A 
ATOM     48  C   UNL     1       9.129  -5.391   7.642  1.00  0.00     0.059 A 
ATOM     49  F   UNL     1       9.495  -3.363   6.523  1.00  0.00    -0.206 F 
ATOM     50  C   UNL     1       8.551  -6.088   8.703  1.00  0.00     0.060 A 
BRANCH  50  51
ATOM     51  S   UNL     1       8.727  -7.881   8.829  1.00  0.00     0.124 S 
ATOM     52  O   UNL     1       9.574  -8.017  10.008  1.00  0.00    -0.237 OA
ATOM     53  O   UNL     1       7.341  -8.314   8.986  1.00  0.00    -0.237 OA
ATOM     54  O   UNL     1       9.349  -8.250   7.561  1.00  0.00    -0.744 OA
ENDBRANCH  50  51
ENDBRANCH  29  43
BRANCH  30  55
ATOM     55  C   UNL     1       6.601   6.584   7.055  1.00  0.00     0.058 A 
ATOM     56  C   UNL     1       5.327   7.170   7.151  1.00  0.00     0.135 A 
ATOM     57  C   UNL     1       7.665   7.413   6.671  1.00  0.00     0.135 A 
ATOM     58  F   UNL     1       4.269   6.426   7.513  1.00  0.00    -0.206 F 
ATOM     59  C   UNL     1       5.109   8.508   6.842  1.00  0.00     0.059 A 
ATOM     60  C   UNL     1       7.477   8.765   6.384  1.00  0.00     0.059 A 
ATOM     61  F   UNL     1       8.905   6.910   6.577  1.00  0.00    -0.206 F 
ATOM     62  C   UNL     1       6.190   9.298   6.456  1.00  0.00     0.060 A 
BRANCH  62  63
ATOM     63  S   UNL     1       5.886  11.034   6.055  1.00  0.00     0.124 S 
ATOM     64  O   UNL     1       5.075  10.917   4.843  1.00  0.00    -0.237 OA
ATOM     65  O   UNL     1       5.176  11.498   7.246  1.00  0.00    -0.237 OA
ATOM     66  O   UNL     1       7.219  11.580   5.869  1.00  0.00    -0.744 OA
ENDBRANCH  62  63
ENDBRANCH  30  55
BRANCH  42  67
ATOM     67  C   UNL     1      10.006   2.816  11.876  1.00  0.00     0.058 A 
ATOM     68  C   UNL     1      11.397   2.631  11.880  1.00  0.00     0.135 A 
ATOM     69  C   UNL     1       9.392   3.271  13.052  1.00  0.00     0.135 A 
ATOM     70  F   UNL     1      12.026   2.188  10.780  1.00  0.00    -0.206 F 
ATOM     71  C   UNL     1      12.152   2.860  13.022  1.00  0.00     0.059 A 
ATOM     72  C   UNL     1      10.133   3.536  14.197  1.00  0.00     0.059 A 
ATOM     73  F   UNL     1       8.065   3.471  13.088  1.00  0.00    -0.206 F 
ATOM     74  C   UNL     1      11.509   3.308  14.177  1.00  0.00     0.060 A 
BRANCH  74  75
ATOM     75  S   UNL     1      12.507   3.597  15.651  1.00  0.00     0.124 S 
ATOM     76  O   UNL     1      12.866   2.237  16.039  1.00  0.00    -0.237 OA
ATOM     77  O   UNL     1      13.595   4.417  15.128  1.00  0.00    -0.237 OA
ATOM     78  O   UNL     1      11.588   4.287  16.552  1.00  0.00    -0.744 OA
ENDBRANCH  74  75
ENDBRANCH  42  67
ENDBRANCH  16  17
ENDBRANCH   9  11
ENDBRANCH   8   9
ENDBRANCH   7   8
ENDBRANCH   6   7
ENDBRANCH   5   6
ENDBRANCH   4   5
ENDBRANCH   3   4
ENDBRANCH   2   3
ENDBRANCH   1   2
BRANCH   1  79
ATOM     79  C   UNL     1       4.819   4.454  -0.319  1.00  0.00     0.188 C 
BRANCH  79  80
ATOM     80  O   UNL     1       4.255   5.528   0.413  1.00  0.00    -0.376 OA
BRANCH  80  81
ATOM     81  C   UNL     1       2.955   5.941   0.013  1.00  0.00     0.202 C 
BRANCH  81  82
ATOM     82  C   UNL     1       2.809   6.555  -1.397  1.00  0.00     0.261 C 
BRANCH  82  83
ATOM     83  O   UNL     1       3.471   5.821  -2.450  1.00  0.00    -0.463 OA
BRANCH  83  84
ATOM     84  C   UNL     1       4.458   6.452  -3.141  1.00  0.00     0.315 C 
ATOM     85  O   UNL     1       4.707   7.646  -3.061  1.00  0.00    -0.252 OA
BRANCH  84  86
ATOM     86  C   UNL     1       5.265   5.523  -4.052  1.00  0.00     0.163 C 
ATOM     87  C   UNL     1       5.022   5.955  -5.512  1.00  0.00     0.278 C 
ATOM     88  C   UNL     1       4.919   4.030  -4.001  1.00  0.00     0.067 C 
ATOM     89  N   UNL     1       4.861   4.725  -6.313  1.00  0.00    -0.331 N 
ATOM     90  C   UNL     1       4.238   3.818  -5.362  1.00  0.00     0.267 C 
ATOM     91  H   UNL     1       4.269   4.811  -7.139  1.00  0.00     0.348 HD
BRANCH  88  92
ATOM     92  C   UNL     1       6.040   3.021  -3.816  1.00  0.00    -0.001 C 
ATOM     93  C   UNL     1       7.523   3.324  -3.725  1.00  0.00     0.004 C 
ATOM     94  C   UNL     1       6.806   2.767  -2.540  1.00  0.00     0.004 C 
ENDBRANCH  88  92
BRANCH  89  95
ATOM     95  C   UNL     1       6.082   4.306  -7.035  1.00  0.00     0.304 C 
BRANCH  95  96
ATOM     96  C   UNL     1       6.695   2.872  -7.038  1.00  0.00     0.290 C 
BRANCH  96  97
ATOM     97  O   UNL     1       5.929   1.876  -7.726  1.00  0.00    -0.488 OA
BRANCH  97  98
ATOM     98  C   UNL     1       5.349   0.937  -6.913  1.00  0.00     0.119 A 
ATOM     99  C   UNL     1       3.965   0.811  -7.053  1.00  0.00     0.049 A 
ATOM    100  C   UNL     1       6.029   0.179  -5.953  1.00  0.00     0.049 A 
ATOM    101  C   UNL     1       3.238   0.038  -6.153  1.00  0.00     0.043 A 
ATOM    102  C   UNL     1       5.300  -0.622  -5.065  1.00  0.00     0.043 A 
ATOM    103  C   UNL     1       3.912  -0.673  -5.171  1.00  0.00     0.123 A 
ATOM    104  F   UNL     1       3.203  -1.419  -4.315  1.00  0.00    -0.207 F 
ENDBRANCH  97  98
ENDBRANCH  96  97
ENDBRANCH  95  96
ENDBRANCH  89  95
ENDBRANCH  84  86
ENDBRANCH  83  84
ENDBRANCH  82  83
ENDBRANCH  81  82
ENDBRANCH  80  81
ENDBRANCH  79  80
ENDBRANCH   1  79
TORSDOF 28
