REMARK SMILES C[N@H+]1CC[C@H]2CN(C(=O)c3csc(-c4ccncc4)n3)C[C@@]2(C(=O)OCCOCCOCCOCCOC(=O)c2ccc(-c3c4nc(c(-c5c(F)cc(S(=O)(=O)[O-])cc5F)c5ccc([nH]5)c(-c5c(F)cc(S(=O)(=O)[O-])cc5F)c5nc(c(-c6c(F)cc(S(=O)(=O)[O-])cc6F)c6ccc3[nH]6)C=C5)C=C4)cc2)C1
REMARK SMILES IDX 31 1 30 2 29 3 28 4 27 5 26 6 25 7 23 8 24 9 22 10 1 11 2 12
REMARK SMILES IDX 3 13 106 14 4 16 5 17 21 18 6 19 7 20 8 21 9 22 10 23 11 24
REMARK SMILES IDX 20 25 12 26 13 27 14 28 15 29 19 30 16 31 18 32 17 33 32 34
REMARK SMILES IDX 33 35 34 36 35 37 36 38 37 39 38 40 39 41 40 42 41 43 105 44
REMARK SMILES IDX 42 45 104 46 43 47 44 48 45 49 98 50 46 51 103 52 97 53
REMARK SMILES IDX 99 54 47 55 102 56 96 57 95 58 48 60 82 61 61 62 81 63 62 64
REMARK SMILES IDX 65 65 80 66 100 67 63 68 64 69 79 71 101 72 66 73 49 74
REMARK SMILES IDX 50 75 59 76 51 77 52 78 58 79 60 80 53 81 54 82 55 83 56 84
REMARK SMILES IDX 57 85 83 86 84 87 93 88 85 89 86 90 92 91 94 92 87 93 88 94
REMARK SMILES IDX 89 95 90 96 91 97 67 98 68 99 77 100 69 101 70 102 76 103
REMARK SMILES IDX 78 104 71 105 72 106 73 107 74 108 75 109
REMARK H PARENT 2 15 99 59 65 70
REMARK Flexibility Score: inf
ROOT
ATOM      1  O   UNL     1      -2.046  -0.434   4.113  1.00  0.00    -0.377 OA
ENDROOT
BRANCH   1   2
ATOM      2  C   UNL     1      -1.250  -0.980   3.099  1.00  0.00     0.188 C 
BRANCH   2   3
ATOM      3  C   UNL     1      -0.855  -0.049   1.952  1.00  0.00     0.188 C 
BRANCH   3   4
ATOM      4  O   UNL     1      -1.308   1.288   1.860  1.00  0.00    -0.376 OA
BRANCH   4   5
ATOM      5  C   UNL     1      -1.109   1.916   0.583  1.00  0.00     0.202 C 
BRANCH   5   6
ATOM      6  C   UNL     1      -2.027   1.452  -0.599  1.00  0.00     0.261 C 
BRANCH   6   7
ATOM      7  O   UNL     1      -2.175   0.012  -0.706  1.00  0.00    -0.463 OA
BRANCH   7   8
ATOM      8  C   UNL     1      -1.694  -0.815  -1.721  1.00  0.00     0.320 C 
ATOM      9  O   UNL     1      -1.431  -0.452  -2.852  1.00  0.00    -0.251 OA
BRANCH   8  10
ATOM     10  C   UNL     1      -1.293  -2.151  -1.008  1.00  0.00     0.139 C 
ATOM     11  C   UNL     1       2.250  -0.837  -0.832  1.00  0.00     0.332 C 
ATOM     12  N   UNL     1       1.207  -1.836  -1.048  1.00  0.00    -0.336 N 
ATOM     13  C   UNL     1       1.657  -3.192  -0.805  1.00  0.00     0.262 C 
ATOM     14  C   UNL     1      -0.024  -1.601  -0.283  1.00  0.00     0.283 C 
ATOM     15  H   UNL     1       0.986  -1.727  -2.038  1.00  0.00     0.347 HD
ATOM     16  C   UNL     1       0.443  -4.114  -0.791  1.00  0.00     0.068 C 
ATOM     17  C   UNL     1      -0.813  -3.555  -1.545  1.00  0.00     0.039 C 
ATOM     18  C   UNL     1      -2.659  -2.525  -0.331  1.00  0.00     0.145 C 
ATOM     19  C   UNL     1      -1.907  -4.573  -1.210  1.00  0.00     0.125 C 
ATOM     20  N   UNL     1      -3.058  -3.786  -0.954  1.00  0.00    -0.336 N 
BRANCH  20  21
ATOM     21  C   UNL     1      -4.305  -4.337  -1.197  1.00  0.00     0.273 C 
ATOM     22  O   UNL     1      -4.452  -5.561  -1.256  1.00  0.00    -0.267 OA
BRANCH  21  23
ATOM     23  C   UNL     1      -5.429  -3.447  -1.489  1.00  0.00     0.139 A 
ATOM     24  C   UNL     1      -6.743  -3.801  -1.230  1.00  0.00     0.101 A 
ATOM     25  N   UNL     1      -5.287  -2.271  -2.228  1.00  0.00    -0.231 NA
ATOM     26  S   UNL     1      -7.815  -2.635  -1.869  1.00  0.00    -0.122 S 
ATOM     27  C   UNL     1      -6.473  -1.766  -2.507  1.00  0.00     0.124 A 
BRANCH  27  28
ATOM     28  C   UNL     1      -6.715  -0.610  -3.369  1.00  0.00     0.013 A 
ATOM     29  C   UNL     1      -6.303  -0.639  -4.704  1.00  0.00     0.031 A 
ATOM     30  C   UNL     1      -7.363   0.530  -2.888  1.00  0.00     0.031 A 
ATOM     31  C   UNL     1      -6.567   0.463  -5.498  1.00  0.00     0.111 A 
ATOM     32  C   UNL     1      -7.577   1.585  -3.759  1.00  0.00     0.111 A 
ATOM     33  N   UNL     1      -7.192   1.572  -5.056  1.00  0.00    -0.265 NA
ENDBRANCH  27  28
ENDBRANCH  21  23
ENDBRANCH  20  21
ENDBRANCH   8  10
ENDBRANCH   7   8
ENDBRANCH   6   7
ENDBRANCH   5   6
ENDBRANCH   4   5
ENDBRANCH   3   4
ENDBRANCH   2   3
ENDBRANCH   1   2
BRANCH   1  34
ATOM     34  C   UNL     1      -1.676   0.875   4.506  1.00  0.00     0.188 C 
BRANCH  34  35
ATOM     35  C   UNL     1      -0.198   1.132   4.878  1.00  0.00     0.188 C 
BRANCH  35  36
ATOM     36  O   UNL     1       0.703   0.053   4.627  1.00  0.00    -0.376 OA
BRANCH  36  37
ATOM     37  C   UNL     1       1.094  -0.715   5.767  1.00  0.00     0.202 C 
BRANCH  37  38
ATOM     38  C   UNL     1       0.026  -1.615   6.419  1.00  0.00     0.261 C 
BRANCH  38  39
ATOM     39  O   UNL     1      -1.194  -0.969   6.813  1.00  0.00    -0.460 OA
BRANCH  39  40
ATOM     40  C   UNL     1      -1.127  -0.019   7.771  1.00  0.00     0.338 C 
ATOM     41  O   UNL     1      -0.133   0.305   8.402  1.00  0.00    -0.246 OA
BRANCH  40  42
ATOM     42  C   UNL     1      -2.397   0.748   7.736  1.00  0.00     0.060 A 
ATOM     43  C   UNL     1      -2.325   2.137   7.527  1.00  0.00     0.016 A 
ATOM     44  C   UNL     1      -3.639   0.103   7.741  1.00  0.00     0.016 A 
ATOM     45  C   UNL     1      -3.489   2.875   7.308  1.00  0.00     0.010 A 
ATOM     46  C   UNL     1      -4.809   0.856   7.587  1.00  0.00     0.010 A 
ATOM     47  C   UNL     1      -4.738   2.247   7.392  1.00  0.00    -0.014 A 
BRANCH  47  48
ATOM     48  C   UNL     1      -5.942   3.089   7.590  1.00  0.00     0.031 A 
ATOM     49  C   UNL     1      -6.292   3.440   9.011  1.00  0.00     0.074 A 
ATOM     50  C   UNL     1      -6.676   3.565   6.568  1.00  0.00     0.049 A 
ATOM     51  N   UNL     1      -7.289   4.144   9.475  1.00  0.00    -0.248 NA
ATOM     52  C   UNL     1      -5.383   2.923  10.050  1.00  0.00     0.031 C 
ATOM     53  C   UNL     1      -6.410   3.339   5.150  1.00  0.00     0.029 A 
ATOM     54  N   UNL     1      -7.808   4.343   6.579  1.00  0.00    -0.354 N 
ATOM     55  C   UNL     1      -7.128   4.152  10.856  1.00  0.00     0.074 A 
ATOM     56  C   UNL     1      -5.957   3.361  11.158  1.00  0.00     0.031 C 
ATOM     57  C   UNL     1      -7.364   3.952   4.425  1.00  0.00     0.029 A 
ATOM     58  C   UNL     1      -8.323   4.590   5.328  1.00  0.00     0.049 A 
ATOM     59  H   UNL     1      -8.213   4.693   7.405  1.00  0.00     0.167 HD
ATOM     60  C   UNL     1      -7.883   4.771  11.791  1.00  0.00     0.037 A 
ATOM     61  C   UNL     1      -9.451   5.235   4.964  1.00  0.00     0.037 A 
ATOM     62  C   UNL     1      -9.057   5.542  11.487  1.00  0.00     0.049 A 
ATOM     63  C   UNL     1     -10.329   5.847   6.029  1.00  0.00     0.074 A 
ATOM     64  C   UNL     1      -9.893   6.213  12.360  1.00  0.00     0.029 A 
ATOM     65  N   UNL     1      -9.569   5.733  10.212  1.00  0.00    -0.354 N 
ATOM     66  N   UNL     1     -10.156   5.869   7.331  1.00  0.00    -0.248 NA
ATOM     67  C   UNL     1     -11.553   6.524   5.578  1.00  0.00     0.031 C 
ATOM     68  C   UNL     1     -10.944   6.761  11.619  1.00  0.00     0.029 A 
ATOM     69  C   UNL     1     -10.727   6.488  10.277  1.00  0.00     0.049 A 
ATOM     70  H   UNL     1      -9.168   5.383   9.384  1.00  0.00     0.167 HD
ATOM     71  C   UNL     1     -11.232   6.585   7.849  1.00  0.00     0.074 A 
ATOM     72  C   UNL     1     -12.043   6.989   6.719  1.00  0.00     0.031 C 
ATOM     73  C   UNL     1     -11.521   6.885   9.140  1.00  0.00     0.037 A 
BRANCH  60  74
ATOM     74  C   UNL     1      -7.480   4.599  13.228  1.00  0.00     0.058 A 
ATOM     75  C   UNL     1      -6.322   5.196  13.751  1.00  0.00     0.135 A 
ATOM     76  C   UNL     1      -8.271   3.830  14.097  1.00  0.00     0.135 A 
ATOM     77  F   UNL     1      -5.514   5.916  12.956  1.00  0.00    -0.206 F 
ATOM     78  C   UNL     1      -5.949   5.019  15.079  1.00  0.00     0.059 A 
ATOM     79  C   UNL     1      -7.934   3.666  15.437  1.00  0.00     0.059 A 
ATOM     80  F   UNL     1      -9.381   3.227  13.646  1.00  0.00    -0.206 F 
ATOM     81  C   UNL     1      -6.764   4.254  15.915  1.00  0.00     0.060 A 
BRANCH  81  82
ATOM     82  S   UNL     1      -6.272   4.043  17.638  1.00  0.00     0.124 S 
ATOM     83  O   UNL     1      -5.121   3.155  17.506  1.00  0.00    -0.237 OA
ATOM     84  O   UNL     1      -5.973   5.412  18.045  1.00  0.00    -0.237 OA
ATOM     85  O   UNL     1      -7.453   3.451  18.259  1.00  0.00    -0.744 OA
ENDBRANCH  81  82
ENDBRANCH  60  74
BRANCH  61  86
ATOM     86  C   UNL     1      -9.832   5.323   3.526  1.00  0.00     0.058 A 
ATOM     87  C   UNL     1      -9.828   6.547   2.842  1.00  0.00     0.135 A 
ATOM     88  C   UNL     1     -10.218   4.178   2.810  1.00  0.00     0.135 A 
ATOM     89  F   UNL     1      -9.487   7.674   3.486  1.00  0.00    -0.206 F 
ATOM     90  C   UNL     1     -10.196   6.637   1.502  1.00  0.00     0.059 A 
ATOM     91  C   UNL     1     -10.564   4.238   1.463  1.00  0.00     0.059 A 
ATOM     92  F   UNL     1     -10.239   2.981   3.414  1.00  0.00    -0.206 F 
ATOM     93  C   UNL     1     -10.555   5.474   0.819  1.00  0.00     0.060 A 
BRANCH  93  94
ATOM     94  S   UNL     1     -10.952   5.583  -0.940  1.00  0.00     0.124 S 
ATOM     95  O   UNL     1     -12.273   6.200  -0.905  1.00  0.00    -0.237 OA
ATOM     96  O   UNL     1      -9.867   6.418  -1.446  1.00  0.00    -0.237 OA
ATOM     97  O   UNL     1     -10.913   4.190  -1.377  1.00  0.00    -0.744 OA
ENDBRANCH  93  94
ENDBRANCH  61  86
BRANCH  73  98
ATOM     98  C   UNL     1     -12.745   7.720   9.408  1.00  0.00     0.058 A 
ATOM     99  C   UNL     1     -14.042   7.208   9.252  1.00  0.00     0.135 A 
ATOM    100  C   UNL     1     -12.614   9.035   9.886  1.00  0.00     0.135 A 
ATOM    101  F   UNL     1     -14.225   5.958   8.795  1.00  0.00    -0.206 F 
ATOM    102  C   UNL     1     -15.166   7.977   9.534  1.00  0.00     0.059 A 
ATOM    103  C   UNL     1     -13.723   9.811  10.206  1.00  0.00     0.059 A 
ATOM    104  F   UNL     1     -11.397   9.571  10.069  1.00  0.00    -0.206 F 
ATOM    105  C   UNL     1     -14.996   9.278  10.013  1.00  0.00     0.060 A 
BRANCH 105 106
ATOM    106  S   UNL     1     -16.463  10.255  10.403  1.00  0.00     0.124 S 
ATOM    107  O   UNL     1     -16.976  10.560   9.071  1.00  0.00    -0.237 OA
ATOM    108  O   UNL     1     -17.261   9.320  11.190  1.00  0.00    -0.237 OA
ATOM    109  O   UNL     1     -15.928  11.393  11.145  1.00  0.00    -0.744 OA
ENDBRANCH 105 106
ENDBRANCH  73  98
ENDBRANCH  47  48
ENDBRANCH  40  42
ENDBRANCH  39  40
ENDBRANCH  38  39
ENDBRANCH  37  38
ENDBRANCH  36  37
ENDBRANCH  35  36
ENDBRANCH  34  35
ENDBRANCH   1  34
TORSDOF 26
