REMARK SMILES O=C(OCCOCCOCCOCCOC(=O)c1nn(-c2ccc(Br)cc2F)cc1CCCO)c1ccc(-c2c3nc(c(-c4c(F)cc(S(=O)(=O)[O-])cc4F)c4ccc([nH]4)c(-c4c(F)cc(S(=O)(=O)[O-])cc4F)c4nc(c(-c5c(F)cc(S(=O)(=O)[O-])cc5F)c5ccc2[nH]5)C=C4)C=C3)cc1
REMARK SMILES IDX 10 1 9 2 8 3 7 4 6 5 5 6 4 7 3 8 2 9 1 10 35 11 36 12 100 13
REMARK SMILES IDX 37 14 99 15 38 16 39 17 40 18 93 19 41 20 98 21 92 22 94 23
REMARK SMILES IDX 42 24 97 25 91 26 90 27 43 29 77 30 56 31 76 32 57 33 60 34
REMARK SMILES IDX 75 35 95 36 58 37 59 38 74 40 96 41 61 42 44 43 45 44 54 45
REMARK SMILES IDX 46 46 47 47 53 48 55 49 48 50 49 51 50 52 51 53 52 54 78 55
REMARK SMILES IDX 79 56 88 57 80 58 81 59 87 60 89 61 82 62 83 63 84 64 85 65
REMARK SMILES IDX 86 66 62 67 63 68 72 69 64 70 65 71 71 72 73 73 66 74 67 75
REMARK SMILES IDX 68 76 69 77 70 78 11 79 12 80 13 81 14 82 15 83 16 84 17 85
REMARK SMILES IDX 18 86 19 87 30 88 20 89 29 90 31 91 32 92 33 93 34 94 21 96
REMARK SMILES IDX 22 97 27 98 23 99 26 100 28 101 24 102 25 103
REMARK H PARENT 94 28 60 39 34 95
REMARK Flexibility Score: inf
ROOT
ATOM      1  C   UNL     1       3.384  -2.042  -2.727  1.00  0.00     0.188 C 
ENDROOT
BRANCH   1   2
ATOM      2  O   UNL     1       2.149  -1.370  -2.796  1.00  0.00    -0.377 OA
BRANCH   2   3
ATOM      3  C   UNL     1       1.919  -0.523  -1.679  1.00  0.00     0.188 C 
BRANCH   3   4
ATOM      4  C   UNL     1       2.911   0.626  -1.377  1.00  0.00     0.188 C 
BRANCH   4   5
ATOM      5  O   UNL     1       4.189   0.557  -0.740  1.00  0.00    -0.376 OA
BRANCH   5   6
ATOM      6  C   UNL     1       4.849  -0.520  -0.105  1.00  0.00     0.202 C 
BRANCH   6   7
ATOM      7  C   UNL     1       4.368  -1.058   1.237  1.00  0.00     0.261 C 
BRANCH   7   8
ATOM      8  O   UNL     1       2.985  -1.385   1.230  1.00  0.00    -0.460 OA
BRANCH   8   9
ATOM      9  C   UNL     1       1.941  -0.572   1.487  1.00  0.00     0.338 C 
ATOM     10  O   UNL     1       0.811  -1.057   1.407  1.00  0.00    -0.246 OA
BRANCH   9  11
ATOM     11  C   UNL     1       2.049   0.877   1.822  1.00  0.00     0.060 A 
ATOM     12  C   UNL     1       3.221   1.601   2.062  1.00  0.00     0.016 A 
ATOM     13  C   UNL     1       0.815   1.540   1.946  1.00  0.00     0.016 A 
ATOM     14  C   UNL     1       3.163   2.828   2.684  1.00  0.00     0.010 A 
ATOM     15  C   UNL     1       0.747   2.797   2.507  1.00  0.00     0.010 A 
ATOM     16  C   UNL     1       1.920   3.368   2.980  1.00  0.00    -0.014 A 
BRANCH  16  17
ATOM     17  C   UNL     1       1.903   4.558   3.802  1.00  0.00     0.031 A 
ATOM     18  C   UNL     1       2.498   5.750   3.156  1.00  0.00     0.074 A 
ATOM     19  C   UNL     1       1.327   4.525   5.019  1.00  0.00     0.049 A 
ATOM     20  N   UNL     1       3.525   6.437   3.533  1.00  0.00    -0.248 NA
ATOM     21  C   UNL     1       1.982   6.123   1.828  1.00  0.00     0.031 C 
ATOM     22  C   UNL     1       0.527   3.435   5.591  1.00  0.00     0.029 A 
ATOM     23  N   UNL     1       1.219   5.502   5.955  1.00  0.00    -0.354 N 
ATOM     24  C   UNL     1       3.611   7.491   2.629  1.00  0.00     0.074 A 
ATOM     25  C   UNL     1       2.793   7.130   1.503  1.00  0.00     0.031 C 
ATOM     26  C   UNL     1      -0.189   3.913   6.629  1.00  0.00     0.029 A 
ATOM     27  C   UNL     1       0.189   5.295   6.864  1.00  0.00     0.049 A 
ATOM     28  H   UNL     1       1.815   6.285   5.986  1.00  0.00     0.167 HD
ATOM     29  C   UNL     1       4.083   8.705   3.022  1.00  0.00     0.037 A 
ATOM     30  C   UNL     1      -0.379   6.230   7.666  1.00  0.00     0.037 A 
ATOM     31  C   UNL     1       4.937   8.582   4.179  1.00  0.00     0.049 A 
ATOM     32  C   UNL     1       0.576   7.368   7.756  1.00  0.00     0.074 A 
ATOM     33  C   UNL     1       6.070   7.844   4.469  1.00  0.00     0.029 A 
ATOM     34  N   UNL     1       4.454   9.012   5.392  1.00  0.00    -0.354 N 
ATOM     35  N   UNL     1       1.738   7.302   8.346  1.00  0.00    -0.248 NA
ATOM     36  C   UNL     1       0.433   8.453   6.794  1.00  0.00     0.031 C 
ATOM     37  C   UNL     1       5.931   7.470   5.837  1.00  0.00     0.029 A 
ATOM     38  C   UNL     1       4.760   8.053   6.322  1.00  0.00     0.049 A 
ATOM     39  H   UNL     1       3.976   9.856   5.562  1.00  0.00     0.167 HD
ATOM     40  C   UNL     1       2.593   8.037   7.537  1.00  0.00     0.074 A 
ATOM     41  C   UNL     1       1.715   8.803   6.656  1.00  0.00     0.031 C 
ATOM     42  C   UNL     1       3.925   7.741   7.461  1.00  0.00     0.037 A 
BRANCH  29  43
ATOM     43  C   UNL     1       3.415  10.008   2.629  1.00  0.00     0.058 A 
ATOM     44  C   UNL     1       4.005  11.226   3.023  1.00  0.00     0.135 A 
ATOM     45  C   UNL     1       2.084  10.107   2.157  1.00  0.00     0.135 A 
ATOM     46  F   UNL     1       5.265  11.256   3.486  1.00  0.00    -0.206 F 
ATOM     47  C   UNL     1       3.296  12.428   3.044  1.00  0.00     0.059 A 
ATOM     48  C   UNL     1       1.379  11.302   2.118  1.00  0.00     0.059 A 
ATOM     49  F   UNL     1       1.356   9.044   1.800  1.00  0.00    -0.206 F 
ATOM     50  C   UNL     1       1.974  12.448   2.610  1.00  0.00     0.060 A 
BRANCH  50  51
ATOM     51  S   UNL     1       1.011  13.961   2.750  1.00  0.00     0.124 S 
ATOM     52  O   UNL     1       0.841  14.057   4.195  1.00  0.00    -0.237 OA
ATOM     53  O   UNL     1       1.902  14.942   2.141  1.00  0.00    -0.237 OA
ATOM     54  O   UNL     1      -0.197  13.660   1.987  1.00  0.00    -0.744 OA
ENDBRANCH  50  51
ENDBRANCH  29  43
BRANCH  30  55
ATOM     55  C   UNL     1      -1.814   6.342   8.048  1.00  0.00     0.058 A 
ATOM     56  C   UNL     1      -2.228   7.246   9.042  1.00  0.00     0.135 A 
ATOM     57  C   UNL     1      -2.843   5.762   7.275  1.00  0.00     0.135 A 
ATOM     58  F   UNL     1      -1.320   7.864   9.813  1.00  0.00    -0.206 F 
ATOM     59  C   UNL     1      -3.573   7.590   9.226  1.00  0.00     0.059 A 
ATOM     60  C   UNL     1      -4.189   6.073   7.454  1.00  0.00     0.059 A 
ATOM     61  F   UNL     1      -2.572   4.939   6.252  1.00  0.00    -0.206 F 
ATOM     62  C   UNL     1      -4.546   7.011   8.413  1.00  0.00     0.060 A 
BRANCH  62  63
ATOM     63  S   UNL     1      -6.259   7.579   8.522  1.00  0.00     0.124 S 
ATOM     64  O   UNL     1      -6.668   7.054   9.820  1.00  0.00    -0.237 OA
ATOM     65  O   UNL     1      -6.110   9.027   8.438  1.00  0.00    -0.237 OA
ATOM     66  O   UNL     1      -6.898   6.953   7.367  1.00  0.00    -0.744 OA
ENDBRANCH  62  63
ENDBRANCH  30  55
BRANCH  42  67
ATOM     67  C   UNL     1       4.518   6.838   8.512  1.00  0.00     0.058 A 
ATOM     68  C   UNL     1       4.142   5.500   8.722  1.00  0.00     0.135 A 
ATOM     69  C   UNL     1       5.612   7.318   9.248  1.00  0.00     0.135 A 
ATOM     70  F   UNL     1       3.184   4.926   7.980  1.00  0.00    -0.206 F 
ATOM     71  C   UNL     1       4.788   4.694   9.662  1.00  0.00     0.059 A 
ATOM     72  C   UNL     1       6.294   6.522  10.164  1.00  0.00     0.059 A 
ATOM     73  F   UNL     1       6.065   8.566   9.045  1.00  0.00    -0.206 F 
ATOM     74  C   UNL     1       5.864   5.215  10.380  1.00  0.00     0.060 A 
BRANCH  74  75
ATOM     75  S   UNL     1       6.740   4.154  11.549  1.00  0.00     0.124 S 
ATOM     76  O   UNL     1       5.774   4.031  12.635  1.00  0.00    -0.237 OA
ATOM     77  O   UNL     1       6.973   2.943  10.766  1.00  0.00    -0.237 OA
ATOM     78  O   UNL     1       7.944   4.918  11.868  1.00  0.00    -0.744 OA
ENDBRANCH  74  75
ENDBRANCH  42  67
ENDBRANCH  16  17
ENDBRANCH   9  11
ENDBRANCH   8   9
ENDBRANCH   7   8
ENDBRANCH   6   7
ENDBRANCH   5   6
ENDBRANCH   4   5
ENDBRANCH   3   4
ENDBRANCH   2   3
ENDBRANCH   1   2
BRANCH   1  79
ATOM     79  C   UNL     1       4.462  -1.198  -3.401  1.00  0.00     0.188 C 
BRANCH  79  80
ATOM     80  O   UNL     1       4.043  -0.096  -4.174  1.00  0.00    -0.376 OA
BRANCH  80  81
ATOM     81  C   UNL     1       3.315  -0.276  -5.372  1.00  0.00     0.202 C 
BRANCH  81  82
ATOM     82  C   UNL     1       2.831  -1.636  -5.905  1.00  0.00     0.261 C 
BRANCH  82  83
ATOM     83  O   UNL     1       3.538  -2.815  -5.509  1.00  0.00    -0.458 OA
BRANCH  83  84
ATOM     84  C   UNL     1       4.799  -3.066  -5.948  1.00  0.00     0.359 C 
ATOM     85  O   UNL     1       5.406  -2.386  -6.770  1.00  0.00    -0.244 OA
BRANCH  84  86
ATOM     86  C   UNL     1       5.346  -4.237  -5.238  1.00  0.00     0.173 A 
ATOM     87  N   UNL     1       4.907  -5.453  -5.610  1.00  0.00    -0.160 NA
ATOM     88  C   UNL     1       6.217  -4.339  -4.093  1.00  0.00     0.006 A 
ATOM     89  N   UNL     1       5.324  -6.301  -4.651  1.00  0.00    -0.237 N 
ATOM     90  C   UNL     1       6.065  -5.659  -3.697  1.00  0.00     0.119 A 
BRANCH  88  91
ATOM     91  C   UNL     1       7.066  -3.358  -3.324  1.00  0.00     0.042 C 
BRANCH  91  92
ATOM     92  C   UNL     1       8.117  -2.588  -4.131  1.00  0.00     0.033 C 
BRANCH  92  93
ATOM     93  C   UNL     1       7.691  -1.208  -4.619  1.00  0.00     0.156 C 
BRANCH  93  94
ATOM     94  O   UNL     1       7.440  -0.367  -3.503  1.00  0.00    -0.396 OA
ATOM     95  H   UNL     1       6.732  -0.751  -2.962  1.00  0.00     0.210 HD
ENDBRANCH  93  94
ENDBRANCH  92  93
ENDBRANCH  91  92
ENDBRANCH  88  91
BRANCH  89  96
ATOM     96  C   UNL     1       5.058  -7.682  -4.763  1.00  0.00     0.100 A 
ATOM     97  C   UNL     1       4.871  -8.224  -6.044  1.00  0.00     0.032 A 
ATOM     98  C   UNL     1       5.021  -8.517  -3.647  1.00  0.00     0.149 A 
ATOM     99  C   UNL     1       4.704  -9.600  -6.200  1.00  0.00     0.018 A 
ATOM    100  C   UNL     1       4.811  -9.886  -3.797  1.00  0.00     0.057 A 
ATOM    101  F   UNL     1       5.128  -8.029  -2.403  1.00  0.00    -0.205 F 
ATOM    102  C   UNL     1       4.672 -10.423  -5.076  1.00  0.00     0.021 A 
ATOM    103  Br  UNL     1       4.447 -12.286  -5.295  1.00  0.00    -0.051 Br
ENDBRANCH  89  96
ENDBRANCH  84  86
ENDBRANCH  83  84
ENDBRANCH  82  83
ENDBRANCH  81  82
ENDBRANCH  80  81
ENDBRANCH  79  80
ENDBRANCH   1  79
TORSDOF 28
