REMARK SMILES O=C(C[C@H](C(=O)OCCOCCOCCOCCOC(=O)c1ccc(-c2c3nc(c(-c4c(F)cc(S(=O)(=O)[O-])cc4F)c4ccc([nH]4)c(-c4c(F)cc(S(=O)(=O)[O-])cc4F)c4nc(c(-c5c(F)cc(S(=O)(=O)[O-])cc5F)c5ccc2[nH]5)C=C4)C=C3)cc1)c1ccccc1)Nc1ccc(Cl)cc1Cl
REMARK SMILES IDX 13 1 12 2 11 3 10 4 9 5 8 6 7 7 5 8 6 9 4 10 3 11 2 12 1 13
REMARK SMILES IDX 94 14 95 16 96 17 101 18 97 19 100 20 102 21 98 22 99 23
REMARK SMILES IDX 88 24 89 25 93 26 90 27 92 28 91 29 14 30 15 31 16 32 17 33
REMARK SMILES IDX 18 34 19 35 20 36 21 37 22 38 23 39 87 40 24 41 86 42 25 43
REMARK SMILES IDX 26 44 27 45 80 46 28 47 85 48 79 49 81 50 29 51 84 52 78 53
REMARK SMILES IDX 77 54 30 56 64 57 43 58 63 59 44 60 47 61 62 62 82 63 45 64
REMARK SMILES IDX 46 65 61 67 83 68 48 69 31 70 32 71 41 72 33 73 34 74 40 75
REMARK SMILES IDX 42 76 35 77 36 78 37 79 38 80 39 81 65 82 66 83 75 84 67 85
REMARK SMILES IDX 68 86 74 87 76 88 69 89 70 90 71 91 72 92 73 93 49 94 50 95
REMARK SMILES IDX 59 96 51 97 52 98 58 99 60 100 53 101 54 102 55 103 56 104
REMARK SMILES IDX 57 105
REMARK H PARENT 94 15 81 55 47 66
REMARK Flexibility Score: inf
ROOT
ATOM      1  O   UNL     1       1.782  -1.414  -0.947  1.00  0.00    -0.377 OA
ENDROOT
BRANCH   1   2
ATOM      2  C   UNL     1       1.395  -1.526   0.418  1.00  0.00     0.188 C 
BRANCH   2   3
ATOM      3  C   UNL     1       1.171  -0.244   1.226  1.00  0.00     0.188 C 
BRANCH   3   4
ATOM      4  O   UNL     1       0.283   0.752   0.770  1.00  0.00    -0.376 OA
BRANCH   4   5
ATOM      5  C   UNL     1       0.719   2.062   0.393  1.00  0.00     0.202 C 
BRANCH   5   6
ATOM      6  C   UNL     1       2.057   2.724   0.789  1.00  0.00     0.261 C 
BRANCH   6   7
ATOM      7  O   UNL     1       3.206   1.864   0.809  1.00  0.00    -0.463 OA
BRANCH   7   8
ATOM      8  C   UNL     1       3.576   1.497   2.066  1.00  0.00     0.314 C 
ATOM      9  O   UNL     1       2.998   1.914   3.071  1.00  0.00    -0.252 OA
BRANCH   8  10
ATOM     10  C   UNL     1       4.585   0.328   2.151  1.00  0.00     0.138 C 
BRANCH  10  11
ATOM     11  C   UNL     1       5.265  -0.296   0.927  1.00  0.00     0.120 C 
BRANCH  11  12
ATOM     12  C   UNL     1       5.513   0.632  -0.229  1.00  0.00     0.225 C 
ATOM     13  O   UNL     1       6.420   1.456  -0.175  1.00  0.00    -0.275 OA
ATOM     14  N   UNL     1       4.591   0.510  -1.265  1.00  0.00    -0.325 N 
ATOM     15  H   UNL     1       3.890  -0.180  -1.224  1.00  0.00     0.169 HD
BRANCH  14  16
ATOM     16  C   UNL     1       4.662   1.380  -2.375  1.00  0.00     0.060 A 
ATOM     17  C   UNL     1       3.551   2.188  -2.634  1.00  0.00     0.029 A 
ATOM     18  C   UNL     1       5.832   1.557  -3.128  1.00  0.00     0.066 A 
ATOM     19  C   UNL     1       3.653   3.260  -3.517  1.00  0.00     0.023 A 
ATOM     20  C   UNL     1       5.943   2.641  -3.995  1.00  0.00     0.043 A 
ATOM     21  Cl  UNL     1       7.104   0.383  -3.116  1.00  0.00    -0.082 Cl
ATOM     22  C   UNL     1       4.865   3.511  -4.154  1.00  0.00     0.042 A 
ATOM     23  Cl  UNL     1       5.009   4.905  -5.151  1.00  0.00    -0.084 Cl
ENDBRANCH  14  16
ENDBRANCH  11  12
ENDBRANCH  10  11
BRANCH  10  24
ATOM     24  C   UNL     1       5.487   0.582   3.355  1.00  0.00    -0.033 A 
ATOM     25  C   UNL     1       5.667  -0.427   4.310  1.00  0.00     0.004 A 
ATOM     26  C   UNL     1       5.887   1.895   3.656  1.00  0.00     0.004 A 
ATOM     27  C   UNL     1       6.100  -0.098   5.593  1.00  0.00     0.000 A 
ATOM     28  C   UNL     1       6.273   2.224   4.951  1.00  0.00     0.000 A 
ATOM     29  C   UNL     1       6.358   1.233   5.924  1.00  0.00     0.000 A 
ENDBRANCH  10  24
ENDBRANCH   8  10
ENDBRANCH   7   8
ENDBRANCH   6   7
ENDBRANCH   5   6
ENDBRANCH   4   5
ENDBRANCH   3   4
ENDBRANCH   2   3
ENDBRANCH   1   2
BRANCH   1  30
ATOM     30  C   UNL     1       1.076  -0.491  -1.765  1.00  0.00     0.188 C 
BRANCH  30  31
ATOM     31  C   UNL     1      -0.463  -0.503  -1.794  1.00  0.00     0.188 C 
BRANCH  31  32
ATOM     32  O   UNL     1      -1.056  -1.329  -0.820  1.00  0.00    -0.376 OA
BRANCH  32  33
ATOM     33  C   UNL     1      -1.299  -2.695  -1.120  1.00  0.00     0.202 C 
BRANCH  33  34
ATOM     34  C   UNL     1      -0.391  -3.551  -2.029  1.00  0.00     0.261 C 
BRANCH  34  35
ATOM     35  O   UNL     1       0.299  -2.923  -3.116  1.00  0.00    -0.460 OA
BRANCH  35  36
ATOM     36  C   UNL     1      -0.422  -2.588  -4.203  1.00  0.00     0.338 C 
ATOM     37  O   UNL     1      -1.635  -2.702  -4.340  1.00  0.00    -0.246 OA
BRANCH  36  38
ATOM     38  C   UNL     1       0.472  -1.890  -5.148  1.00  0.00     0.060 A 
ATOM     39  C   UNL     1       0.226  -0.547  -5.469  1.00  0.00     0.016 A 
ATOM     40  C   UNL     1       1.537  -2.573  -5.741  1.00  0.00     0.016 A 
ATOM     41  C   UNL     1       1.012   0.099  -6.426  1.00  0.00     0.010 A 
ATOM     42  C   UNL     1       2.305  -1.933  -6.717  1.00  0.00     0.010 A 
ATOM     43  C   UNL     1       2.018  -0.609  -7.095  1.00  0.00    -0.014 A 
BRANCH  43  44
ATOM     44  C   UNL     1       2.631  -0.052  -8.327  1.00  0.00     0.031 A 
ATOM     45  C   UNL     1       2.088  -0.497  -9.653  1.00  0.00     0.074 A 
ATOM     46  C   UNL     1       3.665   0.805  -8.280  1.00  0.00     0.049 A 
ATOM     47  N   UNL     1       2.536  -0.243 -10.853  1.00  0.00    -0.248 NA
ATOM     48  C   UNL     1       0.892  -1.356  -9.624  1.00  0.00     0.031 C 
ATOM     49  C   UNL     1       4.265   1.316  -7.054  1.00  0.00     0.029 A 
ATOM     50  N   UNL     1       4.410   1.377  -9.285  1.00  0.00    -0.354 N 
ATOM     51  C   UNL     1       1.707  -0.942 -11.719  1.00  0.00     0.074 A 
ATOM     52  C   UNL     1       0.724  -1.628 -10.910  1.00  0.00     0.031 C 
ATOM     53  C   UNL     1       5.295   2.111  -7.384  1.00  0.00     0.029 A 
ATOM     54  C   UNL     1       5.452   2.149  -8.828  1.00  0.00     0.049 A 
ATOM     55  H   UNL     1       4.215   1.246 -10.241  1.00  0.00     0.167 HD
ATOM     56  C   UNL     1       1.776  -1.013 -13.066  1.00  0.00     0.037 A 
ATOM     57  C   UNL     1       6.444   2.791  -9.479  1.00  0.00     0.037 A 
ATOM     58  C   UNL     1       2.749  -0.313 -13.863  1.00  0.00     0.049 A 
ATOM     59  C   UNL     1       6.504   2.682 -10.979  1.00  0.00     0.074 A 
ATOM     60  C   UNL     1       2.865  -0.289 -15.241  1.00  0.00     0.029 A 
ATOM     61  N   UNL     1       3.775   0.471 -13.360  1.00  0.00    -0.354 N 
ATOM     62  N   UNL     1       5.689   2.046 -11.787  1.00  0.00    -0.248 NA
ATOM     63  C   UNL     1       7.619   3.356 -11.659  1.00  0.00     0.031 C 
ATOM     64  C   UNL     1       4.000   0.456 -15.569  1.00  0.00     0.029 A 
ATOM     65  C   UNL     1       4.549   0.958 -14.400  1.00  0.00     0.049 A 
ATOM     66  H   UNL     1       3.931   0.655 -12.405  1.00  0.00     0.167 HD
ATOM     67  C   UNL     1       6.176   2.270 -13.068  1.00  0.00     0.074 A 
ATOM     68  C   UNL     1       7.346   3.111 -12.932  1.00  0.00     0.031 C 
ATOM     69  C   UNL     1       5.698   1.814 -14.251  1.00  0.00     0.037 A 
BRANCH  56  70
ATOM     70  C   UNL     1       0.804  -1.911 -13.775  1.00  0.00     0.058 A 
ATOM     71  C   UNL     1      -0.551  -1.581 -13.914  1.00  0.00     0.135 A 
ATOM     72  C   UNL     1       1.264  -3.085 -14.395  1.00  0.00     0.135 A 
ATOM     73  F   UNL     1      -1.047  -0.486 -13.316  1.00  0.00    -0.206 F 
ATOM     74  C   UNL     1      -1.418  -2.381 -14.650  1.00  0.00     0.059 A 
ATOM     75  C   UNL     1       0.422  -3.885 -15.158  1.00  0.00     0.059 A 
ATOM     76  F   UNL     1       2.550  -3.451 -14.277  1.00  0.00    -0.206 F 
ATOM     77  C   UNL     1      -0.918  -3.524 -15.279  1.00  0.00     0.060 A 
BRANCH  77  78
ATOM     78  S   UNL     1      -2.043  -4.514 -16.285  1.00  0.00     0.124 S 
ATOM     79  O   UNL     1      -2.899  -5.111 -15.265  1.00  0.00    -0.237 OA
ATOM     80  O   UNL     1      -2.672  -3.503 -17.129  1.00  0.00    -0.237 OA
ATOM     81  O   UNL     1      -1.154  -5.441 -16.978  1.00  0.00    -0.744 OA
ENDBRANCH  77  78
ENDBRANCH  56  70
BRANCH  57  82
ATOM     82  C   UNL     1       7.481   3.568  -8.735  1.00  0.00     0.058 A 
ATOM     83  C   UNL     1       7.614   4.955  -8.908  1.00  0.00     0.135 A 
ATOM     84  C   UNL     1       8.392   2.937  -7.871  1.00  0.00     0.135 A 
ATOM     85  F   UNL     1       6.776   5.611  -9.726  1.00  0.00    -0.206 F 
ATOM     86  C   UNL     1       8.632   5.678  -8.292  1.00  0.00     0.059 A 
ATOM     87  C   UNL     1       9.395   3.643  -7.214  1.00  0.00     0.059 A 
ATOM     88  F   UNL     1       8.305   1.616  -7.649  1.00  0.00    -0.206 F 
ATOM     89  C   UNL     1       9.524   5.010  -7.451  1.00  0.00     0.060 A 
BRANCH  89  90
ATOM     90  S   UNL     1      10.855   5.951  -6.673  1.00  0.00     0.124 S 
ATOM     91  O   UNL     1      11.743   6.192  -7.805  1.00  0.00    -0.237 OA
ATOM     92  O   UNL     1      10.147   7.119  -6.157  1.00  0.00    -0.237 OA
ATOM     93  O   UNL     1      11.363   5.035  -5.657  1.00  0.00    -0.744 OA
ENDBRANCH  89  90
ENDBRANCH  57  82
BRANCH  69  94
ATOM     94  C   UNL     1       6.400   2.256 -15.503  1.00  0.00     0.058 A 
ATOM     95  C   UNL     1       7.665   1.765 -15.859  1.00  0.00     0.135 A 
ATOM     96  C   UNL     1       5.759   3.132 -16.395  1.00  0.00     0.135 A 
ATOM     97  F   UNL     1       8.324   0.934 -15.036  1.00  0.00    -0.206 F 
ATOM     98  C   UNL     1       8.277   2.136 -17.051  1.00  0.00     0.059 A 
ATOM     99  C   UNL     1       6.338   3.491 -17.607  1.00  0.00     0.059 A 
ATOM    100  F   UNL     1       4.545   3.625 -16.104  1.00  0.00    -0.206 F 
ATOM    101  C   UNL     1       7.601   2.993 -17.923  1.00  0.00     0.060 A 
BRANCH 101 102
ATOM    102  S   UNL     1       8.379   3.416 -19.494  1.00  0.00     0.124 S 
ATOM    103  O   UNL     1       9.453   4.304 -19.062  1.00  0.00    -0.237 OA
ATOM    104  O   UNL     1       8.799   2.111 -19.995  1.00  0.00    -0.237 OA
ATOM    105  O   UNL     1       7.303   4.053 -20.247  1.00  0.00    -0.744 OA
ENDBRANCH 101 102
ENDBRANCH  69  94
ENDBRANCH  43  44
ENDBRANCH  36  38
ENDBRANCH  35  36
ENDBRANCH  34  35
ENDBRANCH  33  34
ENDBRANCH  32  33
ENDBRANCH  31  32
ENDBRANCH  30  31
ENDBRANCH   1  30
TORSDOF 27
