REMARK SMILES CC(C)C[C@H](CNC(=O)NCC1(C)CCCC1)C(=O)OCCOCCOCCOCCOC(=O)c1ccc(-c2c3nc(c(-c4c(F)cc(S(=O)(=O)[O-])cc4F)c4ccc([nH]4)c(-c4c(F)cc(S(=O)(=O)[O-])cc4F)c4nc(c(-c5c(F)cc(S(=O)(=O)[O-])cc5F)c5ccc2[nH]5)C=C4)C=C3)cc1
REMARK SMILES IDX 25 1 24 2 23 3 22 4 21 5 20 6 18 7 19 8 5 9 4 10 2 11 1 12
REMARK SMILES IDX 3 13 6 14 7 15 8 16 9 18 10 19 11 21 12 22 13 23 14 24 17 25
REMARK SMILES IDX 15 26 16 27 26 28 27 29 28 30 29 31 30 32 31 33 32 34 33 35
REMARK SMILES IDX 34 36 35 37 36 38 100 39 37 40 99 41 38 42 39 43 40 44 93 45
REMARK SMILES IDX 41 46 98 47 92 48 94 49 42 50 97 51 91 52 90 53 43 55 77 56
REMARK SMILES IDX 56 57 76 58 57 59 60 60 75 61 95 62 58 63 59 64 74 66 96 67
REMARK SMILES IDX 61 68 44 69 45 70 54 71 46 72 47 73 53 74 55 75 48 76 49 77
REMARK SMILES IDX 50 78 51 79 52 80 78 81 79 82 88 83 80 84 81 85 87 86 89 87
REMARK SMILES IDX 82 88 83 89 84 90 85 91 86 92 62 93 63 94 72 95 64 96 65 97
REMARK SMILES IDX 71 98 73 99 66 100 67 101 68 102 69 103 70 104
REMARK H PARENT 7 17 10 20 94 54 60 65
REMARK Flexibility Score: inf
ROOT
ATOM      1  C   UNL     1      -3.682  -0.184   0.937  1.00  0.00     0.188 C 
ENDROOT
BRANCH   1   2
ATOM      2  C   UNL     1      -4.252   0.782  -0.112  1.00  0.00     0.188 C 
BRANCH   2   3
ATOM      3  O   UNL     1      -5.581   0.675  -0.607  1.00  0.00    -0.376 OA
BRANCH   3   4
ATOM      4  C   UNL     1      -6.216  -0.574  -0.844  1.00  0.00     0.202 C 
BRANCH   4   5
ATOM      5  C   UNL     1      -5.631  -1.609  -1.809  1.00  0.00     0.261 C 
BRANCH   5   6
ATOM      6  O   UNL     1      -4.274  -1.990  -1.565  1.00  0.00    -0.463 OA
BRANCH   6   7
ATOM      7  C   UNL     1      -3.349  -1.329  -2.291  1.00  0.00     0.310 C 
ATOM      8  O   UNL     1      -3.594  -0.434  -3.095  1.00  0.00    -0.252 OA
BRANCH   7   9
ATOM      9  C   UNL     1      -1.940  -1.830  -2.061  1.00  0.00     0.119 C 
BRANCH   9  10
ATOM     10  C   UNL     1      -1.412  -2.588  -3.285  1.00  0.00     0.020 C 
BRANCH  10  11
ATOM     11  C   UNL     1      -2.362  -3.635  -3.893  1.00  0.00    -0.017 C 
ATOM     12  C   UNL     1      -3.330  -3.019  -4.914  1.00  0.00     0.007 C 
ATOM     13  C   UNL     1      -1.530  -4.710  -4.592  1.00  0.00     0.007 C 
ENDBRANCH  10  11
ENDBRANCH   9  10
BRANCH   9  14
ATOM     14  C   UNL     1      -1.636  -2.446  -0.669  1.00  0.00     0.133 C 
BRANCH  14  15
ATOM     15  N   UNL     1      -0.819  -3.653  -0.620  1.00  0.00    -0.337 N 
ATOM     16  C   UNL     1       0.133  -4.104   0.200  1.00  0.00     0.314 C 
ATOM     17  H   UNL     1      -1.013  -4.276  -1.358  1.00  0.00     0.165 HD
ATOM     18  O   UNL     1       0.081  -5.313   0.463  1.00  0.00    -0.249 OA
ATOM     19  N   UNL     1       1.143  -3.447   0.772  1.00  0.00    -0.338 N 
ATOM     20  H   UNL     1       1.382  -3.916   1.605  1.00  0.00     0.165 HD
BRANCH  19  21
ATOM     21  C   UNL     1       2.042  -2.275   0.624  1.00  0.00     0.124 C 
BRANCH  21  22
ATOM     22  C   UNL     1       1.425  -0.905   0.308  1.00  0.00    -0.015 C 
ATOM     23  C   UNL     1       0.367  -0.614   1.392  1.00  0.00     0.013 C 
ATOM     24  C   UNL     1       2.380   0.323   0.314  1.00  0.00     0.008 C 
ATOM     25  C   UNL     1       1.051  -0.915  -1.179  1.00  0.00     0.008 C 
ATOM     26  C   UNL     1       2.922   0.535  -1.101  1.00  0.00     0.001 C 
ATOM     27  C   UNL     1       2.336  -0.584  -1.927  1.00  0.00     0.001 C 
ENDBRANCH  21  22
ENDBRANCH  19  21
ENDBRANCH  14  15
ENDBRANCH   9  14
ENDBRANCH   7   9
ENDBRANCH   6   7
ENDBRANCH   5   6
ENDBRANCH   4   5
ENDBRANCH   3   4
ENDBRANCH   2   3
ENDBRANCH   1   2
BRANCH   1  28
ATOM     28  O   UNL     1      -4.428  -1.369   1.105  1.00  0.00    -0.377 OA
BRANCH  28  29
ATOM     29  C   UNL     1      -5.226  -1.441   2.284  1.00  0.00     0.188 C 
BRANCH  29  30
ATOM     30  C   UNL     1      -6.033  -0.182   2.675  1.00  0.00     0.188 C 
BRANCH  30  31
ATOM     31  O   UNL     1      -5.240   0.995   2.792  1.00  0.00    -0.376 OA
BRANCH  31  32
ATOM     32  C   UNL     1      -4.870   1.412   4.100  1.00  0.00     0.202 C 
BRANCH  32  33
ATOM     33  C   UNL     1      -3.833   0.544   4.833  1.00  0.00     0.261 C 
BRANCH  33  34
ATOM     34  O   UNL     1      -4.193  -0.827   5.060  1.00  0.00    -0.460 OA
BRANCH  34  35
ATOM     35  C   UNL     1      -5.325  -1.070   5.752  1.00  0.00     0.338 C 
ATOM     36  O   UNL     1      -6.053  -0.242   6.275  1.00  0.00    -0.246 OA
BRANCH  35  37
ATOM     37  C   UNL     1      -5.666  -2.499   5.588  1.00  0.00     0.060 A 
ATOM     38  C   UNL     1      -6.912  -2.835   5.041  1.00  0.00     0.016 A 
ATOM     39  C   UNL     1      -4.774  -3.499   5.984  1.00  0.00     0.016 A 
ATOM     40  C   UNL     1      -7.295  -4.171   4.943  1.00  0.00     0.010 A 
ATOM     41  C   UNL     1      -5.169  -4.837   5.912  1.00  0.00     0.010 A 
ATOM     42  C   UNL     1      -6.451  -5.172   5.439  1.00  0.00    -0.014 A 
BRANCH  42  43
ATOM     43  C   UNL     1      -7.024  -6.508   5.731  1.00  0.00     0.031 A 
ATOM     44  C   UNL     1      -7.532  -6.759   7.128  1.00  0.00     0.074 A 
ATOM     45  C   UNL     1      -7.141  -7.456   4.786  1.00  0.00     0.049 A 
ATOM     46  N   UNL     1      -8.068  -7.834   7.641  1.00  0.00    -0.248 NA
ATOM     47  C   UNL     1      -7.415  -5.635   8.073  1.00  0.00     0.031 C 
ATOM     48  C   UNL     1      -6.738  -7.313   3.389  1.00  0.00     0.029 A 
ATOM     49  N   UNL     1      -7.637  -8.733   4.866  1.00  0.00    -0.354 N 
ATOM     50  C   UNL     1      -8.340  -7.521   8.968  1.00  0.00     0.074 A 
ATOM     51  C   UNL     1      -7.881  -6.169   9.190  1.00  0.00     0.031 C 
ATOM     52  C   UNL     1      -7.000  -8.463   2.742  1.00  0.00     0.029 A 
ATOM     53  C   UNL     1      -7.559  -9.431   3.686  1.00  0.00     0.049 A 
ATOM     54  H   UNL     1      -8.013  -9.113   5.693  1.00  0.00     0.167 HD
ATOM     55  C   UNL     1      -8.928  -8.288   9.917  1.00  0.00     0.037 A 
ATOM     56  C   UNL     1      -7.889 -10.709   3.408  1.00  0.00     0.037 A 
ATOM     57  C   UNL     1      -9.373  -9.637   9.691  1.00  0.00     0.049 A 
ATOM     58  C   UNL     1      -8.472 -11.573   4.498  1.00  0.00     0.074 A 
ATOM     59  C   UNL     1      -9.987 -10.501  10.579  1.00  0.00     0.029 A 
ATOM     60  N   UNL     1      -9.237 -10.324   8.492  1.00  0.00    -0.354 N 
ATOM     61  N   UNL     1      -8.741 -11.264   5.746  1.00  0.00    -0.248 NA
ATOM     62  C   UNL     1      -8.801 -12.960   4.141  1.00  0.00     0.031 C 
ATOM     63  C   UNL     1     -10.169 -11.730   9.935  1.00  0.00     0.029 A 
ATOM     64  C   UNL     1      -9.732 -11.610   8.624  1.00  0.00     0.049 A 
ATOM     65  H   UNL     1      -8.847  -9.951   7.669  1.00  0.00     0.167 HD
ATOM     66  C   UNL     1      -9.308 -12.404   6.310  1.00  0.00     0.074 A 
ATOM     67  C   UNL     1      -9.342 -13.408   5.266  1.00  0.00     0.031 C 
ATOM     68  C   UNL     1      -9.767 -12.598   7.572  1.00  0.00     0.037 A 
BRANCH  55  69
ATOM     69  C   UNL     1      -9.069  -7.694  11.292  1.00  0.00     0.058 A 
ATOM     70  C   UNL     1      -9.940  -6.624  11.558  1.00  0.00     0.135 A 
ATOM     71  C   UNL     1      -8.303  -8.191  12.359  1.00  0.00     0.135 A 
ATOM     72  F   UNL     1     -10.681  -6.093  10.572  1.00  0.00    -0.206 F 
ATOM     73  C   UNL     1     -10.011  -6.039  12.818  1.00  0.00     0.059 A 
ATOM     74  C   UNL     1      -8.383  -7.643  13.636  1.00  0.00     0.059 A 
ATOM     75  F   UNL     1      -7.451  -9.209  12.163  1.00  0.00    -0.206 F 
ATOM     76  C   UNL     1      -9.224  -6.553  13.850  1.00  0.00     0.060 A 
BRANCH  76  77
ATOM     77  S   UNL     1      -9.302  -5.764  15.471  1.00  0.00     0.124 S 
ATOM     78  O   UNL     1      -8.593  -4.513  15.221  1.00  0.00    -0.237 OA
ATOM     79  O   UNL     1     -10.740  -5.644  15.691  1.00  0.00    -0.237 OA
ATOM     80  O   UNL     1      -8.615  -6.711  16.344  1.00  0.00    -0.744 OA
ENDBRANCH  76  77
ENDBRANCH  55  69
BRANCH  56  81
ATOM     81  C   UNL     1      -7.689 -11.243   2.034  1.00  0.00     0.058 A 
ATOM     82  C   UNL     1      -8.782 -11.546   1.209  1.00  0.00     0.135 A 
ATOM     83  C   UNL     1      -6.401 -11.446   1.511  1.00  0.00     0.135 A 
ATOM     84  F   UNL     1     -10.032 -11.386   1.668  1.00  0.00    -0.206 F 
ATOM     85  C   UNL     1      -8.608 -12.031  -0.084  1.00  0.00     0.059 A 
ATOM     86  C   UNL     1      -6.202 -11.904   0.212  1.00  0.00     0.059 A 
ATOM     87  F   UNL     1      -5.321 -11.169   2.258  1.00  0.00    -0.206 F 
ATOM     88  C   UNL     1      -7.313 -12.197  -0.577  1.00  0.00     0.060 A 
BRANCH  88  89
ATOM     89  S   UNL     1      -7.104 -12.754  -2.282  1.00  0.00     0.124 S 
ATOM     90  O   UNL     1      -7.545 -14.142  -2.196  1.00  0.00    -0.237 OA
ATOM     91  O   UNL     1      -7.988 -11.847  -3.008  1.00  0.00    -0.237 OA
ATOM     92  O   UNL     1      -5.679 -12.559  -2.529  1.00  0.00    -0.744 OA
ENDBRANCH  88  89
ENDBRANCH  56  81
BRANCH  68  93
ATOM     93  C   UNL     1     -10.403 -13.927   7.888  1.00  0.00     0.058 A 
ATOM     94  C   UNL     1      -9.653 -15.108   7.992  1.00  0.00     0.135 A 
ATOM     95  C   UNL     1     -11.783 -14.004   8.144  1.00  0.00     0.135 A 
ATOM     96  F   UNL     1      -8.331 -15.094   7.756  1.00  0.00    -0.206 F 
ATOM     97  C   UNL     1     -10.252 -16.325   8.308  1.00  0.00     0.059 A 
ATOM     98  C   UNL     1     -12.397 -15.202   8.494  1.00  0.00     0.059 A 
ATOM     99  F   UNL     1     -12.546 -12.902   8.074  1.00  0.00    -0.206 F 
ATOM    100  C   UNL     1     -11.626 -16.361   8.558  1.00  0.00     0.060 A 
BRANCH 100 101
ATOM    101  S   UNL     1     -12.388 -17.939   8.990  1.00  0.00     0.124 S 
ATOM    102  O   UNL     1     -12.372 -18.634   7.707  1.00  0.00    -0.237 OA
ATOM    103  O   UNL     1     -11.476 -18.459  10.004  1.00  0.00    -0.237 OA
ATOM    104  O   UNL     1     -13.709 -17.558   9.480  1.00  0.00    -0.744 OA
ENDBRANCH 100 101
ENDBRANCH  68  93
ENDBRANCH  42  43
ENDBRANCH  35  37
ENDBRANCH  34  35
ENDBRANCH  33  34
ENDBRANCH  32  33
ENDBRANCH  31  32
ENDBRANCH  30  31
ENDBRANCH  29  30
ENDBRANCH  28  29
ENDBRANCH   1  28
TORSDOF 29
