REMARK SMILES CC(C)CN(C(=O)NC(=O)CCCC(=O)OCCOCCOCCOCCOC(=O)c1ccc(-c2c3nc(c(-c4c(F)cc(S(=O)(=O)[O-])cc4F)c4ccc([nH]4)c(-c4c(F)cc(S(=O)(=O)[O-])cc4F)c4nc(c(-c5c(F)cc(S(=O)(=O)[O-])cc5F)c5ccc2[nH]5)C=C4)C=C3)cc1)C1CCCC1
REMARK SMILES IDX 20 1 19 2 18 3 17 4 16 5 14 6 15 7 13 8 12 9 11 10 9 11 6 12
REMARK SMILES IDX 7 13 8 14 10 16 5 17 4 18 2 19 1 20 3 21 97 22 98 23 101 24
REMARK SMILES IDX 99 25 100 26 21 27 22 28 23 29 24 30 25 31 26 32 27 33 28 34
REMARK SMILES IDX 29 35 30 36 31 37 32 38 96 39 33 40 95 41 34 42 35 43 36 44
REMARK SMILES IDX 89 45 37 46 94 47 88 48 90 49 38 50 93 51 87 52 86 53 39 55
REMARK SMILES IDX 73 56 52 57 72 58 53 59 56 60 71 61 91 62 54 63 55 64 70 66
REMARK SMILES IDX 92 67 57 68 40 69 41 70 50 71 42 72 43 73 49 74 51 75 44 76
REMARK SMILES IDX 45 77 46 78 47 79 48 80 74 81 75 82 84 83 76 84 77 85 83 86
REMARK SMILES IDX 85 87 78 88 79 89 80 90 81 91 82 92 58 93 59 94 68 95 60 96
REMARK SMILES IDX 61 97 67 98 69 99 62 100 63 101 64 102 65 103 66 104
REMARK H PARENT 8 15 90 54 56 65
REMARK Flexibility Score: inf
ROOT
ATOM      1  C   UNL     1       0.277  -2.242  -1.424  1.00  0.00     0.188 C 
ENDROOT
BRANCH   1   2
ATOM      2  O   UNL     1      -0.996  -2.839  -1.295  1.00  0.00    -0.376 OA
BRANCH   2   3
ATOM      3  C   UNL     1      -1.860  -2.318  -0.310  1.00  0.00     0.202 C 
BRANCH   3   4
ATOM      4  C   UNL     1      -1.620  -0.901   0.226  1.00  0.00     0.261 C 
BRANCH   4   5
ATOM      5  O   UNL     1      -0.284  -0.338   1.121  1.00  0.00    -0.463 OA
BRANCH   5   6
ATOM      6  C   UNL     1       0.330   0.666   2.080  1.00  0.00     0.305 C 
ATOM      7  O   UNL     1       1.426   0.322   2.571  1.00  0.00    -0.252 OA
BRANCH   6   8
ATOM      8  C   UNL     1      -0.200   2.214   2.683  1.00  0.00     0.123 C 
BRANCH   8   9
ATOM      9  C   UNL     1      -0.344   3.742   2.171  1.00  0.00     0.022 C 
BRANCH   9  10
ATOM     10  C   UNL     1      -1.486   4.395   1.351  1.00  0.00     0.101 C 
BRANCH  10  11
ATOM     11  C   UNL     1      -2.947   4.202   1.711  1.00  0.00     0.228 C 
ATOM     12  C   UNL     1      -3.253   1.709   2.411  1.00  0.00     0.324 C 
ATOM     13  O   UNL     1      -4.006   1.230   3.263  1.00  0.00    -0.248 OA
ATOM     14  N   UNL     1      -3.528   2.997   2.036  1.00  0.00    -0.278 N 
ATOM     15  H   UNL     1      -4.505   3.098   1.975  1.00  0.00     0.174 HD
ATOM     16  O   UNL     1      -3.707   5.178   1.665  1.00  0.00    -0.275 OA
BRANCH  12  17
ATOM     17  N   UNL     1      -2.155   1.000   1.914  1.00  0.00    -0.321 N 
BRANCH  17  18
ATOM     18  C   UNL     1      -1.449   1.588   0.385  1.00  0.00     0.124 C 
BRANCH  18  19
ATOM     19  C   UNL     1       0.246   1.921  -0.185  1.00  0.00     0.002 C 
ATOM     20  C   UNL     1       1.605   1.063  -0.120  1.00  0.00     0.009 C 
ATOM     21  C   UNL     1       0.238   2.578  -1.580  1.00  0.00     0.009 C 
ENDBRANCH  18  19
ENDBRANCH  17  18
BRANCH  17  22
ATOM     22  C   UNL     1      -2.011  -0.471   2.911  1.00  0.00     0.087 C 
ATOM     23  C   UNL     1      -3.198  -1.510   2.844  1.00  0.00     0.025 C 
ATOM     24  C   UNL     1      -0.794  -1.487   3.270  1.00  0.00     0.025 C 
ATOM     25  C   UNL     1      -2.631  -2.951   2.966  1.00  0.00     0.002 C 
ATOM     26  C   UNL     1      -1.137  -2.880   2.778  1.00  0.00     0.002 C 
ENDBRANCH  17  22
ENDBRANCH  12  17
ENDBRANCH  10  11
ENDBRANCH   9  10
ENDBRANCH   8   9
ENDBRANCH   6   8
ENDBRANCH   5   6
ENDBRANCH   4   5
ENDBRANCH   3   4
ENDBRANCH   2   3
ENDBRANCH   1   2
BRANCH   1  27
ATOM     27  C   UNL     1       0.292  -0.832  -2.031  1.00  0.00     0.188 C 
BRANCH  27  28
ATOM     28  O   UNL     1      -0.426  -0.450  -3.176  1.00  0.00    -0.377 OA
BRANCH  28  29
ATOM     29  C   UNL     1      -1.437  -1.293  -3.650  1.00  0.00     0.188 C 
BRANCH  29  30
ATOM     30  C   UNL     1      -0.926  -2.555  -4.350  1.00  0.00     0.188 C 
BRANCH  30  31
ATOM     31  O   UNL     1       0.410  -2.748  -4.803  1.00  0.00    -0.376 OA
BRANCH  31  32
ATOM     32  C   UNL     1       1.468  -1.818  -4.687  1.00  0.00     0.202 C 
BRANCH  32  33
ATOM     33  C   UNL     1       1.470  -0.501  -5.480  1.00  0.00     0.261 C 
BRANCH  33  34
ATOM     34  O   UNL     1       0.203   0.077  -5.770  1.00  0.00    -0.460 OA
BRANCH  34  35
ATOM     35  C   UNL     1      -0.453  -0.512  -6.802  1.00  0.00     0.338 C 
ATOM     36  O   UNL     1      -0.074  -1.415  -7.498  1.00  0.00    -0.246 OA
BRANCH  35  37
ATOM     37  C   UNL     1      -1.822   0.044  -6.817  1.00  0.00     0.060 A 
ATOM     38  C   UNL     1      -2.887  -0.866  -6.781  1.00  0.00     0.016 A 
ATOM     39  C   UNL     1      -2.051   1.422  -6.833  1.00  0.00     0.016 A 
ATOM     40  C   UNL     1      -4.192  -0.402  -6.752  1.00  0.00     0.010 A 
ATOM     41  C   UNL     1      -3.363   1.888  -6.895  1.00  0.00     0.010 A 
ATOM     42  C   UNL     1      -4.427   0.969  -6.894  1.00  0.00    -0.014 A 
BRANCH  42  43
ATOM     43  C   UNL     1      -5.745   1.367  -7.419  1.00  0.00     0.031 A 
ATOM     44  C   UNL     1      -5.912   1.315  -8.913  1.00  0.00     0.074 A 
ATOM     45  C   UNL     1      -6.763   1.676  -6.601  1.00  0.00     0.049 A 
ATOM     46  N   UNL     1      -6.949   1.620  -9.642  1.00  0.00    -0.248 NA
ATOM     47  C   UNL     1      -4.750   0.839  -9.689  1.00  0.00     0.031 C 
ATOM     48  C   UNL     1      -6.712   1.664  -5.140  1.00  0.00     0.029 A 
ATOM     49  N   UNL     1      -8.043   2.060  -6.894  1.00  0.00    -0.354 N 
ATOM     50  C   UNL     1      -6.564   1.373 -10.955  1.00  0.00     0.074 A 
ATOM     51  C   UNL     1      -5.197   0.911 -10.930  1.00  0.00     0.031 C 
ATOM     52  C   UNL     1      -7.908   2.053  -4.662  1.00  0.00     0.029 A 
ATOM     53  C   UNL     1      -8.790   2.371  -5.784  1.00  0.00     0.049 A 
ATOM     54  H   UNL     1      -8.396   2.109  -7.812  1.00  0.00     0.167 HD
ATOM     55  C   UNL     1      -7.292   1.520 -12.082  1.00  0.00     0.037 A 
ATOM     56  C   UNL     1     -10.032   2.886  -5.703  1.00  0.00     0.037 A 
ATOM     57  C   UNL     1      -8.643   2.006 -12.085  1.00  0.00     0.049 A 
ATOM     58  C   UNL     1     -10.788   3.147  -6.983  1.00  0.00     0.074 A 
ATOM     59  C   UNL     1      -9.477   2.221 -13.164  1.00  0.00     0.029 A 
ATOM     60  N   UNL     1      -9.351   2.364 -10.946  1.00  0.00    -0.354 N 
ATOM     61  N   UNL     1     -10.419   2.914  -8.223  1.00  0.00    -0.248 NA
ATOM     62  C   UNL     1     -12.125   3.740  -6.857  1.00  0.00     0.031 C 
ATOM     63  C   UNL     1     -10.671   2.766 -12.682  1.00  0.00     0.029 A 
ATOM     64  C   UNL     1     -10.605   2.825 -11.298  1.00  0.00     0.049 A 
ATOM     65  H   UNL     1      -9.010   2.298 -10.025  1.00  0.00     0.167 HD
ATOM     66  C   UNL     1     -11.491   3.303  -9.020  1.00  0.00     0.074 A 
ATOM     67  C   UNL     1     -12.525   3.773  -8.121  1.00  0.00     0.031 C 
ATOM     68  C   UNL     1     -11.615   3.275 -10.372  1.00  0.00     0.037 A 
BRANCH  55  69
ATOM     69  C   UNL     1      -6.625   1.203 -13.390  1.00  0.00     0.058 A 
ATOM     70  C   UNL     1      -6.317  -0.114 -13.768  1.00  0.00     0.135 A 
ATOM     71  C   UNL     1      -6.304   2.234 -14.286  1.00  0.00     0.135 A 
ATOM     72  F   UNL     1      -6.569  -1.134 -12.932  1.00  0.00    -0.206 F 
ATOM     73  C   UNL     1      -5.708  -0.396 -14.986  1.00  0.00     0.059 A 
ATOM     74  C   UNL     1      -5.721   1.973 -15.522  1.00  0.00     0.059 A 
ATOM     75  F   UNL     1      -6.556   3.513 -13.964  1.00  0.00    -0.206 F 
ATOM     76  C   UNL     1      -5.421   0.654 -15.860  1.00  0.00     0.060 A 
BRANCH  76  77
ATOM     77  S   UNL     1      -4.665   0.268 -17.453  1.00  0.00     0.124 S 
ATOM     78  O   UNL     1      -3.323  -0.140 -17.049  1.00  0.00    -0.237 OA
ATOM     79  O   UNL     1      -5.527  -0.798 -17.953  1.00  0.00    -0.237 OA
ATOM     80  O   UNL     1      -4.744   1.529 -18.183  1.00  0.00    -0.744 OA
ENDBRANCH  76  77
ENDBRANCH  55  69
BRANCH  56  81
ATOM     81  C   UNL     1     -10.622   3.222  -4.379  1.00  0.00     0.058 A 
ATOM     82  C   UNL     1     -11.748   2.545  -3.888  1.00  0.00     0.135 A 
ATOM     83  C   UNL     1     -10.082   4.247  -3.584  1.00  0.00     0.135 A 
ATOM     84  F   UNL     1     -12.309   1.564  -4.611  1.00  0.00    -0.206 F 
ATOM     85  C   UNL     1     -12.330   2.884  -2.670  1.00  0.00     0.059 A 
ATOM     86  C   UNL     1     -10.627   4.583  -2.349  1.00  0.00     0.059 A 
ATOM     87  F   UNL     1      -8.999   4.922  -4.000  1.00  0.00    -0.206 F 
ATOM     88  C   UNL     1     -11.761   3.905  -1.907  1.00  0.00     0.060 A 
BRANCH  88  89
ATOM     89  S   UNL     1     -12.508   4.315  -0.315  1.00  0.00     0.124 S 
ATOM     90  O   UNL     1     -13.752   4.952  -0.730  1.00  0.00    -0.237 OA
ATOM     91  O   UNL     1     -12.638   3.001   0.307  1.00  0.00    -0.237 OA
ATOM     92  O   UNL     1     -11.521   5.197   0.302  1.00  0.00    -0.744 OA
ENDBRANCH  88  89
ENDBRANCH  56  81
BRANCH  68  93
ATOM     93  C   UNL     1     -12.926   3.721 -10.957  1.00  0.00     0.058 A 
ATOM     94  C   UNL     1     -13.309   5.071 -10.968  1.00  0.00     0.135 A 
ATOM     95  C   UNL     1     -13.773   2.791 -11.581  1.00  0.00     0.135 A 
ATOM     96  F   UNL     1     -12.536   5.999 -10.383  1.00  0.00    -0.206 F 
ATOM     97  C   UNL     1     -14.501   5.479 -11.556  1.00  0.00     0.059 A 
ATOM     98  C   UNL     1     -14.952   3.181 -12.205  1.00  0.00     0.059 A 
ATOM     99  F   UNL     1     -13.443   1.489 -11.612  1.00  0.00    -0.206 F 
ATOM    100  C   UNL     1     -15.313   4.527 -12.176  1.00  0.00     0.060 A 
BRANCH 100 101
ATOM    101  S   UNL     1     -16.837   5.079 -12.970  1.00  0.00     0.124 S 
ATOM    102  O   UNL     1     -17.669   5.401 -11.815  1.00  0.00    -0.237 OA
ATOM    103  O   UNL     1     -16.381   6.217 -13.761  1.00  0.00    -0.237 OA
ATOM    104  O   UNL     1     -17.260   3.914 -13.742  1.00  0.00    -0.744 OA
ENDBRANCH 100 101
ENDBRANCH  68  93
ENDBRANCH  42  43
ENDBRANCH  35  37
ENDBRANCH  34  35
ENDBRANCH  33  34
ENDBRANCH  32  33
ENDBRANCH  31  32
ENDBRANCH  30  31
ENDBRANCH  29  30
ENDBRANCH  28  29
ENDBRANCH  27  28
ENDBRANCH   1  27
TORSDOF 30
