REMARK SMILES Cc1cc(C(=O)N[C@H](CC(C)C)C(=O)OCCOCCOCCOCCOC(=O)c2ccc(-c3c4nc(c(-c5c(F)cc(S(=O)(=O)[O-])cc5F)c5ccc([nH]5)c(-c5c(F)cc(S(=O)(=O)[O-])cc5F)c5nc(c(-c6c(F)cc(S(=O)(=O)[O-])cc6F)c6ccc3[nH]6)C=C5)C=C4)cc2)sc1Br
REMARK SMILES IDX 22 1 21 2 20 3 19 4 18 5 17 6 16 7 15 8 13 9 14 10 8 11 7 12
REMARK SMILES IDX 5 13 6 14 4 16 1 17 2 18 3 19 97 20 96 21 98 22 9 23 10 24
REMARK SMILES IDX 11 25 12 26 23 27 24 28 25 29 26 30 27 31 28 32 29 33 30 34
REMARK SMILES IDX 31 35 95 36 32 37 94 38 33 39 34 40 35 41 88 42 36 43 93 44
REMARK SMILES IDX 87 45 89 46 37 47 92 48 86 49 85 50 38 52 72 53 51 54 71 55
REMARK SMILES IDX 52 56 55 57 70 58 90 59 53 60 54 61 69 63 91 64 56 65 39 66
REMARK SMILES IDX 40 67 49 68 41 69 42 70 48 71 50 72 43 73 44 74 45 75 46 76
REMARK SMILES IDX 47 77 73 78 74 79 83 80 75 81 76 82 82 83 84 84 77 85 78 86
REMARK SMILES IDX 79 87 80 88 81 89 57 90 58 91 67 92 59 93 60 94 66 95 68 96
REMARK SMILES IDX 61 97 62 98 63 99 64 100 65 101
REMARK H PARENT 7 15 89 51 55 62
REMARK Flexibility Score: inf
ROOT
ATOM      1  C   UNL     1      -4.410  -5.065   3.966  1.00  0.00     0.188 C 
ENDROOT
BRANCH   1   2
ATOM      2  O   UNL     1      -3.070  -4.637   3.720  1.00  0.00    -0.377 OA
BRANCH   2   3
ATOM      3  C   UNL     1      -2.837  -3.680   2.700  1.00  0.00     0.188 C 
BRANCH   3   4
ATOM      4  C   UNL     1      -3.053  -4.211   1.275  1.00  0.00     0.188 C 
BRANCH   4   5
ATOM      5  O   UNL     1      -3.406  -5.590   1.240  1.00  0.00    -0.376 OA
BRANCH   5   6
ATOM      6  C   UNL     1      -2.335  -6.513   1.148  1.00  0.00     0.202 C 
BRANCH   6   7
ATOM      7  C   UNL     1      -1.576  -6.859   2.436  1.00  0.00     0.261 C 
BRANCH   7   8
ATOM      8  O   UNL     1      -0.519  -6.014   2.940  1.00  0.00    -0.462 OA
BRANCH   8   9
ATOM      9  C   UNL     1       0.060  -5.022   2.237  1.00  0.00     0.328 C 
ATOM     10  O   UNL     1      -0.269  -4.599   1.137  1.00  0.00    -0.250 OA
BRANCH   9  11
ATOM     11  C   UNL     1       1.290  -4.474   2.925  1.00  0.00     0.192 C 
BRANCH  11  12
ATOM     12  N   UNL     1       2.370  -5.469   2.987  1.00  0.00    -0.338 N 
ATOM     13  C   UNL     1       2.952  -6.167   1.939  1.00  0.00     0.262 C 
ATOM     14  O   UNL     1       4.184  -6.158   1.910  1.00  0.00    -0.268 OA
ATOM     15  H   UNL     1       2.724  -5.664   3.885  1.00  0.00     0.164 HD
BRANCH  13  16
ATOM     16  C   UNL     1       2.161  -7.048   1.079  1.00  0.00     0.093 A 
ATOM     17  C   UNL     1      -0.564  -8.084  -1.351  1.00  0.00     0.046 C 
ATOM     18  C   UNL     1       0.622  -8.038  -0.435  1.00  0.00    -0.025 A 
ATOM     19  C   UNL     1       1.229  -6.828   0.076  1.00  0.00     0.030 A 
ATOM     20  C   UNL     1       1.309  -9.127   0.049  1.00  0.00     0.074 A 
ATOM     21  S   UNL     1       2.503  -8.735   1.183  1.00  0.00    -0.123 S 
ATOM     22  Br  UNL     1       0.981 -10.904  -0.472  1.00  0.00    -0.039 Br
ENDBRANCH  13  16
ENDBRANCH  11  12
BRANCH  11  23
ATOM     23  C   UNL     1       0.876  -3.928   4.317  1.00  0.00     0.040 C 
BRANCH  23  24
ATOM     24  C   UNL     1       1.522  -2.597   4.769  1.00  0.00    -0.015 C 
ATOM     25  C   UNL     1       1.247  -1.428   3.818  1.00  0.00     0.007 C 
ATOM     26  C   UNL     1       0.982  -2.218   6.159  1.00  0.00     0.007 C 
ENDBRANCH  23  24
ENDBRANCH  11  23
ENDBRANCH   9  11
ENDBRANCH   8   9
ENDBRANCH   7   8
ENDBRANCH   6   7
ENDBRANCH   5   6
ENDBRANCH   4   5
ENDBRANCH   3   4
ENDBRANCH   2   3
ENDBRANCH   1   2
BRANCH   1  27
ATOM     27  C   UNL     1      -5.582  -4.753   2.998  1.00  0.00     0.188 C 
BRANCH  27  28
ATOM     28  O   UNL     1      -5.473  -3.542   2.260  1.00  0.00    -0.376 OA
BRANCH  28  29
ATOM     29  C   UNL     1      -6.198  -2.379   2.613  1.00  0.00     0.202 C 
BRANCH  29  30
ATOM     30  C   UNL     1      -5.736  -1.678   3.889  1.00  0.00     0.261 C 
BRANCH  30  31
ATOM     31  O   UNL     1      -5.715  -2.540   5.013  1.00  0.00    -0.460 OA
BRANCH  31  32
ATOM     32  C   UNL     1      -6.880  -3.140   5.288  1.00  0.00     0.338 C 
ATOM     33  O   UNL     1      -7.948  -3.014   4.683  1.00  0.00    -0.246 OA
BRANCH  32  34
ATOM     34  C   UNL     1      -6.720  -3.979   6.465  1.00  0.00     0.060 A 
ATOM     35  C   UNL     1      -7.842  -4.718   6.830  1.00  0.00     0.016 A 
ATOM     36  C   UNL     1      -5.639  -3.741   7.331  1.00  0.00     0.016 A 
ATOM     37  C   UNL     1      -8.048  -4.902   8.167  1.00  0.00     0.010 A 
ATOM     38  C   UNL     1      -5.842  -3.935   8.667  1.00  0.00     0.010 A 
ATOM     39  C   UNL     1      -7.101  -4.376   9.053  1.00  0.00    -0.014 A 
BRANCH  39  40
ATOM     40  C   UNL     1      -7.540  -4.183  10.409  1.00  0.00     0.031 A 
ATOM     41  C   UNL     1      -7.578  -5.424  11.184  1.00  0.00     0.074 A 
ATOM     42  C   UNL     1      -7.871  -2.961  10.861  1.00  0.00     0.049 A 
ATOM     43  N   UNL     1      -8.617  -6.060  11.604  1.00  0.00    -0.248 NA
ATOM     44  C   UNL     1      -6.305  -6.138  11.351  1.00  0.00     0.031 C 
ATOM     45  C   UNL     1      -7.612  -1.664  10.225  1.00  0.00     0.029 A 
ATOM     46  N   UNL     1      -8.425  -2.621  12.052  1.00  0.00    -0.354 N 
ATOM     47  C   UNL     1      -8.107  -7.137  12.310  1.00  0.00     0.074 A 
ATOM     48  C   UNL     1      -6.718  -7.253  11.950  1.00  0.00     0.031 C 
ATOM     49  C   UNL     1      -7.807  -0.683  11.132  1.00  0.00     0.029 A 
ATOM     50  C   UNL     1      -8.323  -1.273  12.356  1.00  0.00     0.049 A 
ATOM     51  H   UNL     1      -8.861  -3.273  12.647  1.00  0.00     0.167 HD
ATOM     52  C   UNL     1      -8.786  -7.659  13.363  1.00  0.00     0.037 A 
ATOM     53  C   UNL     1      -8.561  -0.711  13.564  1.00  0.00     0.037 A 
ATOM     54  C   UNL     1     -10.179  -7.293  13.337  1.00  0.00     0.049 A 
ATOM     55  C   UNL     1      -9.418  -1.653  14.332  1.00  0.00     0.074 A 
ATOM     56  C   UNL     1     -11.230  -7.527  12.473  1.00  0.00     0.029 A 
ATOM     57  N   UNL     1     -10.563  -6.254  14.149  1.00  0.00    -0.354 N 
ATOM     58  N   UNL     1     -10.654  -1.937  14.022  1.00  0.00    -0.248 NA
ATOM     59  C   UNL     1      -8.784  -2.590  15.250  1.00  0.00     0.031 C 
ATOM     60  C   UNL     1     -12.074  -6.384  12.570  1.00  0.00     0.029 A 
ATOM     61  C   UNL     1     -11.511  -5.504  13.497  1.00  0.00     0.049 A 
ATOM     62  H   UNL     1     -10.216  -6.075  15.052  1.00  0.00     0.167 HD
ATOM     63  C   UNL     1     -10.813  -3.271  14.365  1.00  0.00     0.074 A 
ATOM     64  C   UNL     1      -9.692  -3.570  15.244  1.00  0.00     0.031 C 
ATOM     65  C   UNL     1     -11.675  -4.074  13.675  1.00  0.00     0.037 A 
BRANCH  52  66
ATOM     66  C   UNL     1      -8.089  -8.139  14.607  1.00  0.00     0.058 A 
ATOM     67  C   UNL     1      -8.810  -8.885  15.555  1.00  0.00     0.135 A 
ATOM     68  C   UNL     1      -6.827  -7.657  15.031  1.00  0.00     0.135 A 
ATOM     69  F   UNL     1     -10.027  -9.368  15.259  1.00  0.00    -0.206 F 
ATOM     70  C   UNL     1      -8.339  -9.084  16.852  1.00  0.00     0.059 A 
ATOM     71  C   UNL     1      -6.312  -7.899  16.294  1.00  0.00     0.059 A 
ATOM     72  F   UNL     1      -6.081  -6.837  14.280  1.00  0.00    -0.206 F 
ATOM     73  C   UNL     1      -7.096  -8.570  17.214  1.00  0.00     0.060 A 
BRANCH  73  74
ATOM     74  S   UNL     1      -6.539  -8.701  18.920  1.00  0.00     0.124 S 
ATOM     75  O   UNL     1      -7.395  -7.718  19.574  1.00  0.00    -0.237 OA
ATOM     76  O   UNL     1      -6.817 -10.100  19.225  1.00  0.00    -0.237 OA
ATOM     77  O   UNL     1      -5.124  -8.353  18.836  1.00  0.00    -0.744 OA
ENDBRANCH  73  74
ENDBRANCH  52  66
BRANCH  53  78
ATOM     78  C   UNL     1      -7.841   0.426  14.187  1.00  0.00     0.058 A 
ATOM     79  C   UNL     1      -8.354   1.072  15.323  1.00  0.00     0.135 A 
ATOM     80  C   UNL     1      -6.508   0.735  13.842  1.00  0.00     0.135 A 
ATOM     81  F   UNL     1      -9.605   0.817  15.736  1.00  0.00    -0.206 F 
ATOM     82  C   UNL     1      -7.578   1.935  16.101  1.00  0.00     0.059 A 
ATOM     83  C   UNL     1      -5.721   1.606  14.591  1.00  0.00     0.059 A 
ATOM     84  F   UNL     1      -5.894   0.126  12.817  1.00  0.00    -0.206 F 
ATOM     85  C   UNL     1      -6.254   2.181  15.736  1.00  0.00     0.060 A 
BRANCH  85  86
ATOM     86  S   UNL     1      -5.196   3.151  16.833  1.00  0.00     0.124 S 
ATOM     87  O   UNL     1      -5.752   4.491  16.680  1.00  0.00    -0.237 OA
ATOM     88  O   UNL     1      -5.421   2.509  18.123  1.00  0.00    -0.237 OA
ATOM     89  O   UNL     1      -3.861   2.961  16.270  1.00  0.00    -0.744 OA
ENDBRANCH  85  86
ENDBRANCH  53  78
BRANCH  65  90
ATOM     90  C   UNL     1     -12.739  -3.397  12.852  1.00  0.00     0.058 A 
ATOM     91  C   UNL     1     -12.482  -2.633  11.701  1.00  0.00     0.135 A 
ATOM     92  C   UNL     1     -14.083  -3.627  13.183  1.00  0.00     0.135 A 
ATOM     93  F   UNL     1     -11.227  -2.451  11.262  1.00  0.00    -0.206 F 
ATOM     94  C   UNL     1     -13.514  -2.084  10.939  1.00  0.00     0.059 A 
ATOM     95  C   UNL     1     -15.130  -3.115  12.420  1.00  0.00     0.059 A 
ATOM     96  F   UNL     1     -14.393  -4.401  14.237  1.00  0.00    -0.206 F 
ATOM     97  C   UNL     1     -14.837  -2.331  11.307  1.00  0.00     0.060 A 
BRANCH  97  98
ATOM     98  S   UNL     1     -16.174  -1.690  10.273  1.00  0.00     0.124 S 
ATOM     99  O   UNL     1     -16.183  -0.275  10.627  1.00  0.00    -0.237 OA
ATOM    100  O   UNL     1     -15.713  -2.004   8.923  1.00  0.00    -0.237 OA
ATOM    101  O   UNL     1     -17.340  -2.452  10.714  1.00  0.00    -0.744 OA
ENDBRANCH  97  98
ENDBRANCH  65  90
ENDBRANCH  39  40
ENDBRANCH  32  34
ENDBRANCH  31  32
ENDBRANCH  30  31
ENDBRANCH  29  30
ENDBRANCH  28  29
ENDBRANCH  27  28
ENDBRANCH   1  27
TORSDOF 27
