REMARK SMILES COc1cc2c(CC(=O)OCCOCCOCCOCCOC(=O)c3ccc(-c4c5nc(c(-c6c(F)cc(S(=O)(=O)[O-])cc6F)c6ccc([nH]6)c(-c6c(F)cc(S(=O)(=O)[O-])cc6F)c6nc(c(-c7c(F)cc(S(=O)(=O)[O-])cc7F)c7ccc4[nH]7)C=C6)C=C5)cc3)c(C)n(C(=O)c3ccc(Cl)cc3)c2cc1Cl
REMARK SMILES IDX 16 1 15 2 14 3 13 4 12 5 11 6 10 7 8 8 9 9 7 10 6 11 3 12
REMARK SMILES IDX 4 13 105 14 5 15 104 16 106 17 103 18 91 19 93 20 92 21 2 22
REMARK SMILES IDX 1 23 94 24 95 25 96 26 97 27 102 28 98 29 101 30 99 31
REMARK SMILES IDX 100 32 17 33 18 34 19 35 20 36 21 37 22 38 23 39 24 40 25 41
REMARK SMILES IDX 26 42 90 43 27 44 89 45 28 46 29 47 30 48 83 49 31 50 88 51
REMARK SMILES IDX 82 52 84 53 32 54 87 55 81 56 80 57 33 59 67 60 46 61 66 62
REMARK SMILES IDX 47 63 50 64 65 65 85 66 48 67 49 68 64 70 86 71 51 72 34 73
REMARK SMILES IDX 35 74 44 75 36 76 37 77 43 78 45 79 38 80 39 81 40 82 41 83
REMARK SMILES IDX 42 84 68 85 69 86 78 87 70 88 71 89 77 90 79 91 72 92 73 93
REMARK SMILES IDX 74 94 75 95 76 96 52 97 53 98 62 99 54 100 55 101 61 102
REMARK SMILES IDX 63 103 56 104 57 105 58 106 59 107 60 108
REMARK H PARENT 84 58 50 69
REMARK Flexibility Score: inf
ROOT
ATOM      1  O   UNL     1      -0.172  -4.213   1.071  1.00  0.00    -0.377 OA
ENDROOT
BRANCH   1   2
ATOM      2  C   UNL     1      -1.322  -4.041   0.285  1.00  0.00     0.188 C 
BRANCH   2   3
ATOM      3  C   UNL     1      -2.721  -3.927   0.875  1.00  0.00     0.188 C 
BRANCH   3   4
ATOM      4  O   UNL     1      -2.990  -4.911   1.845  1.00  0.00    -0.376 OA
BRANCH   4   5
ATOM      5  C   UNL     1      -3.613  -6.133   1.490  1.00  0.00     0.202 C 
BRANCH   5   6
ATOM      6  C   UNL     1      -3.133  -7.051   0.339  1.00  0.00     0.261 C 
BRANCH   6   7
ATOM      7  O   UNL     1      -2.452  -6.495  -0.805  1.00  0.00    -0.463 OA
BRANCH   7   8
ATOM      8  C   UNL     1      -3.196  -5.897  -1.763  1.00  0.00     0.310 C 
ATOM      9  O   UNL     1      -4.412  -5.747  -1.668  1.00  0.00    -0.252 OA
BRANCH   8  10
ATOM     10  C   UNL     1      -2.431  -5.372  -2.981  1.00  0.00     0.160 C 
BRANCH  10  11
ATOM     11  C   UNL     1      -0.911  -5.227  -2.978  1.00  0.00    -0.008 A 
ATOM     12  C   UNL     1       0.441  -1.714  -2.065  1.00  0.00     0.138 A 
ATOM     13  C   UNL     1      -0.511  -2.673  -2.478  1.00  0.00     0.058 A 
ATOM     14  C   UNL     1       1.784  -2.061  -2.105  1.00  0.00     0.085 A 
ATOM     15  C   UNL     1      -0.157  -4.021  -2.762  1.00  0.00     0.008 A 
ATOM     16  C   UNL     1       2.162  -3.353  -2.495  1.00  0.00     0.051 A 
ATOM     17  Cl  UNL     1       3.103  -0.988  -1.769  1.00  0.00    -0.080 Cl
ATOM     18  C   UNL     1       1.201  -4.347  -2.795  1.00  0.00     0.058 A 
ATOM     19  C   UNL     1       0.020  -6.214  -3.299  1.00  0.00     0.028 A 
ATOM     20  N   UNL     1       1.323  -5.695  -3.181  1.00  0.00    -0.280 N 
ATOM     21  C   UNL     1      -0.304  -7.623  -3.696  1.00  0.00     0.065 C 
BRANCH  12  22
ATOM     22  O   UNL     1      -0.130  -0.533  -1.669  1.00  0.00    -0.495 OA
ATOM     23  C   UNL     1       0.567   0.298  -0.747  1.00  0.00     0.278 C 
ENDBRANCH  12  22
BRANCH  20  24
ATOM     24  C   UNL     1       2.556  -6.377  -3.440  1.00  0.00     0.262 C 
ATOM     25  O   UNL     1       2.541  -7.516  -3.901  1.00  0.00    -0.268 OA
BRANCH  24  26
ATOM     26  C   UNL     1       3.902  -5.805  -3.247  1.00  0.00     0.040 A 
ATOM     27  C   UNL     1       4.464  -5.753  -1.966  1.00  0.00     0.015 A 
ATOM     28  C   UNL     1       4.584  -5.277  -4.351  1.00  0.00     0.015 A 
ATOM     29  C   UNL     1       5.688  -5.101  -1.781  1.00  0.00     0.021 A 
ATOM     30  C   UNL     1       5.808  -4.631  -4.159  1.00  0.00     0.021 A 
ATOM     31  C   UNL     1       6.347  -4.534  -2.874  1.00  0.00     0.041 A 
ATOM     32  Cl  UNL     1       7.826  -3.686  -2.635  1.00  0.00    -0.084 Cl
ENDBRANCH  24  26
ENDBRANCH  20  24
ENDBRANCH  10  11
ENDBRANCH   8  10
ENDBRANCH   7   8
ENDBRANCH   6   7
ENDBRANCH   5   6
ENDBRANCH   4   5
ENDBRANCH   3   4
ENDBRANCH   2   3
ENDBRANCH   1   2
BRANCH   1  33
ATOM     33  C   UNL     1      -0.338  -4.827   2.318  1.00  0.00     0.188 C 
BRANCH  33  34
ATOM     34  C   UNL     1      -0.626  -3.818   3.435  1.00  0.00     0.188 C 
BRANCH  34  35
ATOM     35  O   UNL     1      -0.151  -2.470   3.381  1.00  0.00    -0.376 OA
BRANCH  35  36
ATOM     36  C   UNL     1       0.812  -2.073   2.419  1.00  0.00     0.202 C 
BRANCH  36  37
ATOM     37  C   UNL     1       2.252  -2.608   2.546  1.00  0.00     0.261 C 
BRANCH  37  38
ATOM     38  O   UNL     1       2.334  -3.989   2.906  1.00  0.00    -0.460 OA
BRANCH  38  39
ATOM     39  C   UNL     1       2.980  -4.305   4.070  1.00  0.00     0.338 C 
ATOM     40  O   UNL     1       3.742  -3.638   4.694  1.00  0.00    -0.246 OA
BRANCH  39  41
ATOM     41  C   UNL     1       2.279  -5.524   4.561  1.00  0.00     0.060 A 
ATOM     42  C   UNL     1       2.138  -6.652   3.749  1.00  0.00     0.016 A 
ATOM     43  C   UNL     1       1.474  -5.345   5.694  1.00  0.00     0.016 A 
ATOM     44  C   UNL     1       1.067  -7.513   3.982  1.00  0.00     0.010 A 
ATOM     45  C   UNL     1       0.395  -6.200   5.914  1.00  0.00     0.010 A 
ATOM     46  C   UNL     1       0.156  -7.252   5.026  1.00  0.00    -0.014 A 
BRANCH  46  47
ATOM     47  C   UNL     1      -0.827  -8.298   5.345  1.00  0.00     0.031 A 
ATOM     48  C   UNL     1      -0.132  -9.529   5.801  1.00  0.00     0.074 A 
ATOM     49  C   UNL     1      -2.171  -8.196   5.441  1.00  0.00     0.049 A 
ATOM     50  N   UNL     1      -0.142 -10.705   5.268  1.00  0.00    -0.248 NA
ATOM     51  C   UNL     1       0.842  -9.363   6.898  1.00  0.00     0.031 C 
ATOM     52  C   UNL     1      -2.967  -6.971   5.353  1.00  0.00     0.029 A 
ATOM     53  N   UNL     1      -3.110  -9.152   5.758  1.00  0.00    -0.354 N 
ATOM     54  C   UNL     1       0.654 -11.475   6.108  1.00  0.00     0.074 A 
ATOM     55  C   UNL     1       1.395 -10.570   6.947  1.00  0.00     0.031 C 
ATOM     56  C   UNL     1      -4.214  -7.218   5.816  1.00  0.00     0.029 A 
ATOM     57  C   UNL     1      -4.342  -8.630   6.148  1.00  0.00     0.049 A 
ATOM     58  H   UNL     1      -2.927 -10.119   5.714  1.00  0.00     0.167 HD
ATOM     59  C   UNL     1       0.417 -12.796   6.301  1.00  0.00     0.037 A 
ATOM     60  C   UNL     1      -5.365  -9.280   6.767  1.00  0.00     0.037 A 
ATOM     61  C   UNL     1      -0.441 -13.360   5.304  1.00  0.00     0.049 A 
ATOM     62  C   UNL     1      -5.225 -10.736   6.512  1.00  0.00     0.074 A 
ATOM     63  C   UNL     1      -0.308 -13.847   4.024  1.00  0.00     0.029 A 
ATOM     64  N   UNL     1      -1.773 -13.156   5.529  1.00  0.00    -0.354 N 
ATOM     65  N   UNL     1      -5.358 -11.290   5.339  1.00  0.00    -0.248 NA
ATOM     66  C   UNL     1      -4.675 -11.602   7.553  1.00  0.00     0.031 C 
ATOM     67  C   UNL     1      -1.612 -13.835   3.447  1.00  0.00     0.029 A 
ATOM     68  C   UNL     1      -2.511 -13.348   4.390  1.00  0.00     0.049 A 
ATOM     69  H   UNL     1      -2.155 -12.904   6.401  1.00  0.00     0.167 HD
ATOM     70  C   UNL     1      -4.548 -12.405   5.395  1.00  0.00     0.074 A 
ATOM     71  C   UNL     1      -4.295 -12.642   6.807  1.00  0.00     0.031 C 
ATOM     72  C   UNL     1      -3.857 -12.827   4.302  1.00  0.00     0.037 A 
BRANCH  59  73
ATOM     73  C   UNL     1       0.591 -13.429   7.652  1.00  0.00     0.058 A 
ATOM     74  C   UNL     1       0.782 -14.813   7.772  1.00  0.00     0.135 A 
ATOM     75  C   UNL     1       0.333 -12.728   8.855  1.00  0.00     0.135 A 
ATOM     76  F   UNL     1       0.964 -15.570   6.680  1.00  0.00    -0.206 F 
ATOM     77  C   UNL     1       0.743 -15.455   9.011  1.00  0.00     0.059 A 
ATOM     78  C   UNL     1       0.355 -13.332  10.102  1.00  0.00     0.059 A 
ATOM     79  F   UNL     1      -0.036 -11.438   8.851  1.00  0.00    -0.206 F 
ATOM     80  C   UNL     1       0.538 -14.703  10.169  1.00  0.00     0.060 A 
BRANCH  80  81
ATOM     81  S   UNL     1       0.472 -15.531  11.767  1.00  0.00     0.124 S 
ATOM     82  O   UNL     1      -0.813 -16.216  11.687  1.00  0.00    -0.237 OA
ATOM     83  O   UNL     1       1.656 -16.382  11.716  1.00  0.00    -0.237 OA
ATOM     84  O   UNL     1       0.544 -14.427  12.719  1.00  0.00    -0.744 OA
ENDBRANCH  80  81
ENDBRANCH  59  73
BRANCH  60  85
ATOM     85  C   UNL     1      -6.337  -8.768   7.781  1.00  0.00     0.058 A 
ATOM     86  C   UNL     1      -7.427  -9.557   8.208  1.00  0.00     0.135 A 
ATOM     87  C   UNL     1      -6.060  -7.634   8.570  1.00  0.00     0.135 A 
ATOM     88  F   UNL     1      -7.776 -10.659   7.524  1.00  0.00    -0.206 F 
ATOM     89  C   UNL     1      -8.128  -9.295   9.390  1.00  0.00     0.059 A 
ATOM     90  C   UNL     1      -6.761  -7.339   9.739  1.00  0.00     0.059 A 
ATOM     91  F   UNL     1      -5.029  -6.826   8.291  1.00  0.00    -0.206 F 
ATOM     92  C   UNL     1      -7.764  -8.198  10.168  1.00  0.00     0.060 A 
BRANCH  92  93
ATOM     93  S   UNL     1      -8.490  -7.990  11.811  1.00  0.00     0.124 S 
ATOM     94  O   UNL     1      -9.868  -7.635  11.491  1.00  0.00    -0.237 OA
ATOM     95  O   UNL     1      -8.292  -9.310  12.400  1.00  0.00    -0.237 OA
ATOM     96  O   UNL     1      -7.689  -6.921  12.401  1.00  0.00    -0.744 OA
ENDBRANCH  92  93
ENDBRANCH  60  85
BRANCH  72  97
ATOM     97  C   UNL     1      -4.464 -12.596   2.955  1.00  0.00     0.058 A 
ATOM     98  C   UNL     1      -4.649 -11.341   2.355  1.00  0.00     0.135 A 
ATOM     99  C   UNL     1      -4.822 -13.732   2.210  1.00  0.00     0.135 A 
ATOM    100  F   UNL     1      -4.269 -10.213   2.975  1.00  0.00    -0.206 F 
ATOM    101  C   UNL     1      -5.190 -11.224   1.074  1.00  0.00     0.059 A 
ATOM    102  C   UNL     1      -5.331 -13.640   0.921  1.00  0.00     0.059 A 
ATOM    103  F   UNL     1      -4.638 -14.960   2.724  1.00  0.00    -0.206 F 
ATOM    104  C   UNL     1      -5.520 -12.380   0.362  1.00  0.00     0.060 A 
BRANCH 104 105
ATOM    105  S   UNL     1      -6.126 -12.226  -1.331  1.00  0.00     0.124 S 
ATOM    106  O   UNL     1      -7.455 -11.659  -1.131  1.00  0.00    -0.237 OA
ATOM    107  O   UNL     1      -5.138 -11.334  -1.934  1.00  0.00    -0.237 OA
ATOM    108  O   UNL     1      -6.101 -13.598  -1.830  1.00  0.00    -0.744 OA
ENDBRANCH 104 105
ENDBRANCH  72  97
ENDBRANCH  46  47
ENDBRANCH  39  41
ENDBRANCH  38  39
ENDBRANCH  37  38
ENDBRANCH  36  37
ENDBRANCH  35  36
ENDBRANCH  34  35
ENDBRANCH  33  34
ENDBRANCH   1  33
TORSDOF 27
