REMARK SMILES O=C(OCCOCCOCCOCCOC(=O)[C@]12C[NH2+]C[C@H]1CN(C(=O)c1ccccc1-n1cncn1)C2)c1ccc(-c2c3nc(c(-c4c(F)cc(S(=O)(=O)[O-])cc4F)c4ccc([nH]4)c(-c4c(F)cc(S(=O)(=O)[O-])cc4F)c4nc(c(-c5c(F)cc(S(=O)(=O)[O-])cc5F)c5ccc2[nH]5)C=C4)C=C3)cc1
REMARK SMILES IDX 9 1 8 2 7 3 6 4 5 5 4 6 3 7 2 8 1 9 39 10 40 11 104 12 41 13
REMARK SMILES IDX 103 14 42 15 43 16 44 17 97 18 45 19 102 20 96 21 98 22
REMARK SMILES IDX 46 23 101 24 95 25 94 26 47 28 81 29 60 30 80 31 61 32 64 33
REMARK SMILES IDX 79 34 99 35 62 36 63 37 78 39 100 40 65 41 48 42 49 43 58 44
REMARK SMILES IDX 50 45 51 46 57 47 59 48 52 49 53 50 54 51 55 52 56 53 82 54
REMARK SMILES IDX 83 55 92 56 84 57 85 58 91 59 93 60 86 61 87 62 88 63 89 64
REMARK SMILES IDX 90 65 66 66 67 67 76 68 68 69 69 70 75 71 77 72 70 73 71 74
REMARK SMILES IDX 72 75 73 76 74 77 10 78 11 79 12 80 13 81 14 82 15 83 16 84
REMARK SMILES IDX 17 85 18 86 19 87 22 88 38 89 20 90 21 91 23 92 24 93 25 96
REMARK SMILES IDX 26 97 27 98 28 99 32 100 29 101 31 102 30 103 33 104 34 105
REMARK SMILES IDX 37 106 35 107 36 108
REMARK H PARENT 98 27 64 38 20 94 20 95
REMARK Flexibility Score: inf
ROOT
ATOM      1  O   UNL     1       2.765  -1.724   2.183  1.00  0.00    -0.377 OA
ENDROOT
BRANCH   1   2
ATOM      2  C   UNL     1       2.202  -1.380   0.922  1.00  0.00     0.188 C 
BRANCH   2   3
ATOM      3  C   UNL     1       3.002  -1.747  -0.354  1.00  0.00     0.188 C 
BRANCH   3   4
ATOM      4  O   UNL     1       4.172  -1.142  -0.904  1.00  0.00    -0.376 OA
BRANCH   4   5
ATOM      5  C   UNL     1       5.114  -0.204  -0.423  1.00  0.00     0.202 C 
BRANCH   5   6
ATOM      6  C   UNL     1       4.696   1.232  -0.050  1.00  0.00     0.261 C 
BRANCH   6   7
ATOM      7  O   UNL     1       3.334   1.420   0.331  1.00  0.00    -0.460 OA
BRANCH   7   8
ATOM      8  C   UNL     1       2.254   1.532  -0.475  1.00  0.00     0.338 C 
ATOM      9  O   UNL     1       1.178   1.858   0.026  1.00  0.00    -0.246 OA
BRANCH   8  10
ATOM     10  C   UNL     1       2.267   1.119  -1.900  1.00  0.00     0.060 A 
ATOM     11  C   UNL     1       3.400   1.079  -2.712  1.00  0.00     0.016 A 
ATOM     12  C   UNL     1       1.017   0.772  -2.450  1.00  0.00     0.016 A 
ATOM     13  C   UNL     1       3.301   0.765  -4.043  1.00  0.00     0.010 A 
ATOM     14  C   UNL     1       0.900   0.486  -3.799  1.00  0.00     0.010 A 
ATOM     15  C   UNL     1       2.044   0.551  -4.584  1.00  0.00    -0.014 A 
BRANCH  15  16
ATOM     16  C   UNL     1       2.013   0.534  -6.027  1.00  0.00     0.031 A 
ATOM     17  C   UNL     1       2.675  -0.632  -6.660  1.00  0.00     0.074 A 
ATOM     18  C   UNL     1       1.485   1.590  -6.669  1.00  0.00     0.049 A 
ATOM     19  N   UNL     1       3.716  -0.647  -7.427  1.00  0.00    -0.248 NA
ATOM     20  C   UNL     1       2.200  -1.967  -6.262  1.00  0.00     0.031 C 
ATOM     21  C   UNL     1       0.666   2.673  -6.110  1.00  0.00     0.029 A 
ATOM     22  N   UNL     1       1.494   1.868  -7.993  1.00  0.00    -0.354 N 
ATOM     23  C   UNL     1       3.889  -1.979  -7.793  1.00  0.00     0.074 A 
ATOM     24  C   UNL     1       3.038  -2.758  -6.931  1.00  0.00     0.031 C 
ATOM     25  C   UNL     1       0.051   3.324  -7.120  1.00  0.00     0.029 A 
ATOM     26  C   UNL     1       0.536   2.791  -8.379  1.00  0.00     0.049 A 
ATOM     27  H   UNL     1       2.124   1.452  -8.625  1.00  0.00     0.167 HD
ATOM     28  C   UNL     1       4.533  -2.330  -8.939  1.00  0.00     0.037 A 
ATOM     29  C   UNL     1       0.096   2.985  -9.645  1.00  0.00     0.037 A 
ATOM     30  C   UNL     1       5.428  -1.299  -9.389  1.00  0.00     0.049 A 
ATOM     31  C   UNL     1       1.146   2.450 -10.556  1.00  0.00     0.074 A 
ATOM     32  C   UNL     1       6.541  -0.689  -8.842  1.00  0.00     0.029 A 
ATOM     33  N   UNL     1       5.024  -0.481 -10.416  1.00  0.00    -0.354 N 
ATOM     34  N   UNL     1       2.341   2.969 -10.670  1.00  0.00    -0.248 NA
ATOM     35  C   UNL     1       1.035   1.061 -10.983  1.00  0.00     0.031 C 
ATOM     36  C   UNL     1       6.447   0.677  -9.236  1.00  0.00     0.029 A 
ATOM     37  C   UNL     1       5.317   0.809 -10.045  1.00  0.00     0.049 A 
ATOM     38  H   UNL     1       4.602  -0.766 -11.259  1.00  0.00     0.167 HD
ATOM     39  C   UNL     1       3.200   1.884 -10.789  1.00  0.00     0.074 A 
ATOM     40  C   UNL     1       2.330   0.741 -11.055  1.00  0.00     0.031 C 
ATOM     41  C   UNL     1       4.505   1.957 -10.387  1.00  0.00     0.037 A 
BRANCH  28  42
ATOM     42  C   UNL     1       4.069  -3.470  -9.809  1.00  0.00     0.058 A 
ATOM     43  C   UNL     1       4.885  -3.949 -10.851  1.00  0.00     0.135 A 
ATOM     44  C   UNL     1       2.732  -3.932  -9.816  1.00  0.00     0.135 A 
ATOM     45  F   UNL     1       6.162  -3.547 -10.958  1.00  0.00    -0.206 F 
ATOM     46  C   UNL     1       4.396  -4.796 -11.848  1.00  0.00     0.059 A 
ATOM     47  C   UNL     1       2.241  -4.818 -10.764  1.00  0.00     0.059 A 
ATOM     48  F   UNL     1       1.813  -3.469  -8.960  1.00  0.00    -0.206 F 
ATOM     49  C   UNL     1       3.068  -5.216 -11.800  1.00  0.00     0.060 A 
BRANCH  49  50
ATOM     50  S   UNL     1       2.402  -6.230 -13.130  1.00  0.00     0.124 S 
ATOM     51  O   UNL     1       2.349  -5.271 -14.227  1.00  0.00    -0.237 OA
ATOM     52  O   UNL     1       3.408  -7.280 -13.245  1.00  0.00    -0.237 OA
ATOM     53  O   UNL     1       1.110  -6.664 -12.606  1.00  0.00    -0.744 OA
ENDBRANCH  49  50
ENDBRANCH  28  42
BRANCH  29  54
ATOM     54  C   UNL     1      -1.324   3.176 -10.042  1.00  0.00     0.058 A 
ATOM     55  C   UNL     1      -1.663   3.593 -11.339  1.00  0.00     0.135 A 
ATOM     56  C   UNL     1      -2.391   2.714  -9.239  1.00  0.00     0.135 A 
ATOM     57  F   UNL     1      -0.707   4.018 -12.179  1.00  0.00    -0.206 F 
ATOM     58  C   UNL     1      -2.974   3.523 -11.823  1.00  0.00     0.059 A 
ATOM     59  C   UNL     1      -3.705   2.653  -9.693  1.00  0.00     0.059 A 
ATOM     60  F   UNL     1      -2.180   2.219  -8.011  1.00  0.00    -0.206 F 
ATOM     61  C   UNL     1      -3.986   3.036 -10.996  1.00  0.00     0.060 A 
BRANCH  61  62
ATOM     62  S   UNL     1      -5.646   2.788 -11.667  1.00  0.00     0.124 S 
ATOM     63  O   UNL     1      -6.099   4.161 -11.861  1.00  0.00    -0.237 OA
ATOM     64  O   UNL     1      -5.375   2.027 -12.882  1.00  0.00    -0.237 OA
ATOM     65  O   UNL     1      -6.332   2.048 -10.611  1.00  0.00    -0.744 OA
ENDBRANCH  61  62
ENDBRANCH  29  54
BRANCH  41  66
ATOM     66  C   UNL     1       5.069   3.312 -10.039  1.00  0.00     0.058 A 
ATOM     67  C   UNL     1       4.622   4.099  -8.962  1.00  0.00     0.135 A 
ATOM     68  C   UNL     1       6.213   3.757 -10.719  1.00  0.00     0.135 A 
ATOM     69  F   UNL     1       3.609   3.691  -8.186  1.00  0.00    -0.206 F 
ATOM     70  C   UNL     1       5.254   5.294  -8.607  1.00  0.00     0.059 A 
ATOM     71  C   UNL     1       6.879   4.928 -10.363  1.00  0.00     0.059 A 
ATOM     72  F   UNL     1       6.735   3.017 -11.711  1.00  0.00    -0.206 F 
ATOM     73  C   UNL     1       6.385   5.700  -9.313  1.00  0.00     0.060 A 
BRANCH  73  74
ATOM     74  S   UNL     1       7.250   7.200  -8.800  1.00  0.00     0.124 S 
ATOM     75  O   UNL     1       6.329   8.248  -9.229  1.00  0.00    -0.237 OA
ATOM     76  O   UNL     1       7.374   7.018  -7.356  1.00  0.00    -0.237 OA
ATOM     77  O   UNL     1       8.510   7.137  -9.536  1.00  0.00    -0.744 OA
ENDBRANCH  73  74
ENDBRANCH  41  66
ENDBRANCH  15  16
ENDBRANCH   8  10
ENDBRANCH   7   8
ENDBRANCH   6   7
ENDBRANCH   5   6
ENDBRANCH   4   5
ENDBRANCH   3   4
ENDBRANCH   2   3
ENDBRANCH   1   2
BRANCH   1  78
ATOM     78  C   UNL     1       4.117  -1.377   2.259  1.00  0.00     0.188 C 
BRANCH  78  79
ATOM     79  C   UNL     1       5.111  -2.533   2.137  1.00  0.00     0.188 C 
BRANCH  79  80
ATOM     80  O   UNL     1       4.694  -3.853   1.827  1.00  0.00    -0.376 OA
BRANCH  80  81
ATOM     81  C   UNL     1       3.445  -4.365   2.253  1.00  0.00     0.202 C 
BRANCH  81  82
ATOM     82  C   UNL     1       3.157  -4.540   3.749  1.00  0.00     0.261 C 
BRANCH  82  83
ATOM     83  O   UNL     1       3.210  -3.375   4.594  1.00  0.00    -0.463 OA
BRANCH  83  84
ATOM     84  C   UNL     1       4.424  -3.131   5.178  1.00  0.00     0.320 C 
ATOM     85  O   UNL     1       5.465  -3.683   4.836  1.00  0.00    -0.251 OA
BRANCH  84  86
ATOM     86  C   UNL     1       4.241  -2.188   6.430  1.00  0.00     0.144 C 
ATOM     87  C   UNL     1       4.555  -1.010   5.449  1.00  0.00     0.281 C 
ATOM     88  C   UNL     1       4.943  -1.337   7.575  1.00  0.00     0.088 C 
ATOM     89  C   UNL     1       4.799  -3.459   7.176  1.00  0.00     0.145 C 
ATOM     90  N   UNL     1       4.793   0.304   6.051  1.00  0.00    -0.345 N 
ATOM     91  C   UNL     1       4.530   0.108   7.448  1.00  0.00     0.267 C 
ATOM     92  C   UNL     1       4.485  -1.929   8.897  1.00  0.00     0.130 C 
ATOM     93  N   UNL     1       4.468  -3.321   8.570  1.00  0.00    -0.337 N 
ATOM     94  H   UNL     1       4.160   1.001   5.659  1.00  0.00     0.346 HD
ATOM     95  H   UNL     1       5.738   0.646   5.878  1.00  0.00     0.346 HD
BRANCH  93  96
ATOM     96  C   UNL     1       4.057  -4.323   9.426  1.00  0.00     0.256 C 
ATOM     97  O   UNL     1       3.659  -4.126  10.558  1.00  0.00    -0.269 OA
BRANCH  96  98
ATOM     98  C   UNL     1       4.061  -5.714   8.884  1.00  0.00     0.065 A 
ATOM     99  C   UNL     1       2.783  -6.272   8.701  1.00  0.00     0.016 A 
ATOM    100  C   UNL     1       5.190  -6.375   8.361  1.00  0.00     0.079 A 
ATOM    101  C   UNL     1       2.623  -7.474   8.008  1.00  0.00     0.001 A 
ATOM    102  C   UNL     1       5.009  -7.580   7.653  1.00  0.00     0.029 A 
ATOM    103  C   UNL     1       3.736  -8.127   7.487  1.00  0.00     0.002 A 
BRANCH 100 104
ATOM    104  N   UNL     1       6.501  -5.830   8.403  1.00  0.00    -0.220 N 
ATOM    105  C   UNL     1       7.053  -4.883   9.233  1.00  0.00     0.225 A 
ATOM    106  N   UNL     1       7.408  -6.144   7.441  1.00  0.00    -0.155 NA
ATOM    107  N   UNL     1       8.199  -4.458   8.748  1.00  0.00    -0.223 NA
ATOM    108  C   UNL     1       8.355  -5.226   7.635  1.00  0.00     0.246 A 
ENDBRANCH 100 104
ENDBRANCH  96  98
ENDBRANCH  93  96
ENDBRANCH  84  86
ENDBRANCH  83  84
ENDBRANCH  82  83
ENDBRANCH  81  82
ENDBRANCH  80  81
ENDBRANCH  79  80
ENDBRANCH  78  79
ENDBRANCH   1  78
TORSDOF 26
