REMARK SMILES O=C(OCCOCCOCCOCCOC(=O)c1ccc(C[NH2+]Cc2cc(F)ccc2F)nc1)c1ccc(-c2c3nc(c(-c4c(F)cc(S(=O)(=O)[O-])cc4F)c4ccc([nH]4)c(-c4c(F)cc(S(=O)(=O)[O-])cc4F)c4nc(c(-c5c(F)cc(S(=O)(=O)[O-])cc5F)c5ccc2[nH]5)C=C4)C=C3)cc1
REMARK SMILES IDX 10 1 9 2 8 3 7 4 6 5 5 6 4 7 3 8 2 9 1 10 35 11 36 12 100 13
REMARK SMILES IDX 37 14 99 15 38 16 39 17 40 18 93 19 41 20 98 21 92 22 94 23
REMARK SMILES IDX 42 24 97 25 91 26 90 27 43 29 77 30 56 31 76 32 57 33 60 34
REMARK SMILES IDX 75 35 95 36 58 37 59 38 74 40 96 41 61 42 44 43 45 44 54 45
REMARK SMILES IDX 46 46 47 47 53 48 55 49 48 50 49 51 50 52 51 53 52 54 78 55
REMARK SMILES IDX 79 56 88 57 80 58 81 59 87 60 89 61 82 62 83 63 84 64 85 65
REMARK SMILES IDX 86 66 62 67 63 68 72 69 64 70 65 71 71 72 73 73 66 74 67 75
REMARK SMILES IDX 68 76 69 77 70 78 11 79 12 80 13 81 14 82 15 83 16 84 17 85
REMARK SMILES IDX 18 86 19 87 34 88 20 89 33 90 21 91 22 92 23 93 24 96 25 97
REMARK SMILES IDX 26 98 31 99 27 100 30 101 32 102 28 103 29 104
REMARK H PARENT 94 28 60 39 23 94 23 95
REMARK Flexibility Score: inf
ROOT
ATOM      1  C   UNL     1       4.109   3.818   0.721  1.00  0.00     0.188 C 
ENDROOT
BRANCH   1   2
ATOM      2  O   UNL     1       2.692   3.976   0.718  1.00  0.00    -0.377 OA
BRANCH   2   3
ATOM      3  C   UNL     1       1.922   2.771   0.709  1.00  0.00     0.188 C 
BRANCH   3   4
ATOM      4  C   UNL     1       2.315   1.759  -0.370  1.00  0.00     0.188 C 
BRANCH   4   5
ATOM      5  O   UNL     1       3.600   1.212  -0.078  1.00  0.00    -0.376 OA
BRANCH   5   6
ATOM      6  C   UNL     1       4.366   0.782  -1.200  1.00  0.00     0.202 C 
BRANCH   6   7
ATOM      7  C   UNL     1       3.960  -0.576  -1.785  1.00  0.00     0.261 C 
BRANCH   7   8
ATOM      8  O   UNL     1       2.564  -0.874  -1.601  1.00  0.00    -0.460 OA
BRANCH   8   9
ATOM      9  C   UNL     1       2.023  -1.686  -0.653  1.00  0.00     0.338 C 
ATOM     10  O   UNL     1       0.830  -1.975  -0.716  1.00  0.00    -0.246 OA
BRANCH   9  11
ATOM     11  C   UNL     1       2.841  -2.278   0.443  1.00  0.00     0.060 A 
ATOM     12  C   UNL     1       3.889  -1.606   1.063  1.00  0.00     0.016 A 
ATOM     13  C   UNL     1       2.503  -3.554   0.917  1.00  0.00     0.016 A 
ATOM     14  C   UNL     1       4.702  -2.232   1.990  1.00  0.00     0.010 A 
ATOM     15  C   UNL     1       3.259  -4.158   1.931  1.00  0.00     0.010 A 
ATOM     16  C   UNL     1       4.397  -3.514   2.435  1.00  0.00    -0.014 A 
BRANCH  16  17
ATOM     17  C   UNL     1       5.377  -4.178   3.323  1.00  0.00     0.031 A 
ATOM     18  C   UNL     1       6.159  -5.339   2.781  1.00  0.00     0.074 A 
ATOM     19  C   UNL     1       5.677  -3.626   4.516  1.00  0.00     0.049 A 
ATOM     20  N   UNL     1       7.042  -6.091   3.378  1.00  0.00    -0.248 NA
ATOM     21  C   UNL     1       5.923  -5.696   1.370  1.00  0.00     0.031 C 
ATOM     22  C   UNL     1       5.049  -2.421   5.072  1.00  0.00     0.029 A 
ATOM     23  N   UNL     1       6.616  -3.967   5.453  1.00  0.00    -0.354 N 
ATOM     24  C   UNL     1       7.441  -7.027   2.431  1.00  0.00     0.074 A 
ATOM     25  C   UNL     1       6.697  -6.760   1.222  1.00  0.00     0.031 C 
ATOM     26  C   UNL     1       5.654  -2.099   6.226  1.00  0.00     0.029 A 
ATOM     27  C   UNL     1       6.646  -3.119   6.537  1.00  0.00     0.049 A 
ATOM     28  H   UNL     1       7.212  -4.745   5.360  1.00  0.00     0.167 HD
ATOM     29  C   UNL     1       8.351  -8.018   2.566  1.00  0.00     0.037 A 
ATOM     30  C   UNL     1       7.369  -3.188   7.671  1.00  0.00     0.037 A 
ATOM     31  C   UNL     1       9.088  -8.247   3.778  1.00  0.00     0.049 A 
ATOM     32  C   UNL     1       8.320  -4.345   7.825  1.00  0.00     0.074 A 
ATOM     33  C   UNL     1       9.960  -9.274   4.083  1.00  0.00     0.029 A 
ATOM     34  N   UNL     1       9.044  -7.411   4.887  1.00  0.00    -0.354 N 
ATOM     35  N   UNL     1       8.601  -5.298   6.965  1.00  0.00    -0.248 NA
ATOM     36  C   UNL     1       9.034  -4.454   9.102  1.00  0.00     0.031 C 
ATOM     37  C   UNL     1      10.425  -9.071   5.389  1.00  0.00     0.029 A 
ATOM     38  C   UNL     1       9.873  -7.897   5.880  1.00  0.00     0.049 A 
ATOM     39  H   UNL     1       8.501  -6.592   4.955  1.00  0.00     0.167 HD
ATOM     40  C   UNL     1       9.522  -6.122   7.598  1.00  0.00     0.074 A 
ATOM     41  C   UNL     1       9.778  -5.532   8.898  1.00  0.00     0.031 C 
ATOM     42  C   UNL     1      10.096  -7.271   7.159  1.00  0.00     0.037 A 
BRANCH  29  43
ATOM     43  C   UNL     1       8.540  -8.940   1.395  1.00  0.00     0.058 A 
ATOM     44  C   UNL     1       9.219  -8.537   0.234  1.00  0.00     0.135 A 
ATOM     45  C   UNL     1       8.003 -10.237   1.422  1.00  0.00     0.135 A 
ATOM     46  F   UNL     1       9.720  -7.295   0.141  1.00  0.00    -0.206 F 
ATOM     47  C   UNL     1       9.338  -9.380  -0.868  1.00  0.00     0.059 A 
ATOM     48  C   UNL     1       8.128 -11.104   0.340  1.00  0.00     0.059 A 
ATOM     49  F   UNL     1       7.330 -10.667   2.501  1.00  0.00    -0.206 F 
ATOM     50  C   UNL     1       8.785 -10.660  -0.807  1.00  0.00     0.060 A 
BRANCH  50  51
ATOM     51  S   UNL     1       8.932 -11.736  -2.250  1.00  0.00     0.124 S 
ATOM     52  O   UNL     1       7.983 -11.118  -3.171  1.00  0.00    -0.237 OA
ATOM     53  O   UNL     1      10.341 -11.594  -2.603  1.00  0.00    -0.237 OA
ATOM     54  O   UNL     1       8.545 -13.047  -1.738  1.00  0.00    -0.744 OA
ENDBRANCH  50  51
ENDBRANCH  29  43
BRANCH  30  55
ATOM     55  C   UNL     1       7.162  -2.199   8.767  1.00  0.00     0.058 A 
ATOM     56  C   UNL     1       8.181  -1.330   9.184  1.00  0.00     0.135 A 
ATOM     57  C   UNL     1       5.930  -2.120   9.440  1.00  0.00     0.135 A 
ATOM     58  F   UNL     1       9.380  -1.365   8.582  1.00  0.00    -0.206 F 
ATOM     59  C   UNL     1       7.997  -0.440  10.241  1.00  0.00     0.059 A 
ATOM     60  C   UNL     1       5.711  -1.218  10.475  1.00  0.00     0.059 A 
ATOM     61  F   UNL     1       4.913  -2.919   9.079  1.00  0.00    -0.206 F 
ATOM     62  C   UNL     1       6.758  -0.395  10.883  1.00  0.00     0.060 A 
BRANCH  62  63
ATOM     63  S   UNL     1       6.516   0.764  12.247  1.00  0.00     0.124 S 
ATOM     64  O   UNL     1       7.219   0.089  13.332  1.00  0.00    -0.237 OA
ATOM     65  O   UNL     1       7.143   1.980  11.738  1.00  0.00    -0.237 OA
ATOM     66  O   UNL     1       5.063   0.827  12.378  1.00  0.00    -0.744 OA
ENDBRANCH  62  63
ENDBRANCH  30  55
BRANCH  42  67
ATOM     67  C   UNL     1      11.060  -7.938   8.093  1.00  0.00     0.058 A 
ATOM     68  C   UNL     1      10.614  -8.639   9.224  1.00  0.00     0.135 A 
ATOM     69  C   UNL     1      12.438  -7.904   7.833  1.00  0.00     0.135 A 
ATOM     70  F   UNL     1       9.304  -8.692   9.514  1.00  0.00    -0.206 F 
ATOM     71  C   UNL     1      11.508  -9.260  10.086  1.00  0.00     0.059 A 
ATOM     72  C   UNL     1      13.348  -8.541   8.668  1.00  0.00     0.059 A 
ATOM     73  F   UNL     1      12.908  -7.256   6.756  1.00  0.00    -0.206 F 
ATOM     74  C   UNL     1      12.874  -9.204   9.800  1.00  0.00     0.060 A 
BRANCH  74  75
ATOM     75  S   UNL     1      14.027 -10.031  10.914  1.00  0.00     0.124 S 
ATOM     76  O   UNL     1      14.081  -9.091  12.028  1.00  0.00    -0.237 OA
ATOM     77  O   UNL     1      13.351 -11.296  11.184  1.00  0.00    -0.237 OA
ATOM     78  O   UNL     1      15.247 -10.137  10.120  1.00  0.00    -0.744 OA
ENDBRANCH  74  75
ENDBRANCH  42  67
ENDBRANCH  16  17
ENDBRANCH   9  11
ENDBRANCH   8   9
ENDBRANCH   7   8
ENDBRANCH   6   7
ENDBRANCH   5   6
ENDBRANCH   4   5
ENDBRANCH   3   4
ENDBRANCH   2   3
ENDBRANCH   1   2
BRANCH   1  79
ATOM     79  C   UNL     1       4.777   3.100   1.914  1.00  0.00     0.188 C 
BRANCH  79  80
ATOM     80  O   UNL     1       3.875   2.526   2.852  1.00  0.00    -0.376 OA
BRANCH  80  81
ATOM     81  C   UNL     1       3.904   3.111   4.154  1.00  0.00     0.202 C 
BRANCH  81  82
ATOM     82  C   UNL     1       3.074   4.396   4.259  1.00  0.00     0.261 C 
BRANCH  82  83
ATOM     83  O   UNL     1       3.498   5.452   3.379  1.00  0.00    -0.460 OA
BRANCH  83  84
ATOM     84  C   UNL     1       4.707   6.017   3.597  1.00  0.00     0.339 C 
ATOM     85  O   UNL     1       5.470   5.795   4.520  1.00  0.00    -0.246 OA
BRANCH  84  86
ATOM     86  C   UNL     1       5.050   6.791   2.390  1.00  0.00     0.078 A 
ATOM     87  C   UNL     1       4.091   7.499   1.668  1.00  0.00     0.019 A 
ATOM     88  C   UNL     1       6.319   6.656   1.843  1.00  0.00     0.127 A 
ATOM     89  C   UNL     1       4.420   7.990   0.408  1.00  0.00     0.031 A 
ATOM     90  N   UNL     1       6.661   7.124   0.614  1.00  0.00    -0.254 NA
ATOM     91  C   UNL     1       5.702   7.766  -0.102  1.00  0.00     0.094 A 
BRANCH  91  92
ATOM     92  C   UNL     1       5.992   8.152  -1.547  1.00  0.00     0.318 C 
BRANCH  92  93
ATOM     93  N   UNL     1       7.289   8.802  -1.757  1.00  0.00    -0.337 N 
ATOM     94  H   UNL     1       8.012   8.083  -1.788  1.00  0.00     0.346 HD
ATOM     95  H   UNL     1       7.435   9.452  -0.985  1.00  0.00     0.346 HD
BRANCH  93  96
ATOM     96  C   UNL     1       7.342   9.571  -2.997  1.00  0.00     0.300 C 
BRANCH  96  97
ATOM     97  C   UNL     1       6.764  10.959  -2.862  1.00  0.00     0.045 A 
ATOM     98  C   UNL     1       7.577  12.033  -2.468  1.00  0.00     0.051 A 
ATOM     99  C   UNL     1       5.404  11.207  -3.085  1.00  0.00     0.132 A 
ATOM    100  C   UNL     1       7.021  13.297  -2.285  1.00  0.00     0.123 A 
ATOM    101  C   UNL     1       4.845  12.466  -2.869  1.00  0.00     0.043 A 
ATOM    102  F   UNL     1       4.599  10.222  -3.508  1.00  0.00    -0.206 F 
ATOM    103  F   UNL     1       7.811  14.318  -1.926  1.00  0.00    -0.207 F 
ATOM    104  C   UNL     1       5.660  13.519  -2.465  1.00  0.00     0.042 A 
ENDBRANCH  96  97
ENDBRANCH  93  96
ENDBRANCH  92  93
ENDBRANCH  91  92
ENDBRANCH  84  86
ENDBRANCH  83  84
ENDBRANCH  82  83
ENDBRANCH  81  82
ENDBRANCH  80  81
ENDBRANCH  79  80
ENDBRANCH   1  79
TORSDOF 27
