REMARK SMILES O=C(OCCOCCOCCOCCOC(=O)[C@@H]1[C@@H](C(=O)Nc2cccc([N+](=O)[O-])c2)[C@@H]2C=C[C@H]1O2)c1ccc(-c2c3nc(c(-c4c(F)cc(S(=O)(=O)[O-])cc4F)c4ccc([nH]4)c(-c4c(F)cc(S(=O)(=O)[O-])cc4F)c4nc(c(-c5c(F)cc(S(=O)(=O)[O-])cc5F)c5ccc2[nH]5)C=C4)C=C3)cc1
REMARK SMILES IDX 9 1 8 2 7 3 6 4 5 5 4 6 3 7 2 8 1 9 37 10 38 11 102 12 39 13
REMARK SMILES IDX 101 14 40 15 41 16 42 17 95 18 43 19 100 20 94 21 96 22
REMARK SMILES IDX 44 23 99 24 93 25 92 26 45 28 79 29 58 30 78 31 59 32 62 33
REMARK SMILES IDX 77 34 97 35 60 36 61 37 76 39 98 40 63 41 46 42 47 43 56 44
REMARK SMILES IDX 48 45 49 46 55 47 57 48 50 49 51 50 52 51 53 52 54 53 80 54
REMARK SMILES IDX 81 55 90 56 82 57 83 58 89 59 91 60 84 61 85 62 86 63 87 64
REMARK SMILES IDX 88 65 64 66 65 67 74 68 66 69 67 70 73 71 75 72 68 73 69 74
REMARK SMILES IDX 70 75 71 76 72 77 10 78 11 79 12 80 13 81 14 82 15 83 16 84
REMARK SMILES IDX 17 85 18 86 19 87 35 88 32 89 34 90 36 91 33 92 20 93 21 94
REMARK SMILES IDX 22 95 23 97 24 98 31 99 25 100 27 101 26 102 28 103 29 104
REMARK SMILES IDX 30 105
REMARK H PARENT 96 27 62 38 22 96
REMARK Flexibility Score: inf
ROOT
ATOM      1  O   UNL     1       2.028  -1.054  -3.398  1.00  0.00    -0.377 OA
ENDROOT
BRANCH   1   2
ATOM      2  C   UNL     1       1.389  -0.299  -2.381  1.00  0.00     0.188 C 
BRANCH   2   3
ATOM      3  C   UNL     1       1.807  -0.678  -0.961  1.00  0.00     0.188 C 
BRANCH   3   4
ATOM      4  O   UNL     1       3.205  -0.456  -0.758  1.00  0.00    -0.376 OA
BRANCH   4   5
ATOM      5  C   UNL     1       3.905  -1.481  -0.046  1.00  0.00     0.202 C 
BRANCH   5   6
ATOM      6  C   UNL     1       4.011  -1.226   1.455  1.00  0.00     0.261 C 
BRANCH   6   7
ATOM      7  O   UNL     1       2.751  -0.827   2.000  1.00  0.00    -0.460 OA
BRANCH   7   8
ATOM      8  C   UNL     1       2.200   0.411   1.945  1.00  0.00     0.338 C 
ATOM      9  O   UNL     1       1.012   0.521   2.251  1.00  0.00    -0.246 OA
BRANCH   8  10
ATOM     10  C   UNL     1       2.940   1.659   1.554  1.00  0.00     0.060 A 
ATOM     11  C   UNL     1       4.091   1.739   0.761  1.00  0.00     0.016 A 
ATOM     12  C   UNL     1       2.375   2.865   2.004  1.00  0.00     0.016 A 
ATOM     13  C   UNL     1       4.702   2.948   0.475  1.00  0.00     0.010 A 
ATOM     14  C   UNL     1       2.981   4.090   1.728  1.00  0.00     0.010 A 
ATOM     15  C   UNL     1       4.171   4.119   0.996  1.00  0.00    -0.014 A 
BRANCH  15  16
ATOM     16  C   UNL     1       5.028   5.309   0.976  1.00  0.00     0.031 A 
ATOM     17  C   UNL     1       5.792   5.612   2.228  1.00  0.00     0.074 A 
ATOM     18  C   UNL     1       5.216   5.982  -0.170  1.00  0.00     0.049 A 
ATOM     19  N   UNL     1       6.548   6.633   2.511  1.00  0.00    -0.248 NA
ATOM     20  C   UNL     1       5.695   4.614   3.310  1.00  0.00     0.031 C 
ATOM     21  C   UNL     1       4.631   5.625  -1.465  1.00  0.00     0.029 A 
ATOM     22  N   UNL     1       5.968   7.091  -0.433  1.00  0.00    -0.354 N 
ATOM     23  C   UNL     1       6.982   6.423   3.814  1.00  0.00     0.074 A 
ATOM     24  C   UNL     1       6.408   5.179   4.269  1.00  0.00     0.031 C 
ATOM     25  C   UNL     1       5.046   6.508  -2.388  1.00  0.00     0.029 A 
ATOM     26  C   UNL     1       5.864   7.523  -1.733  1.00  0.00     0.049 A 
ATOM     27  H   UNL     1       6.530   7.536   0.242  1.00  0.00     0.167 HD
ATOM     28  C   UNL     1       7.781   7.218   4.559  1.00  0.00     0.037 A 
ATOM     29  C   UNL     1       6.344   8.645  -2.298  1.00  0.00     0.037 A 
ATOM     30  C   UNL     1       8.319   8.451   4.054  1.00  0.00     0.049 A 
ATOM     31  C   UNL     1       7.135   9.578  -1.419  1.00  0.00     0.074 A 
ATOM     32  C   UNL     1       9.086   9.395   4.707  1.00  0.00     0.029 A 
ATOM     33  N   UNL     1       8.132   8.908   2.753  1.00  0.00    -0.354 N 
ATOM     34  N   UNL     1       7.477   9.428  -0.158  1.00  0.00    -0.248 NA
ATOM     35  C   UNL     1       7.591  10.833  -2.023  1.00  0.00     0.031 C 
ATOM     36  C   UNL     1       9.317  10.449   3.815  1.00  0.00     0.029 A 
ATOM     37  C   UNL     1       8.749  10.132   2.587  1.00  0.00     0.049 A 
ATOM     38  H   UNL     1       7.633   8.429   2.054  1.00  0.00     0.167 HD
ATOM     39  C   UNL     1       8.208  10.559   0.179  1.00  0.00     0.074 A 
ATOM     40  C   UNL     1       8.267  11.377  -1.019  1.00  0.00     0.031 C 
ATOM     41  C   UNL     1       8.780  10.899   1.363  1.00  0.00     0.037 A 
BRANCH  28  42
ATOM     42  C   UNL     1       8.011   6.814   5.989  1.00  0.00     0.058 A 
ATOM     43  C   UNL     1       8.770   5.684   6.339  1.00  0.00     0.135 A 
ATOM     44  C   UNL     1       7.399   7.533   7.027  1.00  0.00     0.135 A 
ATOM     45  F   UNL     1       9.347   4.935   5.386  1.00  0.00    -0.206 F 
ATOM     46  C   UNL     1       8.878   5.260   7.661  1.00  0.00     0.059 A 
ATOM     47  C   UNL     1       7.518   7.145   8.359  1.00  0.00     0.059 A 
ATOM     48  F   UNL     1       6.647   8.611   6.752  1.00  0.00    -0.206 F 
ATOM     49  C   UNL     1       8.242   5.995   8.664  1.00  0.00     0.060 A 
BRANCH  49  50
ATOM     50  S   UNL     1       8.366   5.412  10.368  1.00  0.00     0.124 S 
ATOM     51  O   UNL     1       7.505   4.234  10.337  1.00  0.00    -0.237 OA
ATOM     52  O   UNL     1       9.790   5.156  10.509  1.00  0.00    -0.237 OA
ATOM     53  O   UNL     1       7.852   6.541  11.149  1.00  0.00    -0.744 OA
ENDBRANCH  49  50
ENDBRANCH  28  42
BRANCH  29  54
ATOM     54  C   UNL     1       6.046   8.955  -3.722  1.00  0.00     0.058 A 
ATOM     55  C   UNL     1       7.060   8.989  -4.689  1.00  0.00     0.135 A 
ATOM     56  C   UNL     1       4.730   9.196  -4.154  1.00  0.00     0.135 A 
ATOM     57  F   UNL     1       8.335   8.774  -4.331  1.00  0.00    -0.206 F 
ATOM     58  C   UNL     1       6.785   9.257  -6.028  1.00  0.00     0.059 A 
ATOM     59  C   UNL     1       4.426   9.437  -5.491  1.00  0.00     0.059 A 
ATOM     60  F   UNL     1       3.717   9.168  -3.274  1.00  0.00    -0.206 F 
ATOM     61  C   UNL     1       5.462   9.474  -6.420  1.00  0.00     0.060 A 
BRANCH  61  62
ATOM     62  S   UNL     1       5.114   9.775  -8.167  1.00  0.00     0.124 S 
ATOM     63  O   UNL     1       5.680  11.104  -8.356  1.00  0.00    -0.237 OA
ATOM     64  O   UNL     1       5.825   8.678  -8.814  1.00  0.00    -0.237 OA
ATOM     65  O   UNL     1       3.656   9.694  -8.238  1.00  0.00    -0.744 OA
ENDBRANCH  61  62
ENDBRANCH  29  54
BRANCH  41  66
ATOM     66  C   UNL     1       9.548  12.188   1.397  1.00  0.00     0.058 A 
ATOM     67  C   UNL     1       8.902  13.432   1.388  1.00  0.00     0.135 A 
ATOM     68  C   UNL     1      10.947  12.166   1.516  1.00  0.00     0.135 A 
ATOM     69  F   UNL     1       7.567  13.502   1.270  1.00  0.00    -0.206 F 
ATOM     70  C   UNL     1       9.621  14.617   1.476  1.00  0.00     0.059 A 
ATOM     71  C   UNL     1      11.682  13.338   1.638  1.00  0.00     0.059 A 
ATOM     72  F   UNL     1      11.607  10.997   1.542  1.00  0.00    -0.206 F 
ATOM     73  C   UNL     1      11.011  14.559   1.607  1.00  0.00     0.060 A 
BRANCH  73  74
ATOM     74  S   UNL     1      11.927  16.104   1.768  1.00  0.00     0.124 S 
ATOM     75  O   UNL     1      11.854  16.631   0.410  1.00  0.00    -0.237 OA
ATOM     76  O   UNL     1      11.150  16.823   2.772  1.00  0.00    -0.237 OA
ATOM     77  O   UNL     1      13.252  15.668   2.202  1.00  0.00    -0.744 OA
ENDBRANCH  73  74
ENDBRANCH  41  66
ENDBRANCH  15  16
ENDBRANCH   8  10
ENDBRANCH   7   8
ENDBRANCH   6   7
ENDBRANCH   5   6
ENDBRANCH   4   5
ENDBRANCH   3   4
ENDBRANCH   2   3
ENDBRANCH   1   2
BRANCH   1  78
ATOM     78  C   UNL     1       3.439  -0.966  -3.409  1.00  0.00     0.188 C 
BRANCH  78  79
ATOM     79  C   UNL     1       4.142   0.389  -3.619  1.00  0.00     0.188 C 
BRANCH  79  80
ATOM     80  O   UNL     1       3.468   1.447  -4.262  1.00  0.00    -0.376 OA
BRANCH  80  81
ATOM     81  C   UNL     1       2.641   1.138  -5.368  1.00  0.00     0.202 C 
BRANCH  81  82
ATOM     82  C   UNL     1       3.153   0.241  -6.523  1.00  0.00     0.261 C 
BRANCH  82  83
ATOM     83  O   UNL     1       3.790  -1.025  -6.178  1.00  0.00    -0.463 OA
BRANCH  83  84
ATOM     84  C   UNL     1       5.087  -1.191  -6.543  1.00  0.00     0.312 C 
ATOM     85  O   UNL     1       5.705  -0.361  -7.206  1.00  0.00    -0.252 OA
BRANCH  84  86
ATOM     86  C   UNL     1       5.792  -2.476  -6.100  1.00  0.00     0.147 C 
ATOM     87  C   UNL     1       5.222  -3.599  -5.154  1.00  0.00     0.129 C 
ATOM     88  C   UNL     1       7.092  -2.081  -5.346  1.00  0.00     0.157 C 
ATOM     89  C   UNL     1       6.204  -3.511  -3.994  1.00  0.00     0.155 C 
ATOM     90  C   UNL     1       6.868  -1.360  -4.053  1.00  0.00     0.004 C 
ATOM     91  O   UNL     1       7.433  -3.363  -4.751  1.00  0.00    -0.365 OA
ATOM     92  C   UNL     1       6.290  -2.241  -3.234  1.00  0.00     0.004 C 
BRANCH  87  93
ATOM     93  C   UNL     1       5.266  -4.962  -5.909  1.00  0.00     0.231 C 
ATOM     94  O   UNL     1       4.500  -5.108  -6.874  1.00  0.00    -0.274 OA
ATOM     95  N   UNL     1       6.179  -5.975  -5.719  1.00  0.00    -0.325 N 
ATOM     96  H   UNL     1       6.229  -6.615  -6.465  1.00  0.00     0.169 HD
BRANCH  95  97
ATOM     97  C   UNL     1       7.054  -6.264  -4.657  1.00  0.00     0.048 A 
ATOM     98  C   UNL     1       8.433  -6.213  -4.890  1.00  0.00     0.026 A 
ATOM     99  C   UNL     1       6.579  -6.496  -3.364  1.00  0.00     0.111 A 
ATOM    100  C   UNL     1       9.329  -6.203  -3.814  1.00  0.00     0.009 A 
ATOM    101  C   UNL     1       7.480  -6.431  -2.285  1.00  0.00     0.271 A 
ATOM    102  C   UNL     1       8.854  -6.275  -2.504  1.00  0.00     0.086 A 
BRANCH 101 103
ATOM    103  N   UNL     1       6.955  -6.339  -0.917  1.00  0.00     0.062 N 
ATOM    104  O   UNL     1       7.761  -6.406   0.020  1.00  0.00    -0.258 OA
ATOM    105  O   UNL     1       5.734  -6.161  -0.784  1.00  0.00    -0.258 OA
ENDBRANCH 101 103
ENDBRANCH  95  97
ENDBRANCH  87  93
ENDBRANCH  84  86
ENDBRANCH  83  84
ENDBRANCH  82  83
ENDBRANCH  81  82
ENDBRANCH  80  81
ENDBRANCH  79  80
ENDBRANCH  78  79
ENDBRANCH   1  78
TORSDOF 26
