REMARK SMILES C[C@H]1Cc2ccccc2N1/C=C\C(=O)OCCOCCOCCOCCOC(=O)c1ccc(-c2c3nc(c(-c4c(F)cc(S(=O)(=O)[O-])cc4F)c4ccc([nH]4)c(-c4c(F)cc(S(=O)(=O)[O-])cc4F)c4nc(c(-c5c(F)cc(S(=O)(=O)[O-])cc5F)c5ccc2[nH]5)C=C4)C=C3)cc1
REMARK SMILES IDX 22 1 21 2 20 3 19 4 18 5 17 6 16 7 15 8 13 9 14 10 12 11
REMARK SMILES IDX 11 12 10 13 1 14 2 15 3 16 4 17 9 18 5 19 8 20 6 21 7 22
REMARK SMILES IDX 23 23 24 24 25 25 26 26 27 27 28 28 29 29 30 30 31 31 95 32
REMARK SMILES IDX 32 33 94 34 33 35 34 36 35 37 88 38 36 39 93 40 87 41 89 42
REMARK SMILES IDX 37 43 92 44 86 45 85 46 38 48 72 49 51 50 71 51 52 52 55 53
REMARK SMILES IDX 70 54 90 55 53 56 54 57 69 59 91 60 56 61 39 62 40 63 49 64
REMARK SMILES IDX 41 65 42 66 48 67 50 68 43 69 44 70 45 71 46 72 47 73 73 74
REMARK SMILES IDX 74 75 83 76 75 77 76 78 82 79 84 80 77 81 78 82 79 83 80 84
REMARK SMILES IDX 81 85 57 86 58 87 67 88 59 89 60 90 66 91 68 92 61 93 62 94
REMARK SMILES IDX 63 95 64 96 65 97
REMARK H PARENT 89 47 55 58
REMARK Flexibility Score: inf
ROOT
ATOM      1  C   UNL     1       0.047  -1.021  -4.409  1.00  0.00     0.188 C 
ENDROOT
BRANCH   1   2
ATOM      2  O   UNL     1      -1.248  -0.630  -3.995  1.00  0.00    -0.377 OA
BRANCH   2   3
ATOM      3  C   UNL     1      -1.266   0.376  -2.998  1.00  0.00     0.188 C 
BRANCH   3   4
ATOM      4  C   UNL     1      -0.681   1.754  -3.370  1.00  0.00     0.188 C 
BRANCH   4   5
ATOM      5  O   UNL     1       0.633   1.847  -3.891  1.00  0.00    -0.376 OA
BRANCH   5   6
ATOM      6  C   UNL     1       1.818   1.627  -3.147  1.00  0.00     0.202 C 
BRANCH   6   7
ATOM      7  C   UNL     1       1.893   1.582  -1.620  1.00  0.00     0.261 C 
BRANCH   7   8
ATOM      8  O   UNL     1       0.783   0.954  -0.991  1.00  0.00    -0.460 OA
BRANCH   8   9
ATOM      9  C   UNL     1       0.089   1.693  -0.101  1.00  0.00     0.332 C 
ATOM     10  O   UNL     1       0.269   2.875   0.152  1.00  0.00    -0.247 OA
BRANCH   9  11
ATOM     11  C   UNL     1      -1.071   0.957   0.432  1.00  0.00     0.111 C 
ATOM     12  C   UNL     1      -1.263  -0.339   0.714  1.00  0.00     0.094 C 
BRANCH  12  13
ATOM     13  N   UNL     1      -0.515  -1.498   0.673  1.00  0.00    -0.344 N 
ATOM     14  C   UNL     1       1.855  -1.010   1.240  1.00  0.00     0.032 C 
ATOM     15  C   UNL     1       0.898  -1.697   0.261  1.00  0.00     0.088 C 
ATOM     16  C   UNL     1       1.182  -3.218   0.225  1.00  0.00     0.062 C 
ATOM     17  C   UNL     1       0.058  -3.746   1.039  1.00  0.00    -0.022 A 
ATOM     18  C   UNL     1      -0.911  -2.755   1.218  1.00  0.00     0.044 A 
ATOM     19  C   UNL     1      -0.084  -5.030   1.542  1.00  0.00     0.006 A 
ATOM     20  C   UNL     1      -2.080  -3.074   1.897  1.00  0.00     0.026 A 
ATOM     21  C   UNL     1      -1.246  -5.334   2.247  1.00  0.00     0.000 A 
ATOM     22  C   UNL     1      -2.243  -4.365   2.415  1.00  0.00     0.002 A 
ENDBRANCH  12  13
ENDBRANCH   9  11
ENDBRANCH   8   9
ENDBRANCH   7   8
ENDBRANCH   6   7
ENDBRANCH   5   6
ENDBRANCH   4   5
ENDBRANCH   3   4
ENDBRANCH   2   3
ENDBRANCH   1   2
BRANCH   1  23
ATOM     23  C   UNL     1       0.429  -0.484  -5.798  1.00  0.00     0.188 C 
BRANCH  23  24
ATOM     24  O   UNL     1      -0.500   0.208  -6.624  1.00  0.00    -0.376 OA
BRANCH  24  25
ATOM     25  C   UNL     1      -1.895  -0.019  -6.522  1.00  0.00     0.202 C 
BRANCH  25  26
ATOM     26  C   UNL     1      -2.491  -1.435  -6.619  1.00  0.00     0.261 C 
BRANCH  26  27
ATOM     27  O   UNL     1      -1.653  -2.526  -6.242  1.00  0.00    -0.460 OA
BRANCH  27  28
ATOM     28  C   UNL     1      -0.879  -3.046  -7.222  1.00  0.00     0.338 C 
ATOM     29  O   UNL     1      -0.803  -2.681  -8.382  1.00  0.00    -0.246 OA
BRANCH  28  30
ATOM     30  C   UNL     1      -0.009  -4.065  -6.599  1.00  0.00     0.060 A 
ATOM     31  C   UNL     1      -0.566  -5.117  -5.868  1.00  0.00     0.016 A 
ATOM     32  C   UNL     1       1.380  -3.948  -6.735  1.00  0.00     0.016 A 
ATOM     33  C   UNL     1       0.274  -6.069  -5.290  1.00  0.00     0.010 A 
ATOM     34  C   UNL     1       2.219  -4.891  -6.142  1.00  0.00     0.010 A 
ATOM     35  C   UNL     1       1.669  -5.971  -5.439  1.00  0.00    -0.014 A 
BRANCH  35  36
ATOM     36  C   UNL     1       2.528  -7.103  -5.025  1.00  0.00     0.031 A 
ATOM     37  C   UNL     1       3.332  -7.072  -3.765  1.00  0.00     0.074 A 
ATOM     38  C   UNL     1       2.565  -8.180  -5.831  1.00  0.00     0.049 A 
ATOM     39  N   UNL     1       4.025  -8.035  -3.214  1.00  0.00    -0.248 NA
ATOM     40  C   UNL     1       3.372  -5.800  -3.032  1.00  0.00     0.031 C 
ATOM     41  C   UNL     1       1.849  -8.292  -7.103  1.00  0.00     0.029 A 
ATOM     42  N   UNL     1       3.207  -9.382  -5.699  1.00  0.00    -0.354 N 
ATOM     43  C   UNL     1       4.561  -7.501  -2.051  1.00  0.00     0.074 A 
ATOM     44  C   UNL     1       4.163  -6.107  -2.011  1.00  0.00     0.031 C 
ATOM     45  C   UNL     1       2.052  -9.515  -7.612  1.00  0.00     0.029 A 
ATOM     46  C   UNL     1       2.930 -10.262  -6.717  1.00  0.00     0.049 A 
ATOM     47  H   UNL     1       3.807  -9.595  -4.948  1.00  0.00     0.167 HD
ATOM     48  C   UNL     1       5.296  -8.128  -1.099  1.00  0.00     0.037 A 
ATOM     49  C   UNL     1       3.322 -11.537  -6.900  1.00  0.00     0.037 A 
ATOM     50  C   UNL     1       5.718  -9.505  -1.180  1.00  0.00     0.049 A 
ATOM     51  C   UNL     1       4.185 -12.192  -5.862  1.00  0.00     0.074 A 
ATOM     52  C   UNL     1       6.442 -10.241  -0.257  1.00  0.00     0.029 A 
ATOM     53  N   UNL     1       5.477 -10.350  -2.257  1.00  0.00    -0.354 N 
ATOM     54  N   UNL     1       4.614 -11.703  -4.723  1.00  0.00    -0.248 NA
ATOM     55  C   UNL     1       4.616 -13.569  -6.131  1.00  0.00     0.031 C 
ATOM     56  C   UNL     1       6.685 -11.509  -0.798  1.00  0.00     0.029 A 
ATOM     57  C   UNL     1       6.068 -11.586  -2.037  1.00  0.00     0.049 A 
ATOM     58  H   UNL     1       4.961 -10.107  -3.059  1.00  0.00     0.167 HD
ATOM     59  C   UNL     1       5.361 -12.716  -4.133  1.00  0.00     0.074 A 
ATOM     60  C   UNL     1       5.307 -13.851  -5.034  1.00  0.00     0.031 C 
ATOM     61  C   UNL     1       6.030 -12.703  -2.953  1.00  0.00     0.037 A 
BRANCH  48  62
ATOM     62  C   UNL     1       5.688  -7.323   0.111  1.00  0.00     0.058 A 
ATOM     63  C   UNL     1       4.731  -6.898   1.048  1.00  0.00     0.135 A 
ATOM     64  C   UNL     1       7.031  -6.989   0.353  1.00  0.00     0.135 A 
ATOM     65  F   UNL     1       3.431  -7.179   0.864  1.00  0.00    -0.206 F 
ATOM     66  C   UNL     1       5.083  -6.133   2.154  1.00  0.00     0.059 A 
ATOM     67  C   UNL     1       7.410  -6.247   1.469  1.00  0.00     0.059 A 
ATOM     68  F   UNL     1       7.989  -7.372  -0.504  1.00  0.00    -0.206 F 
ATOM     69  C   UNL     1       6.426  -5.806   2.352  1.00  0.00     0.060 A 
BRANCH  69  70
ATOM     70  S   UNL     1       6.853  -4.764   3.762  1.00  0.00     0.124 S 
ATOM     71  O   UNL     1       6.274  -3.485   3.359  1.00  0.00    -0.237 OA
ATOM     72  O   UNL     1       6.182  -5.444   4.865  1.00  0.00    -0.237 OA
ATOM     73  O   UNL     1       8.311  -4.810   3.792  1.00  0.00    -0.744 OA
ENDBRANCH  69  70
ENDBRANCH  48  62
BRANCH  49  74
ATOM     74  C   UNL     1       2.834 -12.275  -8.092  1.00  0.00     0.058 A 
ATOM     75  C   UNL     1       1.848 -13.262  -7.964  1.00  0.00     0.135 A 
ATOM     76  C   UNL     1       3.270 -11.943  -9.385  1.00  0.00     0.135 A 
ATOM     77  F   UNL     1       1.404 -13.614  -6.748  1.00  0.00    -0.206 F 
ATOM     78  C   UNL     1       1.300 -13.889  -9.077  1.00  0.00     0.059 A 
ATOM     79  C   UNL     1       2.720 -12.539 -10.514  1.00  0.00     0.059 A 
ATOM     80  F   UNL     1       4.199 -10.990  -9.557  1.00  0.00    -0.206 F 
ATOM     81  C   UNL     1       1.732 -13.509 -10.350  1.00  0.00     0.060 A 
BRANCH  81  82
ATOM     82  S   UNL     1       0.940 -14.263 -11.786  1.00  0.00     0.124 S 
ATOM     83  O   UNL     1       1.409 -15.640 -11.694  1.00  0.00    -0.237 OA
ATOM     84  O   UNL     1      -0.475 -14.049 -11.498  1.00  0.00    -0.237 OA
ATOM     85  O   UNL     1       1.468 -13.491 -12.907  1.00  0.00    -0.744 OA
ENDBRANCH  81  82
ENDBRANCH  49  74
BRANCH  61  86
ATOM     86  C   UNL     1       6.781 -13.949  -2.569  1.00  0.00     0.058 A 
ATOM     87  C   UNL     1       7.973 -14.312  -3.217  1.00  0.00     0.135 A 
ATOM     88  C   UNL     1       6.349 -14.748  -1.498  1.00  0.00     0.135 A 
ATOM     89  F   UNL     1       8.424 -13.590  -4.255  1.00  0.00    -0.206 F 
ATOM     90  C   UNL     1       8.706 -15.426  -2.822  1.00  0.00     0.059 A 
ATOM     91  C   UNL     1       7.081 -15.852  -1.069  1.00  0.00     0.059 A 
ATOM     92  F   UNL     1       5.219 -14.444  -0.840  1.00  0.00    -0.206 F 
ATOM     93  C   UNL     1       8.256 -16.185  -1.740  1.00  0.00     0.060 A 
BRANCH  93  94
ATOM     94  S   UNL     1       9.253 -17.592  -1.204  1.00  0.00     0.124 S 
ATOM     95  O   UNL     1       9.069 -18.525  -2.311  1.00  0.00    -0.237 OA
ATOM     96  O   UNL     1      10.583 -17.002  -1.086  1.00  0.00    -0.237 OA
ATOM     97  O   UNL     1       8.634 -17.988   0.058  1.00  0.00    -0.744 OA
ENDBRANCH  93  94
ENDBRANCH  61  86
ENDBRANCH  35  36
ENDBRANCH  28  30
ENDBRANCH  27  28
ENDBRANCH  26  27
ENDBRANCH  25  26
ENDBRANCH  24  25
ENDBRANCH  23  24
ENDBRANCH   1  23
TORSDOF 24
