REMARK SMILES C[C@@H](Sc1nc(-c2ccc3c(c2)OCO3)ccc1C#N)C(=O)OCCOCCOCCOCCOC(=O)c1ccc(-c2c3nc(c(-c4c(F)cc(S(=O)(=O)[O-])cc4F)c4ccc([nH]4)c(-c4c(F)cc(S(=O)(=O)[O-])cc4F)c4nc(c(-c5c(F)cc(S(=O)(=O)[O-])cc5F)c5ccc2[nH]5)C=C4)C=C3)cc1
REMARK SMILES IDX 29 1 28 2 27 3 26 4 25 5 24 6 23 7 21 8 22 9 2 10 1 11 3 12
REMARK SMILES IDX 4 13 5 14 18 15 6 16 17 17 16 18 19 19 20 20 7 21 8 22 12 23
REMARK SMILES IDX 9 24 11 25 10 26 13 27 15 28 14 29 30 30 31 31 32 32 33 33
REMARK SMILES IDX 34 34 35 35 36 36 37 37 38 38 39 39 103 40 40 41 102 42
REMARK SMILES IDX 41 43 42 44 43 45 96 46 44 47 101 48 95 49 97 50 45 51
REMARK SMILES IDX 100 52 94 53 93 54 46 56 80 57 59 58 79 59 60 60 63 61 78 62
REMARK SMILES IDX 98 63 61 64 62 65 77 67 99 68 64 69 47 70 48 71 57 72 49 73
REMARK SMILES IDX 50 74 56 75 58 76 51 77 52 78 53 79 54 80 55 81 81 82 82 83
REMARK SMILES IDX 91 84 83 85 84 86 90 87 92 88 85 89 86 90 87 91 88 92 89 93
REMARK SMILES IDX 65 94 66 95 75 96 67 97 68 98 74 99 76 100 69 101 70 102
REMARK SMILES IDX 71 103 72 104 73 105
REMARK H PARENT 97 55 63 66
REMARK Flexibility Score: inf
ROOT
ATOM      1  O   UNL     1      -1.684  -0.221  -1.010  1.00  0.00    -0.377 OA
ENDROOT
BRANCH   1   2
ATOM      2  C   UNL     1      -1.270  -1.436  -0.425  1.00  0.00     0.188 C 
BRANCH   2   3
ATOM      3  C   UNL     1      -2.062  -1.947   0.790  1.00  0.00     0.188 C 
BRANCH   3   4
ATOM      4  O   UNL     1      -3.426  -1.611   0.905  1.00  0.00    -0.376 OA
BRANCH   4   5
ATOM      5  C   UNL     1      -3.895  -0.334   1.303  1.00  0.00     0.202 C 
BRANCH   5   6
ATOM      6  C   UNL     1      -3.052   0.884   1.721  1.00  0.00     0.261 C 
BRANCH   6   7
ATOM      7  O   UNL     1      -1.671   0.895   1.373  1.00  0.00    -0.462 OA
BRANCH   7   8
ATOM      8  C   UNL     1      -0.833   0.500   2.357  1.00  0.00     0.319 C 
ATOM      9  O   UNL     1      -1.219   0.100   3.454  1.00  0.00    -0.251 OA
BRANCH   8  10
ATOM     10  C   UNL     1       0.639   0.463   1.937  1.00  0.00     0.160 C 
ATOM     11  C   UNL     1       1.028   1.000   0.554  1.00  0.00     0.032 C 
BRANCH  10  12
ATOM     12  S   UNL     1       1.546   1.278   3.312  1.00  0.00    -0.090 SA
BRANCH  12  13
ATOM     13  C   UNL     1       3.235   1.023   2.867  1.00  0.00     0.115 A 
ATOM     14  N   UNL     1       3.896   2.199   2.762  1.00  0.00    -0.240 NA
ATOM     15  C   UNL     1       3.877  -0.201   2.714  1.00  0.00     0.084 A 
ATOM     16  C   UNL     1       5.220   2.199   2.514  1.00  0.00     0.072 A 
ATOM     17  C   UNL     1       5.256  -0.194   2.483  1.00  0.00     0.024 A 
ATOM     18  C   UNL     1       5.937   1.017   2.388  1.00  0.00     0.030 A 
BRANCH  15  19
ATOM     19  C   UNL     1       3.203  -1.461   2.778  1.00  0.00     0.102 C 
ATOM     20  N   UNL     1       2.688  -2.497   2.765  1.00  0.00    -0.192 NA
ENDBRANCH  15  19
BRANCH  16  21
ATOM     21  C   UNL     1       5.836   3.526   2.422  1.00  0.00     0.004 A 
ATOM     22  C   UNL     1       6.722   3.850   1.365  1.00  0.00     0.014 A 
ATOM     23  C   UNL     1       5.545   4.509   3.388  1.00  0.00     0.061 A 
ATOM     24  C   UNL     1       7.332   5.107   1.285  1.00  0.00     0.051 A 
ATOM     25  C   UNL     1       6.174   5.731   3.296  1.00  0.00     0.166 A 
ATOM     26  C   UNL     1       7.047   6.019   2.276  1.00  0.00     0.165 A 
ATOM     27  O   UNL     1       6.037   6.761   4.171  1.00  0.00    -0.454 OA
ATOM     28  O   UNL     1       7.571   7.269   2.380  1.00  0.00    -0.454 OA
ATOM     29  C   UNL     1       6.936   7.728   3.593  1.00  0.00     0.468 C 
ENDBRANCH  16  21
ENDBRANCH  12  13
ENDBRANCH  10  12
ENDBRANCH   8  10
ENDBRANCH   7   8
ENDBRANCH   6   7
ENDBRANCH   5   6
ENDBRANCH   4   5
ENDBRANCH   3   4
ENDBRANCH   2   3
ENDBRANCH   1   2
BRANCH   1  30
ATOM     30  C   UNL     1      -2.878  -0.180  -1.787  1.00  0.00     0.188 C 
BRANCH  30  31
ATOM     31  C   UNL     1      -3.754  -1.436  -1.998  1.00  0.00     0.188 C 
BRANCH  31  32
ATOM     32  O   UNL     1      -3.072  -2.671  -1.904  1.00  0.00    -0.376 OA
BRANCH  32  33
ATOM     33  C   UNL     1      -2.610  -3.299  -3.086  1.00  0.00     0.202 C 
BRANCH  33  34
ATOM     34  C   UNL     1      -1.746  -2.512  -4.086  1.00  0.00     0.261 C 
BRANCH  34  35
ATOM     35  O   UNL     1      -2.221  -1.220  -4.494  1.00  0.00    -0.460 OA
BRANCH  35  36
ATOM     36  C   UNL     1      -3.365  -1.162  -5.212  1.00  0.00     0.338 C 
ATOM     37  O   UNL     1      -4.038  -2.105  -5.583  1.00  0.00    -0.246 OA
BRANCH  36  38
ATOM     38  C   UNL     1      -3.772   0.262  -5.300  1.00  0.00     0.060 A 
ATOM     39  C   UNL     1      -4.939   0.684  -4.648  1.00  0.00     0.016 A 
ATOM     40  C   UNL     1      -2.996   1.181  -6.009  1.00  0.00     0.016 A 
ATOM     41  C   UNL     1      -5.340   2.020  -4.714  1.00  0.00     0.010 A 
ATOM     42  C   UNL     1      -3.417   2.514  -6.099  1.00  0.00     0.010 A 
ATOM     43  C   UNL     1      -4.602   2.938  -5.470  1.00  0.00    -0.014 A 
BRANCH  43  44
ATOM     44  C   UNL     1      -5.133   4.304  -5.710  1.00  0.00     0.031 A 
ATOM     45  C   UNL     1      -5.778   4.610  -7.035  1.00  0.00     0.074 A 
ATOM     46  C   UNL     1      -5.051   5.258  -4.762  1.00  0.00     0.049 A 
ATOM     47  N   UNL     1      -6.230   5.747  -7.495  1.00  0.00    -0.248 NA
ATOM     48  C   UNL     1      -5.934   3.481  -7.968  1.00  0.00     0.031 C 
ATOM     49  C   UNL     1      -4.492   5.072  -3.424  1.00  0.00     0.029 A 
ATOM     50  N   UNL     1      -5.423   6.580  -4.788  1.00  0.00    -0.354 N 
ATOM     51  C   UNL     1      -6.707   5.478  -8.773  1.00  0.00     0.074 A 
ATOM     52  C   UNL     1      -6.473   4.072  -9.024  1.00  0.00     0.031 C 
ATOM     53  C   UNL     1      -4.538   6.243  -2.765  1.00  0.00     0.029 A 
ATOM     54  C   UNL     1      -5.086   7.271  -3.647  1.00  0.00     0.049 A 
ATOM     55  H   UNL     1      -5.888   6.994  -5.551  1.00  0.00     0.167 HD
ATOM     56  C   UNL     1      -7.287   6.327  -9.654  1.00  0.00     0.037 A 
ATOM     57  C   UNL     1      -5.173   8.587  -3.363  1.00  0.00     0.037 A 
ATOM     58  C   UNL     1      -7.520   7.725  -9.392  1.00  0.00     0.049 A 
ATOM     59  C   UNL     1      -5.751   9.526  -4.396  1.00  0.00     0.074 A 
ATOM     60  C   UNL     1      -8.130   8.660 -10.210  1.00  0.00     0.029 A 
ATOM     61  N   UNL     1      -7.143   8.392  -8.236  1.00  0.00    -0.354 N 
ATOM     62  N   UNL     1      -6.233   9.252  -5.585  1.00  0.00    -0.248 NA
ATOM     63  C   UNL     1      -5.797  10.954  -4.048  1.00  0.00     0.031 C 
ATOM     64  C   UNL     1      -8.054   9.906  -9.582  1.00  0.00     0.029 A 
ATOM     65  C   UNL     1      -7.469   9.735  -8.338  1.00  0.00     0.049 A 
ATOM     66  H   UNL     1      -6.708   7.974  -7.458  1.00  0.00     0.167 HD
ATOM     67  C   UNL     1      -6.665  10.466  -6.112  1.00  0.00     0.074 A 
ATOM     68  C   UNL     1      -6.410  11.472  -5.103  1.00  0.00     0.031 C 
ATOM     69  C   UNL     1      -7.218  10.728  -7.323  1.00  0.00     0.037 A 
BRANCH  56  70
ATOM     70  C   UNL     1      -7.687   5.792 -11.003  1.00  0.00     0.058 A 
ATOM     71  C   UNL     1      -8.775   4.921 -11.166  1.00  0.00     0.135 A 
ATOM     72  C   UNL     1      -7.024   6.234 -12.161  1.00  0.00     0.135 A 
ATOM     73  F   UNL     1      -9.433   4.450 -10.094  1.00  0.00    -0.206 F 
ATOM     74  C   UNL     1      -9.190   4.505 -12.428  1.00  0.00     0.059 A 
ATOM     75  C   UNL     1      -7.441   5.856 -13.433  1.00  0.00     0.059 A 
ATOM     76  F   UNL     1      -5.973   7.063 -12.062  1.00  0.00    -0.206 F 
ATOM     77  C   UNL     1      -8.524   4.988 -13.556  1.00  0.00     0.060 A 
BRANCH  77  78
ATOM     78  S   UNL     1      -9.111   4.480 -15.186  1.00  0.00     0.124 S 
ATOM     79  O   UNL     1      -8.766   3.062 -15.192  1.00  0.00    -0.237 OA
ATOM     80  O   UNL     1     -10.536   4.786 -15.109  1.00  0.00    -0.237 OA
ATOM     81  O   UNL     1      -8.341   5.315 -16.102  1.00  0.00    -0.744 OA
ENDBRANCH  77  78
ENDBRANCH  56  70
BRANCH  57  82
ATOM     82  C   UNL     1      -4.664   9.117  -2.066  1.00  0.00     0.058 A 
ATOM     83  C   UNL     1      -5.523   9.722  -1.136  1.00  0.00     0.135 A 
ATOM     84  C   UNL     1      -3.296   9.073  -1.750  1.00  0.00     0.135 A 
ATOM     85  F   UNL     1      -6.838   9.804  -1.392  1.00  0.00    -0.206 F 
ATOM     86  C   UNL     1      -5.044  10.293   0.040  1.00  0.00     0.059 A 
ATOM     87  C   UNL     1      -2.797   9.602  -0.564  1.00  0.00     0.059 A 
ATOM     88  F   UNL     1      -2.427   8.501  -2.599  1.00  0.00    -0.206 F 
ATOM     89  C   UNL     1      -3.678  10.227   0.317  1.00  0.00     0.060 A 
BRANCH  89  90
ATOM     90  S   UNL     1      -3.071  10.959   1.852  1.00  0.00     0.124 S 
ATOM     91  O   UNL     1      -3.246  12.382   1.588  1.00  0.00    -0.237 OA
ATOM     92  O   UNL     1      -3.971  10.376   2.842  1.00  0.00    -0.237 OA
ATOM     93  O   UNL     1      -1.688  10.496   1.921  1.00  0.00    -0.744 OA
ENDBRANCH  89  90
ENDBRANCH  57  82
BRANCH  69  94
ATOM     94  C   UNL     1      -7.623  12.150  -7.616  1.00  0.00     0.058 A 
ATOM     95  C   UNL     1      -6.674  13.167  -7.806  1.00  0.00     0.135 A 
ATOM     96  C   UNL     1      -8.979  12.488  -7.762  1.00  0.00     0.135 A 
ATOM     97  F   UNL     1      -5.364  12.904  -7.674  1.00  0.00    -0.206 F 
ATOM     98  C   UNL     1      -7.056  14.473  -8.100  1.00  0.00     0.059 A 
ATOM     99  C   UNL     1      -9.382  13.778  -8.094  1.00  0.00     0.059 A 
ATOM    100  F   UNL     1      -9.931  11.554  -7.604  1.00  0.00    -0.206 F 
ATOM    101  C   UNL     1      -8.412  14.767  -8.248  1.00  0.00     0.060 A 
BRANCH 101 102
ATOM    102  S   UNL     1      -8.887  16.458  -8.666  1.00  0.00     0.124 S 
ATOM    103  O   UNL     1      -8.569  17.168  -7.431  1.00  0.00    -0.237 OA
ATOM    104  O   UNL     1      -8.024  16.749  -9.806  1.00  0.00    -0.237 OA
ATOM    105  O   UNL     1     -10.310  16.346  -8.975  1.00  0.00    -0.744 OA
ENDBRANCH 101 102
ENDBRANCH  69  94
ENDBRANCH  43  44
ENDBRANCH  36  38
ENDBRANCH  35  36
ENDBRANCH  34  35
ENDBRANCH  33  34
ENDBRANCH  32  33
ENDBRANCH  31  32
ENDBRANCH  30  31
ENDBRANCH   1  30
TORSDOF 27
