REMARK SMILES O=C(OCCOCCOCCOCCOC(=O)c1ccc(-c2c3nc(c(-c4c(F)cc(S(=O)(=O)[O-])cc4F)c4ccc([nH]4)c(-c4c(F)cc(S(=O)(=O)[O-])cc4F)c4nc(c(-c5c(F)cc(S(=O)(=O)[O-])cc5F)c5ccc2[nH]5)C=C4)C=C3)cc1)C1=Cc2c(cc(Cl)c(Cl)c2Cl)O[C@H]1C(F)(F)F
REMARK SMILES IDX 10 1 9 2 8 3 7 4 6 5 5 6 4 7 3 8 2 9 1 10 84 11 85 12 96 13
REMARK SMILES IDX 86 14 95 15 87 16 93 17 88 18 91 19 94 20 89 21 92 22 90 23
REMARK SMILES IDX 97 24 98 25 99 26 100 27 11 28 12 29 13 30 14 31 15 32 16 33
REMARK SMILES IDX 17 34 18 35 19 36 83 37 20 38 82 39 21 40 22 41 23 42 76 43
REMARK SMILES IDX 24 44 81 45 75 46 77 47 25 48 80 49 74 50 73 51 26 53 60 54
REMARK SMILES IDX 39 55 59 56 40 57 43 58 58 59 78 60 41 61 42 62 57 64 79 65
REMARK SMILES IDX 44 66 27 67 28 68 37 69 29 70 30 71 36 72 38 73 31 74 32 75
REMARK SMILES IDX 33 76 34 77 35 78 61 79 62 80 71 81 63 82 64 83 70 84 72 85
REMARK SMILES IDX 65 86 66 87 67 88 68 89 69 90 45 91 46 92 55 93 47 94 48 95
REMARK SMILES IDX 54 96 56 97 49 98 50 99 51 100 52 101 53 102
REMARK H PARENT 77 52 43 63
REMARK Flexibility Score: inf
ROOT
ATOM      1  C   UNL     1       2.968  -2.623  -3.314  1.00  0.00     0.188 C 
ENDROOT
BRANCH   1   2
ATOM      2  O   UNL     1       1.773  -2.071  -3.863  1.00  0.00    -0.377 OA
BRANCH   2   3
ATOM      3  C   UNL     1       0.747  -1.668  -2.969  1.00  0.00     0.188 C 
BRANCH   3   4
ATOM      4  C   UNL     1       1.075  -0.451  -2.102  1.00  0.00     0.188 C 
BRANCH   4   5
ATOM      5  O   UNL     1       2.294  -0.603  -1.393  1.00  0.00    -0.376 OA
BRANCH   5   6
ATOM      6  C   UNL     1       2.236  -1.536  -0.320  1.00  0.00     0.202 C 
BRANCH   6   7
ATOM      7  C   UNL     1       1.954  -0.859   1.017  1.00  0.00     0.261 C 
BRANCH   7   8
ATOM      8  O   UNL     1       1.666   0.555   0.889  1.00  0.00    -0.460 OA
BRANCH   8   9
ATOM      9  C   UNL     1       2.524   1.597   0.767  1.00  0.00     0.338 C 
ATOM     10  O   UNL     1       2.077   2.741   0.739  1.00  0.00    -0.246 OA
BRANCH   9  11
ATOM     11  C   UNL     1       3.994   1.415   0.826  1.00  0.00     0.087 C 
ATOM     12  C   UNL     1       4.630   0.294   0.498  1.00  0.00     0.029 C 
ATOM     13  C   UNL     1       4.843   2.674   0.852  1.00  0.00     0.316 C 
ATOM     14  C   UNL     1       5.999   0.061   0.869  1.00  0.00     0.038 A 
ATOM     15  O   UNL     1       6.290   2.457   1.023  1.00  0.00    -0.475 OA
ATOM     16  C   UNL     1       6.787   1.183   1.061  1.00  0.00     0.131 A 
ATOM     17  C   UNL     1       6.518  -1.242   1.048  1.00  0.00     0.072 A 
ATOM     18  C   UNL     1       8.141   1.006   1.320  1.00  0.00     0.069 A 
ATOM     19  C   UNL     1       7.881  -1.422   1.290  1.00  0.00     0.079 A 
ATOM     20  Cl  UNL     1       5.444  -2.615   1.068  1.00  0.00    -0.082 Cl
ATOM     21  C   UNL     1       8.690  -0.285   1.411  1.00  0.00     0.064 A 
ATOM     22  Cl  UNL     1       8.552  -3.019   1.408  1.00  0.00    -0.081 Cl
ATOM     23  Cl  UNL     1      10.392  -0.404   1.694  1.00  0.00    -0.083 Cl
BRANCH  13  24
ATOM     24  C   UNL     1       4.598   3.468  -0.473  1.00  0.00     0.430 C 
ATOM     25  F   UNL     1       4.004   2.715  -1.434  1.00  0.00    -0.167 F 
ATOM     26  F   UNL     1       3.821   4.558  -0.275  1.00  0.00    -0.167 F 
ATOM     27  F   UNL     1       5.758   3.916  -1.016  1.00  0.00    -0.167 F 
ENDBRANCH  13  24
ENDBRANCH   9  11
ENDBRANCH   8   9
ENDBRANCH   7   8
ENDBRANCH   6   7
ENDBRANCH   5   6
ENDBRANCH   4   5
ENDBRANCH   3   4
ENDBRANCH   2   3
ENDBRANCH   1   2
BRANCH   1  28
ATOM     28  C   UNL     1       4.216  -1.724  -3.486  1.00  0.00     0.188 C 
BRANCH  28  29
ATOM     29  O   UNL     1       4.523  -1.129  -4.750  1.00  0.00    -0.376 OA
BRANCH  29  30
ATOM     30  C   UNL     1       3.451  -0.867  -5.641  1.00  0.00     0.202 C 
BRANCH  30  31
ATOM     31  C   UNL     1       3.142  -2.050  -6.584  1.00  0.00     0.261 C 
BRANCH  31  32
ATOM     32  O   UNL     1       3.492  -3.348  -6.060  1.00  0.00    -0.460 OA
BRANCH  32  33
ATOM     33  C   UNL     1       4.815  -3.667  -6.126  1.00  0.00     0.338 C 
ATOM     34  O   UNL     1       5.666  -3.073  -6.749  1.00  0.00    -0.246 OA
BRANCH  33  35
ATOM     35  C   UNL     1       5.121  -4.792  -5.189  1.00  0.00     0.060 A 
ATOM     36  C   UNL     1       6.317  -4.722  -4.461  1.00  0.00     0.016 A 
ATOM     37  C   UNL     1       4.280  -5.898  -5.020  1.00  0.00     0.016 A 
ATOM     38  C   UNL     1       6.707  -5.776  -3.626  1.00  0.00     0.010 A 
ATOM     39  C   UNL     1       4.675  -6.959  -4.184  1.00  0.00     0.010 A 
ATOM     40  C   UNL     1       5.915  -6.927  -3.518  1.00  0.00    -0.014 A 
BRANCH  40  41
ATOM     41  C   UNL     1       6.499  -8.161  -2.911  1.00  0.00     0.031 A 
ATOM     42  C   UNL     1       7.063  -9.213  -3.838  1.00  0.00     0.074 A 
ATOM     43  C   UNL     1       6.608  -8.330  -1.578  1.00  0.00     0.049 A 
ATOM     44  N   UNL     1       7.630 -10.359  -3.556  1.00  0.00    -0.248 NA
ATOM     45  C   UNL     1       6.977  -8.929  -5.281  1.00  0.00     0.031 C 
ATOM     46  C   UNL     1       6.154  -7.383  -0.561  1.00  0.00     0.029 A 
ATOM     47  N   UNL     1       7.143  -9.369  -0.848  1.00  0.00    -0.354 N 
ATOM     48  C   UNL     1       7.970 -10.927  -4.779  1.00  0.00     0.074 A 
ATOM     49  C   UNL     1       7.510 -10.021  -5.808  1.00  0.00     0.031 C 
ATOM     50  C   UNL     1       6.423  -7.886   0.658  1.00  0.00     0.029 A 
ATOM     51  C   UNL     1       7.046  -9.203   0.515  1.00  0.00     0.049 A 
ATOM     52  H   UNL     1       7.559 -10.158  -1.264  1.00  0.00     0.167 HD
ATOM     53  C   UNL     1       8.621 -12.088  -5.030  1.00  0.00     0.037 A 
ATOM     54  C   UNL     1       7.402 -10.022   1.529  1.00  0.00     0.037 A 
ATOM     55  C   UNL     1       9.086 -12.996  -4.014  1.00  0.00     0.049 A 
ATOM     56  C   UNL     1       8.059 -11.350   1.220  1.00  0.00     0.074 A 
ATOM     57  C   UNL     1       9.756 -14.197  -4.176  1.00  0.00     0.029 A 
ATOM     58  N   UNL     1       8.930 -12.809  -2.649  1.00  0.00    -0.354 N 
ATOM     59  N   UNL     1       8.385 -11.863   0.057  1.00  0.00    -0.248 NA
ATOM     60  C   UNL     1       8.401 -12.208   2.366  1.00  0.00     0.031 C 
ATOM     61  C   UNL     1       9.956 -14.762  -2.912  1.00  0.00     0.029 A 
ATOM     62  C   UNL     1       9.468 -13.884  -1.959  1.00  0.00     0.049 A 
ATOM     63  H   UNL     1       8.501 -12.027  -2.232  1.00  0.00     0.167 HD
ATOM     64  C   UNL     1       8.993 -13.086   0.335  1.00  0.00     0.074 A 
ATOM     65  C   UNL     1       9.011 -13.225   1.775  1.00  0.00     0.031 C 
ATOM     66  C   UNL     1       9.488 -14.013  -0.524  1.00  0.00     0.037 A 
BRANCH  53  67
ATOM     67  C   UNL     1       8.862 -12.460  -6.469  1.00  0.00     0.058 A 
ATOM     68  C   UNL     1       9.803 -11.782  -7.261  1.00  0.00     0.135 A 
ATOM     69  C   UNL     1       8.187 -13.550  -7.045  1.00  0.00     0.135 A 
ATOM     70  F   UNL     1      10.460 -10.720  -6.769  1.00  0.00    -0.206 F 
ATOM     71  C   UNL     1      10.058 -12.163  -8.574  1.00  0.00     0.059 A 
ATOM     72  C   UNL     1       8.447 -13.966  -8.347  1.00  0.00     0.059 A 
ATOM     73  F   UNL     1       7.273 -14.230  -6.335  1.00  0.00    -0.206 F 
ATOM     74  C   UNL     1       9.380 -13.262  -9.106  1.00  0.00     0.060 A 
BRANCH  74  75
ATOM     75  S   UNL     1       9.752 -13.766 -10.799  1.00  0.00     0.124 S 
ATOM     76  O   UNL     1       9.167 -12.671 -11.566  1.00  0.00    -0.237 OA
ATOM     77  O   UNL     1      11.210 -13.827 -10.791  1.00  0.00    -0.237 OA
ATOM     78  O   UNL     1       9.075 -15.053 -10.929  1.00  0.00    -0.744 OA
ENDBRANCH  74  75
ENDBRANCH  53  67
BRANCH  54  79
ATOM     79  C   UNL     1       7.122  -9.644   2.946  1.00  0.00     0.058 A 
ATOM     80  C   UNL     1       8.159  -9.421   3.867  1.00  0.00     0.135 A 
ATOM     81  C   UNL     1       5.804  -9.557   3.423  1.00  0.00     0.135 A 
ATOM     82  F   UNL     1       9.438  -9.512   3.472  1.00  0.00    -0.206 F 
ATOM     83  C   UNL     1       7.901  -9.155   5.210  1.00  0.00     0.059 A 
ATOM     84  C   UNL     1       5.521  -9.260   4.753  1.00  0.00     0.059 A 
ATOM     85  F   UNL     1       4.772  -9.758   2.589  1.00  0.00    -0.206 F 
ATOM     86  C   UNL     1       6.577  -9.077   5.644  1.00  0.00     0.060 A 
BRANCH  86  87
ATOM     87  S   UNL     1       6.248  -8.706   7.381  1.00  0.00     0.124 S 
ATOM     88  O   UNL     1       6.628  -9.957   8.027  1.00  0.00    -0.237 OA
ATOM     89  O   UNL     1       7.129  -7.567   7.623  1.00  0.00    -0.237 OA
ATOM     90  O   UNL     1       4.821  -8.397   7.393  1.00  0.00    -0.744 OA
ENDBRANCH  86  87
ENDBRANCH  54  79
BRANCH  66  91
ATOM     91  C   UNL     1      10.126 -15.245   0.067  1.00  0.00     0.058 A 
ATOM     92  C   UNL     1       9.370 -16.230   0.723  1.00  0.00     0.135 A 
ATOM     93  C   UNL     1      11.509 -15.460  -0.053  1.00  0.00     0.135 A 
ATOM     94  F   UNL     1       8.043 -16.080   0.866  1.00  0.00    -0.206 F 
ATOM     95  C   UNL     1       9.966 -17.360   1.276  1.00  0.00     0.059 A 
ATOM     96  C   UNL     1      12.123 -16.599   0.463  1.00  0.00     0.059 A 
ATOM     97  F   UNL     1      12.281 -14.562  -0.685  1.00  0.00    -0.206 F 
ATOM     98  C   UNL     1      11.345 -17.534   1.144  1.00  0.00     0.060 A 
BRANCH  98  99
ATOM     99  S   UNL     1      12.106 -19.004   1.865  1.00  0.00     0.124 S 
ATOM    100  O   UNL     1      12.043 -18.699   3.290  1.00  0.00    -0.237 OA
ATOM    101  O   UNL     1      11.221 -20.071   1.405  1.00  0.00    -0.237 OA
ATOM    102  O   UNL     1      13.445 -19.015   1.284  1.00  0.00    -0.744 OA
ENDBRANCH  98  99
ENDBRANCH  66  91
ENDBRANCH  40  41
ENDBRANCH  33  35
ENDBRANCH  32  33
ENDBRANCH  31  32
ENDBRANCH  30  31
ENDBRANCH  29  30
ENDBRANCH  28  29
ENDBRANCH   1  28
TORSDOF 24
