REMARK SMILES O=C(OCCOCCOCCOCCOC(=O)c1ccc(-c2ccc(Cl)c3ccccc23)o1)c1ccc(-c2c3nc(c(-c4c(F)cc(S(=O)(=O)[O-])cc4F)c4ccc([nH]4)c(-c4c(F)cc(S(=O)(=O)[O-])cc4F)c4nc(c(-c5c(F)cc(S(=O)(=O)[O-])cc5F)c5ccc2[nH]5)C=C4)C=C3)cc1
REMARK SMILES IDX 8 1 7 2 6 3 5 4 4 5 3 6 2 7 1 8 34 9 35 10 99 11 36 12 98 13
REMARK SMILES IDX 37 14 38 15 39 16 92 17 40 18 97 19 91 20 93 21 41 22 96 23
REMARK SMILES IDX 90 24 89 25 42 27 76 28 55 29 75 30 56 31 59 32 74 33 94 34
REMARK SMILES IDX 57 35 58 36 73 38 95 39 60 40 43 41 44 42 53 43 45 44 46 45
REMARK SMILES IDX 52 46 54 47 47 48 48 49 49 50 50 51 51 52 77 53 78 54 87 55
REMARK SMILES IDX 79 56 80 57 86 58 88 59 81 60 82 61 83 62 84 63 85 64 61 65
REMARK SMILES IDX 62 66 71 67 63 68 64 69 70 70 72 71 65 72 66 73 67 74 68 75
REMARK SMILES IDX 69 76 9 77 10 78 11 79 12 80 13 81 14 82 15 83 16 84 17 85
REMARK SMILES IDX 18 86 19 87 33 88 20 89 21 90 22 91 23 92 32 93 24 94 27 95
REMARK SMILES IDX 31 96 25 97 28 98 30 99 26 100 29 101
REMARK H PARENT 93 26 59 37
REMARK Flexibility Score: inf
ROOT
ATOM      1  C   UNL     1       1.968   0.737  -2.762  1.00  0.00     0.188 C 
ENDROOT
BRANCH   1   2
ATOM      2  C   UNL     1       2.321  -0.419  -1.829  1.00  0.00     0.188 C 
BRANCH   2   3
ATOM      3  O   UNL     1       3.572  -0.110  -1.208  1.00  0.00    -0.376 OA
BRANCH   3   4
ATOM      4  C   UNL     1       4.282  -1.219  -0.669  1.00  0.00     0.202 C 
BRANCH   4   5
ATOM      5  C   UNL     1       3.880  -1.584   0.762  1.00  0.00     0.261 C 
BRANCH   5   6
ATOM      6  O   UNL     1       2.466  -1.429   0.979  1.00  0.00    -0.460 OA
BRANCH   6   7
ATOM      7  C   UNL     1       1.845  -0.374   1.572  1.00  0.00     0.338 C 
ATOM      8  O   UNL     1       0.625  -0.397   1.716  1.00  0.00    -0.246 OA
BRANCH   7   9
ATOM      9  C   UNL     1       2.603   0.782   2.124  1.00  0.00     0.060 A 
ATOM     10  C   UNL     1       3.687   1.382   1.482  1.00  0.00     0.016 A 
ATOM     11  C   UNL     1       2.169   1.321   3.344  1.00  0.00     0.016 A 
ATOM     12  C   UNL     1       4.441   2.362   2.112  1.00  0.00     0.010 A 
ATOM     13  C   UNL     1       2.881   2.361   3.952  1.00  0.00     0.010 A 
ATOM     14  C   UNL     1       4.063   2.836   3.367  1.00  0.00    -0.014 A 
BRANCH  14  15
ATOM     15  C   UNL     1       5.025   3.669   4.122  1.00  0.00     0.031 A 
ATOM     16  C   UNL     1       5.713   3.050   5.307  1.00  0.00     0.074 A 
ATOM     17  C   UNL     1       5.382   4.887   3.672  1.00  0.00     0.049 A 
ATOM     18  N   UNL     1       6.529   3.590   6.170  1.00  0.00    -0.248 NA
ATOM     19  C   UNL     1       5.440   1.622   5.554  1.00  0.00     0.031 C 
ATOM     20  C   UNL     1       4.863   5.527   2.461  1.00  0.00     0.029 A 
ATOM     21  N   UNL     1       6.297   5.784   4.155  1.00  0.00    -0.354 N 
ATOM     22  C   UNL     1       6.813   2.591   7.094  1.00  0.00     0.074 A 
ATOM     23  C   UNL     1       6.093   1.408   6.684  1.00  0.00     0.031 C 
ATOM     24  C   UNL     1       5.507   6.690   2.269  1.00  0.00     0.029 A 
ATOM     25  C   UNL     1       6.430   6.910   3.377  1.00  0.00     0.049 A 
ATOM     26  H   UNL     1       6.812   5.636   4.981  1.00  0.00     0.167 HD
ATOM     27  C   UNL     1       7.599   2.662   8.193  1.00  0.00     0.037 A 
ATOM     28  C   UNL     1       7.199   8.001   3.559  1.00  0.00     0.037 A 
ATOM     29  C   UNL     1       8.345   3.836   8.550  1.00  0.00     0.049 A 
ATOM     30  C   UNL     1       8.062   8.063   4.791  1.00  0.00     0.074 A 
ATOM     31  C   UNL     1       9.117   4.068   9.673  1.00  0.00     0.029 A 
ATOM     32  N   UNL     1       8.428   4.975   7.759  1.00  0.00    -0.354 N 
ATOM     33  N   UNL     1       8.225   7.159   5.729  1.00  0.00    -0.248 NA
ATOM     34  C   UNL     1       8.827   9.298   5.005  1.00  0.00     0.031 C 
ATOM     35  C   UNL     1       9.658   5.356   9.565  1.00  0.00     0.029 A 
ATOM     36  C   UNL     1       9.246   5.911   8.362  1.00  0.00     0.049 A 
ATOM     37  H   UNL     1       7.971   5.096   6.896  1.00  0.00     0.167 HD
ATOM     38  C   UNL     1       9.114   7.712   6.642  1.00  0.00     0.074 A 
ATOM     39  C   UNL     1       9.471   9.021   6.131  1.00  0.00     0.031 C 
ATOM     40  C   UNL     1       9.585   7.196   7.805  1.00  0.00     0.037 A 
BRANCH  27  41
ATOM     41  C   UNL     1       7.614   1.463   9.096  1.00  0.00     0.058 A 
ATOM     42  C   UNL     1       8.293   0.281   8.759  1.00  0.00     0.135 A 
ATOM     43  C   UNL     1       6.873   1.475  10.288  1.00  0.00     0.135 A 
ATOM     44  F   UNL     1       8.988   0.204   7.613  1.00  0.00    -0.206 F 
ATOM     45  C   UNL     1       8.203  -0.860   9.552  1.00  0.00     0.059 A 
ATOM     46  C   UNL     1       6.785   0.353  11.107  1.00  0.00     0.059 A 
ATOM     47  F   UNL     1       6.195   2.576  10.651  1.00  0.00    -0.206 F 
ATOM     48  C   UNL     1       7.434  -0.817  10.717  1.00  0.00     0.060 A 
BRANCH  48  49
ATOM     49  S   UNL     1       7.273  -2.317  11.710  1.00  0.00     0.124 S 
ATOM     50  O   UNL     1       6.300  -3.077  10.930  1.00  0.00    -0.237 OA
ATOM     51  O   UNL     1       8.634  -2.844  11.710  1.00  0.00    -0.237 OA
ATOM     52  O   UNL     1       6.797  -1.821  12.997  1.00  0.00    -0.744 OA
ENDBRANCH  48  49
ENDBRANCH  27  41
BRANCH  28  53
ATOM     53  C   UNL     1       7.164   9.121   2.579  1.00  0.00     0.058 A 
ATOM     54  C   UNL     1       8.275   9.421   1.776  1.00  0.00     0.135 A 
ATOM     55  C   UNL     1       6.015   9.911   2.417  1.00  0.00     0.135 A 
ATOM     56  F   UNL     1       9.403   8.703   1.897  1.00  0.00    -0.206 F 
ATOM     57  C   UNL     1       8.254  10.468   0.858  1.00  0.00     0.059 A 
ATOM     58  C   UNL     1       5.960  10.947   1.488  1.00  0.00     0.059 A 
ATOM     59  F   UNL     1       4.919   9.664   3.151  1.00  0.00    -0.206 F 
ATOM     60  C   UNL     1       7.089  11.225   0.721  1.00  0.00     0.060 A 
BRANCH  60  61
ATOM     61  S   UNL     1       7.044  12.552  -0.505  1.00  0.00     0.124 S 
ATOM     62  O   UNL     1       7.764  13.615   0.187  1.00  0.00    -0.237 OA
ATOM     63  O   UNL     1       7.733  11.951  -1.643  1.00  0.00    -0.237 OA
ATOM     64  O   UNL     1       5.615  12.778  -0.699  1.00  0.00    -0.744 OA
ENDBRANCH  60  61
ENDBRANCH  28  53
BRANCH  40  65
ATOM     65  C   UNL     1      10.553   8.040   8.576  1.00  0.00     0.058 A 
ATOM     66  C   UNL     1      10.117   9.118   9.360  1.00  0.00     0.135 A 
ATOM     67  C   UNL     1      11.921   7.731   8.572  1.00  0.00     0.135 A 
ATOM     68  F   UNL     1       8.817   9.450   9.389  1.00  0.00    -0.206 F 
ATOM     69  C   UNL     1      11.012   9.877  10.103  1.00  0.00     0.059 A 
ATOM     70  C   UNL     1      12.832   8.465   9.322  1.00  0.00     0.059 A 
ATOM     71  F   UNL     1      12.380   6.700   7.843  1.00  0.00    -0.206 F 
ATOM     72  C   UNL     1      12.368   9.543  10.076  1.00  0.00     0.060 A 
BRANCH  72  73
ATOM     73  S   UNL     1      13.522  10.509  11.073  1.00  0.00     0.124 S 
ATOM     74  O   UNL     1      13.724  11.683  10.230  1.00  0.00    -0.237 OA
ATOM     75  O   UNL     1      12.768  10.734  12.303  1.00  0.00    -0.237 OA
ATOM     76  O   UNL     1      14.674   9.623  11.206  1.00  0.00    -0.744 OA
ENDBRANCH  72  73
ENDBRANCH  40  65
ENDBRANCH  14  15
ENDBRANCH   7   9
ENDBRANCH   6   7
ENDBRANCH   5   6
ENDBRANCH   4   5
ENDBRANCH   3   4
ENDBRANCH   2   3
ENDBRANCH   1   2
BRANCH   1  77
ATOM     77  O   UNL     1       2.678   0.709  -4.004  1.00  0.00    -0.377 OA
BRANCH  77  78
ATOM     78  C   UNL     1       4.093   0.627  -3.903  1.00  0.00     0.188 C 
BRANCH  78  79
ATOM     79  C   UNL     1       4.894   1.868  -3.479  1.00  0.00     0.188 C 
BRANCH  79  80
ATOM     80  O   UNL     1       4.205   3.029  -3.050  1.00  0.00    -0.376 OA
BRANCH  80  81
ATOM     81  C   UNL     1       3.329   3.691  -3.959  1.00  0.00     0.202 C 
BRANCH  81  82
ATOM     82  C   UNL     1       3.840   3.976  -5.377  1.00  0.00     0.261 C 
BRANCH  82  83
ATOM     83  O   UNL     1       3.819   2.780  -6.183  1.00  0.00    -0.457 OA
BRANCH  83  84
ATOM     84  C   UNL     1       4.971   2.460  -6.843  1.00  0.00     0.374 C 
ATOM     85  O   UNL     1       5.949   3.190  -6.943  1.00  0.00    -0.242 OA
BRANCH  84  86
ATOM     86  C   UNL     1       4.903   1.078  -7.259  1.00  0.00     0.212 A 
ATOM     87  C   UNL     1       3.886   0.309  -7.797  1.00  0.00     0.059 A 
ATOM     88  O   UNL     1       5.968   0.264  -6.952  1.00  0.00    -0.449 OA
ATOM     89  C   UNL     1       4.335  -1.036  -7.780  1.00  0.00     0.052 A 
ATOM     90  C   UNL     1       5.586  -1.022  -7.201  1.00  0.00     0.135 A 
BRANCH  90  91
ATOM     91  C   UNL     1       6.526  -2.059  -6.787  1.00  0.00     0.025 A 
ATOM     92  C   UNL     1       7.719  -2.171  -7.513  1.00  0.00     0.014 A 
ATOM     93  C   UNL     1       6.260  -2.948  -5.699  1.00  0.00    -0.006 A 
ATOM     94  C   UNL     1       8.636  -3.171  -7.213  1.00  0.00     0.022 A 
ATOM     95  C   UNL     1       7.208  -3.963  -5.382  1.00  0.00     0.001 A 
ATOM     96  C   UNL     1       5.093  -2.867  -4.897  1.00  0.00     0.009 A 
ATOM     97  C   UNL     1       8.382  -4.062  -6.169  1.00  0.00     0.048 A 
ATOM     98  C   UNL     1       6.941  -4.829  -4.291  1.00  0.00     0.010 A 
ATOM     99  C   UNL     1       4.860  -3.731  -3.825  1.00  0.00     0.001 A 
ATOM    100  Cl  UNL     1       9.574  -5.295  -5.902  1.00  0.00    -0.084 Cl
ATOM    101  C   UNL     1       5.786  -4.712  -3.519  1.00  0.00     0.001 A 
ENDBRANCH  90  91
ENDBRANCH  84  86
ENDBRANCH  83  84
ENDBRANCH  82  83
ENDBRANCH  81  82
ENDBRANCH  80  81
ENDBRANCH  79  80
ENDBRANCH  78  79
ENDBRANCH  77  78
ENDBRANCH   1  77
TORSDOF 24
