REMARK SMILES Cc1nsc(NCCn2cccn2)c1C(=O)OCCOCCOCCOCCOC(=O)c1ccc(-c2c3nc(c(-c4c(F)cc(S(=O)(=O)[O-])cc4F)c4ccc([nH]4)c(-c4c(F)cc(S(=O)(=O)[O-])cc4F)c4nc(c(-c5c(F)cc(S(=O)(=O)[O-])cc5F)c5ccc2[nH]5)C=C4)C=C3)cc1
REMARK SMILES IDX 22 1 21 2 20 3 19 4 18 5 17 6 15 7 16 8 14 9 1 10 2 11 3 12
REMARK SMILES IDX 4 13 5 14 6 15 7 17 8 18 9 19 10 20 13 21 11 22 12 23 23 24
REMARK SMILES IDX 24 25 25 26 26 27 27 28 28 29 29 30 30 31 31 32 32 33 33 34
REMARK SMILES IDX 97 35 34 36 96 37 35 38 36 39 37 40 90 41 38 42 95 43 89 44
REMARK SMILES IDX 91 45 39 46 94 47 88 48 87 49 40 51 74 52 53 53 73 54 54 55
REMARK SMILES IDX 57 56 72 57 92 58 55 59 56 60 71 62 93 63 58 64 41 65 42 66
REMARK SMILES IDX 51 67 43 68 44 69 50 70 52 71 45 72 46 73 47 74 48 75 49 76
REMARK SMILES IDX 75 77 76 78 85 79 77 80 78 81 84 82 86 83 79 84 80 85 81 86
REMARK SMILES IDX 82 87 83 88 59 89 60 90 69 91 61 92 62 93 68 94 70 95 63 96
REMARK SMILES IDX 64 97 65 98 66 99 67 100
REMARK H PARENT 6 16 91 50 57 61
REMARK Flexibility Score: inf
ROOT
ATOM      1  C   UNL     1      -0.039   3.245  -1.742  1.00  0.00     0.188 C 
ENDROOT
BRANCH   1   2
ATOM      2  C   UNL     1       1.050   4.323  -1.554  1.00  0.00     0.188 C 
BRANCH   2   3
ATOM      3  O   UNL     1       1.950   4.401  -2.645  1.00  0.00    -0.376 OA
BRANCH   3   4
ATOM      4  C   UNL     1       3.234   3.826  -2.567  1.00  0.00     0.202 C 
BRANCH   4   5
ATOM      5  C   UNL     1       3.483   2.428  -1.978  1.00  0.00     0.261 C 
BRANCH   5   6
ATOM      6  O   UNL     1       2.585   1.971  -0.966  1.00  0.00    -0.460 OA
BRANCH   6   7
ATOM      7  C   UNL     1       2.786   2.406   0.304  1.00  0.00     0.343 C 
ATOM      8  O   UNL     1       3.746   3.084   0.654  1.00  0.00    -0.246 OA
BRANCH   7   9
ATOM      9  C   UNL     1       1.642   2.102   1.153  1.00  0.00     0.117 A 
ATOM     10  C   UNL     1       1.145  -0.316   0.292  1.00  0.00     0.069 C 
ATOM     11  C   UNL     1       0.891   0.869   1.160  1.00  0.00     0.068 A 
ATOM     12  N   UNL     1      -0.138   0.816   2.004  1.00  0.00    -0.195 NA
ATOM     13  S   UNL     1      -0.304   2.281   2.740  1.00  0.00    -0.018 S 
ATOM     14  C   UNL     1       1.023   3.050   1.964  1.00  0.00     0.124 A 
BRANCH  14  15
ATOM     15  N   UNL     1       1.369   4.358   2.080  1.00  0.00    -0.373 N 
ATOM     16  H   UNL     1       2.224   4.628   1.673  1.00  0.00     0.161 HD
BRANCH  15  17
ATOM     17  C   UNL     1       0.604   5.400   2.746  1.00  0.00     0.137 C 
BRANCH  17  18
ATOM     18  C   UNL     1       1.557   6.477   3.276  1.00  0.00     0.165 C 
BRANCH  18  19
ATOM     19  N   UNL     1       2.157   7.265   2.214  1.00  0.00    -0.271 N 
ATOM     20  C   UNL     1       2.035   8.610   2.015  1.00  0.00     0.108 A 
ATOM     21  N   UNL     1       2.939   6.663   1.294  1.00  0.00    -0.181 NA
ATOM     22  C   UNL     1       2.758   8.893   0.880  1.00  0.00     0.042 A 
ATOM     23  C   UNL     1       3.287   7.655   0.472  1.00  0.00     0.135 A 
ENDBRANCH  18  19
ENDBRANCH  17  18
ENDBRANCH  15  17
ENDBRANCH  14  15
ENDBRANCH   7   9
ENDBRANCH   6   7
ENDBRANCH   5   6
ENDBRANCH   4   5
ENDBRANCH   3   4
ENDBRANCH   2   3
ENDBRANCH   1   2
BRANCH   1  24
ATOM     24  O   UNL     1       0.214   2.266  -2.736  1.00  0.00    -0.377 OA
BRANCH  24  25
ATOM     25  C   UNL     1       0.274   2.656  -4.108  1.00  0.00     0.188 C 
BRANCH  25  26
ATOM     26  C   UNL     1       0.067   4.115  -4.617  1.00  0.00     0.188 C 
BRANCH  26  27
ATOM     27  O   UNL     1      -0.395   5.059  -3.667  1.00  0.00    -0.376 OA
BRANCH  27  28
ATOM     28  C   UNL     1      -1.698   5.600  -3.648  1.00  0.00     0.202 C 
BRANCH  28  29
ATOM     29  C   UNL     1      -2.899   4.669  -3.553  1.00  0.00     0.261 C 
BRANCH  29  30
ATOM     30  O   UNL     1      -2.709   3.438  -4.212  1.00  0.00    -0.460 OA
BRANCH  30  31
ATOM     31  C   UNL     1      -2.743   3.520  -5.550  1.00  0.00     0.338 C 
ATOM     32  O   UNL     1      -2.746   4.543  -6.232  1.00  0.00    -0.246 OA
BRANCH  31  33
ATOM     33  C   UNL     1      -2.845   2.166  -6.074  1.00  0.00     0.060 A 
ATOM     34  C   UNL     1      -2.712   2.016  -7.453  1.00  0.00     0.016 A 
ATOM     35  C   UNL     1      -3.408   1.179  -5.247  1.00  0.00     0.016 A 
ATOM     36  C   UNL     1      -3.427   1.009  -8.045  1.00  0.00     0.010 A 
ATOM     37  C   UNL     1      -4.130   0.185  -5.838  1.00  0.00     0.010 A 
ATOM     38  C   UNL     1      -4.224   0.204  -7.225  1.00  0.00    -0.014 A 
BRANCH  38  39
ATOM     39  C   UNL     1      -5.224  -0.617  -7.855  1.00  0.00     0.031 A 
ATOM     40  C   UNL     1      -4.654  -1.832  -8.455  1.00  0.00     0.074 A 
ATOM     41  C   UNL     1      -6.528  -0.292  -7.779  1.00  0.00     0.049 A 
ATOM     42  N   UNL     1      -4.489  -2.086  -9.709  1.00  0.00    -0.248 NA
ATOM     43  C   UNL     1      -3.981  -2.777  -7.549  1.00  0.00     0.031 C 
ATOM     44  C   UNL     1      -7.161   0.762  -6.976  1.00  0.00     0.029 A 
ATOM     45  N   UNL     1      -7.587  -0.916  -8.349  1.00  0.00    -0.354 N 
ATOM     46  C   UNL     1      -3.932  -3.355  -9.741  1.00  0.00     0.074 A 
ATOM     47  C   UNL     1      -3.422  -3.615  -8.421  1.00  0.00     0.031 C 
ATOM     48  C   UNL     1      -8.497   0.551  -6.938  1.00  0.00     0.029 A 
ATOM     49  C   UNL     1      -8.818  -0.559  -7.817  1.00  0.00     0.049 A 
ATOM     50  H   UNL     1      -7.491  -1.567  -9.081  1.00  0.00     0.167 HD
ATOM     51  C   UNL     1      -4.221  -4.215 -10.752  1.00  0.00     0.037 A 
ATOM     52  C   UNL     1      -9.989  -1.212  -8.029  1.00  0.00     0.037 A 
ATOM     53  C   UNL     1      -4.769  -3.526 -11.893  1.00  0.00     0.049 A 
ATOM     54  C   UNL     1      -9.818  -1.997  -9.284  1.00  0.00     0.074 A 
ATOM     55  C   UNL     1      -4.308  -2.545 -12.748  1.00  0.00     0.029 A 
ATOM     56  N   UNL     1      -6.136  -3.550 -12.044  1.00  0.00    -0.354 N 
ATOM     57  N   UNL     1      -9.633  -1.448 -10.457  1.00  0.00    -0.248 NA
ATOM     58  C   UNL     1      -9.362  -3.374  -9.171  1.00  0.00     0.031 C 
ATOM     59  C   UNL     1      -5.446  -1.737 -13.043  1.00  0.00     0.029 A 
ATOM     60  C   UNL     1      -6.553  -2.291 -12.396  1.00  0.00     0.049 A 
ATOM     61  H   UNL     1      -6.715  -4.337 -11.921  1.00  0.00     0.167 HD
ATOM     62  C   UNL     1      -8.684  -2.244 -11.087  1.00  0.00     0.074 A 
ATOM     63  C   UNL     1      -8.622  -3.462 -10.281  1.00  0.00     0.031 C 
ATOM     64  C   UNL     1      -7.836  -1.724 -12.026  1.00  0.00     0.037 A 
BRANCH  51  65
ATOM     65  C   UNL     1      -4.392  -5.695 -10.534  1.00  0.00     0.058 A 
ATOM     66  C   UNL     1      -4.442  -6.553 -11.646  1.00  0.00     0.135 A 
ATOM     67  C   UNL     1      -4.781  -6.266  -9.299  1.00  0.00     0.135 A 
ATOM     68  F   UNL     1      -4.116  -6.103 -12.869  1.00  0.00    -0.206 F 
ATOM     69  C   UNL     1      -4.899  -7.867 -11.548  1.00  0.00     0.059 A 
ATOM     70  C   UNL     1      -5.177  -7.588  -9.167  1.00  0.00     0.059 A 
ATOM     71  F   UNL     1      -4.897  -5.546  -8.176  1.00  0.00    -0.206 F 
ATOM     72  C   UNL     1      -5.276  -8.369 -10.304  1.00  0.00     0.060 A 
BRANCH  72  73
ATOM     73  S   UNL     1      -5.971 -10.024 -10.188  1.00  0.00     0.124 S 
ATOM     74  O   UNL     1      -7.254  -9.845 -10.858  1.00  0.00    -0.237 OA
ATOM     75  O   UNL     1      -4.978 -10.818 -10.902  1.00  0.00    -0.237 OA
ATOM     76  O   UNL     1      -6.037 -10.260  -8.749  1.00  0.00    -0.744 OA
ENDBRANCH  72  73
ENDBRANCH  51  65
BRANCH  52  77
ATOM     77  C   UNL     1     -11.019  -1.515  -6.998  1.00  0.00     0.058 A 
ATOM     78  C   UNL     1     -12.316  -1.933  -7.341  1.00  0.00     0.135 A 
ATOM     79  C   UNL     1     -10.672  -1.633  -5.635  1.00  0.00     0.135 A 
ATOM     80  F   UNL     1     -12.718  -1.897  -8.621  1.00  0.00    -0.206 F 
ATOM     81  C   UNL     1     -13.210  -2.448  -6.392  1.00  0.00     0.059 A 
ATOM     82  C   UNL     1     -11.546  -2.133  -4.672  1.00  0.00     0.059 A 
ATOM     83  F   UNL     1      -9.434  -1.342  -5.208  1.00  0.00    -0.206 F 
ATOM     84  C   UNL     1     -12.812  -2.552  -5.058  1.00  0.00     0.060 A 
BRANCH  84  85
ATOM     85  S   UNL     1     -13.916  -3.318  -3.846  1.00  0.00     0.124 S 
ATOM     86  O   UNL     1     -15.002  -2.347  -3.772  1.00  0.00    -0.237 OA
ATOM     87  O   UNL     1     -14.240  -4.589  -4.484  1.00  0.00    -0.237 OA
ATOM     88  O   UNL     1     -13.088  -3.418  -2.647  1.00  0.00    -0.744 OA
ENDBRANCH  84  85
ENDBRANCH  52  77
BRANCH  64  89
ATOM     89  C   UNL     1      -8.140  -0.344 -12.562  1.00  0.00     0.058 A 
ATOM     90  C   UNL     1      -8.037   0.838 -11.805  1.00  0.00     0.135 A 
ATOM     91  C   UNL     1      -8.383  -0.200 -13.935  1.00  0.00     0.135 A 
ATOM     92  F   UNL     1      -7.708   0.795 -10.507  1.00  0.00    -0.206 F 
ATOM     93  C   UNL     1      -8.201   2.101 -12.379  1.00  0.00     0.059 A 
ATOM     94  C   UNL     1      -8.522   1.050 -14.535  1.00  0.00     0.059 A 
ATOM     95  F   UNL     1      -8.429  -1.285 -14.725  1.00  0.00    -0.206 F 
ATOM     96  C   UNL     1      -8.438   2.198 -13.749  1.00  0.00     0.060 A 
BRANCH  96  97
ATOM     97  S   UNL     1      -8.557   3.833 -14.510  1.00  0.00     0.124 S 
ATOM     98  O   UNL     1      -9.842   4.312 -14.012  1.00  0.00    -0.237 OA
ATOM     99  O   UNL     1      -7.379   4.516 -13.982  1.00  0.00    -0.237 OA
ATOM    100  O   UNL     1      -8.510   3.547 -15.942  1.00  0.00    -0.744 OA
ENDBRANCH  96  97
ENDBRANCH  64  89
ENDBRANCH  38  39
ENDBRANCH  31  33
ENDBRANCH  30  31
ENDBRANCH  29  30
ENDBRANCH  28  29
ENDBRANCH  27  28
ENDBRANCH  26  27
ENDBRANCH  25  26
ENDBRANCH  24  25
ENDBRANCH   1  24
TORSDOF 27
