REMARK SMILES CSCC[C@H](NC(=O)N[C@@H]1CCCCC1(C)C)C(=O)OCCOCCOCCOCCOC(=O)c1ccc(-c2c3nc(c(-c4c(F)cc(S(=O)(=O)[O-])cc4F)c4ccc([nH]4)c(-c4c(F)cc(S(=O)(=O)[O-])cc4F)c4nc(c(-c5c(F)cc(S(=O)(=O)[O-])cc5F)c5ccc2[nH]5)C=C4)C=C3)cc1
REMARK SMILES IDX 26 1 25 2 24 3 23 4 22 5 21 6 20 7 18 8 19 9 5 10 4 11 3 12
REMARK SMILES IDX 2 13 1 14 6 15 7 16 8 18 9 19 10 21 11 22 15 23 12 24 14 25
REMARK SMILES IDX 16 26 17 27 13 28 27 29 28 30 29 31 30 32 31 33 32 34 33 35
REMARK SMILES IDX 34 36 35 37 36 38 100 39 37 40 99 41 38 42 39 43 40 44 93 45
REMARK SMILES IDX 41 46 98 47 92 48 94 49 42 50 97 51 91 52 90 53 43 55 77 56
REMARK SMILES IDX 56 57 76 58 57 59 60 60 75 61 95 62 58 63 59 64 74 66 96 67
REMARK SMILES IDX 61 68 44 69 45 70 54 71 46 72 47 73 53 74 55 75 48 76 49 77
REMARK SMILES IDX 50 78 51 79 52 80 78 81 79 82 88 83 80 84 81 85 87 86 89 87
REMARK SMILES IDX 82 88 83 89 84 90 85 91 86 92 62 93 63 94 72 95 64 96 65 97
REMARK SMILES IDX 71 98 73 99 66 100 67 101 68 102 69 103 70 104
REMARK H PARENT 6 17 9 20 94 54 60 65
REMARK Flexibility Score: inf
ROOT
ATOM      1  O   UNL     1      -2.371   0.928  -5.388  1.00  0.00    -0.377 OA
ENDROOT
BRANCH   1   2
ATOM      2  C   UNL     1      -1.638   1.323  -4.242  1.00  0.00     0.188 C 
BRANCH   2   3
ATOM      3  C   UNL     1      -1.978   2.681  -3.592  1.00  0.00     0.188 C 
BRANCH   3   4
ATOM      4  O   UNL     1      -1.853   3.777  -4.489  1.00  0.00    -0.376 OA
BRANCH   4   5
ATOM      5  C   UNL     1      -0.657   4.541  -4.508  1.00  0.00     0.202 C 
BRANCH   5   6
ATOM      6  C   UNL     1       0.661   3.818  -4.839  1.00  0.00     0.261 C 
BRANCH   6   7
ATOM      7  O   UNL     1       0.937   2.650  -4.042  1.00  0.00    -0.462 OA
BRANCH   7   8
ATOM      8  C   UNL     1       1.141   2.850  -2.722  1.00  0.00     0.328 C 
ATOM      9  O   UNL     1       1.214   3.967  -2.223  1.00  0.00    -0.250 OA
BRANCH   8  10
ATOM     10  C   UNL     1       1.077   1.538  -1.882  1.00  0.00     0.194 C 
BRANCH  10  11
ATOM     11  C   UNL     1       2.006   1.670  -0.673  1.00  0.00     0.048 C 
BRANCH  11  12
ATOM     12  C   UNL     1       1.708   2.729   0.385  1.00  0.00     0.072 C 
BRANCH  12  13
ATOM     13  S   UNL     1       1.074   2.044   1.941  1.00  0.00    -0.165 SA
ATOM     14  C   UNL     1      -0.565   1.553   1.379  1.00  0.00     0.085 C 
ENDBRANCH  12  13
ENDBRANCH  11  12
ENDBRANCH  10  11
BRANCH  10  15
ATOM     15  N   UNL     1       1.100   0.207  -2.587  1.00  0.00    -0.325 N 
ATOM     16  C   UNL     1       1.897  -0.781  -3.016  1.00  0.00     0.315 C 
ATOM     17  H   UNL     1       0.173  -0.028  -2.822  1.00  0.00     0.166 HD
ATOM     18  O   UNL     1       1.341  -1.741  -3.558  1.00  0.00    -0.249 OA
ATOM     19  N   UNL     1       3.230  -0.828  -2.895  1.00  0.00    -0.335 N 
ATOM     20  H   UNL     1       3.648  -1.676  -3.169  1.00  0.00     0.165 HD
BRANCH  19  21
ATOM     21  C   UNL     1       4.141   0.181  -2.423  1.00  0.00     0.089 C 
ATOM     22  C   UNL     1       4.181   1.336  -3.429  1.00  0.00     0.025 C 
ATOM     23  C   UNL     1       5.546  -0.261  -1.934  1.00  0.00    -0.015 C 
ATOM     24  C   UNL     1       5.106   1.033  -4.596  1.00  0.00     0.002 C 
ATOM     25  C   UNL     1       6.510  -0.455  -3.119  1.00  0.00     0.008 C 
ATOM     26  C   UNL     1       6.078   0.853  -0.986  1.00  0.00     0.013 C 
ATOM     27  C   UNL     1       5.475  -1.550  -1.092  1.00  0.00     0.013 C 
ATOM     28  C   UNL     1       6.509   0.715  -4.104  1.00  0.00     0.001 C 
ENDBRANCH  19  21
ENDBRANCH  10  15
ENDBRANCH   8  10
ENDBRANCH   7   8
ENDBRANCH   6   7
ENDBRANCH   5   6
ENDBRANCH   4   5
ENDBRANCH   3   4
ENDBRANCH   2   3
ENDBRANCH   1   2
BRANCH   1  29
ATOM     29  C   UNL     1      -2.506   1.929  -6.391  1.00  0.00     0.188 C 
BRANCH  29  30
ATOM     30  C   UNL     1      -3.841   2.679  -6.246  1.00  0.00     0.188 C 
BRANCH  30  31
ATOM     31  O   UNL     1      -4.530   2.409  -5.037  1.00  0.00    -0.376 OA
BRANCH  31  32
ATOM     32  C   UNL     1      -5.240   1.193  -4.847  1.00  0.00     0.202 C 
BRANCH  32  33
ATOM     33  C   UNL     1      -4.991  -0.151  -5.571  1.00  0.00     0.261 C 
BRANCH  33  34
ATOM     34  O   UNL     1      -4.435  -0.157  -6.886  1.00  0.00    -0.460 OA
BRANCH  34  35
ATOM     35  C   UNL     1      -5.184   0.325  -7.904  1.00  0.00     0.338 C 
ATOM     36  O   UNL     1      -6.305   0.753  -7.846  1.00  0.00    -0.246 OA
BRANCH  35  37
ATOM     37  C   UNL     1      -4.256   0.442  -9.061  1.00  0.00     0.060 A 
ATOM     38  C   UNL     1      -4.086   1.699  -9.658  1.00  0.00     0.016 A 
ATOM     39  C   UNL     1      -3.503  -0.654  -9.496  1.00  0.00     0.016 A 
ATOM     40  C   UNL     1      -3.185   1.857 -10.709  1.00  0.00     0.010 A 
ATOM     41  C   UNL     1      -2.633  -0.506 -10.578  1.00  0.00     0.010 A 
ATOM     42  C   UNL     1      -2.501   0.742 -11.210  1.00  0.00    -0.014 A 
BRANCH  42  43
ATOM     43  C   UNL     1      -1.894   0.829 -12.557  1.00  0.00     0.031 A 
ATOM     44  C   UNL     1      -2.765   0.456 -13.726  1.00  0.00     0.074 A 
ATOM     45  C   UNL     1      -0.635   1.260 -12.747  1.00  0.00     0.049 A 
ATOM     46  N   UNL     1      -2.480   0.425 -15.000  1.00  0.00    -0.248 NA
ATOM     47  C   UNL     1      -4.152   0.068 -13.410  1.00  0.00     0.031 C 
ATOM     48  C   UNL     1       0.282   1.693 -11.695  1.00  0.00     0.029 A 
ATOM     49  N   UNL     1       0.090   1.397 -13.904  1.00  0.00    -0.354 N 
ATOM     50  C   UNL     1      -3.646   0.012 -15.634  1.00  0.00     0.074 A 
ATOM     51  C   UNL     1      -4.634  -0.222 -14.607  1.00  0.00     0.031 C 
ATOM     52  C   UNL     1       1.457   2.033 -12.255  1.00  0.00     0.029 A 
ATOM     53  C   UNL     1       1.384   1.813 -13.700  1.00  0.00     0.049 A 
ATOM     54  H   UNL     1      -0.282   1.215 -14.797  1.00  0.00     0.167 HD
ATOM     55  C   UNL     1      -3.874  -0.151 -16.957  1.00  0.00     0.037 A 
ATOM     56  C   UNL     1       2.393   1.971 -14.580  1.00  0.00     0.037 A 
ATOM     57  C   UNL     1      -2.880   0.071 -17.971  1.00  0.00     0.049 A 
ATOM     58  C   UNL     1       2.139   1.706 -16.044  1.00  0.00     0.074 A 
ATOM     59  C   UNL     1      -3.007  -0.060 -19.341  1.00  0.00     0.029 A 
ATOM     60  N   UNL     1      -1.572   0.459 -17.722  1.00  0.00    -0.354 N 
ATOM     61  N   UNL     1       1.026   1.339 -16.637  1.00  0.00    -0.248 NA
ATOM     62  C   UNL     1       3.275   1.881 -16.961  1.00  0.00     0.031 C 
ATOM     63  C   UNL     1      -1.759   0.196 -19.918  1.00  0.00     0.029 A 
ATOM     64  C   UNL     1      -0.872   0.547 -18.913  1.00  0.00     0.049 A 
ATOM     65  H   UNL     1      -1.197   0.645 -16.831  1.00  0.00     0.167 HD
ATOM     66  C   UNL     1       1.321   1.268 -17.995  1.00  0.00     0.074 A 
ATOM     67  C   UNL     1       2.713   1.641 -18.138  1.00  0.00     0.031 C 
ATOM     68  C   UNL     1       0.514   0.930 -19.033  1.00  0.00     0.037 A 
BRANCH  55  69
ATOM     69  C   UNL     1      -5.237  -0.628 -17.372  1.00  0.00     0.058 A 
ATOM     70  C   UNL     1      -6.370   0.196 -17.281  1.00  0.00     0.135 A 
ATOM     71  C   UNL     1      -5.408  -1.924 -17.884  1.00  0.00     0.135 A 
ATOM     72  F   UNL     1      -6.267   1.434 -16.772  1.00  0.00    -0.206 F 
ATOM     73  C   UNL     1      -7.628  -0.254 -17.667  1.00  0.00     0.059 A 
ATOM     74  C   UNL     1      -6.651  -2.385 -18.303  1.00  0.00     0.059 A 
ATOM     75  F   UNL     1      -4.359  -2.756 -17.980  1.00  0.00    -0.206 F 
ATOM     76  C   UNL     1      -7.758  -1.546 -18.180  1.00  0.00     0.060 A 
BRANCH  76  77
ATOM     77  S   UNL     1      -9.394  -2.109 -18.693  1.00  0.00     0.124 S 
ATOM     78  O   UNL     1     -10.061  -2.278 -17.406  1.00  0.00    -0.237 OA
ATOM     79  O   UNL     1      -9.864  -0.995 -19.509  1.00  0.00    -0.237 OA
ATOM     80  O   UNL     1      -9.117  -3.343 -19.422  1.00  0.00    -0.744 OA
ENDBRANCH  76  77
ENDBRANCH  55  69
BRANCH  56  81
ATOM     81  C   UNL     1       3.744   2.380 -14.104  1.00  0.00     0.058 A 
ATOM     82  C   UNL     1       4.286   3.631 -14.434  1.00  0.00     0.135 A 
ATOM     83  C   UNL     1       4.526   1.519 -13.318  1.00  0.00     0.135 A 
ATOM     84  F   UNL     1       3.586   4.485 -15.196  1.00  0.00    -0.206 F 
ATOM     85  C   UNL     1       5.558   4.009 -14.015  1.00  0.00     0.059 A 
ATOM     86  C   UNL     1       5.789   1.885 -12.863  1.00  0.00     0.059 A 
ATOM     87  F   UNL     1       4.053   0.312 -12.968  1.00  0.00    -0.206 F 
ATOM     88  C   UNL     1       6.301   3.129 -13.225  1.00  0.00     0.060 A 
BRANCH  88  89
ATOM     89  S   UNL     1       7.929   3.651 -12.643  1.00  0.00     0.124 S 
ATOM     90  O   UNL     1       8.715   3.589 -13.869  1.00  0.00    -0.237 OA
ATOM     91  O   UNL     1       7.654   4.988 -12.126  1.00  0.00    -0.237 OA
ATOM     92  O   UNL     1       8.258   2.652 -11.629  1.00  0.00    -0.744 OA
ENDBRANCH  88  89
ENDBRANCH  56  81
BRANCH  68  93
ATOM     93  C   UNL     1       1.097   0.986 -20.419  1.00  0.00     0.058 A 
ATOM     94  C   UNL     1       2.027   0.038 -20.870  1.00  0.00     0.135 A 
ATOM     95  C   UNL     1       0.664   1.964 -21.329  1.00  0.00     0.135 A 
ATOM     96  F   UNL     1       2.477  -0.917 -20.041  1.00  0.00    -0.206 F 
ATOM     97  C   UNL     1       2.527   0.072 -22.169  1.00  0.00     0.059 A 
ATOM     98  C   UNL     1       1.126   1.999 -22.640  1.00  0.00     0.059 A 
ATOM     99  F   UNL     1      -0.237   2.887 -20.953  1.00  0.00    -0.206 F 
ATOM    100  C   UNL     1       2.068   1.056 -23.047  1.00  0.00     0.060 A 
BRANCH 100 101
ATOM    101  S   UNL     1       2.699   1.069 -24.739  1.00  0.00     0.124 S 
ATOM    102  O   UNL     1       4.058   1.562 -24.542  1.00  0.00    -0.237 OA
ATOM    103  O   UNL     1       2.583  -0.334 -25.126  1.00  0.00    -0.237 OA
ATOM    104  O   UNL     1       1.794   1.980 -25.433  1.00  0.00    -0.744 OA
ENDBRANCH 100 101
ENDBRANCH  68  93
ENDBRANCH  42  43
ENDBRANCH  35  37
ENDBRANCH  34  35
ENDBRANCH  33  34
ENDBRANCH  32  33
ENDBRANCH  31  32
ENDBRANCH  30  31
ENDBRANCH  29  30
ENDBRANCH   1  29
TORSDOF 28
