REMARK SMILES CC(C)(C)c1cc2c(cc1Cl)C=C(C(=O)OCCOCCOCCOCCOC(=O)c1ccc(-c3c4nc(c(-c5c(F)cc(S(=O)(=O)[O-])cc5F)c5ccc([nH]5)c(-c5c(F)cc(S(=O)(=O)[O-])cc5F)c5nc(c(-c6c(F)cc(S(=O)(=O)[O-])cc6F)c6ccc3[nH]6)C=C5)C=C4)cc1)[C@@H](C(F)(F)F)O2
REMARK SMILES IDX 23 1 22 2 21 3 20 4 19 5 18 6 17 7 16 8 14 9 15 10 13 11
REMARK SMILES IDX 5 12 6 13 10 14 7 15 9 16 11 17 8 18 102 19 12 20 97 21 2 22
REMARK SMILES IDX 1 23 3 24 4 25 98 26 99 27 100 28 101 29 24 30 25 31 26 32
REMARK SMILES IDX 27 33 28 34 29 35 30 36 31 37 32 38 96 39 33 40 95 41 34 42
REMARK SMILES IDX 35 43 36 44 89 45 37 46 94 47 88 48 90 49 38 50 93 51 87 52
REMARK SMILES IDX 86 53 39 55 73 56 52 57 72 58 53 59 56 60 71 61 91 62 54 63
REMARK SMILES IDX 55 64 70 66 92 67 57 68 40 69 41 70 50 71 42 72 43 73 49 74
REMARK SMILES IDX 51 75 44 76 45 77 46 78 47 79 48 80 74 81 75 82 84 83 76 84
REMARK SMILES IDX 77 85 83 86 85 87 78 88 79 89 80 90 81 91 82 92 58 93 59 94
REMARK SMILES IDX 68 95 60 96 61 97 67 98 69 99 62 100 63 101 64 102 65 103
REMARK SMILES IDX 66 104
REMARK H PARENT 90 54 56 65
REMARK Flexibility Score: inf
ROOT
ATOM      1  C   UNL     1       1.050  10.726   1.834  1.00  0.00     0.188 C 
ENDROOT
BRANCH   1   2
ATOM      2  O   UNL     1       1.016   9.658   0.887  1.00  0.00    -0.377 OA
BRANCH   2   3
ATOM      3  C   UNL     1       2.001   8.645   0.995  1.00  0.00     0.188 C 
BRANCH   3   4
ATOM      4  C   UNL     1       3.352   9.047   0.379  1.00  0.00     0.188 C 
BRANCH   4   5
ATOM      5  O   UNL     1       3.446  10.439   0.088  1.00  0.00    -0.376 OA
BRANCH   5   6
ATOM      6  C   UNL     1       3.284  10.839  -1.268  1.00  0.00     0.202 C 
BRANCH   6   7
ATOM      7  C   UNL     1       1.903  10.639  -1.912  1.00  0.00     0.261 C 
BRANCH   7   8
ATOM      8  O   UNL     1       1.403   9.294  -1.881  1.00  0.00    -0.460 OA
BRANCH   8   9
ATOM      9  C   UNL     1       2.075   8.360  -2.578  1.00  0.00     0.338 C 
ATOM     10  O   UNL     1       3.050   8.533  -3.288  1.00  0.00    -0.246 OA
BRANCH   9  11
ATOM     11  C   UNL     1       1.549   7.035  -2.181  1.00  0.00     0.087 C 
ATOM     12  C   UNL     1       0.986   2.123  -1.119  1.00  0.00    -0.020 A 
ATOM     13  C   UNL     1       0.123   3.238  -1.249  1.00  0.00     0.053 A 
ATOM     14  C   UNL     1       2.370   2.416  -1.092  1.00  0.00     0.045 A 
ATOM     15  C   UNL     1       0.599   4.538  -1.461  1.00  0.00     0.128 A 
ATOM     16  C   UNL     1       2.844   3.723  -1.294  1.00  0.00     0.032 A 
ATOM     17  Cl  UNL     1       3.616   1.236  -0.863  1.00  0.00    -0.084 Cl
ATOM     18  C   UNL     1       1.962   4.774  -1.534  1.00  0.00     0.019 A 
ATOM     19  O   UNL     1      -0.349   5.506  -1.618  1.00  0.00    -0.475 OA
ATOM     20  C   UNL     1       2.454   6.083  -1.919  1.00  0.00     0.027 C 
ATOM     21  C   UNL     1       0.061   6.846  -2.019  1.00  0.00     0.316 C 
BRANCH  12  22
ATOM     22  C   UNL     1       0.394   0.691  -1.122  1.00  0.00    -0.012 C 
ATOM     23  C   UNL     1       0.781  -0.117   0.134  1.00  0.00     0.016 C 
ATOM     24  C   UNL     1       0.860  -0.046  -2.401  1.00  0.00     0.016 C 
ATOM     25  C   UNL     1      -1.159   0.657  -1.169  1.00  0.00     0.016 C 
ENDBRANCH  12  22
BRANCH  21  26
ATOM     26  C   UNL     1      -0.713   7.221  -3.291  1.00  0.00     0.430 C 
ATOM     27  F   UNL     1      -2.039   6.996  -3.140  1.00  0.00    -0.167 F 
ATOM     28  F   UNL     1      -0.563   8.524  -3.611  1.00  0.00    -0.167 F 
ATOM     29  F   UNL     1      -0.296   6.491  -4.353  1.00  0.00    -0.167 F 
ENDBRANCH  21  26
ENDBRANCH   9  11
ENDBRANCH   8   9
ENDBRANCH   7   8
ENDBRANCH   6   7
ENDBRANCH   5   6
ENDBRANCH   4   5
ENDBRANCH   3   4
ENDBRANCH   2   3
ENDBRANCH   1   2
BRANCH   1  30
ATOM     30  C   UNL     1       2.320  11.060   2.652  1.00  0.00     0.188 C 
BRANCH  30  31
ATOM     31  O   UNL     1       2.978   9.921   3.203  1.00  0.00    -0.376 OA
BRANCH  31  32
ATOM     32  C   UNL     1       2.884   9.748   4.611  1.00  0.00     0.202 C 
BRANCH  32  33
ATOM     33  C   UNL     1       1.541   9.177   5.077  1.00  0.00     0.261 C 
BRANCH  33  34
ATOM     34  O   UNL     1       0.401  10.007   4.814  1.00  0.00    -0.460 OA
BRANCH  34  35
ATOM     35  C   UNL     1       0.390  11.249   5.348  1.00  0.00     0.338 C 
ATOM     36  O   UNL     1       1.226  11.740   6.086  1.00  0.00    -0.246 OA
BRANCH  35  37
ATOM     37  C   UNL     1      -0.721  11.988   4.712  1.00  0.00     0.060 A 
ATOM     38  C   UNL     1      -2.000  11.428   4.663  1.00  0.00     0.016 A 
ATOM     39  C   UNL     1      -0.466  13.233   4.124  1.00  0.00     0.016 A 
ATOM     40  C   UNL     1      -3.036  12.133   4.053  1.00  0.00     0.010 A 
ATOM     41  C   UNL     1      -1.504  13.935   3.507  1.00  0.00     0.010 A 
ATOM     42  C   UNL     1      -2.801  13.401   3.492  1.00  0.00    -0.014 A 
BRANCH  42  43
ATOM     43  C   UNL     1      -3.954  14.239   3.090  1.00  0.00     0.031 A 
ATOM     44  C   UNL     1      -4.376  14.392   1.662  1.00  0.00     0.074 A 
ATOM     45  C   UNL     1      -4.632  14.866   4.070  1.00  0.00     0.049 A 
ATOM     46  N   UNL     1      -5.427  15.007   1.183  1.00  0.00    -0.248 NA
ATOM     47  C   UNL     1      -3.511  13.787   0.641  1.00  0.00     0.031 C 
ATOM     48  C   UNL     1      -4.286  14.807   5.492  1.00  0.00     0.029 A 
ATOM     49  N   UNL     1      -5.748  15.658   4.029  1.00  0.00    -0.354 N 
ATOM     50  C   UNL     1      -5.370  14.846  -0.195  1.00  0.00     0.074 A 
ATOM     51  C   UNL     1      -4.150  14.114  -0.477  1.00  0.00     0.031 C 
ATOM     52  C   UNL     1      -5.188  15.509   6.191  1.00  0.00     0.029 A 
ATOM     53  C   UNL     1      -6.162  16.083   5.268  1.00  0.00     0.049 A 
ATOM     54  H   UNL     1      -6.209  15.900   3.193  1.00  0.00     0.167 HD
ATOM     55  C   UNL     1      -6.263  15.259  -1.128  1.00  0.00     0.037 A 
ATOM     56  C   UNL     1      -7.215  16.842   5.627  1.00  0.00     0.037 A 
ATOM     57  C   UNL     1      -7.460  16.010  -0.831  1.00  0.00     0.049 A 
ATOM     58  C   UNL     1      -8.168  17.318   4.571  1.00  0.00     0.074 A 
ATOM     59  C   UNL     1      -8.445  16.439  -1.704  1.00  0.00     0.029 A 
ATOM     60  N   UNL     1      -7.827  16.461   0.430  1.00  0.00    -0.354 N 
ATOM     61  N   UNL     1      -8.142  17.093   3.279  1.00  0.00    -0.248 NA
ATOM     62  C   UNL     1      -9.296  18.144   5.019  1.00  0.00     0.031 C 
ATOM     63  C   UNL     1      -9.378  17.192  -0.982  1.00  0.00     0.029 A 
ATOM     64  C   UNL     1      -9.005  17.189   0.353  1.00  0.00     0.049 A 
ATOM     65  H   UNL     1      -7.324  16.289   1.259  1.00  0.00     0.167 HD
ATOM     66  C   UNL     1      -9.258  17.736   2.760  1.00  0.00     0.074 A 
ATOM     67  C   UNL     1      -9.946  18.347   3.880  1.00  0.00     0.031 C 
ATOM     68  C   UNL     1      -9.675  17.809   1.471  1.00  0.00     0.037 A 
BRANCH  55  69
ATOM     69  C   UNL     1      -5.986  14.909  -2.565  1.00  0.00     0.058 A 
ATOM     70  C   UNL     1      -6.107  13.590  -3.033  1.00  0.00     0.135 A 
ATOM     71  C   UNL     1      -5.657  15.905  -3.499  1.00  0.00     0.135 A 
ATOM     72  F   UNL     1      -6.414  12.597  -2.183  1.00  0.00    -0.206 F 
ATOM     73  C   UNL     1      -5.886  13.267  -4.369  1.00  0.00     0.059 A 
ATOM     74  C   UNL     1      -5.456  15.609  -4.845  1.00  0.00     0.059 A 
ATOM     75  F   UNL     1      -5.534  17.183  -3.109  1.00  0.00    -0.206 F 
ATOM     76  C   UNL     1      -5.560  14.284  -5.268  1.00  0.00     0.060 A 
BRANCH  76  77
ATOM     77  S   UNL     1      -5.273  13.846  -6.996  1.00  0.00     0.124 S 
ATOM     78  O   UNL     1      -4.001  13.136  -6.908  1.00  0.00    -0.237 OA
ATOM     79  O   UNL     1      -6.438  13.024  -7.306  1.00  0.00    -0.237 OA
ATOM     80  O   UNL     1      -5.223  15.138  -7.672  1.00  0.00    -0.744 OA
ENDBRANCH  76  77
ENDBRANCH  55  69
BRANCH  56  81
ATOM     81  C   UNL     1      -7.431  17.142   7.064  1.00  0.00     0.058 A 
ATOM     82  C   UNL     1      -8.454  16.509   7.783  1.00  0.00     0.135 A 
ATOM     83  C   UNL     1      -6.570  18.002   7.763  1.00  0.00     0.135 A 
ATOM     84  F   UNL     1      -9.300  15.679   7.154  1.00  0.00    -0.206 F 
ATOM     85  C   UNL     1      -8.614  16.712   9.148  1.00  0.00     0.059 A 
ATOM     86  C   UNL     1      -6.696  18.205   9.133  1.00  0.00     0.059 A 
ATOM     87  F   UNL     1      -5.563  18.615   7.121  1.00  0.00    -0.206 F 
ATOM     88  C   UNL     1      -7.723  17.554   9.817  1.00  0.00     0.060 A 
BRANCH  88  89
ATOM     89  S   UNL     1      -7.890  17.738  11.605  1.00  0.00     0.124 S 
ATOM     90  O   UNL     1      -9.121  18.513  11.708  1.00  0.00    -0.237 OA
ATOM     91  O   UNL     1      -7.970  16.350  12.047  1.00  0.00    -0.237 OA
ATOM     92  O   UNL     1      -6.668  18.441  11.987  1.00  0.00    -0.744 OA
ENDBRANCH  88  89
ENDBRANCH  56  81
BRANCH  68  93
ATOM     93  C   UNL     1     -10.937  18.581   1.196  1.00  0.00     0.058 A 
ATOM     94  C   UNL     1     -10.967  19.983   1.256  1.00  0.00     0.135 A 
ATOM     95  C   UNL     1     -12.113  17.916   0.814  1.00  0.00     0.135 A 
ATOM     96  F   UNL     1      -9.873  20.668   1.626  1.00  0.00    -0.206 F 
ATOM     97  C   UNL     1     -12.123  20.698   0.961  1.00  0.00     0.059 A 
ATOM     98  C   UNL     1     -13.274  18.613   0.489  1.00  0.00     0.059 A 
ATOM     99  F   UNL     1     -12.137  16.576   0.735  1.00  0.00    -0.206 F 
ATOM    100  C   UNL     1     -13.271  20.004   0.573  1.00  0.00     0.060 A 
BRANCH 100 101
ATOM    101  S   UNL     1     -14.751  20.950   0.152  1.00  0.00     0.124 S 
ATOM    102  O   UNL     1     -15.175  21.431   1.463  1.00  0.00    -0.237 OA
ATOM    103  O   UNL     1     -14.223  21.964  -0.755  1.00  0.00    -0.237 OA
ATOM    104  O   UNL     1     -15.625  19.958  -0.465  1.00  0.00    -0.744 OA
ENDBRANCH 100 101
ENDBRANCH  68  93
ENDBRANCH  42  43
ENDBRANCH  35  37
ENDBRANCH  34  35
ENDBRANCH  33  34
ENDBRANCH  32  33
ENDBRANCH  31  32
ENDBRANCH  30  31
ENDBRANCH   1  30
TORSDOF 25
