REMARK SMILES C[C@@H]1CC[C@@](C(=O)OCCOCCOCCOCCOC(=O)c2ccc(-c3c4nc(c(-c5c(F)cc(S(=O)(=O)[O-])cc5F)c5ccc([nH]5)c(-c5c(F)cc(S(=O)(=O)[O-])cc5F)c5nc(c(-c6c(F)cc(S(=O)(=O)[O-])cc6F)c6ccc3[nH]6)C=C5)C=C4)cc2)([C@@H]2CCC[C@H](S(C)(=O)=O)C2)C1
REMARK SMILES IDX 15 1 14 2 13 3 12 4 11 5 10 6 9 7 8 8 6 9 7 10 5 11 1 12
REMARK SMILES IDX 2 13 3 14 99 15 4 16 89 17 90 18 98 19 91 20 93 21 92 22
REMARK SMILES IDX 94 23 95 24 96 25 97 26 16 27 17 28 18 29 19 30 20 31 21 32
REMARK SMILES IDX 22 33 23 34 24 35 88 36 25 37 87 38 26 39 27 40 28 41 81 42
REMARK SMILES IDX 29 43 86 44 80 45 82 46 30 47 85 48 79 49 78 50 31 52 65 53
REMARK SMILES IDX 44 54 64 55 45 56 48 57 63 58 83 59 46 60 47 61 62 63 84 64
REMARK SMILES IDX 49 65 32 66 33 67 42 68 34 69 35 70 41 71 43 72 36 73 37 74
REMARK SMILES IDX 38 75 39 76 40 77 66 78 67 79 76 80 68 81 69 82 75 83 77 84
REMARK SMILES IDX 70 85 71 86 72 87 73 88 74 89 50 90 51 91 60 92 52 93 53 94
REMARK SMILES IDX 59 95 61 96 54 97 55 98 56 99 57 100 58 101
REMARK H PARENT 82 51 48 62
REMARK Flexibility Score: inf
ROOT
ATOM      1  C   UNL     1      -1.359  -0.945  -5.409  1.00  0.00     0.188 C 
ENDROOT
BRANCH   1   2
ATOM      2  O   UNL     1      -1.905  -1.063  -4.116  1.00  0.00    -0.377 OA
BRANCH   2   3
ATOM      3  C   UNL     1      -1.764   0.078  -3.304  1.00  0.00     0.188 C 
BRANCH   3   4
ATOM      4  C   UNL     1      -2.307   1.415  -3.818  1.00  0.00     0.188 C 
BRANCH   4   5
ATOM      5  O   UNL     1      -1.471   2.149  -4.705  1.00  0.00    -0.376 OA
BRANCH   5   6
ATOM      6  C   UNL     1      -0.090   2.319  -4.398  1.00  0.00     0.202 C 
BRANCH   6   7
ATOM      7  C   UNL     1       0.370   2.722  -2.984  1.00  0.00     0.261 C 
BRANCH   7   8
ATOM      8  O   UNL     1       0.069   1.763  -1.944  1.00  0.00    -0.463 OA
BRANCH   8   9
ATOM      9  C   UNL     1      -0.782   2.168  -0.971  1.00  0.00     0.312 C 
ATOM     10  O   UNL     1      -1.289   3.287  -0.955  1.00  0.00    -0.252 OA
BRANCH   9  11
ATOM     11  C   UNL     1      -1.010   1.140   0.176  1.00  0.00     0.071 C 
ATOM     12  C   UNL     1       2.115   0.210  -0.118  1.00  0.00     0.007 C 
ATOM     13  C   UNL     1       1.119   0.185   1.047  1.00  0.00    -0.013 C 
ATOM     14  C   UNL     1       0.124  -0.947   0.884  1.00  0.00     0.004 C 
ATOM     15  C   UNL     1       0.186   1.409   1.138  1.00  0.00     0.022 C 
ATOM     16  C   UNL     1      -0.875  -0.383  -0.123  1.00  0.00     0.019 C 
BRANCH  11  17
ATOM     17  C   UNL     1      -2.464   1.473   0.745  1.00  0.00     0.008 C 
ATOM     18  C   UNL     1      -2.817   0.857   2.106  1.00  0.00     0.005 C 
ATOM     19  C   UNL     1      -3.570   1.095  -0.280  1.00  0.00     0.024 C 
ATOM     20  C   UNL     1      -4.226   1.273   2.542  1.00  0.00     0.002 C 
ATOM     21  C   UNL     1      -5.011   1.386   0.149  1.00  0.00     0.108 C 
ATOM     22  C   UNL     1      -5.291   0.832   1.542  1.00  0.00     0.020 C 
BRANCH  21  23
ATOM     23  S   UNL     1      -6.134   0.682  -1.097  1.00  0.00     0.150 S 
ATOM     24  C   UNL     1      -7.756   1.224  -0.619  1.00  0.00     0.158 C 
ATOM     25  O   UNL     1      -5.838   1.317  -2.369  1.00  0.00    -0.229 OA
ATOM     26  O   UNL     1      -6.109  -0.763  -0.981  1.00  0.00    -0.229 OA
ENDBRANCH  21  23
ENDBRANCH  11  17
ENDBRANCH   9  11
ENDBRANCH   8   9
ENDBRANCH   7   8
ENDBRANCH   6   7
ENDBRANCH   5   6
ENDBRANCH   4   5
ENDBRANCH   3   4
ENDBRANCH   2   3
ENDBRANCH   1   2
BRANCH   1  27
ATOM     27  C   UNL     1      -2.412  -0.574  -6.457  1.00  0.00     0.188 C 
BRANCH  27  28
ATOM     28  O   UNL     1      -3.715  -1.162  -6.459  1.00  0.00    -0.376 OA
BRANCH  28  29
ATOM     29  C   UNL     1      -4.242  -1.754  -5.280  1.00  0.00     0.202 C 
BRANCH  29  30
ATOM     30  C   UNL     1      -3.931  -3.256  -5.147  1.00  0.00     0.261 C 
BRANCH  30  31
ATOM     31  O   UNL     1      -2.587  -3.638  -5.485  1.00  0.00    -0.460 OA
BRANCH  31  32
ATOM     32  C   UNL     1      -2.353  -3.873  -6.800  1.00  0.00     0.338 C 
ATOM     33  O   UNL     1      -3.164  -3.862  -7.713  1.00  0.00    -0.246 OA
BRANCH  32  34
ATOM     34  C   UNL     1      -0.895  -4.018  -7.014  1.00  0.00     0.060 A 
ATOM     35  C   UNL     1      -0.274  -3.199  -7.968  1.00  0.00     0.016 A 
ATOM     36  C   UNL     1      -0.141  -4.934  -6.275  1.00  0.00     0.016 A 
ATOM     37  C   UNL     1       1.097  -3.302  -8.197  1.00  0.00     0.010 A 
ATOM     38  C   UNL     1       1.227  -5.068  -6.536  1.00  0.00     0.010 A 
ATOM     39  C   UNL     1       1.845  -4.272  -7.517  1.00  0.00    -0.014 A 
BRANCH  39  40
ATOM     40  C   UNL     1       3.202  -4.612  -8.008  1.00  0.00     0.031 A 
ATOM     41  C   UNL     1       3.316  -5.693  -9.049  1.00  0.00     0.074 A 
ATOM     42  C   UNL     1       4.299  -3.973  -7.561  1.00  0.00     0.049 A 
ATOM     43  N   UNL     1       4.384  -6.196  -9.609  1.00  0.00    -0.248 NA
ATOM     44  C   UNL     1       2.052  -6.286  -9.522  1.00  0.00     0.031 C 
ATOM     45  C   UNL     1       4.308  -2.889  -6.580  1.00  0.00     0.029 A 
ATOM     46  N   UNL     1       5.624  -4.158  -7.869  1.00  0.00    -0.354 N 
ATOM     47  C   UNL     1       3.923  -7.169 -10.488  1.00  0.00     0.074 A 
ATOM     48  C   UNL     1       2.482  -7.196 -10.382  1.00  0.00     0.031 C 
ATOM     49  C   UNL     1       5.583  -2.527  -6.343  1.00  0.00     0.029 A 
ATOM     50  C   UNL     1       6.478  -3.368  -7.137  1.00  0.00     0.049 A 
ATOM     51  H   UNL     1       5.934  -4.798  -8.551  1.00  0.00     0.167 HD
ATOM     52  C   UNL     1       4.640  -7.969 -11.309  1.00  0.00     0.037 A 
ATOM     53  C   UNL     1       7.827  -3.351  -7.094  1.00  0.00     0.037 A 
ATOM     54  C   UNL     1       6.073  -7.933 -11.417  1.00  0.00     0.049 A 
ATOM     55  C   UNL     1       8.604  -4.287  -7.989  1.00  0.00     0.074 A 
ATOM     56  C   UNL     1       6.889  -8.674 -12.252  1.00  0.00     0.029 A 
ATOM     57  N   UNL     1       6.902  -7.123 -10.657  1.00  0.00    -0.354 N 
ATOM     58  N   UNL     1       8.154  -5.165  -8.855  1.00  0.00    -0.248 NA
ATOM     59  C   UNL     1      10.071  -4.229  -7.905  1.00  0.00     0.031 C 
ATOM     60  C   UNL     1       8.217  -8.350 -11.959  1.00  0.00     0.029 A 
ATOM     61  C   UNL     1       8.225  -7.369 -10.981  1.00  0.00     0.049 A 
ATOM     62  H   UNL     1       6.596  -6.470  -9.986  1.00  0.00     0.167 HD
ATOM     63  C   UNL     1       9.281  -5.742  -9.435  1.00  0.00     0.074 A 
ATOM     64  C   UNL     1      10.432  -5.105  -8.833  1.00  0.00     0.031 C 
ATOM     65  C   UNL     1       9.357  -6.711 -10.380  1.00  0.00     0.037 A 
BRANCH  52  66
ATOM     66  C   UNL     1       3.895  -8.974 -12.138  1.00  0.00     0.058 A 
ATOM     67  C   UNL     1       3.152  -8.599 -13.268  1.00  0.00     0.135 A 
ATOM     68  C   UNL     1       3.985 -10.342 -11.833  1.00  0.00     0.135 A 
ATOM     69  F   UNL     1       3.014  -7.303 -13.587  1.00  0.00    -0.206 F 
ATOM     70  C   UNL     1       2.525  -9.547 -14.069  1.00  0.00     0.059 A 
ATOM     71  C   UNL     1       3.384 -11.308 -12.633  1.00  0.00     0.059 A 
ATOM     72  F   UNL     1       4.673 -10.750 -10.755  1.00  0.00    -0.206 F 
ATOM     73  C   UNL     1       2.654 -10.900 -13.749  1.00  0.00     0.060 A 
BRANCH  73  74
ATOM     74  S   UNL     1       1.883 -12.122 -14.831  1.00  0.00     0.124 S 
ATOM     75  O   UNL     1       0.469 -11.939 -14.518  1.00  0.00    -0.237 OA
ATOM     76  O   UNL     1       2.302 -11.672 -16.155  1.00  0.00    -0.237 OA
ATOM     77  O   UNL     1       2.465 -13.385 -14.388  1.00  0.00    -0.744 OA
ENDBRANCH  73  74
ENDBRANCH  52  66
BRANCH  53  78
ATOM     78  C   UNL     1       8.540  -2.453  -6.144  1.00  0.00     0.058 A 
ATOM     79  C   UNL     1       9.334  -1.388  -6.595  1.00  0.00     0.135 A 
ATOM     80  C   UNL     1       8.478  -2.676  -4.759  1.00  0.00     0.135 A 
ATOM     81  F   UNL     1       9.438  -1.139  -7.909  1.00  0.00    -0.206 F 
ATOM     82  C   UNL     1      10.063  -0.595  -5.713  1.00  0.00     0.059 A 
ATOM     83  C   UNL     1       9.175  -1.881  -3.855  1.00  0.00     0.059 A 
ATOM     84  F   UNL     1       7.726  -3.676  -4.271  1.00  0.00    -0.206 F 
ATOM     85  C   UNL     1       9.980  -0.853  -4.343  1.00  0.00     0.060 A 
BRANCH  85  86
ATOM     86  S   UNL     1      10.915   0.189  -3.201  1.00  0.00     0.124 S 
ATOM     87  O   UNL     1      12.272  -0.304  -3.398  1.00  0.00    -0.237 OA
ATOM     88  O   UNL     1      10.640   1.529  -3.713  1.00  0.00    -0.237 OA
ATOM     89  O   UNL     1      10.314  -0.112  -1.905  1.00  0.00    -0.744 OA
ENDBRANCH  85  86
ENDBRANCH  53  78
BRANCH  65  90
ATOM     90  C   UNL     1      10.725  -7.120 -10.854  1.00  0.00     0.058 A 
ATOM     91  C   UNL     1      11.583  -7.892 -10.057  1.00  0.00     0.135 A 
ATOM     92  C   UNL     1      11.151  -6.793 -12.152  1.00  0.00     0.135 A 
ATOM     93  F   UNL     1      11.225  -8.228  -8.808  1.00  0.00    -0.206 F 
ATOM     94  C   UNL     1      12.827  -8.308 -10.522  1.00  0.00     0.059 A 
ATOM     95  C   UNL     1      12.378  -7.222 -12.648  1.00  0.00     0.059 A 
ATOM     96  F   UNL     1      10.362  -6.068 -12.961  1.00  0.00    -0.206 F 
ATOM     97  C   UNL     1      13.214  -7.970 -11.820  1.00  0.00     0.060 A 
BRANCH  97  98
ATOM     98  S   UNL     1      14.814  -8.547 -12.425  1.00  0.00     0.124 S 
ATOM     99  O   UNL     1      15.733  -7.664 -11.715  1.00  0.00    -0.237 OA
ATOM    100  O   UNL     1      14.824  -9.944 -12.002  1.00  0.00    -0.237 OA
ATOM    101  O   UNL     1      14.729  -8.336 -13.867  1.00  0.00    -0.744 OA
ENDBRANCH  97  98
ENDBRANCH  65  90
ENDBRANCH  39  40
ENDBRANCH  32  34
ENDBRANCH  31  32
ENDBRANCH  30  31
ENDBRANCH  29  30
ENDBRANCH  28  29
ENDBRANCH  27  28
ENDBRANCH   1  27
TORSDOF 25
