REMARK SMILES CCc1nc(N2CC[N@H+](CC=C(C)C)[C@H](C(=O)OCCOCCOCCOCCOC(=O)c3ccc(-c4c5nc(c(-c6c(F)cc(S(=O)(=O)[O-])cc6F)c6ccc([nH]6)c(-c6c(F)cc(S(=O)(=O)[O-])cc6F)c6nc(c(-c7c(F)cc(S(=O)(=O)[O-])cc7F)c7ccc4[nH]7)C=C6)C=C5)cc3)C2)no1
REMARK SMILES IDX 25 1 24 2 23 3 22 4 21 5 20 6 19 7 18 8 16 9 17 10 15 11
REMARK SMILES IDX 6 12 7 13 99 14 8 15 9 16 5 18 3 19 4 20 101 21 100 22 2 23
REMARK SMILES IDX 1 24 10 25 11 26 12 27 13 28 14 29 26 30 27 31 28 32 29 33
REMARK SMILES IDX 30 34 31 35 32 36 33 37 34 38 98 39 35 40 97 41 36 42 37 43
REMARK SMILES IDX 38 44 91 45 39 46 96 47 90 48 92 49 40 50 95 51 89 52 88 53
REMARK SMILES IDX 41 55 75 56 54 57 74 58 55 59 58 60 73 61 93 62 56 63 57 64
REMARK SMILES IDX 72 66 94 67 59 68 42 69 43 70 52 71 44 72 45 73 51 74 53 75
REMARK SMILES IDX 46 76 47 77 48 78 49 79 50 80 76 81 77 82 86 83 78 84 79 85
REMARK SMILES IDX 85 86 87 87 80 88 81 89 82 90 83 91 84 92 60 93 61 94 70 95
REMARK SMILES IDX 62 96 63 97 69 98 71 99 64 100 65 101 66 102 67 103 68 104
REMARK H PARENT 9 17 92 54 58 65
REMARK Flexibility Score: inf
ROOT
ATOM      1  C   UNL     1       6.632  -5.760   3.066  1.00  0.00     0.188 C 
ENDROOT
BRANCH   1   2
ATOM      2  O   UNL     1       5.458  -4.995   2.924  1.00  0.00    -0.377 OA
BRANCH   2   3
ATOM      3  C   UNL     1       5.014  -4.312   4.080  1.00  0.00     0.188 C 
BRANCH   3   4
ATOM      4  C   UNL     1       6.027  -3.804   5.133  1.00  0.00     0.188 C 
BRANCH   4   5
ATOM      5  O   UNL     1       6.960  -4.784   5.561  1.00  0.00    -0.376 OA
BRANCH   5   6
ATOM      6  C   UNL     1       6.708  -5.516   6.750  1.00  0.00     0.202 C 
BRANCH   6   7
ATOM      7  C   UNL     1       5.416  -6.349   6.821  1.00  0.00     0.261 C 
BRANCH   7   8
ATOM      8  O   UNL     1       4.166  -5.654   6.630  1.00  0.00    -0.459 OA
BRANCH   8   9
ATOM      9  C   UNL     1       3.928  -4.550   7.385  1.00  0.00     0.366 C 
ATOM     10  O   UNL     1       4.732  -4.125   8.204  1.00  0.00    -0.245 OA
BRANCH   9  11
ATOM     11  C   UNL     1       2.584  -3.879   7.002  1.00  0.00     0.315 C 
ATOM     12  N   UNL     1       1.578  -1.887   5.773  1.00  0.00    -0.326 N 
ATOM     13  C   UNL     1       0.779  -1.565   6.947  1.00  0.00     0.181 C 
ATOM     14  C   UNL     1       2.777  -2.705   5.989  1.00  0.00     0.197 C 
ATOM     15  C   UNL     1       0.559  -2.826   7.808  1.00  0.00     0.285 C 
ATOM     16  N   UNL     1       1.770  -3.564   8.212  1.00  0.00    -0.317 N 
ATOM     17  H   UNL     1       1.513  -4.469   8.607  1.00  0.00     0.349 HD
BRANCH  12  18
ATOM     18  C   UNL     1       1.403  -1.166   4.638  1.00  0.00     0.266 A 
ATOM     19  C   UNL     1       1.070  -0.904   2.582  1.00  0.00     0.227 A 
ATOM     20  N   UNL     1       1.601  -1.769   3.420  1.00  0.00    -0.176 NA
ATOM     21  O   UNL     1       0.671   0.249   3.188  1.00  0.00    -0.337 OA
ATOM     22  N   UNL     1       0.888   0.070   4.549  1.00  0.00    -0.038 NA
BRANCH  19  23
ATOM     23  C   UNL     1       0.668  -1.079   1.162  1.00  0.00     0.097 C 
ATOM     24  C   UNL     1       1.135   0.039   0.245  1.00  0.00     0.014 C 
ENDBRANCH  19  23
ENDBRANCH  12  18
BRANCH  16  25
ATOM     25  C   UNL     1       2.464  -2.966   9.358  1.00  0.00     0.291 C 
BRANCH  25  26
ATOM     26  C   UNL     1       3.201  -1.684   9.086  1.00  0.00     0.032 C 
ATOM     27  C   UNL     1       2.948  -0.480   9.630  1.00  0.00    -0.075 C 
ATOM     28  C   UNL     1       3.645   0.751   9.126  1.00  0.00     0.039 C 
ATOM     29  C   UNL     1       1.929  -0.290  10.711  1.00  0.00     0.039 C 
ENDBRANCH  25  26
ENDBRANCH  16  25
ENDBRANCH   9  11
ENDBRANCH   8   9
ENDBRANCH   7   8
ENDBRANCH   6   7
ENDBRANCH   5   6
ENDBRANCH   4   5
ENDBRANCH   3   4
ENDBRANCH   2   3
ENDBRANCH   1   2
BRANCH   1  30
ATOM     30  C   UNL     1       7.908  -4.944   2.797  1.00  0.00     0.188 C 
BRANCH  30  31
ATOM     31  O   UNL     1       7.852  -3.529   2.804  1.00  0.00    -0.376 OA
BRANCH  31  32
ATOM     32  C   UNL     1       7.034  -2.759   1.940  1.00  0.00     0.202 C 
BRANCH  32  33
ATOM     33  C   UNL     1       6.287  -3.222   0.673  1.00  0.00     0.261 C 
BRANCH  33  34
ATOM     34  O   UNL     1       6.207  -4.611   0.381  1.00  0.00    -0.460 OA
BRANCH  34  35
ATOM     35  C   UNL     1       7.243  -5.140  -0.299  1.00  0.00     0.338 C 
ATOM     36  O   UNL     1       8.242  -4.562  -0.690  1.00  0.00    -0.246 OA
BRANCH  35  37
ATOM     37  C   UNL     1       7.049  -6.603  -0.302  1.00  0.00     0.060 A 
ATOM     38  C   UNL     1       8.030  -7.410   0.291  1.00  0.00     0.016 A 
ATOM     39  C   UNL     1       5.883  -7.166  -0.827  1.00  0.00     0.016 A 
ATOM     40  C   UNL     1       7.851  -8.786   0.357  1.00  0.00     0.010 A 
ATOM     41  C   UNL     1       5.730  -8.552  -0.811  1.00  0.00     0.010 A 
ATOM     42  C   UNL     1       6.728  -9.365  -0.245  1.00  0.00    -0.014 A 
BRANCH  42  43
ATOM     43  C   UNL     1       6.739 -10.817  -0.514  1.00  0.00     0.031 A 
ATOM     44  C   UNL     1       7.275 -11.265  -1.845  1.00  0.00     0.074 A 
ATOM     45  C   UNL     1       6.320 -11.707   0.402  1.00  0.00     0.049 A 
ATOM     46  N   UNL     1       7.346 -12.468  -2.347  1.00  0.00    -0.248 NA
ATOM     47  C   UNL     1       7.801 -10.210  -2.732  1.00  0.00     0.031 C 
ATOM     48  C   UNL     1       5.829 -11.381   1.740  1.00  0.00     0.029 A 
ATOM     49  N   UNL     1       6.230 -13.074   0.333  1.00  0.00    -0.354 N 
ATOM     50  C   UNL     1       7.909 -12.314  -3.608  1.00  0.00     0.074 A 
ATOM     51  C   UNL     1       8.147 -10.904  -3.806  1.00  0.00     0.031 C 
ATOM     52  C   UNL     1       5.462 -12.519   2.357  1.00  0.00     0.029 A 
ATOM     53  C   UNL     1       5.663 -13.646   1.447  1.00  0.00     0.049 A 
ATOM     54  H   UNL     1       6.542 -13.596  -0.441  1.00  0.00     0.167 HD
ATOM     55  C   UNL     1       8.201 -13.270  -4.517  1.00  0.00     0.037 A 
ATOM     56  C   UNL     1       5.319 -14.928   1.681  1.00  0.00     0.037 A 
ATOM     57  C   UNL     1       7.965 -14.672  -4.305  1.00  0.00     0.049 A 
ATOM     58  C   UNL     1       5.600 -15.966   0.620  1.00  0.00     0.074 A 
ATOM     59  C   UNL     1       8.253 -15.726  -5.153  1.00  0.00     0.029 A 
ATOM     60  N   UNL     1       7.378 -15.213  -3.172  1.00  0.00    -0.354 N 
ATOM     61  N   UNL     1       6.167 -15.816  -0.555  1.00  0.00    -0.248 NA
ATOM     62  C   UNL     1       5.199 -17.349   0.917  1.00  0.00     0.031 C 
ATOM     63  C   UNL     1       7.783 -16.900  -4.559  1.00  0.00     0.029 A 
ATOM     64  C   UNL     1       7.266 -16.585  -3.311  1.00  0.00     0.049 A 
ATOM     65  H   UNL     1       7.085 -14.699  -2.386  1.00  0.00     0.167 HD
ATOM     66  C   UNL     1       6.222 -17.089  -1.118  1.00  0.00     0.074 A 
ATOM     67  C   UNL     1       5.644 -17.997  -0.150  1.00  0.00     0.031 C 
ATOM     68  C   UNL     1       6.707 -17.474  -2.325  1.00  0.00     0.037 A 
BRANCH  55  69
ATOM     69  C   UNL     1       8.777 -12.839  -5.835  1.00  0.00     0.058 A 
ATOM     70  C   UNL     1      10.099 -12.387  -5.955  1.00  0.00     0.135 A 
ATOM     71  C   UNL     1       8.012 -12.957  -7.007  1.00  0.00     0.135 A 
ATOM     72  F   UNL     1      10.863 -12.228  -4.862  1.00  0.00    -0.206 F 
ATOM     73  C   UNL     1      10.647 -12.072  -7.194  1.00  0.00     0.059 A 
ATOM     74  C   UNL     1       8.548 -12.673  -8.259  1.00  0.00     0.059 A 
ATOM     75  F   UNL     1       6.737 -13.369  -6.943  1.00  0.00    -0.206 F 
ATOM     76  C   UNL     1       9.867 -12.231  -8.341  1.00  0.00     0.060 A 
BRANCH  76  77
ATOM     77  S   UNL     1      10.615 -11.883  -9.946  1.00  0.00     0.124 S 
ATOM     78  O   UNL     1      10.748 -10.430  -9.899  1.00  0.00    -0.237 OA
ATOM     79  O   UNL     1      11.863 -12.636  -9.876  1.00  0.00    -0.237 OA
ATOM     80  O   UNL     1       9.632 -12.391 -10.898  1.00  0.00    -0.744 OA
ENDBRANCH  76  77
ENDBRANCH  55  69
BRANCH  56  81
ATOM     81  C   UNL     1       4.635 -15.309   2.948  1.00  0.00     0.058 A 
ATOM     82  C   UNL     1       5.242 -16.167   3.878  1.00  0.00     0.135 A 
ATOM     83  C   UNL     1       3.333 -14.865   3.228  1.00  0.00     0.135 A 
ATOM     84  F   UNL     1       6.483 -16.628   3.654  1.00  0.00    -0.206 F 
ATOM     85  C   UNL     1       4.572 -16.602   5.017  1.00  0.00     0.059 A 
ATOM     86  C   UNL     1       2.654 -15.259   4.377  1.00  0.00     0.059 A 
ATOM     87  F   UNL     1       2.707 -14.034   2.380  1.00  0.00    -0.206 F 
ATOM     88  C   UNL     1       3.275 -16.145   5.255  1.00  0.00     0.060 A 
BRANCH  88  89
ATOM     89  S   UNL     1       2.413 -16.713   6.737  1.00  0.00     0.124 S 
ATOM     90  O   UNL     1       2.117 -18.099   6.391  1.00  0.00    -0.237 OA
ATOM     91  O   UNL     1       3.422 -16.514   7.773  1.00  0.00    -0.237 OA
ATOM     92  O   UNL     1       1.260 -15.822   6.816  1.00  0.00    -0.744 OA
ENDBRANCH  88  89
ENDBRANCH  56  81
BRANCH  68  93
ATOM     93  C   UNL     1       6.689 -18.943  -2.650  1.00  0.00     0.058 A 
ATOM     94  C   UNL     1       5.496 -19.628  -2.929  1.00  0.00     0.135 A 
ATOM     95  C   UNL     1       7.894 -19.659  -2.748  1.00  0.00     0.135 A 
ATOM     96  F   UNL     1       4.316 -18.993  -2.848  1.00  0.00    -0.206 F 
ATOM     97  C   UNL     1       5.497 -20.978  -3.268  1.00  0.00     0.059 A 
ATOM     98  C   UNL     1       7.920 -20.999  -3.118  1.00  0.00     0.059 A 
ATOM     99  F   UNL     1       9.065 -19.049  -2.507  1.00  0.00    -0.206 F 
ATOM    100  C   UNL     1       6.715 -21.654  -3.363  1.00  0.00     0.060 A 
BRANCH 100 101
ATOM    101  S   UNL     1       6.702 -23.396  -3.836  1.00  0.00     0.124 S 
ATOM    102  O   UNL     1       6.175 -24.024  -2.630  1.00  0.00    -0.237 OA
ATOM    103  O   UNL     1       5.813 -23.398  -4.994  1.00  0.00    -0.237 OA
ATOM    104  O   UNL     1       8.104 -23.679  -4.129  1.00  0.00    -0.744 OA
ENDBRANCH 100 101
ENDBRANCH  68  93
ENDBRANCH  42  43
ENDBRANCH  35  37
ENDBRANCH  34  35
ENDBRANCH  33  34
ENDBRANCH  32  33
ENDBRANCH  31  32
ENDBRANCH  30  31
ENDBRANCH   1  30
TORSDOF 27
