REMARK SMILES Cc1cc(C)c(NS(=O)(=O)c2cccc3cc(C)cnc23)c(C(=O)OCCOCCOCCOCCOC(=O)c2ccc(-c3c4nc(c(-c5c(F)cc(S(=O)(=O)[O-])cc5F)c5ccc([nH]5)c(-c5c(F)cc(S(=O)(=O)[O-])cc5F)c5nc(c(-c6c(F)cc(S(=O)(=O)[O-])cc6F)c6ccc3[nH]6)C=C5)C=C4)cc2)c1
REMARK SMILES IDX 31 1 30 2 29 3 28 4 27 5 26 6 25 7 23 8 24 9 22 10 1 11 2 12
REMARK SMILES IDX 3 13 106 14 4 15 5 16 6 17 7 18 8 20 9 21 10 22 11 23 12 24
REMARK SMILES IDX 21 25 13 26 15 27 20 28 14 29 16 30 19 31 17 32 18 33 32 34
REMARK SMILES IDX 33 35 34 36 35 37 36 38 37 39 38 40 39 41 40 42 41 43 105 44
REMARK SMILES IDX 42 45 104 46 43 47 44 48 45 49 98 50 46 51 103 52 97 53
REMARK SMILES IDX 99 54 47 55 102 56 96 57 95 58 48 60 82 61 61 62 81 63 62 64
REMARK SMILES IDX 65 65 80 66 100 67 63 68 64 69 79 71 101 72 66 73 49 74
REMARK SMILES IDX 50 75 59 76 51 77 52 78 58 79 60 80 53 81 54 82 55 83 56 84
REMARK SMILES IDX 57 85 83 86 84 87 93 88 85 89 86 90 92 91 94 92 87 93 88 94
REMARK SMILES IDX 89 95 90 96 91 97 67 98 68 99 77 100 69 101 70 102 76 103
REMARK SMILES IDX 78 104 71 105 72 106 73 107 74 108 75 109
REMARK H PARENT 7 19 99 59 65 70
REMARK Flexibility Score: inf
ROOT
ATOM      1  O   UNL     1       1.149  -3.946   2.365  1.00  0.00    -0.377 OA
ENDROOT
BRANCH   1   2
ATOM      2  C   UNL     1      -0.161  -3.481   2.074  1.00  0.00     0.188 C 
BRANCH   2   3
ATOM      3  C   UNL     1      -1.149  -4.431   1.361  1.00  0.00     0.188 C 
BRANCH   3   4
ATOM      4  O   UNL     1      -0.649  -5.736   1.120  1.00  0.00    -0.376 OA
BRANCH   4   5
ATOM      5  C   UNL     1      -0.376  -6.103  -0.219  1.00  0.00     0.202 C 
BRANCH   5   6
ATOM      6  C   UNL     1       0.803  -5.391  -0.888  1.00  0.00     0.261 C 
BRANCH   6   7
ATOM      7  O   UNL     1       0.802  -3.960  -0.799  1.00  0.00    -0.460 OA
BRANCH   7   8
ATOM      8  C   UNL     1      -0.194  -3.286  -1.412  1.00  0.00     0.340 C 
ATOM      9  O   UNL     1      -1.139  -3.776  -2.006  1.00  0.00    -0.246 OA
BRANCH   8  10
ATOM     10  C   UNL     1      -0.018  -1.829  -1.198  1.00  0.00     0.084 A 
ATOM     11  C   UNL     1       2.829   0.619  -0.745  1.00  0.00     0.044 C 
ATOM     12  C   UNL     1       1.483   0.061  -1.093  1.00  0.00    -0.050 A 
ATOM     13  C   UNL     1       0.407   0.874  -1.461  1.00  0.00     0.009 A 
ATOM     14  C   UNL     1       1.277  -1.312  -1.053  1.00  0.00     0.021 A 
ATOM     15  C   UNL     1      -0.897   0.348  -1.605  1.00  0.00    -0.026 A 
ATOM     16  C   UNL     1      -1.933   1.175  -2.307  1.00  0.00     0.046 C 
ATOM     17  C   UNL     1      -1.143  -0.976  -1.235  1.00  0.00     0.066 A 
BRANCH  17  18
ATOM     18  N   UNL     1      -2.213  -1.347  -0.329  1.00  0.00    -0.278 N 
ATOM     19  H   UNL     1      -2.017  -2.152   0.203  1.00  0.00     0.180 HD
BRANCH  18  20
ATOM     20  S   UNL     1      -3.703  -0.685  -0.009  1.00  0.00     0.264 S 
ATOM     21  O   UNL     1      -4.418  -0.666  -1.273  1.00  0.00    -0.201 OA
ATOM     22  O   UNL     1      -4.244  -1.459   1.093  1.00  0.00    -0.201 OA
BRANCH  20  23
ATOM     23  C   UNL     1      -3.646   0.990   0.565  1.00  0.00     0.114 A 
ATOM     24  C   UNL     1      -4.768   1.769   0.196  1.00  0.00     0.024 A 
ATOM     25  C   UNL     1      -2.481   1.566   1.061  1.00  0.00     0.091 A 
ATOM     26  C   UNL     1      -4.693   3.152   0.193  1.00  0.00     0.002 A 
ATOM     27  C   UNL     1      -2.389   2.975   0.933  1.00  0.00     0.002 A 
ATOM     28  N   UNL     1      -1.450   0.853   1.562  1.00  0.00    -0.255 NA
ATOM     29  C   UNL     1      -3.485   3.753   0.517  1.00  0.00     0.010 A 
ATOM     30  C   UNL     1      -1.145   3.582   1.134  1.00  0.00     0.015 A 
ATOM     31  C   UNL     1      -0.270   1.480   1.781  1.00  0.00     0.115 A 
ATOM     32  C   UNL     1      -0.043   2.817   1.504  1.00  0.00    -0.032 A 
ATOM     33  C   UNL     1       1.330   3.408   1.516  1.00  0.00     0.046 C 
ENDBRANCH  20  23
ENDBRANCH  18  20
ENDBRANCH  17  18
ENDBRANCH   8  10
ENDBRANCH   7   8
ENDBRANCH   6   7
ENDBRANCH   5   6
ENDBRANCH   4   5
ENDBRANCH   3   4
ENDBRANCH   2   3
ENDBRANCH   1   2
BRANCH   1  34
ATOM     34  C   UNL     1       1.333  -5.253   2.904  1.00  0.00     0.188 C 
BRANCH  34  35
ATOM     35  C   UNL     1       0.211  -5.960   3.704  1.00  0.00     0.188 C 
BRANCH  35  36
ATOM     36  O   UNL     1      -0.890  -5.133   4.039  1.00  0.00    -0.376 OA
BRANCH  36  37
ATOM     37  C   UNL     1      -1.041  -4.745   5.391  1.00  0.00     0.202 C 
BRANCH  37  38
ATOM     38  C   UNL     1       0.061  -3.848   5.966  1.00  0.00     0.261 C 
BRANCH  38  39
ATOM     39  O   UNL     1       1.399  -4.359   5.875  1.00  0.00    -0.460 OA
BRANCH  39  40
ATOM     40  C   UNL     1       1.670  -5.511   6.532  1.00  0.00     0.338 C 
ATOM     41  O   UNL     1       0.911  -6.163   7.219  1.00  0.00    -0.246 OA
BRANCH  40  42
ATOM     42  C   UNL     1       3.014  -5.950   6.097  1.00  0.00     0.060 A 
ATOM     43  C   UNL     1       3.161  -7.189   5.458  1.00  0.00     0.016 A 
ATOM     44  C   UNL     1       4.117  -5.118   6.297  1.00  0.00     0.016 A 
ATOM     45  C   UNL     1       4.424  -7.612   5.042  1.00  0.00     0.010 A 
ATOM     46  C   UNL     1       5.383  -5.554   5.905  1.00  0.00     0.010 A 
ATOM     47  C   UNL     1       5.545  -6.816   5.307  1.00  0.00    -0.014 A 
BRANCH  47  48
ATOM     48  C   UNL     1       6.904  -7.388   5.167  1.00  0.00     0.031 A 
ATOM     49  C   UNL     1       7.563  -7.944   6.399  1.00  0.00     0.074 A 
ATOM     50  C   UNL     1       7.539  -7.416   3.983  1.00  0.00     0.049 A 
ATOM     51  N   UNL     1       8.765  -8.433   6.552  1.00  0.00    -0.248 NA
ATOM     52  C   UNL     1       6.752  -7.942   7.629  1.00  0.00     0.031 C 
ATOM     53  C   UNL     1       6.987  -6.941   2.715  1.00  0.00     0.029 A 
ATOM     54  N   UNL     1       8.799  -7.855   3.661  1.00  0.00    -0.354 N 
ATOM     55  C   UNL     1       8.857  -8.790   7.892  1.00  0.00     0.074 A 
ATOM     56  C   UNL     1       7.604  -8.429   8.517  1.00  0.00     0.031 C 
ATOM     57  C   UNL     1       7.914  -7.097   1.753  1.00  0.00     0.029 A 
ATOM     58  C   UNL     1       9.133  -7.651   2.343  1.00  0.00     0.049 A 
ATOM     59  H   UNL     1       9.405  -8.276   4.312  1.00  0.00     0.167 HD
ATOM     60  C   UNL     1       9.891  -9.375   8.541  1.00  0.00     0.037 A 
ATOM     61  C   UNL     1      10.298  -7.864   1.699  1.00  0.00     0.037 A 
ATOM     62  C   UNL     1      11.139  -9.719   7.914  1.00  0.00     0.049 A 
ATOM     63  C   UNL     1      11.464  -8.448   2.456  1.00  0.00     0.074 A 
ATOM     64  C   UNL     1      12.249 -10.322   8.478  1.00  0.00     0.029 A 
ATOM     65  N   UNL     1      11.449  -9.478   6.582  1.00  0.00    -0.354 N 
ATOM     66  N   UNL     1      11.535  -8.803   3.718  1.00  0.00    -0.248 NA
ATOM     67  C   UNL     1      12.707  -8.666   1.702  1.00  0.00     0.031 C 
ATOM     68  C   UNL     1      13.249 -10.395   7.503  1.00  0.00     0.029 A 
ATOM     69  C   UNL     1      12.741  -9.896   6.313  1.00  0.00     0.049 A 
ATOM     70  H   UNL     1      10.839  -9.070   5.926  1.00  0.00     0.167 HD
ATOM     71  C   UNL     1      12.818  -9.311   3.901  1.00  0.00     0.074 A 
ATOM     72  C   UNL     1      13.485  -9.226   2.618  1.00  0.00     0.031 C 
ATOM     73  C   UNL     1      13.390  -9.808   5.027  1.00  0.00     0.037 A 
BRANCH  60  74
ATOM     74  C   UNL     1       9.720  -9.643  10.011  1.00  0.00     0.058 A 
ATOM     75  C   UNL     1       8.831 -10.619  10.489  1.00  0.00     0.135 A 
ATOM     76  C   UNL     1      10.460  -8.914  10.957  1.00  0.00     0.135 A 
ATOM     77  F   UNL     1       8.082 -11.331   9.631  1.00  0.00    -0.206 F 
ATOM     78  C   UNL     1       8.655 -10.839  11.851  1.00  0.00     0.059 A 
ATOM     79  C   UNL     1      10.323  -9.139  12.323  1.00  0.00     0.059 A 
ATOM     80  F   UNL     1      11.321  -7.966  10.557  1.00  0.00    -0.206 F 
ATOM     81  C   UNL     1       9.405 -10.092  12.761  1.00  0.00     0.060 A 
BRANCH  81  82
ATOM     82  S   UNL     1       9.158 -10.381  14.525  1.00  0.00     0.124 S 
ATOM     83  O   UNL     1       7.841  -9.788  14.736  1.00  0.00    -0.237 OA
ATOM     84  O   UNL     1       9.219 -11.837  14.614  1.00  0.00    -0.237 OA
ATOM     85  O   UNL     1      10.272  -9.671  15.146  1.00  0.00    -0.744 OA
ENDBRANCH  81  82
ENDBRANCH  60  74
BRANCH  61  86
ATOM     86  C   UNL     1      10.422  -7.508   0.259  1.00  0.00     0.058 A 
ATOM     87  C   UNL     1      10.548  -8.497  -0.727  1.00  0.00     0.135 A 
ATOM     88  C   UNL     1      10.403  -6.168  -0.161  1.00  0.00     0.135 A 
ATOM     89  F   UNL     1      10.586  -9.792  -0.377  1.00  0.00    -0.206 F 
ATOM     90  C   UNL     1      10.654  -8.173  -2.076  1.00  0.00     0.059 A 
ATOM     91  C   UNL     1      10.481  -5.820  -1.505  1.00  0.00     0.059 A 
ATOM     92  F   UNL     1      10.280  -5.182   0.742  1.00  0.00    -0.206 F 
ATOM     93  C   UNL     1      10.612  -6.830  -2.456  1.00  0.00     0.060 A 
BRANCH  93  94
ATOM     94  S   UNL     1      10.679  -6.425  -4.215  1.00  0.00     0.124 S 
ATOM     95  O   UNL     1      12.068  -6.730  -4.536  1.00  0.00    -0.237 OA
ATOM     96  O   UNL     1       9.680  -7.330  -4.774  1.00  0.00    -0.237 OA
ATOM     97  O   UNL     1      10.319  -5.010  -4.247  1.00  0.00    -0.744 OA
ENDBRANCH  93  94
ENDBRANCH  61  86
BRANCH  73  98
ATOM     98  C   UNL     1      14.797 -10.336   4.922  1.00  0.00     0.058 A 
ATOM     99  C   UNL     1      15.900  -9.484   4.763  1.00  0.00     0.135 A 
ATOM    100  C   UNL     1      15.047 -11.714   5.047  1.00  0.00     0.135 A 
ATOM    101  F   UNL     1      15.719  -8.160   4.635  1.00  0.00    -0.206 F 
ATOM    102  C   UNL     1      17.200  -9.980   4.707  1.00  0.00     0.059 A 
ATOM    103  C   UNL     1      16.339 -12.228   5.025  1.00  0.00     0.059 A 
ATOM    104  F   UNL     1      14.029 -12.573   5.214  1.00  0.00    -0.206 F 
ATOM    105  C   UNL     1      17.409 -11.354   4.842  1.00  0.00     0.060 A 
BRANCH 105 106
ATOM    106  S   UNL     1      19.102 -11.980   4.803  1.00  0.00     0.124 S 
ATOM    107  O   UNL     1      19.439 -11.830   3.391  1.00  0.00    -0.237 OA
ATOM    108  O   UNL     1      19.790 -11.075   5.718  1.00  0.00    -0.237 OA
ATOM    109  O   UNL     1      18.968 -13.356   5.273  1.00  0.00    -0.744 OA
ENDBRANCH 105 106
ENDBRANCH  73  98
ENDBRANCH  47  48
ENDBRANCH  40  42
ENDBRANCH  39  40
ENDBRANCH  38  39
ENDBRANCH  37  38
ENDBRANCH  36  37
ENDBRANCH  35  36
ENDBRANCH  34  35
ENDBRANCH   1  34
TORSDOF 26
