REMARK SMILES CC1(CNS(=O)(=O)Cc2ccc(C(=O)OCCOCCOCCOCCOC(=O)c3ccc(-c4c5nc(c(-c6c(F)cc(S(=O)(=O)[O-])cc6F)c6ccc([nH]6)c(-c6c(F)cc(S(=O)(=O)[O-])cc6F)c6nc(c(-c7c(F)cc(S(=O)(=O)[O-])cc7F)c7ccc4[nH]7)C=C6)C=C5)cc3)cc2)COC1
REMARK SMILES IDX 20 1 19 2 18 3 17 4 16 5 15 6 13 7 14 8 12 9 9 10 10 11
REMARK SMILES IDX 97 12 11 13 96 14 8 15 5 16 6 17 7 18 4 19 3 21 2 22 1 23
REMARK SMILES IDX 98 24 100 25 99 26 21 27 22 28 23 29 24 30 25 31 26 32 27 33
REMARK SMILES IDX 28 34 29 35 30 36 31 37 95 38 32 39 94 40 33 41 34 42 35 43
REMARK SMILES IDX 88 44 36 45 93 46 87 47 89 48 37 49 92 50 86 51 85 52 38 54
REMARK SMILES IDX 72 55 51 56 71 57 52 58 55 59 70 60 90 61 53 62 54 63 69 65
REMARK SMILES IDX 91 66 56 67 39 68 40 69 49 70 41 71 42 72 48 73 50 74 43 75
REMARK SMILES IDX 44 76 45 77 46 78 47 79 73 80 74 81 83 82 75 83 76 84 82 85
REMARK SMILES IDX 84 86 77 87 78 88 79 89 80 90 81 91 57 92 58 93 67 94 59 95
REMARK SMILES IDX 60 96 66 97 68 98 61 99 62 100 63 101 64 102 65 103
REMARK H PARENT 4 20 89 53 55 64
REMARK Flexibility Score: inf
ROOT
ATOM      1  C   UNL     1      -0.051  -5.995  -0.630  1.00  0.00     0.188 C 
ENDROOT
BRANCH   1   2
ATOM      2  C   UNL     1       0.582  -7.261  -1.246  1.00  0.00     0.188 C 
BRANCH   2   3
ATOM      3  O   UNL     1       1.159  -8.139  -0.297  1.00  0.00    -0.376 OA
BRANCH   3   4
ATOM      4  C   UNL     1       2.566  -8.229  -0.181  1.00  0.00     0.202 C 
BRANCH   4   5
ATOM      5  C   UNL     1       3.386  -6.964   0.101  1.00  0.00     0.261 C 
BRANCH   5   6
ATOM      6  O   UNL     1       3.036  -5.808  -0.664  1.00  0.00    -0.460 OA
BRANCH   6   7
ATOM      7  C   UNL     1       3.341  -5.812  -1.980  1.00  0.00     0.338 C 
ATOM      8  O   UNL     1       3.888  -6.702  -2.606  1.00  0.00    -0.246 OA
BRANCH   7   9
ATOM      9  C   UNL     1       2.694  -4.624  -2.586  1.00  0.00     0.060 A 
ATOM     10  C   UNL     1       1.392  -2.399  -3.730  1.00  0.00    -0.032 A 
ATOM     11  C   UNL     1       1.407  -3.640  -4.388  1.00  0.00     0.006 A 
ATOM     12  C   UNL     1       1.977  -2.328  -2.461  1.00  0.00     0.006 A 
ATOM     13  C   UNL     1       2.064  -4.742  -3.828  1.00  0.00     0.016 A 
ATOM     14  C   UNL     1       2.630  -3.418  -1.892  1.00  0.00     0.016 A 
BRANCH  10  15
ATOM     15  C   UNL     1       0.672  -1.234  -4.366  1.00  0.00     0.189 C 
BRANCH  15  16
ATOM     16  S   UNL     1       1.588   0.321  -4.311  1.00  0.00     0.215 S 
ATOM     17  O   UNL     1       0.796   1.335  -4.977  1.00  0.00    -0.212 OA
ATOM     18  O   UNL     1       2.962   0.098  -4.707  1.00  0.00    -0.212 OA
BRANCH  16  19
ATOM     19  N   UNL     1       1.641   0.757  -2.684  1.00  0.00    -0.214 NA
ATOM     20  H   UNL     1       2.013  -0.042  -2.171  1.00  0.00     0.141 HD
BRANCH  19  21
ATOM     21  C   UNL     1       0.385   1.155  -2.019  1.00  0.00     0.110 C 
BRANCH  21  22
ATOM     22  C   UNL     1       0.555   1.310  -0.502  1.00  0.00     0.028 C 
ATOM     23  C   UNL     1       1.085   0.078   0.217  1.00  0.00     0.018 C 
ATOM     24  C   UNL     1      -0.705   1.904   0.160  1.00  0.00     0.170 C 
ATOM     25  C   UNL     1       1.194   2.647  -0.080  1.00  0.00     0.170 C 
ATOM     26  O   UNL     1      -0.120   3.232   0.124  1.00  0.00    -0.380 OA
ENDBRANCH  21  22
ENDBRANCH  19  21
ENDBRANCH  16  19
ENDBRANCH  15  16
ENDBRANCH  10  15
ENDBRANCH   7   9
ENDBRANCH   6   7
ENDBRANCH   5   6
ENDBRANCH   4   5
ENDBRANCH   3   4
ENDBRANCH   2   3
ENDBRANCH   1   2
BRANCH   1  27
ATOM     27  O   UNL     1       0.182  -5.702   0.739  1.00  0.00    -0.377 OA
BRANCH  27  28
ATOM     28  C   UNL     1       0.009  -6.712   1.731  1.00  0.00     0.188 C 
BRANCH  28  29
ATOM     29  C   UNL     1      -0.885  -7.954   1.494  1.00  0.00     0.188 C 
BRANCH  29  30
ATOM     30  O   UNL     1      -1.673  -7.900   0.317  1.00  0.00    -0.376 OA
BRANCH  30  31
ATOM     31  C   UNL     1      -3.070  -7.731   0.465  1.00  0.00     0.202 C 
BRANCH  31  32
ATOM     32  C   UNL     1      -3.537  -6.401   1.070  1.00  0.00     0.261 C 
BRANCH  32  33
ATOM     33  O   UNL     1      -2.956  -6.043   2.332  1.00  0.00    -0.460 OA
BRANCH  33  34
ATOM     34  C   UNL     1      -3.256  -6.830   3.386  1.00  0.00     0.338 C 
ATOM     35  O   UNL     1      -3.977  -7.817   3.382  1.00  0.00    -0.246 OA
BRANCH  34  36
ATOM     36  C   UNL     1      -2.409  -6.412   4.521  1.00  0.00     0.060 A 
ATOM     37  C   UNL     1      -1.532  -7.342   5.095  1.00  0.00     0.016 A 
ATOM     38  C   UNL     1      -2.487  -5.109   5.017  1.00  0.00     0.016 A 
ATOM     39  C   UNL     1      -0.766  -6.982   6.204  1.00  0.00     0.010 A 
ATOM     40  C   UNL     1      -1.733  -4.756   6.139  1.00  0.00     0.010 A 
ATOM     41  C   UNL     1      -0.904  -5.705   6.763  1.00  0.00    -0.014 A 
BRANCH  41  42
ATOM     42  C   UNL     1      -0.358  -5.443   8.118  1.00  0.00     0.031 A 
ATOM     43  C   UNL     1      -1.300  -5.529   9.290  1.00  0.00     0.074 A 
ATOM     44  C   UNL     1       0.946  -5.178   8.312  1.00  0.00     0.049 A 
ATOM     45  N   UNL     1      -1.067  -5.331  10.561  1.00  0.00    -0.248 NA
ATOM     46  C   UNL     1      -2.696  -5.886   8.984  1.00  0.00     0.031 C 
ATOM     47  C   UNL     1       1.960  -5.106   7.262  1.00  0.00     0.029 A 
ATOM     48  N   UNL     1       1.638  -4.916   9.468  1.00  0.00    -0.354 N 
ATOM     49  C   UNL     1      -2.283  -5.531  11.203  1.00  0.00     0.074 A 
ATOM     50  C   UNL     1      -3.260  -5.829  10.180  1.00  0.00     0.031 C 
ATOM     51  C   UNL     1       3.147  -4.811   7.822  1.00  0.00     0.029 A 
ATOM     52  C   UNL     1       2.970  -4.643   9.264  1.00  0.00     0.049 A 
ATOM     53  H   UNL     1       1.220  -4.923  10.359  1.00  0.00     0.167 HD
ATOM     54  C   UNL     1      -2.559  -5.485  12.528  1.00  0.00     0.037 A 
ATOM     55  C   UNL     1       3.929  -4.281  10.141  1.00  0.00     0.037 A 
ATOM     56  C   UNL     1      -1.581  -5.188  13.541  1.00  0.00     0.049 A 
ATOM     57  C   UNL     1       3.584  -4.170  11.606  1.00  0.00     0.074 A 
ATOM     58  C   UNL     1      -1.753  -5.131  14.913  1.00  0.00     0.029 A 
ATOM     59  N   UNL     1      -0.249  -4.888  13.293  1.00  0.00    -0.354 N 
ATOM     60  N   UNL     1       2.436  -4.387  12.204  1.00  0.00    -0.248 NA
ATOM     61  C   UNL     1       4.668  -3.774  12.516  1.00  0.00     0.031 C 
ATOM     62  C   UNL     1      -0.542  -4.737  15.489  1.00  0.00     0.029 A 
ATOM     63  C   UNL     1       0.405  -4.617  14.484  1.00  0.00     0.049 A 
ATOM     64  H   UNL     1       0.170  -4.870  12.402  1.00  0.00     0.167 HD
ATOM     65  C   UNL     1       2.668  -4.187  13.562  1.00  0.00     0.074 A 
ATOM     66  C   UNL     1       4.069  -3.843  13.697  1.00  0.00     0.031 C 
ATOM     67  C   UNL     1       1.803  -4.283  14.604  1.00  0.00     0.037 A 
BRANCH  54  68
ATOM     68  C   UNL     1      -3.982  -5.730  12.954  1.00  0.00     0.058 A 
ATOM     69  C   UNL     1      -4.581  -6.997  12.853  1.00  0.00     0.135 A 
ATOM     70  C   UNL     1      -4.750  -4.686  13.495  1.00  0.00     0.135 A 
ATOM     71  F   UNL     1      -3.901  -8.027  12.322  1.00  0.00    -0.206 F 
ATOM     72  C   UNL     1      -5.897  -7.213  13.248  1.00  0.00     0.059 A 
ATOM     73  C   UNL     1      -6.057  -4.887  13.927  1.00  0.00     0.059 A 
ATOM     74  F   UNL     1      -4.230  -3.454  13.610  1.00  0.00    -0.206 F 
ATOM     75  C   UNL     1      -6.627  -6.151  13.786  1.00  0.00     0.060 A 
BRANCH  75  76
ATOM     76  S   UNL     1      -8.331  -6.450  14.301  1.00  0.00     0.124 S 
ATOM     77  O   UNL     1      -8.998  -6.620  13.014  1.00  0.00    -0.237 OA
ATOM     78  O   UNL     1      -8.203  -7.657  15.112  1.00  0.00    -0.237 OA
ATOM     79  O   UNL     1      -8.683  -5.239  15.034  1.00  0.00    -0.744 OA
ENDBRANCH  75  76
ENDBRANCH  54  68
BRANCH  55  80
ATOM     80  C   UNL     1       5.307  -3.988   9.660  1.00  0.00     0.058 A 
ATOM     81  C   UNL     1       6.388  -4.816   9.998  1.00  0.00     0.135 A 
ATOM     82  C   UNL     1       5.571  -2.868   8.855  1.00  0.00     0.135 A 
ATOM     83  F   UNL     1       6.192  -5.891  10.776  1.00  0.00    -0.206 F 
ATOM     84  C   UNL     1       7.683  -4.537   9.569  1.00  0.00     0.059 A 
ATOM     85  C   UNL     1       6.851  -2.585   8.389  1.00  0.00     0.059 A 
ATOM     86  F   UNL     1       4.571  -2.048   8.495  1.00  0.00    -0.206 F 
ATOM     87  C   UNL     1       7.902  -3.421   8.760  1.00  0.00     0.060 A 
BRANCH  87  88
ATOM     88  S   UNL     1       9.577  -3.099   8.165  1.00  0.00     0.124 S 
ATOM     89  O   UNL     1      10.247  -2.671   9.387  1.00  0.00    -0.237 OA
ATOM     90  O   UNL     1       9.970  -4.404   7.643  1.00  0.00    -0.237 OA
ATOM     91  O   UNL     1       9.381  -2.062   7.156  1.00  0.00    -0.744 OA
ENDBRANCH  87  88
ENDBRANCH  55  80
BRANCH  67  92
ATOM     92  C   UNL     1       2.352  -4.060  15.989  1.00  0.00     0.058 A 
ATOM     93  C   UNL     1       2.757  -2.792  16.436  1.00  0.00     0.135 A 
ATOM     94  C   UNL     1       2.429  -5.127  16.900  1.00  0.00     0.135 A 
ATOM     95  F   UNL     1       2.708  -1.736  15.608  1.00  0.00    -0.206 F 
ATOM     96  C   UNL     1       3.251  -2.597  17.722  1.00  0.00     0.059 A 
ATOM     97  C   UNL     1       2.886  -4.949  18.202  1.00  0.00     0.059 A 
ATOM     98  F   UNL     1       2.041  -6.359  16.533  1.00  0.00    -0.206 F 
ATOM     99  C   UNL     1       3.311  -3.683  18.599  1.00  0.00     0.060 A 
BRANCH  99 100
ATOM    100  S   UNL     1       3.935  -3.412  20.271  1.00  0.00     0.124 S 
ATOM    101  O   UNL     1       5.361  -3.219  20.024  1.00  0.00    -0.237 OA
ATOM    102  O   UNL     1       3.198  -2.224  20.691  1.00  0.00    -0.237 OA
ATOM    103  O   UNL     1       3.581  -4.643  20.971  1.00  0.00    -0.744 OA
ENDBRANCH  99 100
ENDBRANCH  67  92
ENDBRANCH  41  42
ENDBRANCH  34  36
ENDBRANCH  33  34
ENDBRANCH  32  33
ENDBRANCH  31  32
ENDBRANCH  30  31
ENDBRANCH  29  30
ENDBRANCH  28  29
ENDBRANCH  27  28
ENDBRANCH   1  27
TORSDOF 28
