REMARK SMILES Cc1nc(-c2ccc(C(F)(F)F)cc2)nc(SCC(=O)OCCOCCOCCOCCOC(=O)c2ccc(-c3c4nc(c(-c5c(F)cc(S(=O)(=O)[O-])cc5F)c5ccc([nH]5)c(-c5c(F)cc(S(=O)(=O)[O-])cc5F)c5nc(c(-c6c(F)cc(S(=O)(=O)[O-])cc6F)c6ccc3[nH]6)C=C5)C=C4)cc2)c1C
REMARK SMILES IDX 26 1 25 2 24 3 23 4 22 5 21 6 19 7 20 8 18 9 17 10 16 11
REMARK SMILES IDX 1 12 2 13 3 14 102 15 4 16 103 17 15 18 5 19 6 20 14 21 7 22
REMARK SMILES IDX 13 23 8 24 9 25 10 26 11 27 12 28 27 29 28 30 29 31 30 32
REMARK SMILES IDX 31 33 32 34 33 35 34 36 35 37 36 38 37 39 101 40 38 41
REMARK SMILES IDX 100 42 39 43 40 44 41 45 94 46 42 47 99 48 93 49 95 50 43 51
REMARK SMILES IDX 98 52 92 53 91 54 44 56 78 57 57 58 77 59 58 60 61 61 76 62
REMARK SMILES IDX 96 63 59 64 60 65 75 67 97 68 62 69 45 70 46 71 55 72 47 73
REMARK SMILES IDX 48 74 54 75 56 76 49 77 50 78 51 79 52 80 53 81 79 82 80 83
REMARK SMILES IDX 89 84 81 85 82 86 88 87 90 88 83 89 84 90 85 91 86 92 87 93
REMARK SMILES IDX 63 94 64 95 73 96 65 97 66 98 72 99 74 100 67 101 68 102
REMARK SMILES IDX 69 103 70 104 71 105
REMARK H PARENT 95 55 61 66
REMARK Flexibility Score: inf
ROOT
ATOM      1  C   UNL     1      -2.344  -0.397  -1.949  1.00  0.00     0.188 C 
ENDROOT
BRANCH   1   2
ATOM      2  C   UNL     1      -2.311   1.026  -1.381  1.00  0.00     0.188 C 
BRANCH   2   3
ATOM      3  O   UNL     1      -3.530   1.687  -1.114  1.00  0.00    -0.376 OA
BRANCH   3   4
ATOM      4  C   UNL     1      -4.566   1.709  -2.080  1.00  0.00     0.202 C 
BRANCH   4   5
ATOM      5  C   UNL     1      -4.309   1.887  -3.592  1.00  0.00     0.261 C 
BRANCH   5   6
ATOM      6  O   UNL     1      -3.304   1.057  -4.229  1.00  0.00    -0.463 OA
BRANCH   6   7
ATOM      7  C   UNL     1      -2.130   1.656  -4.566  1.00  0.00     0.316 C 
ATOM      8  O   UNL     1      -1.881   2.831  -4.300  1.00  0.00    -0.251 OA
BRANCH   7   9
ATOM      9  C   UNL     1      -1.163   0.833  -5.407  1.00  0.00     0.199 C 
BRANCH   9  10
ATOM     10  S   UNL     1      -0.859  -0.929  -5.051  1.00  0.00    -0.094 SA
BRANCH  10  11
ATOM     11  C   UNL     1       0.418  -1.222  -3.797  1.00  0.00     0.104 A 
ATOM     12  C   UNL     1       2.112  -0.025  -0.645  1.00  0.00     0.067 C 
ATOM     13  C   UNL     1       1.621  -0.860  -1.797  1.00  0.00     0.045 A 
ATOM     14  N   UNL     1       1.725  -2.187  -1.586  1.00  0.00    -0.233 NA
ATOM     15  C   UNL     1       1.046  -0.305  -2.950  1.00  0.00     0.003 A 
ATOM     16  C   UNL     1       1.229  -3.000  -2.525  1.00  0.00     0.160 A 
ATOM     17  C   UNL     1       1.087   1.170  -3.175  1.00  0.00     0.049 C 
ATOM     18  N   UNL     1       0.573  -2.568  -3.615  1.00  0.00    -0.221 NA
BRANCH  16  19
ATOM     19  C   UNL     1       1.395  -4.448  -2.278  1.00  0.00     0.019 A 
ATOM     20  C   UNL     1       0.846  -5.056  -1.134  1.00  0.00     0.012 A 
ATOM     21  C   UNL     1       2.175  -5.265  -3.109  1.00  0.00     0.012 A 
ATOM     22  C   UNL     1       1.058  -6.403  -0.819  1.00  0.00     0.014 A 
ATOM     23  C   UNL     1       2.405  -6.619  -2.795  1.00  0.00     0.014 A 
ATOM     24  C   UNL     1       1.851  -7.201  -1.644  1.00  0.00     0.056 A 
BRANCH  24  25
ATOM     25  C   UNL     1       2.086  -8.646  -1.275  1.00  0.00     0.416 C 
ATOM     26  F   UNL     1       2.610  -8.786  -0.024  1.00  0.00    -0.166 F 
ATOM     27  F   UNL     1       0.941  -9.382  -1.283  1.00  0.00    -0.166 F 
ATOM     28  F   UNL     1       2.951  -9.289  -2.109  1.00  0.00    -0.166 F 
ENDBRANCH  24  25
ENDBRANCH  16  19
ENDBRANCH  10  11
ENDBRANCH   9  10
ENDBRANCH   7   9
ENDBRANCH   6   7
ENDBRANCH   5   6
ENDBRANCH   4   5
ENDBRANCH   3   4
ENDBRANCH   2   3
ENDBRANCH   1   2
BRANCH   1  29
ATOM     29  O   UNL     1      -2.670  -1.484  -1.127  1.00  0.00    -0.377 OA
BRANCH  29  30
ATOM     30  C   UNL     1      -3.918  -1.391  -0.490  1.00  0.00     0.188 C 
BRANCH  30  31
ATOM     31  C   UNL     1      -3.749  -1.016   0.979  1.00  0.00     0.188 C 
BRANCH  31  32
ATOM     32  O   UNL     1      -2.503  -0.475   1.376  1.00  0.00    -0.376 OA
BRANCH  32  33
ATOM     33  C   UNL     1      -1.296  -1.218   1.287  1.00  0.00     0.202 C 
BRANCH  33  34
ATOM     34  C   UNL     1      -1.118  -2.696   0.889  1.00  0.00     0.261 C 
BRANCH  34  35
ATOM     35  O   UNL     1      -2.244  -3.479   0.508  1.00  0.00    -0.460 OA
BRANCH  35  36
ATOM     36  C   UNL     1      -2.858  -4.207   1.456  1.00  0.00     0.338 C 
ATOM     37  O   UNL     1      -2.550  -4.306   2.630  1.00  0.00    -0.246 OA
BRANCH  36  38
ATOM     38  C   UNL     1      -4.120  -4.674   0.850  1.00  0.00     0.060 A 
ATOM     39  C   UNL     1      -5.309  -4.120   1.337  1.00  0.00     0.016 A 
ATOM     40  C   UNL     1      -4.134  -5.557  -0.237  1.00  0.00     0.016 A 
ATOM     41  C   UNL     1      -6.518  -4.435   0.734  1.00  0.00     0.010 A 
ATOM     42  C   UNL     1      -5.360  -5.929  -0.799  1.00  0.00     0.010 A 
ATOM     43  C   UNL     1      -6.553  -5.385  -0.295  1.00  0.00    -0.014 A 
BRANCH  43  44
ATOM     44  C   UNL     1      -7.865  -6.002  -0.585  1.00  0.00     0.031 A 
ATOM     45  C   UNL     1      -8.269  -7.162   0.284  1.00  0.00     0.074 A 
ATOM     46  C   UNL     1      -8.712  -5.469  -1.482  1.00  0.00     0.049 A 
ATOM     47  N   UNL     1      -9.393  -7.824   0.311  1.00  0.00    -0.248 NA
ATOM     48  C   UNL     1      -7.277  -7.621   1.277  1.00  0.00     0.031 C 
ATOM     49  C   UNL     1      -8.438  -4.302  -2.320  1.00  0.00     0.029 A 
ATOM     50  N   UNL     1      -9.989  -5.835  -1.825  1.00  0.00    -0.354 N 
ATOM     51  C   UNL     1      -9.248  -8.761   1.327  1.00  0.00     0.074 A 
ATOM     52  C   UNL     1      -7.924  -8.606   1.879  1.00  0.00     0.031 C 
ATOM     53  C   UNL     1      -9.514  -4.053  -3.088  1.00  0.00     0.029 A 
ATOM     54  C   UNL     1     -10.544  -5.054  -2.811  1.00  0.00     0.049 A 
ATOM     55  H   UNL     1     -10.465  -6.587  -1.403  1.00  0.00     0.167 HD
ATOM     56  C   UNL     1     -10.150  -9.665   1.767  1.00  0.00     0.037 A 
ATOM     57  C   UNL     1     -11.741  -5.157  -3.425  1.00  0.00     0.037 A 
ATOM     58  C   UNL     1     -11.462  -9.813   1.203  1.00  0.00     0.049 A 
ATOM     59  C   UNL     1     -12.691  -6.243  -2.979  1.00  0.00     0.074 A 
ATOM     60  C   UNL     1     -12.452 -10.707   1.562  1.00  0.00     0.029 A 
ATOM     61  N   UNL     1     -11.961  -9.051   0.158  1.00  0.00    -0.354 N 
ATOM     62  N   UNL     1     -12.549  -7.116  -2.009  1.00  0.00    -0.248 NA
ATOM     63  C   UNL     1     -13.963  -6.360  -3.707  1.00  0.00     0.031 C 
ATOM     64  C   UNL     1     -13.533 -10.523   0.697  1.00  0.00     0.029 A 
ATOM     65  C   UNL     1     -13.238  -9.474  -0.161  1.00  0.00     0.049 A 
ATOM     66  H   UNL     1     -11.479  -8.319  -0.290  1.00  0.00     0.167 HD
ATOM     67  C   UNL     1     -13.719  -7.869  -1.996  1.00  0.00     0.074 A 
ATOM     68  C   UNL     1     -14.567  -7.335  -3.042  1.00  0.00     0.031 C 
ATOM     69  C   UNL     1     -14.063  -8.911  -1.199  1.00  0.00     0.037 A 
BRANCH  56  70
ATOM     70  C   UNL     1      -9.754 -10.573   2.892  1.00  0.00     0.058 A 
ATOM     71  C   UNL     1      -9.688 -10.116   4.217  1.00  0.00     0.135 A 
ATOM     72  C   UNL     1      -9.528 -11.938   2.653  1.00  0.00     0.135 A 
ATOM     73  F   UNL     1      -9.861  -8.814   4.493  1.00  0.00    -0.206 F 
ATOM     74  C   UNL     1      -9.435 -10.987   5.271  1.00  0.00     0.059 A 
ATOM     75  C   UNL     1      -9.295 -12.830   3.694  1.00  0.00     0.059 A 
ATOM     76  F   UNL     1      -9.559 -12.418   1.400  1.00  0.00    -0.206 F 
ATOM     77  C   UNL     1      -9.258 -12.346   5.000  1.00  0.00     0.060 A 
BRANCH  77  78
ATOM     78  S   UNL     1      -9.022 -13.473   6.390  1.00  0.00     0.124 S 
ATOM     79  O   UNL     1      -7.712 -13.061   6.884  1.00  0.00    -0.237 OA
ATOM     80  O   UNL     1     -10.155 -13.144   7.248  1.00  0.00    -0.237 OA
ATOM     81  O   UNL     1      -9.070 -14.794   5.770  1.00  0.00    -0.744 OA
ENDBRANCH  77  78
ENDBRANCH  56  70
BRANCH  57  82
ATOM     82  C   UNL     1     -12.101  -4.242  -4.546  1.00  0.00     0.058 A 
ATOM     83  C   UNL     1     -13.167  -3.336  -4.444  1.00  0.00     0.135 A 
ATOM     84  C   UNL     1     -11.404  -4.288  -5.765  1.00  0.00     0.135 A 
ATOM     85  F   UNL     1     -13.875  -3.258  -3.307  1.00  0.00    -0.206 F 
ATOM     86  C   UNL     1     -13.547  -2.530  -5.515  1.00  0.00     0.059 A 
ATOM     87  C   UNL     1     -11.745  -3.471  -6.839  1.00  0.00     0.059 A 
ATOM     88  F   UNL     1     -10.370  -5.130  -5.919  1.00  0.00    -0.206 F 
ATOM     89  C   UNL     1     -12.830  -2.606  -6.710  1.00  0.00     0.060 A 
BRANCH  89  90
ATOM     90  S   UNL     1     -13.322  -1.546  -8.087  1.00  0.00     0.124 S 
ATOM     91  O   UNL     1     -14.594  -2.143  -8.478  1.00  0.00    -0.237 OA
ATOM     92  O   UNL     1     -13.399  -0.236  -7.450  1.00  0.00    -0.237 OA
ATOM     93  O   UNL     1     -12.229  -1.707  -9.042  1.00  0.00    -0.744 OA
ENDBRANCH  89  90
ENDBRANCH  57  82
BRANCH  69  94
ATOM     94  C   UNL     1     -15.417  -9.531  -1.402  1.00  0.00     0.058 A 
ATOM     95  C   UNL     1     -15.693 -10.340  -2.514  1.00  0.00     0.135 A 
ATOM     96  C   UNL     1     -16.415  -9.394  -0.423  1.00  0.00     0.135 A 
ATOM     97  F   UNL     1     -14.772 -10.502  -3.478  1.00  0.00    -0.206 F 
ATOM     98  C   UNL     1     -16.919 -10.979  -2.658  1.00  0.00     0.059 A 
ATOM     99  C   UNL     1     -17.636 -10.049  -0.530  1.00  0.00     0.059 A 
ATOM    100  F   UNL     1     -16.193  -8.644   0.669  1.00  0.00    -0.206 F 
ATOM    101  C   UNL     1     -17.881 -10.833  -1.657  1.00  0.00     0.060 A 
BRANCH 101 102
ATOM    102  S   UNL     1     -19.450 -11.706  -1.839  1.00  0.00     0.124 S 
ATOM    103  O   UNL     1     -20.069 -10.973  -2.938  1.00  0.00    -0.237 OA
ATOM    104  O   UNL     1     -19.014 -13.065  -2.148  1.00  0.00    -0.237 OA
ATOM    105  O   UNL     1     -20.088 -11.539  -0.536  1.00  0.00    -0.744 OA
ENDBRANCH 101 102
ENDBRANCH  69  94
ENDBRANCH  43  44
ENDBRANCH  36  38
ENDBRANCH  35  36
ENDBRANCH  34  35
ENDBRANCH  33  34
ENDBRANCH  32  33
ENDBRANCH  31  32
ENDBRANCH  30  31
ENDBRANCH  29  30
ENDBRANCH   1  29
TORSDOF 27
