REMARK SMILES COc1ccc(N2C(=O)/C(=C/c3c(C(=O)OCCOCCOCCOCCOC(=O)c4ccc(-c5c6nc(c(-c7c(F)cc(S(=O)(=O)[O-])cc7F)c7ccc([nH]7)c(-c7c(F)cc(S(=O)(=O)[O-])cc7F)c7nc(c(-c8c(F)cc(S(=O)(=O)[O-])cc8F)c8ccc5[nH]8)C=C7)C=C6)cc4)[nH]c4cc(OC)ccc34)SC2=S)cc1
REMARK SMILES IDX 22 1 21 2 20 3 19 4 18 5 17 6 16 7 14 8 15 9 13 10 12 11
REMARK SMILES IDX 105 12 97 13 98 14 104 15 99 17 103 18 100 19 11 20 7 21
REMARK SMILES IDX 8 22 107 23 9 24 10 25 106 26 108 27 6 28 3 29 4 30 110 31
REMARK SMILES IDX 5 32 109 33 2 34 1 35 101 36 102 37 23 38 24 39 25 40 26 41
REMARK SMILES IDX 27 42 28 43 29 44 30 45 31 46 32 47 96 48 33 49 95 50 34 51
REMARK SMILES IDX 35 52 36 53 89 54 37 55 94 56 88 57 90 58 38 59 93 60 87 61
REMARK SMILES IDX 86 62 39 64 73 65 52 66 72 67 53 68 56 69 71 70 91 71 54 72
REMARK SMILES IDX 55 73 70 75 92 76 57 77 40 78 41 79 50 80 42 81 43 82 49 83
REMARK SMILES IDX 51 84 44 85 45 86 46 87 47 88 48 89 74 90 75 91 84 92 76 93
REMARK SMILES IDX 77 94 83 95 85 96 78 97 79 98 80 99 81 100 82 101 58 102
REMARK SMILES IDX 59 103 68 104 60 105 61 106 67 107 69 108 62 109 63 110
REMARK SMILES IDX 64 111 65 112 66 113
REMARK H PARENT 97 16 90 63 56 74
REMARK Flexibility Score: inf
ROOT
ATOM      1  O   UNL     1       1.649  -7.351  -5.988  1.00  0.00    -0.377 OA
ENDROOT
BRANCH   1   2
ATOM      2  C   UNL     1       1.349  -8.016  -7.212  1.00  0.00     0.188 C 
BRANCH   2   3
ATOM      3  C   UNL     1       2.383  -9.053  -7.714  1.00  0.00     0.188 C 
BRANCH   3   4
ATOM      4  O   UNL     1       3.792  -8.917  -7.522  1.00  0.00    -0.376 OA
BRANCH   4   5
ATOM      5  C   UNL     1       4.260  -8.187  -6.398  1.00  0.00     0.202 C 
BRANCH   5   6
ATOM      6  C   UNL     1       4.518  -6.712  -6.730  1.00  0.00     0.261 C 
BRANCH   6   7
ATOM      7  O   UNL     1       3.730  -6.257  -7.842  1.00  0.00    -0.459 OA
BRANCH   7   8
ATOM      8  C   UNL     1       4.254  -6.554  -9.062  1.00  0.00     0.355 C 
ATOM      9  O   UNL     1       5.393  -6.960  -9.265  1.00  0.00    -0.244 OA
BRANCH   8  10
ATOM     10  C   UNL     1       3.241  -6.491 -10.093  1.00  0.00     0.133 A 
ATOM     11  C   UNL     1       2.059  -5.779 -10.293  1.00  0.00     0.016 A 
ATOM     12  C   UNL     1       1.430  -6.300 -11.474  1.00  0.00     0.008 A 
ATOM     13  N   UNL     1       3.342  -7.380 -11.139  1.00  0.00    -0.348 N 
ATOM     14  C   UNL     1       2.206  -7.376 -11.901  1.00  0.00     0.050 A 
ATOM     15  C   UNL     1       0.241  -6.023 -12.187  1.00  0.00     0.015 A 
ATOM     16  H   UNL     1       4.128  -7.945 -11.316  1.00  0.00     0.167 HD
ATOM     17  C   UNL     1       1.811  -8.259 -12.908  1.00  0.00     0.073 A 
ATOM     18  C   UNL     1      -0.152  -6.870 -13.238  1.00  0.00     0.047 A 
ATOM     19  C   UNL     1       0.614  -7.987 -13.566  1.00  0.00     0.120 A 
BRANCH  11  20
ATOM     20  C   UNL     1       1.467  -4.855  -9.364  1.00  0.00     0.032 C 
ATOM     21  N   UNL     1       2.569  -2.890  -6.612  1.00  0.00    -0.261 N 
ATOM     22  C   UNL     1       1.512  -3.297  -7.449  1.00  0.00     0.270 C 
ATOM     23  C   UNL     1       3.826  -2.978  -7.228  1.00  0.00     0.152 C 
ATOM     24  O   UNL     1       0.302  -3.292  -7.261  1.00  0.00    -0.268 OA
ATOM     25  C   UNL     1       2.067  -3.844  -8.720  1.00  0.00     0.081 C 
ATOM     26  S   UNL     1       3.628  -3.215  -8.969  1.00  0.00    -0.054 SA
ATOM     27  S   UNL     1       5.401  -3.018  -6.651  1.00  0.00    -0.051 S 
BRANCH  21  28
ATOM     28  C   UNL     1       2.329  -2.475  -5.238  1.00  0.00     0.051 A 
ATOM     29  C   UNL     1       1.899  -1.707  -2.506  1.00  0.00     0.119 A 
ATOM     30  C   UNL     1       0.862  -2.204  -3.285  1.00  0.00     0.048 A 
ATOM     31  C   UNL     1       3.138  -1.557  -3.094  1.00  0.00     0.048 A 
ATOM     32  C   UNL     1       1.073  -2.593  -4.619  1.00  0.00     0.030 A 
ATOM     33  C   UNL     1       3.330  -1.905  -4.437  1.00  0.00     0.030 A 
BRANCH  29  34
ATOM     34  O   UNL     1       1.610  -1.417  -1.206  1.00  0.00    -0.497 OA
ATOM     35  C   UNL     1       2.580  -0.647  -0.500  1.00  0.00     0.278 C 
ENDBRANCH  29  34
ENDBRANCH  21  28
ENDBRANCH  11  20
BRANCH  19  36
ATOM     36  O   UNL     1       0.190  -8.929 -14.465  1.00  0.00    -0.497 OA
ATOM     37  C   UNL     1       0.114  -8.411 -15.788  1.00  0.00     0.278 C 
ENDBRANCH  19  36
ENDBRANCH   8  10
ENDBRANCH   7   8
ENDBRANCH   6   7
ENDBRANCH   5   6
ENDBRANCH   4   5
ENDBRANCH   3   4
ENDBRANCH   2   3
ENDBRANCH   1   2
BRANCH   1  38
ATOM     38  C   UNL     1       0.850  -7.751  -4.873  1.00  0.00     0.188 C 
BRANCH  38  39
ATOM     39  C   UNL     1       1.234  -9.132  -4.331  1.00  0.00     0.188 C 
BRANCH  39  40
ATOM     40  O   UNL     1       1.045 -10.148  -5.314  1.00  0.00    -0.376 OA
BRANCH  40  41
ATOM     41  C   UNL     1      -0.011 -11.069  -5.060  1.00  0.00     0.202 C 
BRANCH  41  42
ATOM     42  C   UNL     1      -1.403 -10.497  -5.363  1.00  0.00     0.261 C 
BRANCH  42  43
ATOM     43  O   UNL     1      -1.794  -9.406  -4.510  1.00  0.00    -0.460 OA
BRANCH  43  44
ATOM     44  C   UNL     1      -1.917  -9.703  -3.197  1.00  0.00     0.338 C 
ATOM     45  O   UNL     1      -1.772 -10.797  -2.681  1.00  0.00    -0.246 OA
BRANCH  44  46
ATOM     46  C   UNL     1      -2.096  -8.454  -2.434  1.00  0.00     0.060 A 
ATOM     47  C   UNL     1      -1.220  -8.191  -1.375  1.00  0.00     0.016 A 
ATOM     48  C   UNL     1      -3.164  -7.595  -2.702  1.00  0.00     0.016 A 
ATOM     49  C   UNL     1      -1.454  -7.103  -0.534  1.00  0.00     0.010 A 
ATOM     50  C   UNL     1      -3.404  -6.512  -1.851  1.00  0.00     0.010 A 
ATOM     51  C   UNL     1      -2.580  -6.291  -0.734  1.00  0.00    -0.014 A 
BRANCH  51  52
ATOM     52  C   UNL     1      -2.983  -5.338   0.331  1.00  0.00     0.031 A 
ATOM     53  C   UNL     1      -3.974  -5.784   1.368  1.00  0.00     0.074 A 
ATOM     54  C   UNL     1      -2.493  -4.089   0.384  1.00  0.00     0.049 A 
ATOM     55  N   UNL     1      -4.385  -5.155   2.438  1.00  0.00    -0.248 NA
ATOM     56  C   UNL     1      -4.596  -7.101   1.161  1.00  0.00     0.031 C 
ATOM     57  C   UNL     1      -1.588  -3.510  -0.598  1.00  0.00     0.029 A 
ATOM     58  N   UNL     1      -2.701  -3.078   1.292  1.00  0.00    -0.354 N 
ATOM     59  C   UNL     1      -5.324  -5.990   3.027  1.00  0.00     0.074 A 
ATOM     60  C   UNL     1      -5.438  -7.161   2.182  1.00  0.00     0.031 C 
ATOM     61  C   UNL     1      -1.335  -2.238  -0.247  1.00  0.00     0.029 A 
ATOM     62  C   UNL     1      -2.021  -1.921   0.996  1.00  0.00     0.049 A 
ATOM     63  H   UNL     1      -3.283  -3.174   2.080  1.00  0.00     0.167 HD
ATOM     64  C   UNL     1      -6.022  -5.801   4.171  1.00  0.00     0.037 A 
ATOM     65  C   UNL     1      -1.932  -0.746   1.652  1.00  0.00     0.037 A 
ATOM     66  C   UNL     1      -5.907  -4.642   5.016  1.00  0.00     0.049 A 
ATOM     67  C   UNL     1      -2.642  -0.601   2.968  1.00  0.00     0.074 A 
ATOM     68  C   UNL     1      -6.518  -4.399   6.235  1.00  0.00     0.029 A 
ATOM     69  N   UNL     1      -5.141  -3.524   4.726  1.00  0.00    -0.354 N 
ATOM     70  N   UNL     1      -3.411  -1.465   3.587  1.00  0.00    -0.248 NA
ATOM     71  C   UNL     1      -2.453   0.664   3.690  1.00  0.00     0.031 C 
ATOM     72  C   UNL     1      -6.144  -3.120   6.667  1.00  0.00     0.029 A 
ATOM     73  C   UNL     1      -5.278  -2.580   5.732  1.00  0.00     0.049 A 
ATOM     74  H   UNL     1      -4.581  -3.417   3.924  1.00  0.00     0.167 HD
ATOM     75  C   UNL     1      -3.784  -0.851   4.776  1.00  0.00     0.074 A 
ATOM     76  C   UNL     1      -3.119   0.435   4.811  1.00  0.00     0.031 C 
ATOM     77  C   UNL     1      -4.618  -1.302   5.746  1.00  0.00     0.037 A 
BRANCH  64  78
ATOM     78  C   UNL     1      -6.990  -6.879   4.558  1.00  0.00     0.058 A 
ATOM     79  C   UNL     1      -6.552  -8.111   5.068  1.00  0.00     0.135 A 
ATOM     80  C   UNL     1      -8.370  -6.676   4.415  1.00  0.00     0.135 A 
ATOM     81  F   UNL     1      -5.239  -8.361   5.199  1.00  0.00    -0.206 F 
ATOM     82  C   UNL     1      -7.451  -9.117   5.400  1.00  0.00     0.059 A 
ATOM     83  C   UNL     1      -9.289  -7.661   4.761  1.00  0.00     0.059 A 
ATOM     84  F   UNL     1      -8.837  -5.518   3.922  1.00  0.00    -0.206 F 
ATOM     85  C   UNL     1      -8.818  -8.884   5.239  1.00  0.00     0.060 A 
BRANCH  85  86
ATOM     86  S   UNL     1      -9.977 -10.197   5.672  1.00  0.00     0.124 S 
ATOM     87  O   UNL     1      -9.850 -11.087   4.521  1.00  0.00    -0.237 OA
ATOM     88  O   UNL     1      -9.428 -10.702   6.926  1.00  0.00    -0.237 OA
ATOM     89  O   UNL     1     -11.253  -9.498   5.787  1.00  0.00    -0.744 OA
ENDBRANCH  85  86
ENDBRANCH  64  78
BRANCH  65  90
ATOM     90  C   UNL     1      -1.083   0.361   1.122  1.00  0.00     0.058 A 
ATOM     91  C   UNL     1       0.073   0.771   1.804  1.00  0.00     0.135 A 
ATOM     92  C   UNL     1      -1.393   1.021  -0.078  1.00  0.00     0.135 A 
ATOM     93  F   UNL     1       0.428   0.168   2.949  1.00  0.00    -0.206 F 
ATOM     94  C   UNL     1       0.886   1.794   1.325  1.00  0.00     0.059 A 
ATOM     95  C   UNL     1      -0.568   2.013  -0.604  1.00  0.00     0.059 A 
ATOM     96  F   UNL     1      -2.487   0.674  -0.773  1.00  0.00    -0.206 F 
ATOM     97  C   UNL     1       0.572   2.391   0.105  1.00  0.00     0.060 A 
BRANCH  97  98
ATOM     98  S   UNL     1       1.747   3.564  -0.609  1.00  0.00     0.124 S 
ATOM     99  O   UNL     1       1.448   4.778   0.141  1.00  0.00    -0.237 OA
ATOM    100  O   UNL     1       3.030   2.930  -0.314  1.00  0.00    -0.237 OA
ATOM    101  O   UNL     1       1.383   3.583  -2.022  1.00  0.00    -0.744 OA
ENDBRANCH  97  98
ENDBRANCH  65  90
BRANCH  77 102
ATOM    102  C   UNL     1      -4.833  -0.380   6.912  1.00  0.00     0.058 A 
ATOM    103  C   UNL     1      -5.582   0.801   6.777  1.00  0.00     0.135 A 
ATOM    104  C   UNL     1      -4.225  -0.637   8.149  1.00  0.00     0.135 A 
ATOM    105  F   UNL     1      -6.175   1.095   5.609  1.00  0.00    -0.206 F 
ATOM    106  C   UNL     1      -5.664   1.729   7.808  1.00  0.00     0.059 A 
ATOM    107  C   UNL     1      -4.316   0.265   9.203  1.00  0.00     0.059 A 
ATOM    108  F   UNL     1      -3.508  -1.758   8.332  1.00  0.00    -0.206 F 
ATOM    109  C   UNL     1      -5.011   1.460   9.012  1.00  0.00     0.060 A 
BRANCH 109 110
ATOM    110  S   UNL     1      -5.064   2.695  10.327  1.00  0.00     0.124 S 
ATOM    111  O   UNL     1      -4.021   3.621   9.899  1.00  0.00    -0.237 OA
ATOM    112  O   UNL     1      -6.432   3.197  10.238  1.00  0.00    -0.237 OA
ATOM    113  O   UNL     1      -4.765   1.919  11.527  1.00  0.00    -0.744 OA
ENDBRANCH 109 110
ENDBRANCH  77 102
ENDBRANCH  51  52
ENDBRANCH  44  46
ENDBRANCH  43  44
ENDBRANCH  42  43
ENDBRANCH  41  42
ENDBRANCH  40  41
ENDBRANCH  39  40
ENDBRANCH  38  39
ENDBRANCH   1  38
TORSDOF 27
