REMARK SMILES O=C(N[C@@H](CS)C(=O)N[C@@H](CO)C(=O)OCCOCCOCCOCCOC(=O)c1ccc(-c2c3nc(c(-c4c(F)cc(S(=O)(=O)[O-])cc4F)c4ccc([nH]4)c(-c4c(F)cc(S(=O)(=O)[O-])cc4F)c4nc(c(-c5c(F)cc(S(=O)(=O)[O-])cc5F)c5ccc2[nH]5)C=C4)C=C3)cc1)c1ccc(F)cc1
REMARK SMILES IDX 20 1 19 2 18 3 17 4 16 5 15 6 13 7 14 8 10 9 9 10 7 11 8 12
REMARK SMILES IDX 4 14 3 15 1 16 2 17 96 19 97 20 102 21 98 22 101 23 99 24
REMARK SMILES IDX 100 25 5 26 6 27 11 29 12 30 21 32 22 33 23 34 24 35 25 36
REMARK SMILES IDX 26 37 27 38 28 39 29 40 30 41 31 42 95 43 32 44 94 45 33 46
REMARK SMILES IDX 34 47 35 48 88 49 36 50 93 51 87 52 89 53 37 54 92 55 86 56
REMARK SMILES IDX 85 57 38 59 72 60 51 61 71 62 52 63 55 64 70 65 90 66 53 67
REMARK SMILES IDX 54 68 69 70 91 71 56 72 39 73 40 74 49 75 41 76 42 77 48 78
REMARK SMILES IDX 50 79 43 80 44 81 45 82 46 83 47 84 73 85 74 86 83 87 75 88
REMARK SMILES IDX 76 89 82 90 84 91 77 92 78 93 79 94 80 95 81 96 57 97 58 98
REMARK SMILES IDX 67 99 59 100 60 101 66 102 68 103 61 104 62 105 63 106
REMARK SMILES IDX 64 107 65 108
REMARK H PARENT 9 13 3 18 6 28 12 31 89 58 55 69
REMARK Flexibility Score: inf
ROOT
ATOM      1  C   UNL     1       6.516   2.661   4.007  1.00  0.00     0.188 C 
ENDROOT
BRANCH   1   2
ATOM      2  C   UNL     1       6.012   4.073   3.669  1.00  0.00     0.188 C 
BRANCH   2   3
ATOM      3  O   UNL     1       6.123   5.127   4.612  1.00  0.00    -0.376 OA
BRANCH   3   4
ATOM      4  C   UNL     1       5.857   4.869   5.984  1.00  0.00     0.202 C 
BRANCH   4   5
ATOM      5  C   UNL     1       4.581   4.113   6.407  1.00  0.00     0.261 C 
BRANCH   5   6
ATOM      6  O   UNL     1       4.239   2.943   5.633  1.00  0.00    -0.462 OA
BRANCH   6   7
ATOM      7  C   UNL     1       3.075   2.991   4.936  1.00  0.00     0.331 C 
ATOM      8  O   UNL     1       2.302   3.944   4.932  1.00  0.00    -0.250 OA
BRANCH   7   9
ATOM      9  C   UNL     1       2.758   1.695   4.156  1.00  0.00     0.218 C 
BRANCH   9  10
ATOM     10  N   UNL     1       3.829   0.720   3.896  1.00  0.00    -0.339 N 
ATOM     11  C   UNL     1       4.396   0.256   2.749  1.00  0.00     0.244 C 
ATOM     12  O   UNL     1       5.364  -0.506   2.881  1.00  0.00    -0.273 OA
ATOM     13  H   UNL     1       4.211   0.326   4.713  1.00  0.00     0.164 HD
BRANCH  11  14
ATOM     14  C   UNL     1       3.989   0.685   1.322  1.00  0.00     0.181 C 
BRANCH  14  15
ATOM     15  N   UNL     1       2.576   0.473   1.015  1.00  0.00    -0.339 N 
ATOM     16  O   UNL     1       0.780  -0.144  -0.176  1.00  0.00    -0.269 OA
ATOM     17  C   UNL     1       2.001  -0.174  -0.049  1.00  0.00     0.251 C 
ATOM     18  H   UNL     1       1.943   0.852   1.667  1.00  0.00     0.164 HD
BRANCH  17  19
ATOM     19  C   UNL     1       2.821  -0.862  -1.074  1.00  0.00     0.040 A 
ATOM     20  C   UNL     1       3.791  -1.817  -0.741  1.00  0.00     0.017 A 
ATOM     21  C   UNL     1       2.559  -0.573  -2.420  1.00  0.00     0.017 A 
ATOM     22  C   UNL     1       4.559  -2.409  -1.746  1.00  0.00     0.040 A 
ATOM     23  C   UNL     1       3.311  -1.187  -3.424  1.00  0.00     0.040 A 
ATOM     24  C   UNL     1       4.314  -2.086  -3.077  1.00  0.00     0.123 A 
ATOM     25  F   UNL     1       5.047  -2.658  -4.040  1.00  0.00    -0.207 F 
ENDBRANCH  17  19
ENDBRANCH  14  15
BRANCH  14  26
ATOM     26  C   UNL     1       4.585   2.017   0.832  1.00  0.00     0.101 C 
BRANCH  26  27
ATOM     27  S   UNL     1       3.571   3.527   0.937  1.00  0.00    -0.177 SA
ATOM     28  H   UNL     1       2.498   3.411   0.110  1.00  0.00     0.102 HD
ENDBRANCH  26  27
ENDBRANCH  14  26
ENDBRANCH  11  14
ENDBRANCH   9  10
BRANCH   9  29
ATOM     29  C   UNL     1       1.616   0.997   4.901  1.00  0.00     0.193 C 
BRANCH  29  30
ATOM     30  O   UNL     1       2.058   0.452   6.143  1.00  0.00    -0.394 OA
ATOM     31  H   UNL     1       2.749  -0.208   5.979  1.00  0.00     0.210 HD
ENDBRANCH  29  30
ENDBRANCH   9  29
ENDBRANCH   7   9
ENDBRANCH   6   7
ENDBRANCH   5   6
ENDBRANCH   4   5
ENDBRANCH   3   4
ENDBRANCH   2   3
ENDBRANCH   1   2
BRANCH   1  32
ATOM     32  O   UNL     1       6.949   2.467   5.334  1.00  0.00    -0.377 OA
BRANCH  32  33
ATOM     33  C   UNL     1       8.353   2.519   5.536  1.00  0.00     0.188 C 
BRANCH  33  34
ATOM     34  C   UNL     1       9.135   3.566   4.718  1.00  0.00     0.188 C 
BRANCH  34  35
ATOM     35  O   UNL     1       8.930   3.470   3.309  1.00  0.00    -0.376 OA
BRANCH  35  36
ATOM     36  C   UNL     1       9.869   2.742   2.530  1.00  0.00     0.202 C 
BRANCH  36  37
ATOM     37  C   UNL     1       9.935   1.216   2.724  1.00  0.00     0.261 C 
BRANCH  37  38
ATOM     38  O   UNL     1      10.270   0.745   4.038  1.00  0.00    -0.460 OA
BRANCH  38  39
ATOM     39  C   UNL     1      11.415   1.198   4.596  1.00  0.00     0.338 C 
ATOM     40  O   UNL     1      12.253   1.899   4.071  1.00  0.00    -0.246 OA
BRANCH  39  41
ATOM     41  C   UNL     1      11.369   0.881   6.043  1.00  0.00     0.060 A 
ATOM     42  C   UNL     1      11.504   1.933   6.958  1.00  0.00     0.016 A 
ATOM     43  C   UNL     1      11.191  -0.430   6.493  1.00  0.00     0.016 A 
ATOM     44  C   UNL     1      11.516   1.670   8.326  1.00  0.00     0.010 A 
ATOM     45  C   UNL     1      11.229  -0.695   7.866  1.00  0.00     0.010 A 
ATOM     46  C   UNL     1      11.437   0.349   8.785  1.00  0.00    -0.014 A 
BRANCH  46  47
ATOM     47  C   UNL     1      11.805   0.059  10.192  1.00  0.00     0.031 A 
ATOM     48  C   UNL     1      13.212  -0.397  10.477  1.00  0.00     0.074 A 
ATOM     49  C   UNL     1      10.938   0.259  11.201  1.00  0.00     0.049 A 
ATOM     50  N   UNL     1      13.777  -0.689  11.619  1.00  0.00    -0.248 NA
ATOM     51  C   UNL     1      14.104  -0.538   9.313  1.00  0.00     0.031 C 
ATOM     52  C   UNL     1       9.565   0.738  11.054  1.00  0.00     0.029 A 
ATOM     53  N   UNL     1      11.091   0.084  12.553  1.00  0.00    -0.354 N 
ATOM     54  C   UNL     1      15.084  -1.049  11.312  1.00  0.00     0.074 A 
ATOM     55  C   UNL     1      15.219  -0.977   9.875  1.00  0.00     0.031 C 
ATOM     56  C   UNL     1       8.998   0.815  12.271  1.00  0.00     0.029 A 
ATOM     57  C   UNL     1       9.957   0.364  13.279  1.00  0.00     0.049 A 
ATOM     58  H   UNL     1      11.933  -0.214  12.966  1.00  0.00     0.167 HD
ATOM     59  C   UNL     1      16.087  -1.396  12.153  1.00  0.00     0.037 A 
ATOM     60  C   UNL     1       9.720   0.254  14.601  1.00  0.00     0.037 A 
ATOM     61  C   UNL     1      15.945  -1.469  13.584  1.00  0.00     0.049 A 
ATOM     62  C   UNL     1      10.832  -0.204  15.513  1.00  0.00     0.074 A 
ATOM     63  C   UNL     1      16.901  -1.800  14.527  1.00  0.00     0.029 A 
ATOM     64  N   UNL     1      14.770  -1.216  14.278  1.00  0.00    -0.354 N 
ATOM     65  N   UNL     1      12.071  -0.519  15.213  1.00  0.00    -0.248 NA
ATOM     66  C   UNL     1      10.517  -0.313  16.944  1.00  0.00     0.031 C 
ATOM     67  C   UNL     1      16.290  -1.805  15.785  1.00  0.00     0.029 A 
ATOM     68  C   UNL     1      14.970  -1.411  15.634  1.00  0.00     0.049 A 
ATOM     69  H   UNL     1      13.919  -0.939  13.867  1.00  0.00     0.167 HD
ATOM     70  C   UNL     1      12.690  -0.831  16.421  1.00  0.00     0.074 A 
ATOM     71  C   UNL     1      11.692  -0.653  17.456  1.00  0.00     0.031 C 
ATOM     72  C   UNL     1      13.967  -1.226  16.654  1.00  0.00     0.037 A 
BRANCH  59  73
ATOM     73  C   UNL     1      17.416  -1.751  11.545  1.00  0.00     0.058 A 
ATOM     74  C   UNL     1      18.239  -0.786  10.942  1.00  0.00     0.135 A 
ATOM     75  C   UNL     1      17.887  -3.074  11.593  1.00  0.00     0.135 A 
ATOM     76  F   UNL     1      17.830   0.489  10.848  1.00  0.00    -0.206 F 
ATOM     77  C   UNL     1      19.470  -1.124  10.387  1.00  0.00     0.059 A 
ATOM     78  C   UNL     1      19.128  -3.428  11.072  1.00  0.00     0.059 A 
ATOM     79  F   UNL     1      17.139  -4.038  12.151  1.00  0.00    -0.206 F 
ATOM     80  C   UNL     1      19.907  -2.448  10.460  1.00  0.00     0.060 A 
BRANCH  80  81
ATOM     81  S   UNL     1      21.511  -2.866   9.746  1.00  0.00     0.124 S 
ATOM     82  O   UNL     1      21.234  -2.745   8.317  1.00  0.00    -0.237 OA
ATOM     83  O   UNL     1      22.380  -1.840  10.312  1.00  0.00    -0.237 OA
ATOM     84  O   UNL     1      21.754  -4.223  10.224  1.00  0.00    -0.744 OA
ENDBRANCH  80  81
ENDBRANCH  59  73
BRANCH  60  85
ATOM     85  C   UNL     1       8.373   0.573  15.149  1.00  0.00     0.058 A 
ATOM     86  C   UNL     1       8.170   1.674  15.993  1.00  0.00     0.135 A 
ATOM     87  C   UNL     1       7.260  -0.229  14.846  1.00  0.00     0.135 A 
ATOM     88  F   UNL     1       9.203   2.464  16.325  1.00  0.00    -0.206 F 
ATOM     89  C   UNL     1       6.919   1.961  16.532  1.00  0.00     0.059 A 
ATOM     90  C   UNL     1       5.994   0.055  15.348  1.00  0.00     0.059 A 
ATOM     91  F   UNL     1       7.396  -1.291  14.036  1.00  0.00    -0.206 F 
ATOM     92  C   UNL     1       5.835   1.146  16.199  1.00  0.00     0.060 A 
BRANCH  92  93
ATOM     93  S   UNL     1       4.208   1.555  16.867  1.00  0.00     0.124 S 
ATOM     94  O   UNL     1       4.370   1.206  18.273  1.00  0.00    -0.237 OA
ATOM     95  O   UNL     1       4.106   2.980  16.570  1.00  0.00    -0.237 OA
ATOM     96  O   UNL     1       3.307   0.697  16.103  1.00  0.00    -0.744 OA
ENDBRANCH  92  93
ENDBRANCH  60  85
BRANCH  72  97
ATOM     97  C   UNL     1      14.375  -1.451  18.087  1.00  0.00     0.058 A 
ATOM     98  C   UNL     1      13.894  -2.537  18.835  1.00  0.00     0.135 A 
ATOM     99  C   UNL     1      15.296  -0.589  18.706  1.00  0.00     0.135 A 
ATOM    100  F   UNL     1      13.011  -3.392  18.296  1.00  0.00    -0.206 F 
ATOM    101  C   UNL     1      14.282  -2.738  20.157  1.00  0.00     0.059 A 
ATOM    102  C   UNL     1      15.724  -0.790  20.014  1.00  0.00     0.059 A 
ATOM    103  F   UNL     1      15.802   0.457  18.032  1.00  0.00    -0.206 F 
ATOM    104  C   UNL     1      15.197  -1.859  20.738  1.00  0.00     0.060 A 
BRANCH 104 105
ATOM    105  S   UNL     1      15.702  -2.139  22.448  1.00  0.00     0.124 S 
ATOM    106  O   UNL     1      14.501  -1.747  23.177  1.00  0.00    -0.237 OA
ATOM    107  O   UNL     1      16.009  -3.567  22.452  1.00  0.00    -0.237 OA
ATOM    108  O   UNL     1      16.853  -1.257  22.613  1.00  0.00    -0.744 OA
ENDBRANCH 104 105
ENDBRANCH  72  97
ENDBRANCH  46  47
ENDBRANCH  39  41
ENDBRANCH  38  39
ENDBRANCH  37  38
ENDBRANCH  36  37
ENDBRANCH  35  36
ENDBRANCH  34  35
ENDBRANCH  33  34
ENDBRANCH  32  33
ENDBRANCH   1  32
TORSDOF 31
