REMARK SMILES Cc1cc(S(F)(F)(F)(F)F)cc2c1O[C@H](C(F)(F)F)C(C(=O)OCCOCCOCCOCCOC(=O)c1ccc(-c3c4nc(c(-c5c(F)cc(S(=O)(=O)[O-])cc5F)c5ccc([nH]5)c(-c5c(F)cc(S(=O)(=O)[O-])cc5F)c5nc(c(-c6c(F)cc(S(=O)(=O)[O-])cc6F)c6ccc3[nH]6)C=C5)C=C4)cc1)=C2
REMARK SMILES IDX 30 1 29 2 28 3 27 4 26 5 25 6 24 7 23 8 21 9 22 10 20 11
REMARK SMILES IDX 1 12 2 13 3 14 13 15 4 16 12 17 14 18 11 19 104 20 15 21
REMARK SMILES IDX 5 22 6 23 7 24 8 25 9 26 10 27 16 28 17 29 18 30 19 31 31 32
REMARK SMILES IDX 32 33 33 34 34 35 35 36 36 37 37 38 38 39 39 40 103 41 40 42
REMARK SMILES IDX 102 43 41 44 42 45 43 46 96 47 44 48 101 49 95 50 97 51
REMARK SMILES IDX 45 52 100 53 94 54 93 55 46 57 80 58 59 59 79 60 60 61 63 62
REMARK SMILES IDX 78 63 98 64 61 65 62 66 77 68 99 69 64 70 47 71 48 72 57 73
REMARK SMILES IDX 49 74 50 75 56 76 58 77 51 78 52 79 53 80 54 81 55 82 81 83
REMARK SMILES IDX 82 84 91 85 83 86 84 87 90 88 92 89 85 90 86 91 87 92 88 93
REMARK SMILES IDX 89 94 65 95 66 96 75 97 67 98 68 99 74 100 76 101 69 102
REMARK SMILES IDX 70 103 71 104 72 105 73 106
REMARK H PARENT 97 56 63 67
REMARK Flexibility Score: inf
ROOT
ATOM      1  C   UNL     1       5.805  -7.397  -1.226  1.00  0.00     0.188 C 
ENDROOT
BRANCH   1   2
ATOM      2  O   UNL     1       5.321  -6.139  -0.778  1.00  0.00    -0.377 OA
BRANCH   2   3
ATOM      3  C   UNL     1       4.555  -6.321   0.404  1.00  0.00     0.188 C 
BRANCH   3   4
ATOM      4  C   UNL     1       3.381  -7.241   0.112  1.00  0.00     0.188 C 
BRANCH   4   5
ATOM      5  O   UNL     1       3.865  -8.498  -0.337  1.00  0.00    -0.376 OA
BRANCH   5   6
ATOM      6  C   UNL     1       4.631  -8.317  -1.519  1.00  0.00     0.202 C 
BRANCH   6   7
ATOM      7  C   UNL     1       3.758  -7.697  -2.597  1.00  0.00     0.261 C 
BRANCH   7   8
ATOM      8  O   UNL     1       3.273  -6.439  -2.149  1.00  0.00    -0.460 OA
BRANCH   8   9
ATOM      9  C   UNL     1       2.477  -6.362  -0.977  1.00  0.00     0.338 C 
ATOM     10  O   UNL     1       2.197  -7.418  -0.328  1.00  0.00    -0.246 OA
BRANCH   9  11
ATOM     11  C   UNL     1       1.958  -5.016  -0.497  1.00  0.00     0.087 C 
ATOM     12  C   UNL     1       1.059  -0.063   0.050  1.00  0.00     0.048 C 
ATOM     13  C   UNL     1       0.553  -1.290   0.790  1.00  0.00    -0.007 A 
ATOM     14  C   UNL     1      -0.218  -1.235   1.931  1.00  0.00     0.031 A 
ATOM     15  C   UNL     1       1.029  -2.523   0.346  1.00  0.00     0.130 A 
ATOM     16  C   UNL     1      -0.519  -2.390   2.641  1.00  0.00     0.108 A 
ATOM     17  C   UNL     1       0.717  -3.696   1.068  1.00  0.00     0.019 A 
ATOM     18  O   UNL     1       1.856  -2.648  -0.861  1.00  0.00    -0.475 OA
ATOM     19  C   UNL     1      -0.067  -3.609   2.220  1.00  0.00     0.036 A 
ATOM     20  C   UNL     1       1.231  -4.976   0.580  1.00  0.00     0.027 C 
ATOM     21  C   UNL     1       2.283  -3.874  -1.230  1.00  0.00     0.316 C 
BRANCH  16  22
ATOM     22  S   UNL     1      -1.522  -2.279   4.143  1.00  0.00     0.310 S 
ATOM     23  F   UNL     1      -0.239  -2.332   5.074  1.00  0.00    -0.094 F 
ATOM     24  F   UNL     1      -1.549  -3.853   4.208  1.00  0.00    -0.094 F 
ATOM     25  F   UNL     1      -2.380  -2.184   5.436  1.00  0.00    -0.094 F 
ATOM     26  F   UNL     1      -1.366  -0.707   4.140  1.00  0.00    -0.094 F 
ATOM     27  F   UNL     1      -0.556  -2.363   2.895  1.00  0.00    -0.094 F 
ENDBRANCH  16  22
BRANCH  21  28
ATOM     28  C   UNL     1       1.529  -4.101  -2.531  1.00  0.00     0.430 C 
ATOM     29  F   UNL     1       1.800  -3.113  -3.379  1.00  0.00    -0.167 F 
ATOM     30  F   UNL     1       1.904  -5.260  -3.065  1.00  0.00    -0.167 F 
ATOM     31  F   UNL     1       0.222  -4.128  -2.286  1.00  0.00    -0.167 F 
ENDBRANCH  21  28
ENDBRANCH   9  11
ENDBRANCH   8   9
ENDBRANCH   7   8
ENDBRANCH   6   7
ENDBRANCH   5   6
ENDBRANCH   4   5
ENDBRANCH   3   4
ENDBRANCH   2   3
ENDBRANCH   1   2
BRANCH   1  32
ATOM     32  C   UNL     1       6.678  -8.017  -0.147  1.00  0.00     0.188 C 
BRANCH  32  33
ATOM     33  O   UNL     1       5.912  -8.199   1.035  1.00  0.00    -0.376 OA
BRANCH  33  34
ATOM     34  C   UNL     1       5.428  -6.941   1.483  1.00  0.00     0.202 C 
BRANCH  34  35
ATOM     35  C   UNL     1       6.602  -6.021   1.776  1.00  0.00     0.261 C 
BRANCH  35  36
ATOM     36  O   UNL     1       7.368  -5.840   0.593  1.00  0.00    -0.460 OA
BRANCH  36  37
ATOM     37  C   UNL     1       7.961  -6.960  -0.047  1.00  0.00     0.338 C 
ATOM     38  O   UNL     1       7.807  -8.124   0.437  1.00  0.00    -0.246 OA
BRANCH  37  39
ATOM     39  C   UNL     1       8.780  -6.766  -1.313  1.00  0.00     0.060 A 
ATOM     40  C   UNL     1       8.620  -7.620  -2.398  1.00  0.00     0.016 A 
ATOM     41  C   UNL     1       9.667  -5.798  -1.405  1.00  0.00     0.016 A 
ATOM     42  C   UNL     1       9.014  -7.119  -3.659  1.00  0.00     0.010 A 
ATOM     43  C   UNL     1      10.436  -5.639  -2.562  1.00  0.00     0.010 A 
ATOM     44  C   UNL     1      10.126  -6.278  -3.670  1.00  0.00    -0.014 A 
BRANCH  44  45
ATOM     45  C   UNL     1      10.958  -6.103  -4.930  1.00  0.00     0.031 A 
ATOM     46  C   UNL     1      12.308  -6.454  -4.875  1.00  0.00     0.074 A 
ATOM     47  C   UNL     1      10.335  -5.595  -6.057  1.00  0.00     0.049 A 
ATOM     48  N   UNL     1      13.203  -6.401  -5.862  1.00  0.00    -0.248 NA
ATOM     49  C   UNL     1      12.979  -6.961  -3.669  1.00  0.00     0.031 C 
ATOM     50  C   UNL     1       8.972  -5.247  -6.123  1.00  0.00     0.029 A 
ATOM     51  N   UNL     1      10.896  -5.337  -7.288  1.00  0.00    -0.354 N 
ATOM     52  C   UNL     1      14.389  -6.836  -5.433  1.00  0.00     0.074 A 
ATOM     53  C   UNL     1      14.264  -7.197  -4.015  1.00  0.00     0.031 C 
ATOM     54  C   UNL     1       8.717  -4.776  -7.372  1.00  0.00     0.029 A 
ATOM     55  C   UNL     1       9.916  -4.822  -8.108  1.00  0.00     0.049 A 
ATOM     56  H   UNL     1      11.835  -5.495  -7.540  1.00  0.00     0.167 HD
ATOM     57  C   UNL     1      15.570  -6.949  -6.170  1.00  0.00     0.037 A 
ATOM     58  C   UNL     1      10.042  -4.407  -9.424  1.00  0.00     0.037 A 
ATOM     59  C   UNL     1      15.685  -6.574  -7.499  1.00  0.00     0.049 A 
ATOM     60  C   UNL     1      11.238  -4.465 -10.144  1.00  0.00     0.074 A 
ATOM     61  C   UNL     1      16.865  -6.688  -8.258  1.00  0.00     0.029 A 
ATOM     62  N   UNL     1      14.711  -6.036  -8.311  1.00  0.00    -0.354 N 
ATOM     63  N   UNL     1      12.413  -4.937  -9.727  1.00  0.00    -0.248 NA
ATOM     64  C   UNL     1      11.391  -3.998 -11.528  1.00  0.00     0.031 C 
ATOM     65  C   UNL     1      16.610  -6.216  -9.508  1.00  0.00     0.029 A 
ATOM     66  C   UNL     1      15.266  -5.799  -9.549  1.00  0.00     0.049 A 
ATOM     67  H   UNL     1      13.780  -5.852  -8.051  1.00  0.00     0.167 HD
ATOM     68  C   UNL     1      13.319  -4.845 -10.703  1.00  0.00     0.074 A 
ATOM     69  C   UNL     1      12.676  -4.233 -11.873  1.00  0.00     0.031 C 
ATOM     70  C   UNL     1      14.654  -5.250 -10.665  1.00  0.00     0.037 A 
BRANCH  57  71
ATOM     71  C   UNL     1      16.798  -7.513  -5.474  1.00  0.00     0.058 A 
ATOM     72  C   UNL     1      16.809  -8.796  -4.965  1.00  0.00     0.135 A 
ATOM     73  C   UNL     1      17.943  -6.736  -5.377  1.00  0.00     0.135 A 
ATOM     74  F   UNL     1      15.716  -9.549  -5.054  1.00  0.00    -0.206 F 
ATOM     75  C   UNL     1      17.896  -9.286  -4.389  1.00  0.00     0.059 A 
ATOM     76  C   UNL     1      19.066  -7.282  -4.772  1.00  0.00     0.059 A 
ATOM     77  F   UNL     1      17.964  -5.494  -5.852  1.00  0.00    -0.206 F 
ATOM     78  C   UNL     1      19.006  -8.574  -4.285  1.00  0.00     0.060 A 
BRANCH  78  79
ATOM     79  S   UNL     1      20.463  -9.300  -3.494  1.00  0.00     0.124 S 
ATOM     80  O   UNL     1      20.124  -9.680  -2.050  1.00  0.00    -0.237 OA
ATOM     81  O   UNL     1      20.891 -10.551  -4.264  1.00  0.00    -0.237 OA
ATOM     82  O   UNL     1      21.740  -8.162  -3.499  1.00  0.00    -0.744 OA
ENDBRANCH  78  79
ENDBRANCH  57  71
BRANCH  58  83
ATOM     83  C   UNL     1       8.809  -3.858 -10.124  1.00  0.00     0.058 A 
ATOM     84  C   UNL     1       8.325  -4.435 -11.281  1.00  0.00     0.135 A 
ATOM     85  C   UNL     1       8.175  -2.737  -9.610  1.00  0.00     0.135 A 
ATOM     86  F   UNL     1       8.926  -5.511 -11.781  1.00  0.00    -0.206 F 
ATOM     87  C   UNL     1       7.268  -3.930 -11.898  1.00  0.00     0.059 A 
ATOM     88  C   UNL     1       7.067  -2.237 -10.278  1.00  0.00     0.059 A 
ATOM     89  F   UNL     1       8.620  -2.153  -8.500  1.00  0.00    -0.206 F 
ATOM     90  C   UNL     1       6.636  -2.866 -11.431  1.00  0.00     0.060 A 
BRANCH  90  91
ATOM     91  S   UNL     1       5.192  -2.225 -12.313  1.00  0.00     0.124 S 
ATOM     92  O   UNL     1       5.596  -1.828 -13.734  1.00  0.00    -0.237 OA
ATOM     93  O   UNL     1       4.110  -3.306 -12.374  1.00  0.00    -0.237 OA
ATOM     94  O   UNL     1       4.583  -0.855 -11.490  1.00  0.00    -0.744 OA
ENDBRANCH  90  91
ENDBRANCH  58  83
BRANCH  70  95
ATOM     95  C   UNL     1      15.488  -5.078 -11.925  1.00  0.00     0.058 A 
ATOM     96  C   UNL     1      15.665  -3.826 -12.478  1.00  0.00     0.135 A 
ATOM     97  C   UNL     1      16.069  -6.178 -12.539  1.00  0.00     0.135 A 
ATOM     98  F   UNL     1      15.112  -2.765 -11.896  1.00  0.00    -0.206 F 
ATOM     99  C   UNL     1      16.379  -3.669 -13.581  1.00  0.00     0.059 A 
ATOM    100  C   UNL     1      16.815  -5.976 -13.691  1.00  0.00     0.059 A 
ATOM    101  F   UNL     1      15.913  -7.399 -12.035  1.00  0.00    -0.206 F 
ATOM    102  C   UNL     1      16.951  -4.695 -14.189  1.00  0.00     0.060 A 
BRANCH 102 103
ATOM    103  S   UNL     1      17.923  -4.417 -15.690  1.00  0.00     0.124 S 
ATOM    104  O   UNL     1      17.032  -3.793 -16.767  1.00  0.00    -0.237 OA
ATOM    105  O   UNL     1      19.085  -3.471 -15.378  1.00  0.00    -0.237 OA
ATOM    106  O   UNL     1      18.539  -5.909 -16.255  1.00  0.00    -0.744 OA
ENDBRANCH 102 103
ENDBRANCH  70  95
ENDBRANCH  44  45
ENDBRANCH  37  39
ENDBRANCH  36  37
ENDBRANCH  35  36
ENDBRANCH  34  35
ENDBRANCH  33  34
ENDBRANCH  32  33
ENDBRANCH   1  32
TORSDOF 25
