REMARK SMILES CCOc1cc2nccc(Nc3ccc(C(=O)OCCOCCOCCOCCOC(=O)c4ccc(-c5c6nc(c(-c7c(F)cc(S(=O)(=O)[O-])cc7F)c7ccc([nH]7)c(-c7c(F)cc(S(=O)(=O)[O-])cc7F)c7nc(c(-c8c(F)cc(S(=O)(=O)[O-])cc8F)c8ccc5[nH]8)C=C7)C=C6)cc4)cc3)c2cc1OCC
REMARK SMILES IDX 23 1 22 2 21 3 20 4 19 5 18 6 16 7 17 8 15 9 12 10 13 11
REMARK SMILES IDX 100 12 14 13 99 14 11 15 10 17 4 18 5 19 103 20 6 21 102 22
REMARK SMILES IDX 7 23 101 24 8 25 9 26 3 27 2 28 1 29 104 30 105 31 106 32
REMARK SMILES IDX 24 33 25 34 26 35 27 36 28 37 29 38 30 39 31 40 32 41 33 42
REMARK SMILES IDX 34 43 98 44 35 45 97 46 36 47 37 48 38 49 91 50 39 51 96 52
REMARK SMILES IDX 90 53 92 54 40 55 95 56 89 57 88 58 41 60 75 61 54 62 74 63
REMARK SMILES IDX 55 64 58 65 73 66 93 67 56 68 57 69 72 71 94 72 59 73 42 74
REMARK SMILES IDX 43 75 52 76 44 77 45 78 51 79 53 80 46 81 47 82 48 83 49 84
REMARK SMILES IDX 50 85 76 86 77 87 86 88 78 89 79 90 85 91 87 92 80 93 81 94
REMARK SMILES IDX 82 95 83 96 84 97 60 98 61 99 70 100 62 101 63 102 69 103
REMARK SMILES IDX 71 104 64 105 65 106 66 107 67 108 68 109
REMARK H PARENT 11 16 92 59 58 70
REMARK Flexibility Score: inf
ROOT
ATOM      1  C   UNL     1      13.623   0.681  -1.356  1.00  0.00     0.188 C 
ENDROOT
BRANCH   1   2
ATOM      2  C   UNL     1      14.262   0.292  -2.701  1.00  0.00     0.188 C 
BRANCH   2   3
ATOM      3  O   UNL     1      15.518   0.920  -2.941  1.00  0.00    -0.376 OA
BRANCH   3   4
ATOM      4  C   UNL     1      15.552   1.954  -3.915  1.00  0.00     0.202 C 
BRANCH   4   5
ATOM      5  C   UNL     1      14.852   3.268  -3.541  1.00  0.00     0.261 C 
BRANCH   5   6
ATOM      6  O   UNL     1      13.460   3.144  -3.220  1.00  0.00    -0.460 OA
BRANCH   6   7
ATOM      7  C   UNL     1      12.639   2.713  -4.196  1.00  0.00     0.338 C 
ATOM      8  O   UNL     1      12.935   2.463  -5.354  1.00  0.00    -0.246 OA
BRANCH   7   9
ATOM      9  C   UNL     1      11.328   2.399  -3.592  1.00  0.00     0.060 A 
ATOM     10  C   UNL     1       8.792   1.802  -2.582  1.00  0.00     0.038 A 
ATOM     11  C   UNL     1       9.390   0.961  -3.530  1.00  0.00     0.027 A 
ATOM     12  C   UNL     1       9.511   2.894  -2.083  1.00  0.00     0.027 A 
ATOM     13  C   UNL     1      10.648   1.264  -4.045  1.00  0.00     0.018 A 
ATOM     14  C   UNL     1      10.780   3.191  -2.578  1.00  0.00     0.018 A 
BRANCH  10  15
ATOM     15  N   UNL     1       7.431   1.617  -2.283  1.00  0.00    -0.355 N 
ATOM     16  H   UNL     1       7.200   0.778  -1.823  1.00  0.00     0.167 HD
BRANCH  15  17
ATOM     17  C   UNL     1       6.348   2.494  -2.563  1.00  0.00     0.050 A 
ATOM     18  C   UNL     1       2.328   1.349  -1.882  1.00  0.00     0.163 A 
ATOM     19  C   UNL     1       2.649   2.594  -2.436  1.00  0.00     0.079 A 
ATOM     20  C   UNL     1       3.352   0.490  -1.490  1.00  0.00     0.161 A 
ATOM     21  C   UNL     1       3.969   2.992  -2.631  1.00  0.00     0.076 A 
ATOM     22  C   UNL     1       4.676   0.870  -1.693  1.00  0.00     0.063 A 
ATOM     23  N   UNL     1       4.195   4.197  -3.176  1.00  0.00    -0.256 NA
ATOM     24  C   UNL     1       5.013   2.106  -2.280  1.00  0.00     0.028 A 
ATOM     25  C   UNL     1       5.475   4.559  -3.398  1.00  0.00     0.114 A 
ATOM     26  C   UNL     1       6.562   3.758  -3.117  1.00  0.00     0.047 A 
BRANCH  18  27
ATOM     27  O   UNL     1       1.036   0.904  -1.832  1.00  0.00    -0.490 OA
BRANCH  27  28
ATOM     28  C   UNL     1       0.130   1.775  -1.151  1.00  0.00     0.226 C 
ATOM     29  C   UNL     1      -0.962   0.901  -0.551  1.00  0.00     0.049 C 
ENDBRANCH  27  28
ENDBRANCH  18  27
BRANCH  20  30
ATOM     30  O   UNL     1       3.223  -0.749  -0.927  1.00  0.00    -0.490 OA
BRANCH  30  31
ATOM     31  C   UNL     1       2.238  -0.901   0.094  1.00  0.00     0.226 C 
ATOM     32  C   UNL     1       2.405   0.067   1.258  1.00  0.00     0.049 C 
ENDBRANCH  30  31
ENDBRANCH  20  30
ENDBRANCH  15  17
ENDBRANCH  10  15
ENDBRANCH   7   9
ENDBRANCH   6   7
ENDBRANCH   5   6
ENDBRANCH   4   5
ENDBRANCH   3   4
ENDBRANCH   2   3
ENDBRANCH   1   2
BRANCH   1  33
ATOM     33  O   UNL     1      14.227   1.774  -0.690  1.00  0.00    -0.377 OA
BRANCH  33  34
ATOM     34  C   UNL     1      15.547   1.630  -0.168  1.00  0.00     0.188 C 
BRANCH  34  35
ATOM     35  C   UNL     1      16.376   0.331  -0.313  1.00  0.00     0.188 C 
BRANCH  35  36
ATOM     36  O   UNL     1      15.616  -0.873  -0.347  1.00  0.00    -0.376 OA
BRANCH  36  37
ATOM     37  C   UNL     1      15.720  -1.718   0.789  1.00  0.00     0.202 C 
BRANCH  37  38
ATOM     38  C   UNL     1      14.896  -1.233   1.986  1.00  0.00     0.261 C 
BRANCH  38  39
ATOM     39  O   UNL     1      15.312   0.032   2.523  1.00  0.00    -0.460 OA
BRANCH  39  40
ATOM     40  C   UNL     1      16.575   0.090   3.001  1.00  0.00     0.338 C 
ATOM     41  O   UNL     1      17.375  -0.824   3.075  1.00  0.00    -0.246 OA
BRANCH  40  42
ATOM     42  C   UNL     1      16.906   1.503   3.259  1.00  0.00     0.060 A 
ATOM     43  C   UNL     1      18.071   2.032   2.690  1.00  0.00     0.016 A 
ATOM     44  C   UNL     1      16.093   2.285   4.084  1.00  0.00     0.016 A 
ATOM     45  C   UNL     1      18.470   3.326   3.013  1.00  0.00     0.010 A 
ATOM     46  C   UNL     1      16.500   3.577   4.417  1.00  0.00     0.010 A 
ATOM     47  C   UNL     1      17.720   4.077   3.928  1.00  0.00    -0.014 A 
BRANCH  47  48
ATOM     48  C   UNL     1      18.353   5.246   4.582  1.00  0.00     0.031 A 
ATOM     49  C   UNL     1      19.053   5.018   5.896  1.00  0.00     0.074 A 
ATOM     50  C   UNL     1      18.355   6.461   4.009  1.00  0.00     0.049 A 
ATOM     51  N   UNL     1      19.721   5.859   6.641  1.00  0.00    -0.248 NA
ATOM     52  C   UNL     1      18.988   3.651   6.441  1.00  0.00     0.031 C 
ATOM     53  C   UNL     1      17.744   6.793   2.725  1.00  0.00     0.029 A 
ATOM     54  N   UNL     1      18.903   7.641   4.441  1.00  0.00    -0.354 N 
ATOM     55  C   UNL     1      20.155   5.125   7.739  1.00  0.00     0.074 A 
ATOM     56  C   UNL     1      19.637   3.784   7.585  1.00  0.00     0.031 C 
ATOM     57  C   UNL     1      17.962   8.095   2.465  1.00  0.00     0.029 A 
ATOM     58  C   UNL     1      18.709   8.688   3.575  1.00  0.00     0.049 A 
ATOM     59  H   UNL     1      19.390   7.729   5.292  1.00  0.00     0.167 HD
ATOM     60  C   UNL     1      20.928   5.525   8.776  1.00  0.00     0.037 A 
ATOM     61  C   UNL     1      19.096   9.976   3.670  1.00  0.00     0.037 A 
ATOM     62  C   UNL     1      21.427   6.864   8.933  1.00  0.00     0.049 A 
ATOM     63  C   UNL     1      19.898  10.419   4.866  1.00  0.00     0.074 A 
ATOM     64  C   UNL     1      22.217   7.378   9.945  1.00  0.00     0.029 A 
ATOM     65  N   UNL     1      21.170   7.908   8.056  1.00  0.00    -0.354 N 
ATOM     66  N   UNL     1      20.324   9.712   5.886  1.00  0.00    -0.248 NA
ATOM     67  C   UNL     1      20.282  11.837   4.917  1.00  0.00     0.031 C 
ATOM     68  C   UNL     1      22.400   8.744   9.703  1.00  0.00     0.029 A 
ATOM     69  C   UNL     1      21.770   9.069   8.512  1.00  0.00     0.049 A 
ATOM     70  H   UNL     1      20.639   7.834   7.230  1.00  0.00     0.167 HD
ATOM     71  C   UNL     1      21.061  10.588   6.678  1.00  0.00     0.074 A 
ATOM     72  C   UNL     1      21.018  11.878   6.019  1.00  0.00     0.031 C 
ATOM     73  C   UNL     1      21.724  10.344   7.838  1.00  0.00     0.037 A 
BRANCH  60  74
ATOM     74  C   UNL     1      21.230   4.497   9.832  1.00  0.00     0.058 A 
ATOM     75  C   UNL     1      22.070   3.399   9.579  1.00  0.00     0.135 A 
ATOM     76  C   UNL     1      20.634   4.585  11.100  1.00  0.00     0.135 A 
ATOM     77  F   UNL     1      22.650   3.254   8.377  1.00  0.00    -0.206 F 
ATOM     78  C   UNL     1      22.261   2.396  10.524  1.00  0.00     0.059 A 
ATOM     79  C   UNL     1      20.835   3.610  12.071  1.00  0.00     0.059 A 
ATOM     80  F   UNL     1      19.822   5.613  11.396  1.00  0.00    -0.206 F 
ATOM     81  C   UNL     1      21.628   2.505  11.763  1.00  0.00     0.060 A 
BRANCH  81  82
ATOM     82  S   UNL     1      21.835   1.171  12.962  1.00  0.00     0.124 S 
ATOM     83  O   UNL     1      20.963   0.142  12.403  1.00  0.00    -0.237 OA
ATOM     84  O   UNL     1      23.267   0.898  12.885  1.00  0.00    -0.237 OA
ATOM     85  O   UNL     1      21.381   1.766  14.214  1.00  0.00    -0.744 OA
ENDBRANCH  81  82
ENDBRANCH  60  74
BRANCH  61  86
ATOM     86  C   UNL     1      18.765  10.928   2.577  1.00  0.00     0.058 A 
ATOM     87  C   UNL     1      19.761  11.403   1.712  1.00  0.00     0.135 A 
ATOM     88  C   UNL     1      17.447  11.359   2.358  1.00  0.00     0.135 A 
ATOM     89  F   UNL     1      21.037  11.029   1.889  1.00  0.00    -0.206 F 
ATOM     90  C   UNL     1      19.465  12.273   0.667  1.00  0.00     0.059 A 
ATOM     91  C   UNL     1      17.122  12.211   1.307  1.00  0.00     0.059 A 
ATOM     92  F   UNL     1      16.457  10.927   3.155  1.00  0.00    -0.206 F 
ATOM     93  C   UNL     1      18.140  12.664   0.468  1.00  0.00     0.060 A 
BRANCH  93  94
ATOM     94  S   UNL     1      17.756  13.729  -0.941  1.00  0.00     0.124 S 
ATOM     95  O   UNL     1      18.321  15.002  -0.510  1.00  0.00    -0.237 OA
ATOM     96  O   UNL     1      18.455  13.055  -2.031  1.00  0.00    -0.237 OA
ATOM     97  O   UNL     1      16.299  13.676  -1.014  1.00  0.00    -0.744 OA
ENDBRANCH  93  94
ENDBRANCH  61  86
BRANCH  73  98
ATOM     98  C   UNL     1      22.505  11.480   8.442  1.00  0.00     0.058 A 
ATOM     99  C   UNL     1      21.877  12.569   9.065  1.00  0.00     0.135 A 
ATOM    100  C   UNL     1      23.910  11.451   8.432  1.00  0.00     0.135 A 
ATOM    101  F   UNL     1      20.538  12.647   9.101  1.00  0.00    -0.206 F 
ATOM    102  C   UNL     1      22.614  13.607   9.628  1.00  0.00     0.059 A 
ATOM    103  C   UNL     1      24.666  12.464   9.014  1.00  0.00     0.059 A 
ATOM    104  F   UNL     1      24.562  10.425   7.864  1.00  0.00    -0.206 F 
ATOM    105  C   UNL     1      24.009  13.546   9.595  1.00  0.00     0.060 A 
BRANCH 105 106
ATOM    106  S   UNL     1      24.955  14.890  10.342  1.00  0.00     0.124 S 
ATOM    107  O   UNL     1      24.806  15.944   9.344  1.00  0.00    -0.237 OA
ATOM    108  O   UNL     1      24.252  15.107  11.603  1.00  0.00    -0.237 OA
ATOM    109  O   UNL     1      26.297  14.331  10.470  1.00  0.00    -0.744 OA
ENDBRANCH 105 106
ENDBRANCH  73  98
ENDBRANCH  47  48
ENDBRANCH  40  42
ENDBRANCH  39  40
ENDBRANCH  38  39
ENDBRANCH  37  38
ENDBRANCH  36  37
ENDBRANCH  35  36
ENDBRANCH  34  35
ENDBRANCH  33  34
ENDBRANCH   1  33
TORSDOF 29
