REMARK SMILES Cc1ccccc1[C@@H]1[NH2+][C@@H](C(=O)OCCOCCOCCOCCOC(=O)c2ccc(-c3c4nc(c(-c5c(F)cc(S(=O)(=O)[O-])cc5F)c5ccc([nH]5)c(-c5c(F)cc(S(=O)(=O)[O-])cc5F)c5nc(c(-c6c(F)cc(S(=O)(=O)[O-])cc6F)c6ccc3[nH]6)C=C5)C=C4)cc2)CC2=c3ccccc3=N[C@@H]21
REMARK SMILES IDX 20 1 19 2 18 3 17 4 16 5 15 6 14 7 13 8 11 9 12 10 10 11
REMARK SMILES IDX 8 12 9 13 103 14 95 17 102 18 94 19 96 20 101 21 97 22
REMARK SMILES IDX 100 23 98 24 99 25 7 26 1 27 2 28 3 29 4 30 6 31 5 32 21 33
REMARK SMILES IDX 22 34 23 35 24 36 25 37 26 38 27 39 28 40 29 41 93 42 30 43
REMARK SMILES IDX 92 44 31 45 32 46 33 47 86 48 34 49 91 50 85 51 87 52 35 53
REMARK SMILES IDX 90 54 84 55 83 56 36 58 70 59 49 60 69 61 50 62 53 63 68 64
REMARK SMILES IDX 88 65 51 66 52 67 67 69 89 70 54 71 37 72 38 73 47 74 39 75
REMARK SMILES IDX 40 76 46 77 48 78 41 79 42 80 43 81 44 82 45 83 71 84 72 85
REMARK SMILES IDX 81 86 73 87 74 88 80 89 82 90 75 91 76 92 77 93 78 94 79 95
REMARK SMILES IDX 55 96 56 97 65 98 57 99 58 100 64 101 66 102 59 103 60 104
REMARK SMILES IDX 61 105 62 106 63 107
REMARK H PARENT 9 15 9 16 87 57 53 68
REMARK Flexibility Score: inf
ROOT
ATOM      1  C   UNL     1      -2.042   2.621   3.404  1.00  0.00     0.188 C 
ENDROOT
BRANCH   1   2
ATOM      2  O   UNL     1      -2.297   3.596   2.374  1.00  0.00    -0.377 OA
BRANCH   2   3
ATOM      3  C   UNL     1      -3.605   3.653   1.698  1.00  0.00     0.188 C 
BRANCH   3   4
ATOM      4  C   UNL     1      -3.578   4.463   0.244  1.00  0.00     0.188 C 
BRANCH   4   5
ATOM      5  O   UNL     1      -3.157   4.064  -1.405  1.00  0.00    -0.376 OA
BRANCH   5   6
ATOM      6  C   UNL     1      -2.158   4.925  -2.691  1.00  0.00     0.202 C 
BRANCH   6   7
ATOM      7  C   UNL     1      -0.803   6.264  -2.443  1.00  0.00     0.261 C 
BRANCH   7   8
ATOM      8  O   UNL     1      -0.202   6.772  -0.766  1.00  0.00    -0.459 OA
BRANCH   8   9
ATOM      9  C   UNL     1      -0.018   6.319   0.820  1.00  0.00     0.365 C 
ATOM     10  O   UNL     1      -0.206   7.178   1.701  1.00  0.00    -0.245 OA
BRANCH   9  11
ATOM     11  C   UNL     1       0.864   4.878   1.361  1.00  0.00     0.298 C 
ATOM     12  C   UNL     1       1.363   2.291   0.944  1.00  0.00     0.243 C 
ATOM     13  N   UNL     1       0.391   3.471   1.043  1.00  0.00    -0.326 N 
ATOM     14  C   UNL     1       2.673   2.616   1.867  1.00  0.00     0.196 C 
ATOM     15  H   UNL     1      -0.284   3.226   1.768  1.00  0.00     0.347 HD
ATOM     16  H   UNL     1       0.070   3.566   0.079  1.00  0.00     0.347 HD
ATOM     17  C   UNL     1       2.735   4.017   2.541  1.00  0.00    -0.024 C 
ATOM     18  N   UNL     1       3.996   2.502   1.208  1.00  0.00    -0.270 NA
ATOM     19  C   UNL     1       1.462   4.829   2.773  1.00  0.00     0.111 C 
ATOM     20  C   UNL     1       3.948   4.563   2.410  1.00  0.00     0.002 A 
ATOM     21  C   UNL     1       4.652   3.565   1.583  1.00  0.00     0.066 A 
ATOM     22  C   UNL     1       4.488   5.880   2.616  1.00  0.00     0.010 A 
ATOM     23  C   UNL     1       6.043   3.938   1.196  1.00  0.00     0.028 A 
ATOM     24  C   UNL     1       5.713   6.172   2.145  1.00  0.00     0.001 A 
ATOM     25  C   UNL     1       6.505   5.175   1.452  1.00  0.00     0.002 A 
BRANCH  12  26
ATOM     26  C   UNL     1       1.250   1.265  -0.459  1.00  0.00     0.015 A 
ATOM     27  C   UNL     1       0.404  -0.747   0.856  1.00  0.00     0.045 C 
ATOM     28  C   UNL     1       0.788  -0.066  -0.402  1.00  0.00    -0.042 A 
ATOM     29  C   UNL     1       0.547  -0.884  -1.585  1.00  0.00     0.004 A 
ATOM     30  C   UNL     1       0.698  -0.445  -2.885  1.00  0.00     0.000 A 
ATOM     31  C   UNL     1       1.348   1.606  -1.855  1.00  0.00     0.010 A 
ATOM     32  C   UNL     1       1.108   0.831  -3.020  1.00  0.00     0.001 A 
ENDBRANCH  12  26
ENDBRANCH   9  11
ENDBRANCH   8   9
ENDBRANCH   7   8
ENDBRANCH   6   7
ENDBRANCH   5   6
ENDBRANCH   4   5
ENDBRANCH   3   4
ENDBRANCH   2   3
ENDBRANCH   1   2
BRANCH   1  33
ATOM     33  C   UNL     1      -2.074   1.141   2.982  1.00  0.00     0.188 C 
BRANCH  33  34
ATOM     34  O   UNL     1      -3.398   0.617   3.016  1.00  0.00    -0.376 OA
BRANCH  34  35
ATOM     35  C   UNL     1      -3.494  -0.812   2.931  1.00  0.00     0.202 C 
BRANCH  35  36
ATOM     36  C   UNL     1      -3.120  -1.487   1.584  1.00  0.00     0.261 C 
BRANCH  36  37
ATOM     37  O   UNL     1      -3.828  -0.935   0.448  1.00  0.00    -0.460 OA
BRANCH  37  38
ATOM     38  C   UNL     1      -3.164  -0.980  -0.764  1.00  0.00     0.338 C 
ATOM     39  O   UNL     1      -2.819  -2.025  -1.306  1.00  0.00    -0.246 OA
BRANCH  38  40
ATOM     40  C   UNL     1      -2.764   0.399  -1.209  1.00  0.00     0.060 A 
ATOM     41  C   UNL     1      -2.139   0.827  -2.375  1.00  0.00     0.016 A 
ATOM     42  C   UNL     1      -2.760   1.310  -0.208  1.00  0.00     0.016 A 
ATOM     43  C   UNL     1      -1.432   2.111  -2.424  1.00  0.00     0.010 A 
ATOM     44  C   UNL     1      -1.849   2.364  -0.213  1.00  0.00     0.010 A 
ATOM     45  C   UNL     1      -1.201   2.932  -1.278  1.00  0.00    -0.014 A 
BRANCH  45  46
ATOM     46  C   UNL     1      -0.688   4.588  -0.983  1.00  0.00     0.031 A 
ATOM     47  C   UNL     1      -2.122   5.987  -0.756  1.00  0.00     0.074 A 
ATOM     48  C   UNL     1       0.864   4.842  -1.178  1.00  0.00     0.049 A 
ATOM     49  N   UNL     1      -2.129   7.142  -0.080  1.00  0.00    -0.248 NA
ATOM     50  C   UNL     1      -3.584   6.268  -1.597  1.00  0.00     0.031 C 
ATOM     51  C   UNL     1       1.861   6.126  -0.895  1.00  0.00     0.029 A 
ATOM     52  N   UNL     1       1.988   4.029  -1.376  1.00  0.00    -0.354 N 
ATOM     53  C   UNL     1      -2.884   8.118  -0.711  1.00  0.00     0.074 A 
ATOM     54  C   UNL     1      -3.730   7.560  -1.700  1.00  0.00     0.031 C 
ATOM     55  C   UNL     1       3.163   5.836  -0.885  1.00  0.00     0.029 A 
ATOM     56  C   UNL     1       3.243   4.603  -1.567  1.00  0.00     0.049 A 
ATOM     57  H   UNL     1       1.891   3.049  -1.380  1.00  0.00     0.167 HD
ATOM     58  C   UNL     1      -2.620   9.434  -0.807  1.00  0.00     0.037 A 
ATOM     59  C   UNL     1       3.880   4.489  -2.758  1.00  0.00     0.037 A 
ATOM     60  C   UNL     1      -1.173   9.689  -0.916  1.00  0.00     0.049 A 
ATOM     61  C   UNL     1       3.666   5.910  -3.397  1.00  0.00     0.074 A 
ATOM     62  C   UNL     1      -0.197   9.892   0.037  1.00  0.00     0.029 A 
ATOM     63  N   UNL     1      -0.439   9.379  -2.106  1.00  0.00    -0.354 N 
ATOM     64  N   UNL     1       2.520   6.609  -3.415  1.00  0.00    -0.248 NA
ATOM     65  C   UNL     1       4.839   6.794  -3.438  1.00  0.00     0.031 C 
ATOM     66  C   UNL     1       1.083   9.567  -0.534  1.00  0.00     0.029 A 
ATOM     67  C   UNL     1       0.953   9.193  -1.882  1.00  0.00     0.049 A 
ATOM     68  H   UNL     1      -0.858   9.303  -2.994  1.00  0.00     0.167 HD
ATOM     69  C   UNL     1       2.799   7.990  -3.291  1.00  0.00     0.074 A 
ATOM     70  C   UNL     1       4.276   8.007  -3.306  1.00  0.00     0.031 C 
ATOM     71  C   UNL     1       2.011   9.107  -2.967  1.00  0.00     0.037 A 
BRANCH  58  72
ATOM     72  C   UNL     1      -3.898  10.238  -0.419  1.00  0.00     0.058 A 
ATOM     73  C   UNL     1      -3.897  11.601  -0.106  1.00  0.00     0.135 A 
ATOM     74  C   UNL     1      -5.202   9.629  -0.242  1.00  0.00     0.135 A 
ATOM     75  F   UNL     1      -2.752  12.296  -0.132  1.00  0.00    -0.206 F 
ATOM     76  C   UNL     1      -5.072  12.290   0.303  1.00  0.00     0.059 A 
ATOM     77  C   UNL     1      -6.375  10.298   0.072  1.00  0.00     0.059 A 
ATOM     78  F   UNL     1      -5.420   8.306  -0.291  1.00  0.00    -0.206 F 
ATOM     79  C   UNL     1      -6.306  11.632   0.374  1.00  0.00     0.060 A 
BRANCH  79  80
ATOM     80  S   UNL     1      -7.824  12.457   0.896  1.00  0.00     0.124 S 
ATOM     81  O   UNL     1      -7.636  12.549   2.340  1.00  0.00    -0.237 OA
ATOM     82  O   UNL     1      -7.772  13.714   0.159  1.00  0.00    -0.237 OA
ATOM     83  O   UNL     1      -8.879  11.538   0.469  1.00  0.00    -0.744 OA
ENDBRANCH  79  80
ENDBRANCH  58  72
BRANCH  59  84
ATOM     84  C   UNL     1       4.167   3.036  -3.139  1.00  0.00     0.058 A 
ATOM     85  C   UNL     1       4.662   2.172  -2.109  1.00  0.00     0.135 A 
ATOM     86  C   UNL     1       3.850   2.340  -4.303  1.00  0.00     0.135 A 
ATOM     87  F   UNL     1       5.256   2.728  -1.052  1.00  0.00    -0.206 F 
ATOM     88  C   UNL     1       4.601   0.764  -2.104  1.00  0.00     0.059 A 
ATOM     89  C   UNL     1       3.869   0.906  -4.375  1.00  0.00     0.059 A 
ATOM     90  F   UNL     1       3.446   3.014  -5.388  1.00  0.00    -0.206 F 
ATOM     91  C   UNL     1       4.177   0.121  -3.249  1.00  0.00     0.060 A 
BRANCH  91  92
ATOM     92  S   UNL     1       3.893  -1.692  -3.209  1.00  0.00     0.124 S 
ATOM     93  O   UNL     1       5.227  -2.216  -3.488  1.00  0.00    -0.237 OA
ATOM     94  O   UNL     1       3.416  -1.955  -1.853  1.00  0.00    -0.237 OA
ATOM     95  O   UNL     1       2.916  -1.911  -4.273  1.00  0.00    -0.744 OA
ENDBRANCH  91  92
ENDBRANCH  59  84
BRANCH  71  96
ATOM     96  C   UNL     1       2.336  10.459  -3.643  1.00  0.00     0.058 A 
ATOM     97  C   UNL     1       3.239  10.616  -4.714  1.00  0.00     0.135 A 
ATOM     98  C   UNL     1       1.560  11.616  -3.360  1.00  0.00     0.135 A 
ATOM     99  F   UNL     1       4.032   9.626  -5.144  1.00  0.00    -0.206 F 
ATOM    100  C   UNL     1       3.343  11.794  -5.447  1.00  0.00     0.059 A 
ATOM    101  C   UNL     1       1.588  12.767  -4.134  1.00  0.00     0.059 A 
ATOM    102  F   UNL     1       0.699  11.685  -2.339  1.00  0.00    -0.206 F 
ATOM    103  C   UNL     1       2.481  12.846  -5.181  1.00  0.00     0.060 A 
BRANCH 103 104
ATOM    104  S   UNL     1       2.463  14.265  -6.275  1.00  0.00     0.124 S 
ATOM    105  O   UNL     1       3.586  15.040  -5.759  1.00  0.00    -0.237 OA
ATOM    106  O   UNL     1       2.664  13.649  -7.584  1.00  0.00    -0.237 OA
ATOM    107  O   UNL     1       1.139  14.838  -6.059  1.00  0.00    -0.744 OA
ENDBRANCH 103 104
ENDBRANCH  71  96
ENDBRANCH  45  46
ENDBRANCH  38  40
ENDBRANCH  37  38
ENDBRANCH  36  37
ENDBRANCH  35  36
ENDBRANCH  34  35
ENDBRANCH  33  34
ENDBRANCH   1  33
TORSDOF 24
