REMARK SMILES CCc1c(C)nc(Nc2ccc(Cl)cc2Cl)nc1OCC(=O)OCCOCCOCCOCCOC(=O)c1ccc(-c2c3nc(c(-c4c(F)cc(S(=O)(=O)[O-])cc4F)c4ccc([nH]4)c(-c4c(F)cc(S(=O)(=O)[O-])cc4F)c4nc(c(-c5c(F)cc(S(=O)(=O)[O-])cc5F)c5ccc2[nH]5)C=C4)C=C3)cc1
REMARK SMILES IDX 28 1 27 2 26 3 25 4 24 5 23 6 21 7 22 8 20 9 19 10 18 11
REMARK SMILES IDX 3 12 4 13 5 14 6 15 17 16 7 17 2 18 1 19 8 20 9 22 10 23
REMARK SMILES IDX 15 24 11 25 14 26 16 27 12 28 13 29 29 30 30 31 31 32 32 33
REMARK SMILES IDX 33 34 34 35 35 36 36 37 37 38 38 39 39 40 103 41 40 42
REMARK SMILES IDX 102 43 41 44 42 45 43 46 96 47 44 48 101 49 95 50 97 51
REMARK SMILES IDX 45 52 100 53 94 54 93 55 46 57 80 58 59 59 79 60 60 61 63 62
REMARK SMILES IDX 78 63 98 64 61 65 62 66 77 68 99 69 64 70 47 71 48 72 57 73
REMARK SMILES IDX 49 74 50 75 56 76 58 77 51 78 52 79 53 80 54 81 55 82 81 83
REMARK SMILES IDX 82 84 91 85 83 86 84 87 90 88 92 89 85 90 86 91 87 92 88 93
REMARK SMILES IDX 89 94 65 95 66 96 75 97 67 98 68 99 74 100 76 101 69 102
REMARK SMILES IDX 70 103 71 104 72 105 73 106
REMARK H PARENT 8 21 97 56 63 67
REMARK Flexibility Score: inf
ROOT
ATOM      1  C   UNL     1      -1.352  -0.760   3.341  1.00  0.00     0.188 C 
ENDROOT
BRANCH   1   2
ATOM      2  C   UNL     1      -1.540  -1.093   1.848  1.00  0.00     0.188 C 
BRANCH   2   3
ATOM      3  O   UNL     1      -2.471  -2.088   1.448  1.00  0.00    -0.376 OA
BRANCH   3   4
ATOM      4  C   UNL     1      -2.659  -3.200   2.309  1.00  0.00     0.202 C 
BRANCH   4   5
ATOM      5  C   UNL     1      -1.436  -4.085   2.614  1.00  0.00     0.261 C 
BRANCH   5   6
ATOM      6  O   UNL     1      -0.231  -3.402   3.037  1.00  0.00    -0.461 OA
BRANCH   6   7
ATOM      7  C   UNL     1       0.804  -3.303   2.154  1.00  0.00     0.344 C 
ATOM      8  O   UNL     1       0.808  -3.801   1.033  1.00  0.00    -0.248 OA
BRANCH   7   9
ATOM      9  C   UNL     1       2.005  -2.492   2.707  1.00  0.00     0.353 C 
BRANCH   9  10
ATOM     10  O   UNL     1       1.731  -1.341   3.482  1.00  0.00    -0.465 OA
BRANCH  10  11
ATOM     11  C   UNL     1       2.021  -0.048   3.154  1.00  0.00     0.222 A 
ATOM     12  C   UNL     1       1.832   0.584   1.923  1.00  0.00     0.035 A 
ATOM     13  C   UNL     1       1.841   1.983   1.999  1.00  0.00     0.050 A 
ATOM     14  C   UNL     1       1.456   2.890   0.864  1.00  0.00     0.067 C 
ATOM     15  N   UNL     1       2.115   2.666   3.127  1.00  0.00    -0.218 NA
ATOM     16  N   UNL     1       2.273   0.650   4.296  1.00  0.00    -0.177 NA
ATOM     17  C   UNL     1       2.321   1.985   4.252  1.00  0.00     0.230 A 
BRANCH  12  18
ATOM     18  C   UNL     1       1.467  -0.084   0.624  1.00  0.00     0.040 C 
ATOM     19  C   UNL     1       2.397   0.163  -0.558  1.00  0.00     0.009 C 
ENDBRANCH  12  18
BRANCH  17  20
ATOM     20  N   UNL     1       2.467   2.697   5.449  1.00  0.00    -0.323 N 
ATOM     21  H   UNL     1       2.783   2.199   6.237  1.00  0.00     0.170 HD
BRANCH  20  22
ATOM     22  C   UNL     1       2.197   4.069   5.617  1.00  0.00     0.060 A 
ATOM     23  C   UNL     1       0.888   4.486   5.900  1.00  0.00     0.029 A 
ATOM     24  C   UNL     1       3.185   5.061   5.487  1.00  0.00     0.066 A 
ATOM     25  C   UNL     1       0.544   5.842   5.924  1.00  0.00     0.023 A 
ATOM     26  C   UNL     1       2.855   6.421   5.545  1.00  0.00     0.043 A 
ATOM     27  Cl  UNL     1       4.848   4.643   5.266  1.00  0.00    -0.082 Cl
ATOM     28  C   UNL     1       1.529   6.804   5.730  1.00  0.00     0.042 A 
ATOM     29  Cl  UNL     1       1.109   8.472   5.717  1.00  0.00    -0.084 Cl
ENDBRANCH  20  22
ENDBRANCH  17  20
ENDBRANCH  10  11
ENDBRANCH   9  10
ENDBRANCH   7   9
ENDBRANCH   6   7
ENDBRANCH   5   6
ENDBRANCH   4   5
ENDBRANCH   3   4
ENDBRANCH   2   3
ENDBRANCH   1   2
BRANCH   1  30
ATOM     30  O   UNL     1      -2.498  -1.051   4.119  1.00  0.00    -0.377 OA
BRANCH  30  31
ATOM     31  C   UNL     1      -3.193   0.093   4.568  1.00  0.00     0.188 C 
BRANCH  31  32
ATOM     32  C   UNL     1      -3.749   0.952   3.423  1.00  0.00     0.188 C 
BRANCH  32  33
ATOM     33  O   UNL     1      -2.726   1.440   2.555  1.00  0.00    -0.376 OA
BRANCH  33  34
ATOM     34  C   UNL     1      -2.335   2.797   2.662  1.00  0.00     0.202 C 
BRANCH  34  35
ATOM     35  C   UNL     1      -1.503   3.183   3.886  1.00  0.00     0.261 C 
BRANCH  35  36
ATOM     36  O   UNL     1      -2.045   2.814   5.160  1.00  0.00    -0.460 OA
BRANCH  36  37
ATOM     37  C   UNL     1      -3.181   3.419   5.560  1.00  0.00     0.338 C 
ATOM     38  O   UNL     1      -3.769   4.317   4.985  1.00  0.00    -0.246 OA
BRANCH  37  39
ATOM     39  C   UNL     1      -3.711   2.622   6.688  1.00  0.00     0.060 A 
ATOM     40  C   UNL     1      -5.000   2.091   6.561  1.00  0.00     0.016 A 
ATOM     41  C   UNL     1      -2.925   2.319   7.807  1.00  0.00     0.016 A 
ATOM     42  C   UNL     1      -5.516   1.273   7.562  1.00  0.00     0.010 A 
ATOM     43  C   UNL     1      -3.458   1.528   8.831  1.00  0.00     0.010 A 
ATOM     44  C   UNL     1      -4.769   1.036   8.723  1.00  0.00    -0.014 A 
BRANCH  44  45
ATOM     45  C   UNL     1      -5.492   0.529   9.912  1.00  0.00     0.031 A 
ATOM     46  C   UNL     1      -6.114   1.556  10.820  1.00  0.00     0.074 A 
ATOM     47  C   UNL     1      -5.680  -0.786  10.117  1.00  0.00     0.049 A 
ATOM     48  N   UNL     1      -6.885   1.390  11.860  1.00  0.00    -0.248 NA
ATOM     49  C   UNL     1      -5.834   2.967  10.496  1.00  0.00     0.031 C 
ATOM     50  C   UNL     1      -5.165  -1.859   9.268  1.00  0.00     0.029 A 
ATOM     51  N   UNL     1      -6.378  -1.440  11.100  1.00  0.00    -0.354 N 
ATOM     52  C   UNL     1      -7.191   2.671  12.305  1.00  0.00     0.074 A 
ATOM     53  C   UNL     1      -6.494   3.603  11.450  1.00  0.00     0.031 C 
ATOM     54  C   UNL     1      -5.571  -3.041   9.766  1.00  0.00     0.029 A 
ATOM     55  C   UNL     1      -6.359  -2.808  10.975  1.00  0.00     0.049 A 
ATOM     56  H   UNL     1      -6.849  -0.972  11.828  1.00  0.00     0.167 HD
ATOM     57  C   UNL     1      -7.994   3.039  13.330  1.00  0.00     0.037 A 
ATOM     58  C   UNL     1      -6.917  -3.756  11.755  1.00  0.00     0.037 A 
ATOM     59  C   UNL     1      -8.665   2.099  14.186  1.00  0.00     0.049 A 
ATOM     60  C   UNL     1      -7.740  -3.325  12.944  1.00  0.00     0.074 A 
ATOM     61  C   UNL     1      -9.493   2.353  15.263  1.00  0.00     0.029 A 
ATOM     62  N   UNL     1      -8.568   0.719  14.067  1.00  0.00    -0.354 N 
ATOM     63  N   UNL     1      -8.042  -2.110  13.344  1.00  0.00    -0.248 NA
ATOM     64  C   UNL     1      -8.303  -4.390  13.785  1.00  0.00     0.031 C 
ATOM     65  C   UNL     1      -9.855   1.125  15.828  1.00  0.00     0.029 A 
ATOM     66  C   UNL     1      -9.300   0.106  15.068  1.00  0.00     0.049 A 
ATOM     67  H   UNL     1      -8.054   0.247  13.373  1.00  0.00     0.167 HD
ATOM     68  C   UNL     1      -8.856  -2.266  14.461  1.00  0.00     0.074 A 
ATOM     69  C   UNL     1      -9.005  -3.693  14.668  1.00  0.00     0.031 C 
ATOM     70  C   UNL     1      -9.434  -1.319  15.244  1.00  0.00     0.037 A 
BRANCH  57  71
ATOM     71  C   UNL     1      -8.143   4.511  13.595  1.00  0.00     0.058 A 
ATOM     72  C   UNL     1      -8.842   5.358  12.719  1.00  0.00     0.135 A 
ATOM     73  C   UNL     1      -7.559   5.089  14.734  1.00  0.00     0.135 A 
ATOM     74  F   UNL     1      -9.396   4.864  11.599  1.00  0.00    -0.206 F 
ATOM     75  C   UNL     1      -8.930   6.728  12.945  1.00  0.00     0.059 A 
ATOM     76  C   UNL     1      -7.659   6.452  14.995  1.00  0.00     0.059 A 
ATOM     77  F   UNL     1      -6.869   4.329  15.599  1.00  0.00    -0.206 F 
ATOM     78  C   UNL     1      -8.331   7.266  14.085  1.00  0.00     0.060 A 
BRANCH  78  79
ATOM     79  S   UNL     1      -8.438   9.047  14.358  1.00  0.00     0.124 S 
ATOM     80  O   UNL     1      -7.520   9.553  13.343  1.00  0.00    -0.237 OA
ATOM     81  O   UNL     1      -9.854   9.314  14.122  1.00  0.00    -0.237 OA
ATOM     82  O   UNL     1      -7.995   9.207  15.740  1.00  0.00    -0.744 OA
ENDBRANCH  78  79
ENDBRANCH  57  71
BRANCH  58  83
ATOM     83  C   UNL     1      -6.726  -5.199  11.438  1.00  0.00     0.058 A 
ATOM     84  C   UNL     1      -7.796  -6.003  11.017  1.00  0.00     0.135 A 
ATOM     85  C   UNL     1      -5.465  -5.806  11.554  1.00  0.00     0.135 A 
ATOM     86  F   UNL     1      -9.025  -5.476  10.901  1.00  0.00    -0.206 F 
ATOM     87  C   UNL     1      -7.628  -7.355  10.733  1.00  0.00     0.059 A 
ATOM     88  C   UNL     1      -5.266  -7.150  11.252  1.00  0.00     0.059 A 
ATOM     89  F   UNL     1      -4.404  -5.083  11.948  1.00  0.00    -0.206 F 
ATOM     90  C   UNL     1      -6.356  -7.919  10.851  1.00  0.00     0.060 A 
BRANCH  90  91
ATOM     91  S   UNL     1      -6.138  -9.664  10.433  1.00  0.00     0.124 S 
ATOM     92  O   UNL     1      -6.799 -10.320  11.554  1.00  0.00    -0.237 OA
ATOM     93  O   UNL     1      -6.819  -9.757   9.145  1.00  0.00    -0.237 OA
ATOM     94  O   UNL     1      -4.687  -9.817  10.378  1.00  0.00    -0.744 OA
ENDBRANCH  90  91
ENDBRANCH  58  83
BRANCH  70  95
ATOM     95  C   UNL     1     -10.311  -1.795  16.370  1.00  0.00     0.058 A 
ATOM     96  C   UNL     1      -9.778  -2.396  17.521  1.00  0.00     0.135 A 
ATOM     97  C   UNL     1     -11.700  -1.597  16.315  1.00  0.00     0.135 A 
ATOM     98  F   UNL     1      -8.457  -2.610  17.622  1.00  0.00    -0.206 F 
ATOM     99  C   UNL     1     -10.596  -2.812  18.566  1.00  0.00     0.059 A 
ATOM    100  C   UNL     1     -12.534  -1.977  17.361  1.00  0.00     0.059 A 
ATOM    101  F   UNL     1     -12.259  -1.012  15.243  1.00  0.00    -0.206 F 
ATOM    102  C   UNL     1     -11.973  -2.598  18.476  1.00  0.00     0.060 A 
BRANCH 102 103
ATOM    103  S   UNL     1     -13.022  -3.122  19.849  1.00  0.00     0.124 S 
ATOM    104  O   UNL     1     -13.029  -4.570  19.675  1.00  0.00    -0.237 OA
ATOM    105  O   UNL     1     -12.288  -2.626  21.009  1.00  0.00    -0.237 OA
ATOM    106  O   UNL     1     -14.290  -2.450  19.583  1.00  0.00    -0.744 OA
ENDBRANCH 102 103
ENDBRANCH  70  95
ENDBRANCH  44  45
ENDBRANCH  37  39
ENDBRANCH  36  37
ENDBRANCH  35  36
ENDBRANCH  34  35
ENDBRANCH  33  34
ENDBRANCH  32  33
ENDBRANCH  31  32
ENDBRANCH  30  31
ENDBRANCH   1  30
TORSDOF 28
