REMARK SMILES C[C@@H](C(=O)OCCOCCOCCOCCOC(=O)c1ccc(-c2c3nc(c(-c4c(F)cc(S(=O)(=O)[O-])cc4F)c4ccc([nH]4)c(-c4c(F)cc(S(=O)(=O)[O-])cc4F)c4nc(c(-c5c(F)cc(S(=O)(=O)[O-])cc5F)c5ccc2[nH]5)C=C4)C=C3)cc1)[C@H](C)[N@@H+]1C[C@H]2C[NH2+]C[C@@H]2[C@@H]1C
REMARK SMILES IDX 12 1 11 2 10 3 9 4 8 5 7 6 6 7 5 8 3 9 4 10 2 11 1 12 86 13
REMARK SMILES IDX 87 14 88 15 89 16 95 17 90 19 94 20 96 21 91 22 93 23 92 24
REMARK SMILES IDX 13 27 14 28 15 29 16 30 17 31 18 32 19 33 20 34 21 35 85 36
REMARK SMILES IDX 22 37 84 38 23 39 24 40 25 41 78 42 26 43 83 44 77 45 79 46
REMARK SMILES IDX 27 47 82 48 76 49 75 50 28 52 62 53 41 54 61 55 42 56 45 57
REMARK SMILES IDX 60 58 80 59 43 60 44 61 59 63 81 64 46 65 29 66 30 67 39 68
REMARK SMILES IDX 31 69 32 70 38 71 40 72 33 73 34 74 35 75 36 76 37 77 63 78
REMARK SMILES IDX 64 79 73 80 65 81 66 82 72 83 74 84 67 85 68 86 69 87 70 88
REMARK SMILES IDX 71 89 47 90 48 91 57 92 49 93 50 94 56 95 58 96 51 97 52 98
REMARK SMILES IDX 53 99 54 100 55 101
REMARK H PARENT 88 18 92 25 92 26 79 51 45 62
REMARK Flexibility Score: inf
ROOT
ATOM      1  C   UNL     1      -1.608   3.674   2.300  1.00  0.00     0.188 C 
ENDROOT
BRANCH   1   2
ATOM      2  O   UNL     1      -1.638   2.818   1.165  1.00  0.00    -0.377 OA
BRANCH   2   3
ATOM      3  C   UNL     1      -1.320   1.455   1.359  1.00  0.00     0.188 C 
BRANCH   3   4
ATOM      4  C   UNL     1       0.181   1.134   1.272  1.00  0.00     0.188 C 
BRANCH   4   5
ATOM      5  O   UNL     1       1.099   2.182   1.514  1.00  0.00    -0.376 OA
BRANCH   5   6
ATOM      6  C   UNL     1       1.268   3.246   0.584  1.00  0.00     0.202 C 
BRANCH   6   7
ATOM      7  C   UNL     1       0.615   3.336  -0.813  1.00  0.00     0.261 C 
BRANCH   7   8
ATOM      8  O   UNL     1      -0.334   2.313  -1.125  1.00  0.00    -0.463 OA
BRANCH   8   9
ATOM      9  C   UNL     1      -0.183   1.600  -2.264  1.00  0.00     0.314 C 
ATOM     10  O   UNL     1       0.734   1.747  -3.063  1.00  0.00    -0.252 OA
BRANCH   9  11
ATOM     11  C   UNL     1      -1.258   0.514  -2.400  1.00  0.00     0.154 C 
ATOM     12  C   UNL     1      -2.633   1.135  -2.073  1.00  0.00     0.026 C 
BRANCH  11  13
ATOM     13  C   UNL     1      -0.906  -0.826  -1.631  1.00  0.00     0.195 C 
ATOM     14  C   UNL     1       0.617  -1.093  -1.657  1.00  0.00     0.076 C 
BRANCH  13  15
ATOM     15  N   UNL     1      -1.663  -2.012  -2.107  1.00  0.00    -0.329 N 
ATOM     16  C   UNL     1      -3.143  -1.932  -2.027  1.00  0.00     0.272 C 
ATOM     17  C   UNL     1      -1.233  -3.418  -1.783  1.00  0.00     0.190 C 
ATOM     18  H   UNL     1      -1.335  -1.880  -3.064  1.00  0.00     0.348 HD
ATOM     19  C   UNL     1      -3.520  -3.213  -1.343  1.00  0.00     0.114 C 
ATOM     20  C   UNL     1      -2.546  -4.174  -1.959  1.00  0.00     0.116 C 
ATOM     21  C   UNL     1      -0.579  -3.705  -0.428  1.00  0.00     0.076 C 
ATOM     22  C   UNL     1      -4.825  -3.929  -1.538  1.00  0.00     0.270 C 
ATOM     23  C   UNL     1      -2.982  -5.454  -1.288  1.00  0.00     0.271 C 
ATOM     24  N   UNL     1      -4.468  -5.348  -1.267  1.00  0.00    -0.345 N 
ATOM     25  H   UNL     1      -4.869  -5.951  -1.986  1.00  0.00     0.346 HD
ATOM     26  H   UNL     1      -4.834  -5.641  -0.361  1.00  0.00     0.346 HD
ENDBRANCH  13  15
ENDBRANCH  11  13
ENDBRANCH   9  11
ENDBRANCH   8   9
ENDBRANCH   7   8
ENDBRANCH   6   7
ENDBRANCH   5   6
ENDBRANCH   4   5
ENDBRANCH   3   4
ENDBRANCH   2   3
ENDBRANCH   1   2
BRANCH   1  27
ATOM     27  C   UNL     1      -0.802   3.288   3.561  1.00  0.00     0.188 C 
BRANCH  27  28
ATOM     28  O   UNL     1      -0.882   1.919   3.938  1.00  0.00    -0.376 OA
BRANCH  28  29
ATOM     29  C   UNL     1      -1.791   1.549   4.965  1.00  0.00     0.202 C 
BRANCH  29  30
ATOM     30  C   UNL     1      -3.291   1.705   4.668  1.00  0.00     0.261 C 
BRANCH  30  31
ATOM     31  O   UNL     1      -3.740   3.032   4.354  1.00  0.00    -0.460 OA
BRANCH  31  32
ATOM     32  C   UNL     1      -3.527   3.998   5.272  1.00  0.00     0.338 C 
ATOM     33  O   UNL     1      -3.040   3.859   6.383  1.00  0.00    -0.246 OA
BRANCH  32  34
ATOM     34  C   UNL     1      -3.795   5.300   4.629  1.00  0.00     0.060 A 
ATOM     35  C   UNL     1      -2.760   6.243   4.549  1.00  0.00     0.016 A 
ATOM     36  C   UNL     1      -5.055   5.587   4.099  1.00  0.00     0.016 A 
ATOM     37  C   UNL     1      -2.996   7.492   3.976  1.00  0.00     0.010 A 
ATOM     38  C   UNL     1      -5.296   6.847   3.547  1.00  0.00     0.010 A 
ATOM     39  C   UNL     1      -4.279   7.818   3.517  1.00  0.00    -0.014 A 
BRANCH  39  40
ATOM     40  C   UNL     1      -4.611   9.231   3.210  1.00  0.00     0.031 A 
ATOM     41  C   UNL     1      -5.308  10.042   4.270  1.00  0.00     0.074 A 
ATOM     42  C   UNL     1      -4.287   9.791   2.031  1.00  0.00     0.049 A 
ATOM     43  N   UNL     1      -5.750  11.271   4.221  1.00  0.00    -0.248 NA
ATOM     44  C   UNL     1      -5.540   9.369   5.559  1.00  0.00     0.031 C 
ATOM     45  C   UNL     1      -3.571   9.125   0.945  1.00  0.00     0.029 A 
ATOM     46  N   UNL     1      -4.529  11.054   1.550  1.00  0.00    -0.354 N 
ATOM     47  C   UNL     1      -6.322  11.515   5.465  1.00  0.00     0.074 A 
ATOM     48  C   UNL     1      -6.199  10.298   6.235  1.00  0.00     0.031 C 
ATOM     49  C   UNL     1      -3.444   9.982  -0.083  1.00  0.00     0.029 A 
ATOM     50  C   UNL     1      -4.101  11.244   0.257  1.00  0.00     0.049 A 
ATOM     51  H   UNL     1      -4.969  11.758   2.080  1.00  0.00     0.167 HD
ATOM     52  C   UNL     1      -6.891  12.654   5.925  1.00  0.00     0.037 A 
ATOM     53  C   UNL     1      -4.247  12.305  -0.563  1.00  0.00     0.037 A 
ATOM     54  C   UNL     1      -7.013  13.861   5.150  1.00  0.00     0.049 A 
ATOM     55  C   UNL     1      -4.954  13.538  -0.055  1.00  0.00     0.074 A 
ATOM     56  C   UNL     1      -7.558  15.074   5.529  1.00  0.00     0.029 A 
ATOM     57  N   UNL     1      -6.595  14.004   3.834  1.00  0.00    -0.354 N 
ATOM     58  N   UNL     1      -5.471  13.767   1.130  1.00  0.00    -0.248 NA
ATOM     59  C   UNL     1      -5.095  14.660  -0.995  1.00  0.00     0.031 C 
ATOM     60  C   UNL     1      -7.527  15.931   4.424  1.00  0.00     0.029 A 
ATOM     61  C   UNL     1      -6.898  15.276   3.377  1.00  0.00     0.049 A 
ATOM     62  H   UNL     1      -6.148  13.305   3.304  1.00  0.00     0.167 HD
ATOM     63  C   UNL     1      -5.967  15.067   1.087  1.00  0.00     0.074 A 
ATOM     64  C   UNL     1      -5.680  15.577  -0.237  1.00  0.00     0.031 C 
ATOM     65  C   UNL     1      -6.599  15.775   2.057  1.00  0.00     0.037 A 
BRANCH  52  66
ATOM     66  C   UNL     1      -7.458  12.636   7.319  1.00  0.00     0.058 A 
ATOM     67  C   UNL     1      -6.638  12.564   8.456  1.00  0.00     0.135 A 
ATOM     68  C   UNL     1      -8.846  12.717   7.519  1.00  0.00     0.135 A 
ATOM     69  F   UNL     1      -5.306  12.464   8.324  1.00  0.00    -0.206 F 
ATOM     70  C   UNL     1      -7.174  12.543   9.740  1.00  0.00     0.059 A 
ATOM     71  C   UNL     1      -9.402  12.730   8.795  1.00  0.00     0.059 A 
ATOM     72  F   UNL     1      -9.679  12.783   6.468  1.00  0.00    -0.206 F 
ATOM     73  C   UNL     1      -8.558  12.628   9.899  1.00  0.00     0.060 A 
BRANCH  73  74
ATOM     74  S   UNL     1      -9.237  12.604  11.571  1.00  0.00     0.124 S 
ATOM     75  O   UNL     1      -8.998  11.218  11.962  1.00  0.00    -0.237 OA
ATOM     76  O   UNL     1      -8.421  13.604  12.252  1.00  0.00    -0.237 OA
ATOM     77  O   UNL     1     -10.637  12.967  11.377  1.00  0.00    -0.744 OA
ENDBRANCH  73  74
ENDBRANCH  52  66
BRANCH  53  78
ATOM     78  C   UNL     1      -3.726  12.248  -1.956  1.00  0.00     0.058 A 
ATOM     79  C   UNL     1      -2.652  13.052  -2.365  1.00  0.00     0.135 A 
ATOM     80  C   UNL     1      -4.296  11.388  -2.910  1.00  0.00     0.135 A 
ATOM     81  F   UNL     1      -2.083  13.902  -1.497  1.00  0.00    -0.206 F 
ATOM     82  C   UNL     1      -2.168  13.017  -3.669  1.00  0.00     0.059 A 
ATOM     83  C   UNL     1      -3.811  11.313  -4.212  1.00  0.00     0.059 A 
ATOM     84  F   UNL     1      -5.323  10.593  -2.571  1.00  0.00    -0.206 F 
ATOM     85  C   UNL     1      -2.751  12.138  -4.585  1.00  0.00     0.060 A 
BRANCH  85  86
ATOM     86  S   UNL     1      -2.077  12.061  -6.258  1.00  0.00     0.124 S 
ATOM     87  O   UNL     1      -2.504  13.343  -6.808  1.00  0.00    -0.237 OA
ATOM     88  O   UNL     1      -0.647  11.920  -6.004  1.00  0.00    -0.237 OA
ATOM     89  O   UNL     1      -2.725  10.883  -6.827  1.00  0.00    -0.744 OA
ENDBRANCH  85  86
ENDBRANCH  53  78
BRANCH  65  90
ATOM     90  C   UNL     1      -6.987  17.198   1.746  1.00  0.00     0.058 A 
ATOM     91  C   UNL     1      -8.026  17.509   0.856  1.00  0.00     0.135 A 
ATOM     92  C   UNL     1      -6.346  18.264   2.400  1.00  0.00     0.135 A 
ATOM     93  F   UNL     1      -8.670  16.530   0.200  1.00  0.00    -0.206 F 
ATOM     94  C   UNL     1      -8.399  18.826   0.605  1.00  0.00     0.059 A 
ATOM     95  C   UNL     1      -6.725  19.587   2.190  1.00  0.00     0.059 A 
ATOM     96  F   UNL     1      -5.354  18.025   3.272  1.00  0.00    -0.206 F 
ATOM     97  C   UNL     1      -7.745  19.858   1.280  1.00  0.00     0.060 A 
BRANCH  97  98
ATOM     98  S   UNL     1      -8.263  21.560   0.970  1.00  0.00     0.124 S 
ATOM     99  O   UNL     1      -7.755  21.781  -0.380  1.00  0.00    -0.237 OA
ATOM    100  O   UNL     1      -9.714  21.471   1.095  1.00  0.00    -0.237 OA
ATOM    101  O   UNL     1      -7.594  22.317   2.024  1.00  0.00    -0.744 OA
ENDBRANCH  97  98
ENDBRANCH  65  90
ENDBRANCH  39  40
ENDBRANCH  32  34
ENDBRANCH  31  32
ENDBRANCH  30  31
ENDBRANCH  29  30
ENDBRANCH  28  29
ENDBRANCH  27  28
ENDBRANCH   1  27
TORSDOF 25
