REMARK SMILES Cc1nc2scc(C)n2c1CNc1ccc(C(=O)OCCOCCOCCOCCOC(=O)c2ccc(-c3c4nc(c(-c5c(F)cc(S(=O)(=O)[O-])cc5F)c5ccc([nH]5)c(-c5c(F)cc(S(=O)(=O)[O-])cc5F)c5nc(c(-c6c(F)cc(S(=O)(=O)[O-])cc6F)c6ccc3[nH]6)C=C5)C=C4)cc2)cc1
REMARK SMILES IDX 25 1 24 2 23 3 22 4 21 5 20 6 19 7 17 8 18 9 16 10 13 11
REMARK SMILES IDX 14 12 101 13 15 14 100 15 12 16 11 18 10 19 1 20 2 21 3 22
REMARK SMILES IDX 4 23 9 24 5 25 7 26 6 27 8 28 26 29 27 30 28 31 29 32 30 33
REMARK SMILES IDX 31 34 32 35 33 36 34 37 35 38 99 39 36 40 98 41 37 42 38 43
REMARK SMILES IDX 39 44 92 45 40 46 97 47 91 48 93 49 41 50 96 51 90 52 89 53
REMARK SMILES IDX 42 55 76 56 55 57 75 58 56 59 59 60 74 61 94 62 57 63 58 64
REMARK SMILES IDX 73 66 95 67 60 68 43 69 44 70 53 71 45 72 46 73 52 74 54 75
REMARK SMILES IDX 47 76 48 77 49 78 50 79 51 80 77 81 78 82 87 83 79 84 80 85
REMARK SMILES IDX 86 86 88 87 81 88 82 89 83 90 84 91 85 92 61 93 62 94 71 95
REMARK SMILES IDX 63 96 64 97 70 98 72 99 65 100 66 101 67 102 68 103 69 104
REMARK H PARENT 12 17 93 54 59 65
REMARK Flexibility Score: inf
ROOT
ATOM      1  O   UNL     1       8.004  -7.971   3.898  1.00  0.00    -0.377 OA
ENDROOT
BRANCH   1   2
ATOM      2  C   UNL     1       6.723  -7.769   4.465  1.00  0.00     0.188 C 
BRANCH   2   3
ATOM      3  C   UNL     1       5.807  -9.010   4.391  1.00  0.00     0.188 C 
BRANCH   3   4
ATOM      4  O   UNL     1       6.351 -10.291   4.126  1.00  0.00    -0.376 OA
BRANCH   4   5
ATOM      5  C   UNL     1       7.118 -10.595   2.976  1.00  0.00     0.202 C 
BRANCH   5   6
ATOM      6  C   UNL     1       7.129  -9.807   1.653  1.00  0.00     0.261 C 
BRANCH   6   7
ATOM      7  O   UNL     1       6.501  -8.531   1.635  1.00  0.00    -0.460 OA
BRANCH   7   8
ATOM      8  C   UNL     1       5.189  -8.528   1.335  1.00  0.00     0.338 C 
ATOM      9  O   UNL     1       4.496  -9.482   1.015  1.00  0.00    -0.246 OA
BRANCH   8  10
ATOM     10  C   UNL     1       4.654  -7.189   1.648  1.00  0.00     0.060 A 
ATOM     11  C   UNL     1       3.440  -4.715   2.082  1.00  0.00     0.034 A 
ATOM     12  C   UNL     1       2.888  -5.870   2.640  1.00  0.00     0.026 A 
ATOM     13  C   UNL     1       4.696  -4.796   1.461  1.00  0.00     0.026 A 
ATOM     14  C   UNL     1       3.469  -7.110   2.386  1.00  0.00     0.018 A 
ATOM     15  C   UNL     1       5.314  -6.027   1.250  1.00  0.00     0.018 A 
BRANCH  11  16
ATOM     16  N   UNL     1       2.634  -3.593   1.944  1.00  0.00    -0.379 N 
ATOM     17  H   UNL     1       2.150  -3.218   2.715  1.00  0.00     0.160 HD
BRANCH  16  18
ATOM     18  C   UNL     1       2.527  -2.989   0.626  1.00  0.00     0.169 C 
BRANCH  18  19
ATOM     19  C   UNL     1       1.137  -2.732   0.169  1.00  0.00     0.066 A 
ATOM     20  C   UNL     1       1.006  -0.133   0.158  1.00  0.00     0.069 C 
ATOM     21  C   UNL     1       0.491  -1.510  -0.038  1.00  0.00     0.062 A 
ATOM     22  N   UNL     1      -0.790  -1.686  -0.512  1.00  0.00    -0.224 NA
ATOM     23  C   UNL     1      -0.901  -2.978  -0.607  1.00  0.00     0.194 A 
ATOM     24  N   UNL     1       0.218  -3.679  -0.243  1.00  0.00    -0.290 N 
ATOM     25  S   UNL     1      -2.177  -4.012  -1.167  1.00  0.00    -0.105 S 
ATOM     26  C   UNL     1       0.096  -5.058  -0.416  1.00  0.00     0.032 A 
ATOM     27  C   UNL     1      -1.119  -5.388  -0.901  1.00  0.00     0.090 A 
ATOM     28  C   UNL     1       1.147  -6.069  -0.150  1.00  0.00     0.066 C 
ENDBRANCH  18  19
ENDBRANCH  16  18
ENDBRANCH  11  16
ENDBRANCH   8  10
ENDBRANCH   7   8
ENDBRANCH   6   7
ENDBRANCH   5   6
ENDBRANCH   4   5
ENDBRANCH   3   4
ENDBRANCH   2   3
ENDBRANCH   1   2
BRANCH   1  29
ATOM     29  C   UNL     1       9.028  -8.452   4.766  1.00  0.00     0.188 C 
BRANCH  29  30
ATOM     30  C   UNL     1       8.693  -9.451   5.907  1.00  0.00     0.188 C 
BRANCH  30  31
ATOM     31  O   UNL     1       7.417  -9.285   6.507  1.00  0.00    -0.376 OA
BRANCH  31  32
ATOM     32  C   UNL     1       7.231  -8.752   7.804  1.00  0.00     0.202 C 
BRANCH  32  33
ATOM     33  C   UNL     1       7.624  -7.300   8.042  1.00  0.00     0.261 C 
BRANCH  33  34
ATOM     34  O   UNL     1       8.815  -6.929   7.383  1.00  0.00    -0.460 OA
BRANCH  34  35
ATOM     35  C   UNL     1       9.928  -7.467   7.899  1.00  0.00     0.338 C 
ATOM     36  O   UNL     1      10.000  -8.402   8.699  1.00  0.00    -0.246 OA
BRANCH  35  37
ATOM     37  C   UNL     1      11.059  -6.661   7.465  1.00  0.00     0.060 A 
ATOM     38  C   UNL     1      12.316  -7.101   7.875  1.00  0.00     0.016 A 
ATOM     39  C   UNL     1      10.804  -5.337   7.069  1.00  0.00     0.016 A 
ATOM     40  C   UNL     1      13.243  -6.142   8.185  1.00  0.00     0.010 A 
ATOM     41  C   UNL     1      11.717  -4.382   7.410  1.00  0.00     0.010 A 
ATOM     42  C   UNL     1      12.875  -4.798   8.058  1.00  0.00    -0.014 A 
BRANCH  42  43
ATOM     43  C   UNL     1      13.803  -3.802   8.528  1.00  0.00     0.031 A 
ATOM     44  C   UNL     1      14.934  -3.655   7.594  1.00  0.00     0.074 A 
ATOM     45  C   UNL     1      13.561  -3.063   9.625  1.00  0.00     0.049 A 
ATOM     46  N   UNL     1      16.149  -4.053   7.763  1.00  0.00    -0.248 NA
ATOM     47  C   UNL     1      14.619  -3.254   6.210  1.00  0.00     0.031 C 
ATOM     48  C   UNL     1      12.328  -2.978  10.414  1.00  0.00     0.029 A 
ATOM     49  N   UNL     1      14.357  -2.136  10.214  1.00  0.00    -0.354 N 
ATOM     50  C   UNL     1      16.808  -3.677   6.601  1.00  0.00     0.074 A 
ATOM     51  C   UNL     1      15.791  -3.456   5.609  1.00  0.00     0.031 C 
ATOM     52  C   UNL     1      12.387  -1.888  11.215  1.00  0.00     0.029 A 
ATOM     53  C   UNL     1      13.700  -1.278  11.089  1.00  0.00     0.049 A 
ATOM     54  H   UNL     1      15.323  -2.076  10.036  1.00  0.00     0.167 HD
ATOM     55  C   UNL     1      18.093  -3.237   6.652  1.00  0.00     0.037 A 
ATOM     56  C   UNL     1      14.202  -0.113  11.576  1.00  0.00     0.037 A 
ATOM     57  C   UNL     1      18.745  -3.684   7.859  1.00  0.00     0.049 A 
ATOM     58  C   UNL     1      15.680  -0.163  11.382  1.00  0.00     0.074 A 
ATOM     59  C   UNL     1      18.961  -4.923   8.434  1.00  0.00     0.029 A 
ATOM     60  N   UNL     1      18.921  -2.768   8.869  1.00  0.00    -0.354 N 
ATOM     61  N   UNL     1      16.468  -0.985  12.020  1.00  0.00    -0.248 NA
ATOM     62  C   UNL     1      16.211   0.356  10.129  1.00  0.00     0.031 C 
ATOM     63  C   UNL     1      18.781  -4.722   9.834  1.00  0.00     0.029 A 
ATOM     64  C   UNL     1      18.544  -3.364  10.047  1.00  0.00     0.049 A 
ATOM     65  H   UNL     1      19.257  -1.849   8.765  1.00  0.00     0.167 HD
ATOM     66  C   UNL     1      17.382  -1.417  11.069  1.00  0.00     0.074 A 
ATOM     67  C   UNL     1      17.217  -0.502   9.941  1.00  0.00     0.031 C 
ATOM     68  C   UNL     1      17.975  -2.644  11.165  1.00  0.00     0.037 A 
BRANCH  55  69
ATOM     69  C   UNL     1      18.586  -2.073   5.826  1.00  0.00     0.058 A 
ATOM     70  C   UNL     1      19.961  -1.776   5.820  1.00  0.00     0.135 A 
ATOM     71  C   UNL     1      17.747  -1.081   5.261  1.00  0.00     0.135 A 
ATOM     72  F   UNL     1      20.846  -2.634   6.349  1.00  0.00    -0.206 F 
ATOM     73  C   UNL     1      20.457  -0.562   5.344  1.00  0.00     0.059 A 
ATOM     74  C   UNL     1      18.226   0.105   4.726  1.00  0.00     0.059 A 
ATOM     75  F   UNL     1      16.412  -1.157   5.282  1.00  0.00    -0.206 F 
ATOM     76  C   UNL     1      19.578   0.375   4.807  1.00  0.00     0.060 A 
BRANCH  76  77
ATOM     77  S   UNL     1      20.198   1.973   4.266  1.00  0.00     0.124 S 
ATOM     78  O   UNL     1      20.563   2.586   5.538  1.00  0.00    -0.237 OA
ATOM     79  O   UNL     1      21.305   1.586   3.398  1.00  0.00    -0.237 OA
ATOM     80  O   UNL     1      19.051   2.563   3.583  1.00  0.00    -0.744 OA
ENDBRANCH  76  77
ENDBRANCH  55  69
BRANCH  56  81
ATOM     81  C   UNL     1      13.490   1.170  11.835  1.00  0.00     0.058 A 
ATOM     82  C   UNL     1      14.125   2.221  12.523  1.00  0.00     0.135 A 
ATOM     83  C   UNL     1      12.299   1.504  11.159  1.00  0.00     0.135 A 
ATOM     84  F   UNL     1      15.272   1.999  13.182  1.00  0.00    -0.206 F 
ATOM     85  C   UNL     1      13.645   3.535  12.490  1.00  0.00     0.059 A 
ATOM     86  C   UNL     1      11.796   2.804  11.121  1.00  0.00     0.059 A 
ATOM     87  F   UNL     1      11.637   0.594  10.431  1.00  0.00    -0.206 F 
ATOM     88  C   UNL     1      12.490   3.822  11.764  1.00  0.00     0.060 A 
BRANCH  88  89
ATOM     89  S   UNL     1      11.973   5.543  11.555  1.00  0.00     0.124 S 
ATOM     90  O   UNL     1      11.522   5.889  12.898  1.00  0.00    -0.237 OA
ATOM     91  O   UNL     1      13.207   6.185  11.111  1.00  0.00    -0.237 OA
ATOM     92  O   UNL     1      10.921   5.460  10.545  1.00  0.00    -0.744 OA
ENDBRANCH  88  89
ENDBRANCH  56  81
BRANCH  68  93
ATOM     93  C   UNL     1      17.867  -3.385  12.475  1.00  0.00     0.058 A 
ATOM     94  C   UNL     1      16.664  -3.808  13.070  1.00  0.00     0.135 A 
ATOM     95  C   UNL     1      19.060  -3.784  13.098  1.00  0.00     0.135 A 
ATOM     96  F   UNL     1      15.482  -3.569  12.483  1.00  0.00    -0.206 F 
ATOM     97  C   UNL     1      16.650  -4.537  14.263  1.00  0.00     0.059 A 
ATOM     98  C   UNL     1      19.071  -4.540  14.265  1.00  0.00     0.059 A 
ATOM     99  F   UNL     1      20.244  -3.470  12.546  1.00  0.00    -0.206 F 
ATOM    100  C   UNL     1      17.861  -4.894  14.856  1.00  0.00     0.060 A 
BRANCH 100 101
ATOM    101  S   UNL     1      17.851  -5.859  16.383  1.00  0.00     0.124 S 
ATOM    102  O   UNL     1      17.350  -4.892  17.354  1.00  0.00    -0.237 OA
ATOM    103  O   UNL     1      16.947  -6.958  16.057  1.00  0.00    -0.237 OA
ATOM    104  O   UNL     1      19.250  -6.244  16.552  1.00  0.00    -0.744 OA
ENDBRANCH 100 101
ENDBRANCH  68  93
ENDBRANCH  42  43
ENDBRANCH  35  37
ENDBRANCH  34  35
ENDBRANCH  33  34
ENDBRANCH  32  33
ENDBRANCH  31  32
ENDBRANCH  30  31
ENDBRANCH  29  30
ENDBRANCH   1  29
TORSDOF 26
