REMARK SMILES CCn1c(N2CCC(C(=O)OCCOCCOCCOCCOC(=O)c3ccc(-c4c5nc(c(-c6c(F)cc(S(=O)(=O)[O-])cc6F)c6ccc([nH]6)c(-c6c(F)cc(S(=O)(=O)[O-])cc6F)c6nc(c(-c7c(F)cc(S(=O)(=O)[O-])cc7F)c7ccc4[nH]7)C=C6)C=C5)cc3)CC2)nc2cc(C)ccc21
REMARK SMILES IDX 18 1 17 2 16 3 15 4 14 5 13 6 12 7 11 8 9 9 10 10 8 11 5 12
REMARK SMILES IDX 6 13 93 14 7 15 92 16 4 17 3 18 101 19 94 20 95 21 100 22
REMARK SMILES IDX 96 23 99 24 97 25 98 26 2 27 1 28 19 29 20 30 21 31 22 32
REMARK SMILES IDX 23 33 24 34 25 35 26 36 27 37 91 38 28 39 90 40 29 41 30 42
REMARK SMILES IDX 31 43 84 44 32 45 89 46 83 47 85 48 33 49 88 50 82 51 81 52
REMARK SMILES IDX 34 54 68 55 47 56 67 57 48 58 51 59 66 60 86 61 49 62 50 63
REMARK SMILES IDX 65 65 87 66 52 67 35 68 36 69 45 70 37 71 38 72 44 73 46 74
REMARK SMILES IDX 39 75 40 76 41 77 42 78 43 79 69 80 70 81 79 82 71 83 72 84
REMARK SMILES IDX 78 85 80 86 73 87 74 88 75 89 76 90 77 91 53 92 54 93 63 94
REMARK SMILES IDX 55 95 56 96 62 97 64 98 57 99 58 100 59 101 60 102 61 103
REMARK H PARENT 85 53 51 64
REMARK Flexibility Score: inf
ROOT
ATOM      1  C   UNL     1       2.061   8.071  -6.474  1.00  0.00     0.188 C 
ENDROOT
BRANCH   1   2
ATOM      2  O   UNL     1       1.555   7.654  -5.217  1.00  0.00    -0.377 OA
BRANCH   2   3
ATOM      3  C   UNL     1       1.013   8.600  -4.321  1.00  0.00     0.188 C 
BRANCH   3   4
ATOM      4  C   UNL     1       1.987   9.439  -3.488  1.00  0.00     0.188 C 
BRANCH   4   5
ATOM      5  O   UNL     1       3.070  10.061  -4.144  1.00  0.00    -0.376 OA
BRANCH   5   6
ATOM      6  C   UNL     1       4.275   9.353  -4.423  1.00  0.00     0.202 C 
BRANCH   6   7
ATOM      7  C   UNL     1       4.727   8.044  -3.753  1.00  0.00     0.261 C 
BRANCH   7   8
ATOM      8  O   UNL     1       3.747   7.001  -3.641  1.00  0.00    -0.463 OA
BRANCH   8   9
ATOM      9  C   UNL     1       3.365   6.729  -2.368  1.00  0.00     0.309 C 
ATOM     10  O   UNL     1       3.697   7.395  -1.389  1.00  0.00    -0.252 OA
BRANCH   9  11
ATOM     11  C   UNL     1       2.377   5.599  -2.225  1.00  0.00     0.103 C 
ATOM     12  N   UNL     1       1.152   3.011  -2.132  1.00  0.00    -0.342 N 
ATOM     13  C   UNL     1       0.640   4.035  -3.038  1.00  0.00     0.120 C 
ATOM     14  C   UNL     1       1.970   3.458  -0.997  1.00  0.00     0.120 C 
ATOM     15  C   UNL     1       1.743   4.994  -3.472  1.00  0.00     0.037 C 
ATOM     16  C   UNL     1       3.019   4.474  -1.421  1.00  0.00     0.037 C 
BRANCH  12  17
ATOM     17  C   UNL     1       1.323   1.766  -2.635  1.00  0.00     0.206 A 
ATOM     18  N   UNL     1       0.984   0.632  -1.921  1.00  0.00    -0.310 N 
ATOM     19  C   UNL     1       1.177  -0.457  -2.745  1.00  0.00     0.070 A 
ATOM     20  N   UNL     1       1.672   1.461  -3.863  1.00  0.00    -0.213 NA
ATOM     21  C   UNL     1       1.639   0.098  -3.933  1.00  0.00     0.091 A 
ATOM     22  C   UNL     1       0.989  -1.835  -2.589  1.00  0.00     0.029 A 
ATOM     23  C   UNL     1       1.969  -0.738  -5.010  1.00  0.00     0.034 A 
ATOM     24  C   UNL     1       1.325  -2.656  -3.674  1.00  0.00     0.006 A 
ATOM     25  C   UNL     1       1.819  -2.127  -4.873  1.00  0.00    -0.049 A 
ATOM     26  C   UNL     1       2.187  -3.020  -6.019  1.00  0.00     0.044 C 
BRANCH  18  27
ATOM     27  C   UNL     1       0.354   0.602  -0.616  1.00  0.00     0.122 C 
ATOM     28  C   UNL     1       1.144  -0.154   0.440  1.00  0.00     0.028 C 
ENDBRANCH  18  27
ENDBRANCH  12  17
ENDBRANCH   9  11
ENDBRANCH   8   9
ENDBRANCH   7   8
ENDBRANCH   6   7
ENDBRANCH   5   6
ENDBRANCH   4   5
ENDBRANCH   3   4
ENDBRANCH   2   3
ENDBRANCH   1   2
BRANCH   1  29
ATOM     29  C   UNL     1       1.665   9.457  -6.994  1.00  0.00     0.188 C 
BRANCH  29  30
ATOM     30  O   UNL     1       0.247   9.623  -7.034  1.00  0.00    -0.376 OA
BRANCH  30  31
ATOM     31  C   UNL     1      -0.369   9.507  -8.312  1.00  0.00     0.202 C 
BRANCH  31  32
ATOM     32  C   UNL     1      -0.427   8.076  -8.865  1.00  0.00     0.261 C 
BRANCH  32  33
ATOM     33  O   UNL     1       0.855   7.587  -9.289  1.00  0.00    -0.460 OA
BRANCH  33  34
ATOM     34  C   UNL     1       1.454   8.216 -10.327  1.00  0.00     0.338 C 
ATOM     35  O   UNL     1       0.915   8.928 -11.156  1.00  0.00    -0.246 OA
BRANCH  34  36
ATOM     36  C   UNL     1       2.909   8.176 -10.038  1.00  0.00     0.060 A 
ATOM     37  C   UNL     1       3.486   7.065  -9.414  1.00  0.00     0.016 A 
ATOM     38  C   UNL     1       3.624   9.377 -10.149  1.00  0.00     0.016 A 
ATOM     39  C   UNL     1       4.732   7.196  -8.812  1.00  0.00     0.010 A 
ATOM     40  C   UNL     1       4.874   9.504  -9.542  1.00  0.00     0.010 A 
ATOM     41  C   UNL     1       5.416   8.425  -8.840  1.00  0.00    -0.014 A 
BRANCH  41  42
ATOM     42  C   UNL     1       6.770   8.446  -8.268  1.00  0.00     0.031 A 
ATOM     43  C   UNL     1       7.725   7.526  -8.951  1.00  0.00     0.074 A 
ATOM     44  C   UNL     1       7.254   9.294  -7.337  1.00  0.00     0.049 A 
ATOM     45  N   UNL     1       8.410   6.544  -8.461  1.00  0.00    -0.248 NA
ATOM     46  C   UNL     1       7.858   7.694 -10.407  1.00  0.00     0.031 C 
ATOM     47  C   UNL     1       6.624  10.501  -6.805  1.00  0.00     0.029 A 
ATOM     48  N   UNL     1       8.485   9.291  -6.730  1.00  0.00    -0.354 N 
ATOM     49  C   UNL     1       9.200   6.082  -9.511  1.00  0.00     0.074 A 
ATOM     50  C   UNL     1       8.731   6.736 -10.706  1.00  0.00     0.031 C 
ATOM     51  C   UNL     1       7.535  11.203  -6.093  1.00  0.00     0.029 A 
ATOM     52  C   UNL     1       8.785  10.460  -6.042  1.00  0.00     0.049 A 
ATOM     53  H   UNL     1       9.103   8.526  -6.779  1.00  0.00     0.167 HD
ATOM     54  C   UNL     1      10.320   5.335  -9.325  1.00  0.00     0.037 A 
ATOM     55  C   UNL     1       9.986  10.831  -5.527  1.00  0.00     0.037 A 
ATOM     56  C   UNL     1      10.363   4.708  -8.036  1.00  0.00     0.049 A 
ATOM     57  C   UNL     1      10.837   9.621  -5.406  1.00  0.00     0.074 A 
ATOM     58  C   UNL     1       9.571   3.796  -7.369  1.00  0.00     0.029 A 
ATOM     59  N   UNL     1      11.218   5.223  -7.095  1.00  0.00    -0.354 N 
ATOM     60  N   UNL     1      10.650   8.652  -4.554  1.00  0.00    -0.248 NA
ATOM     61  C   UNL     1      11.775   9.332  -6.481  1.00  0.00     0.031 C 
ATOM     62  C   UNL     1       9.691   4.126  -5.989  1.00  0.00     0.029 A 
ATOM     63  C   UNL     1      10.551   5.222  -5.896  1.00  0.00     0.049 A 
ATOM     64  H   UNL     1      12.138   5.535  -7.250  1.00  0.00     0.167 HD
ATOM     65  C   UNL     1      11.139   7.520  -5.185  1.00  0.00     0.074 A 
ATOM     66  C   UNL     1      11.928   8.019  -6.303  1.00  0.00     0.031 C 
ATOM     67  C   UNL     1      10.644   6.279  -4.909  1.00  0.00     0.037 A 
BRANCH  54  68
ATOM     68  C   UNL     1      11.523   5.433 -10.226  1.00  0.00     0.058 A 
ATOM     69  C   UNL     1      12.510   4.431 -10.208  1.00  0.00     0.135 A 
ATOM     70  C   UNL     1      11.860   6.619 -10.919  1.00  0.00     0.135 A 
ATOM     71  F   UNL     1      12.303   3.281  -9.547  1.00  0.00    -0.206 F 
ATOM     72  C   UNL     1      13.759   4.608 -10.805  1.00  0.00     0.059 A 
ATOM     73  C   UNL     1      13.074   6.794 -11.570  1.00  0.00     0.059 A 
ATOM     74  F   UNL     1      11.059   7.693 -10.912  1.00  0.00    -0.206 F 
ATOM     75  C   UNL     1      14.034   5.800 -11.473  1.00  0.00     0.060 A 
BRANCH  75  76
ATOM     76  S   UNL     1      15.682   6.082 -12.145  1.00  0.00     0.124 S 
ATOM     77  O   UNL     1      16.458   6.284 -10.927  1.00  0.00    -0.237 OA
ATOM     78  O   UNL     1      15.934   4.840 -12.867  1.00  0.00    -0.237 OA
ATOM     79  O   UNL     1      15.503   7.263 -12.985  1.00  0.00    -0.744 OA
ENDBRANCH  75  76
ENDBRANCH  54  68
BRANCH  55  80
ATOM     80  C   UNL     1      10.539  12.203  -5.345  1.00  0.00     0.058 A 
ATOM     81  C   UNL     1      11.660  12.447  -4.530  1.00  0.00     0.135 A 
ATOM     82  C   UNL     1      10.132  13.274  -6.167  1.00  0.00     0.135 A 
ATOM     83  F   UNL     1      12.147  11.478  -3.740  1.00  0.00    -0.206 F 
ATOM     84  C   UNL     1      12.350  13.666  -4.550  1.00  0.00     0.059 A 
ATOM     85  C   UNL     1      10.789  14.502  -6.189  1.00  0.00     0.059 A 
ATOM     86  F   UNL     1       9.130  13.130  -7.047  1.00  0.00    -0.206 F 
ATOM     87  C   UNL     1      11.914  14.685  -5.395  1.00  0.00     0.060 A 
BRANCH  87  88
ATOM     88  S   UNL     1      12.883  16.204  -5.537  1.00  0.00     0.124 S 
ATOM     89  O   UNL     1      12.733  16.786  -4.208  1.00  0.00    -0.237 OA
ATOM     90  O   UNL     1      14.209  15.692  -5.865  1.00  0.00    -0.237 OA
ATOM     91  O   UNL     1      12.216  16.933  -6.614  1.00  0.00    -0.744 OA
ENDBRANCH  87  88
ENDBRANCH  55  80
BRANCH  67  92
ATOM     92  C   UNL     1       9.889   6.066  -3.625  1.00  0.00     0.058 A 
ATOM     93  C   UNL     1       8.668   6.683  -3.307  1.00  0.00     0.135 A 
ATOM     94  C   UNL     1      10.342   5.053  -2.762  1.00  0.00     0.135 A 
ATOM     95  F   UNL     1       8.120   7.595  -4.126  1.00  0.00    -0.206 F 
ATOM     96  C   UNL     1       7.939   6.317  -2.173  1.00  0.00     0.059 A 
ATOM     97  C   UNL     1       9.614   4.649  -1.647  1.00  0.00     0.059 A 
ATOM     98  F   UNL     1      11.480   4.392  -3.039  1.00  0.00    -0.206 F 
ATOM     99  C   UNL     1       8.412   5.287  -1.359  1.00  0.00     0.060 A 
BRANCH  99 100
ATOM    100  S   UNL     1       7.394   4.724   0.022  1.00  0.00     0.124 S 
ATOM    101  O   UNL     1       7.410   5.879   0.913  1.00  0.00    -0.237 OA
ATOM    102  O   UNL     1       6.120   4.436  -0.628  1.00  0.00    -0.237 OA
ATOM    103  O   UNL     1       8.104   3.547   0.519  1.00  0.00    -0.744 OA
ENDBRANCH  99 100
ENDBRANCH  67  92
ENDBRANCH  41  42
ENDBRANCH  34  36
ENDBRANCH  33  34
ENDBRANCH  32  33
ENDBRANCH  31  32
ENDBRANCH  30  31
ENDBRANCH  29  30
ENDBRANCH   1  29
TORSDOF 25
