REMARK SMILES CCc1ccccc1NC(=O)CCCC(=O)OCCOCCOCCOCCOC(=O)c1ccc(-c2c3nc(c(-c4c(F)cc(S(=O)(=O)[O-])cc4F)c4ccc([nH]4)c(-c4c(F)cc(S(=O)(=O)[O-])cc4F)c4nc(c(-c5c(F)cc(S(=O)(=O)[O-])cc5F)c5ccc2[nH]5)C=C4)C=C3)cc1
REMARK SMILES IDX 22 1 21 2 20 3 19 4 18 5 17 6 15 7 16 8 14 9 13 10 12 11
REMARK SMILES IDX 10 12 9 13 11 15 8 16 3 17 4 18 5 19 7 20 6 21 2 22 1 23
REMARK SMILES IDX 23 24 24 25 25 26 26 27 27 28 28 29 29 30 30 31 31 32 32 33
REMARK SMILES IDX 33 34 97 35 34 36 96 37 35 38 36 39 37 40 90 41 38 42 95 43
REMARK SMILES IDX 89 44 91 45 39 46 94 47 88 48 87 49 40 51 74 52 53 53 73 54
REMARK SMILES IDX 54 55 57 56 72 57 92 58 55 59 56 60 71 62 93 63 58 64 41 65
REMARK SMILES IDX 42 66 51 67 43 68 44 69 50 70 52 71 45 72 46 73 47 74 48 75
REMARK SMILES IDX 49 76 75 77 76 78 85 79 77 80 78 81 84 82 86 83 79 84 80 85
REMARK SMILES IDX 81 86 82 87 83 88 59 89 60 90 69 91 61 92 62 93 68 94 70 95
REMARK SMILES IDX 63 96 64 97 65 98 66 99 67 100
REMARK H PARENT 9 14 91 50 57 61
REMARK Flexibility Score: inf
ROOT
ATOM      1  C   UNL     1       3.807   1.036  -7.601  1.00  0.00     0.188 C 
ENDROOT
BRANCH   1   2
ATOM      2  C   UNL     1       3.329  -0.427  -7.628  1.00  0.00     0.188 C 
BRANCH   2   3
ATOM      3  O   UNL     1       1.982  -0.620  -8.025  1.00  0.00    -0.376 OA
BRANCH   3   4
ATOM      4  C   UNL     1       1.014  -0.656  -6.994  1.00  0.00     0.202 C 
BRANCH   4   5
ATOM      5  C   UNL     1       0.801   0.634  -6.224  1.00  0.00     0.261 C 
BRANCH   5   6
ATOM      6  O   UNL     1       1.881   1.161  -5.434  1.00  0.00    -0.463 OA
BRANCH   6   7
ATOM      7  C   UNL     1       2.653   0.462  -4.581  1.00  0.00     0.305 C 
ATOM      8  O   UNL     1       2.673  -0.757  -4.474  1.00  0.00    -0.252 OA
BRANCH   7   9
ATOM      9  C   UNL     1       3.521   1.389  -3.745  1.00  0.00     0.123 C 
BRANCH   9  10
ATOM     10  C   UNL     1       3.418   2.891  -4.039  1.00  0.00     0.022 C 
BRANCH  10  11
ATOM     11  C   UNL     1       2.038   3.552  -3.899  1.00  0.00     0.101 C 
BRANCH  11  12
ATOM     12  C   UNL     1       1.572   3.785  -2.479  1.00  0.00     0.224 C 
ATOM     13  N   UNL     1       0.978   2.851  -1.683  1.00  0.00    -0.326 N 
ATOM     14  H   UNL     1       0.787   3.194  -0.780  1.00  0.00     0.169 HD
ATOM     15  O   UNL     1       1.817   4.878  -1.950  1.00  0.00    -0.275 OA
BRANCH  13  16
ATOM     16  C   UNL     1       0.572   1.512  -1.845  1.00  0.00     0.044 A 
ATOM     17  C   UNL     1       0.624   0.621  -0.750  1.00  0.00    -0.025 A 
ATOM     18  C   UNL     1       0.511  -0.768  -0.986  1.00  0.00     0.006 A 
ATOM     19  C   UNL     1       0.196  -1.261  -2.238  1.00  0.00     0.000 A 
ATOM     20  C   UNL     1       0.086   1.018  -3.045  1.00  0.00     0.026 A 
ATOM     21  C   UNL     1      -0.118  -0.360  -3.233  1.00  0.00     0.002 A 
BRANCH  17  22
ATOM     22  C   UNL     1       0.627   1.121   0.678  1.00  0.00     0.034 C 
ATOM     23  C   UNL     1       1.272   0.206   1.706  1.00  0.00     0.009 C 
ENDBRANCH  17  22
ENDBRANCH  13  16
ENDBRANCH  11  12
ENDBRANCH  10  11
ENDBRANCH   9  10
ENDBRANCH   7   9
ENDBRANCH   6   7
ENDBRANCH   5   6
ENDBRANCH   4   5
ENDBRANCH   3   4
ENDBRANCH   2   3
ENDBRANCH   1   2
BRANCH   1  24
ATOM     24  O   UNL     1       2.853   2.071  -7.774  1.00  0.00    -0.377 OA
BRANCH  24  25
ATOM     25  C   UNL     1       2.013   2.129  -8.923  1.00  0.00     0.188 C 
BRANCH  25  26
ATOM     26  C   UNL     1       2.236   1.218 -10.137  1.00  0.00     0.188 C 
BRANCH  26  27
ATOM     27  O   UNL     1       3.555   0.731 -10.257  1.00  0.00    -0.376 OA
BRANCH  27  28
ATOM     28  C   UNL     1       4.489   1.501 -10.991  1.00  0.00     0.202 C 
BRANCH  28  29
ATOM     29  C   UNL     1       4.685   2.990 -10.656  1.00  0.00     0.261 C 
BRANCH  29  30
ATOM     30  O   UNL     1       3.542   3.864 -10.682  1.00  0.00    -0.460 OA
BRANCH  30  31
ATOM     31  C   UNL     1       2.739   3.892 -11.766  1.00  0.00     0.338 C 
ATOM     32  O   UNL     1       2.905   3.286 -12.813  1.00  0.00    -0.246 OA
BRANCH  31  33
ATOM     33  C   UNL     1       1.496   4.612 -11.388  1.00  0.00     0.060 A 
ATOM     34  C   UNL     1       0.258   3.957 -11.496  1.00  0.00     0.016 A 
ATOM     35  C   UNL     1       1.552   5.924 -10.912  1.00  0.00     0.016 A 
ATOM     36  C   UNL     1      -0.926   4.632 -11.189  1.00  0.00     0.010 A 
ATOM     37  C   UNL     1       0.365   6.610 -10.636  1.00  0.00     0.010 A 
ATOM     38  C   UNL     1      -0.881   5.982 -10.821  1.00  0.00    -0.014 A 
BRANCH  38  39
ATOM     39  C   UNL     1      -2.114   6.805 -10.913  1.00  0.00     0.031 A 
ATOM     40  C   UNL     1      -2.344   7.567 -12.194  1.00  0.00     0.074 A 
ATOM     41  C   UNL     1      -3.016   6.861  -9.917  1.00  0.00     0.049 A 
ATOM     42  N   UNL     1      -3.290   8.413 -12.502  1.00  0.00    -0.248 NA
ATOM     43  C   UNL     1      -1.365   7.341 -13.273  1.00  0.00     0.031 C 
ATOM     44  C   UNL     1      -2.936   6.125  -8.657  1.00  0.00     0.029 A 
ATOM     45  N   UNL     1      -4.178   7.586  -9.809  1.00  0.00    -0.354 N 
ATOM     46  C   UNL     1      -3.013   8.831 -13.800  1.00  0.00     0.074 A 
ATOM     47  C   UNL     1      -1.800   8.164 -14.214  1.00  0.00     0.031 C 
ATOM     48  C   UNL     1      -3.992   6.455  -7.891  1.00  0.00     0.029 A 
ATOM     49  C   UNL     1      -4.803   7.451  -8.591  1.00  0.00     0.049 A 
ATOM     50  H   UNL     1      -4.531   8.150 -10.535  1.00  0.00     0.167 HD
ATOM     51  C   UNL     1      -3.710   9.691 -14.577  1.00  0.00     0.037 A 
ATOM     52  C   UNL     1      -5.884   8.086  -8.091  1.00  0.00     0.037 A 
ATOM     53  C   UNL     1      -4.919  10.347 -14.158  1.00  0.00     0.049 A 
ATOM     54  C   UNL     1      -6.604   9.099  -8.951  1.00  0.00     0.074 A 
ATOM     55  C   UNL     1      -5.712  11.226 -14.874  1.00  0.00     0.029 A 
ATOM     56  N   UNL     1      -5.506  10.202 -12.910  1.00  0.00    -0.354 N 
ATOM     57  N   UNL     1      -6.342   9.474 -10.182  1.00  0.00    -0.248 NA
ATOM     58  C   UNL     1      -7.766   9.774  -8.356  1.00  0.00     0.031 C 
ATOM     59  C   UNL     1      -6.745  11.659 -14.038  1.00  0.00     0.029 A 
ATOM     60  C   UNL     1      -6.636  10.998 -12.825  1.00  0.00     0.049 A 
ATOM     61  H   UNL     1      -5.169   9.620 -12.191  1.00  0.00     0.167 HD
ATOM     62  C   UNL     1      -7.326  10.400 -10.517  1.00  0.00     0.074 A 
ATOM     63  C   UNL     1      -8.194  10.520  -9.365  1.00  0.00     0.031 C 
ATOM     64  C   UNL     1      -7.498  11.090 -11.673  1.00  0.00     0.037 A 
BRANCH  51  65
ATOM     65  C   UNL     1      -3.169   9.999 -15.947  1.00  0.00     0.058 A 
ATOM     66  C   UNL     1      -3.200   9.058 -16.988  1.00  0.00     0.135 A 
ATOM     67  C   UNL     1      -2.659  11.276 -16.234  1.00  0.00     0.135 A 
ATOM     68  F   UNL     1      -3.652   7.814 -16.763  1.00  0.00    -0.206 F 
ATOM     69  C   UNL     1      -2.736   9.369 -18.262  1.00  0.00     0.059 A 
ATOM     70  C   UNL     1      -2.217  11.618 -17.508  1.00  0.00     0.059 A 
ATOM     71  F   UNL     1      -2.597  12.210 -15.272  1.00  0.00    -0.206 F 
ATOM     72  C   UNL     1      -2.253  10.655 -18.514  1.00  0.00     0.060 A 
BRANCH  72  73
ATOM     73  S   UNL     1      -1.692  11.052 -20.183  1.00  0.00     0.124 S 
ATOM     74  O   UNL     1      -0.464  10.268 -20.273  1.00  0.00    -0.237 OA
ATOM     75  O   UNL     1      -2.804  10.584 -21.003  1.00  0.00    -0.237 OA
ATOM     76  O   UNL     1      -1.509  12.500 -20.146  1.00  0.00    -0.744 OA
ENDBRANCH  72  73
ENDBRANCH  51  65
BRANCH  52  77
ATOM     77  C   UNL     1      -6.342   7.816  -6.699  1.00  0.00     0.058 A 
ATOM     78  C   UNL     1      -7.582   7.211  -6.441  1.00  0.00     0.135 A 
ATOM     79  C   UNL     1      -5.560   8.188  -5.593  1.00  0.00     0.135 A 
ATOM     80  F   UNL     1      -8.375   6.849  -7.461  1.00  0.00    -0.206 F 
ATOM     81  C   UNL     1      -8.041   7.008  -5.143  1.00  0.00     0.059 A 
ATOM     82  C   UNL     1      -5.984   7.966  -4.285  1.00  0.00     0.059 A 
ATOM     83  F   UNL     1      -4.363   8.765  -5.779  1.00  0.00    -0.206 F 
ATOM     84  C   UNL     1      -7.233   7.388  -4.071  1.00  0.00     0.060 A 
BRANCH  84  85
ATOM     85  S   UNL     1      -7.827   7.092  -2.391  1.00  0.00     0.124 S 
ATOM     86  O   UNL     1      -8.887   8.086  -2.273  1.00  0.00    -0.237 OA
ATOM     87  O   UNL     1      -8.261   5.700  -2.462  1.00  0.00    -0.237 OA
ATOM     88  O   UNL     1      -6.644   7.330  -1.569  1.00  0.00    -0.744 OA
ENDBRANCH  84  85
ENDBRANCH  52  77
BRANCH  64  89
ATOM     89  C   UNL     1      -8.696  11.996 -11.777  1.00  0.00     0.058 A 
ATOM     90  C   UNL     1      -8.781  13.201 -11.064  1.00  0.00     0.135 A 
ATOM     91  C   UNL     1      -9.747  11.680 -12.655  1.00  0.00     0.135 A 
ATOM     92  F   UNL     1      -7.807  13.551 -10.209  1.00  0.00    -0.206 F 
ATOM     93  C   UNL     1      -9.877  14.048 -11.197  1.00  0.00     0.059 A 
ATOM     94  C   UNL     1     -10.836  12.527 -12.829  1.00  0.00     0.059 A 
ATOM     95  F   UNL     1      -9.711  10.546 -13.373  1.00  0.00    -0.206 F 
ATOM     96  C   UNL     1     -10.898  13.704 -12.085  1.00  0.00     0.060 A 
BRANCH  96  97
ATOM     97  S   UNL     1     -12.298  14.828 -12.271  1.00  0.00     0.124 S 
ATOM     98  O   UNL     1     -13.000  14.637 -11.006  1.00  0.00    -0.237 OA
ATOM     99  O   UNL     1     -11.640  16.119 -12.442  1.00  0.00    -0.237 OA
ATOM    100  O   UNL     1     -12.988  14.321 -13.454  1.00  0.00    -0.744 OA
ENDBRANCH  96  97
ENDBRANCH  64  89
ENDBRANCH  38  39
ENDBRANCH  31  33
ENDBRANCH  30  31
ENDBRANCH  29  30
ENDBRANCH  28  29
ENDBRANCH  27  28
ENDBRANCH  26  27
ENDBRANCH  25  26
ENDBRANCH  24  25
ENDBRANCH   1  24
TORSDOF 28
