REMARK SMILES CC(C)(C)C(=O)NCC(=O)Nc1cc(Cl)ccc1C(=O)OCCOCCOCCOCCOC(=O)c1ccc(-c2c3nc(c(-c4c(F)cc(S(=O)(=O)[O-])cc4F)c4ccc([nH]4)c(-c4c(F)cc(S(=O)(=O)[O-])cc4F)c4nc(c(-c5c(F)cc(S(=O)(=O)[O-])cc5F)c5ccc2[nH]5)C=C4)C=C3)cc1
REMARK SMILES IDX 26 1 25 2 24 3 23 4 22 5 21 6 19 7 20 8 18 9 12 10 13 11
REMARK SMILES IDX 14 12 17 13 15 14 16 15 11 16 9 17 10 18 8 20 7 21 5 22 6 23
REMARK SMILES IDX 2 25 1 26 3 27 4 28 27 29 28 30 29 31 30 32 31 33 32 34
REMARK SMILES IDX 33 35 34 36 35 37 36 38 37 39 101 40 38 41 100 42 39 43
REMARK SMILES IDX 40 44 41 45 94 46 42 47 99 48 93 49 95 50 43 51 98 52 92 53
REMARK SMILES IDX 91 54 44 56 78 57 57 58 77 59 58 60 61 61 76 62 96 63 59 64
REMARK SMILES IDX 60 65 75 67 97 68 62 69 45 70 46 71 55 72 47 73 48 74 54 75
REMARK SMILES IDX 56 76 49 77 50 78 51 79 52 80 53 81 79 82 80 83 89 84 81 85
REMARK SMILES IDX 82 86 88 87 90 88 83 89 84 90 85 91 86 92 87 93 63 94 64 95
REMARK SMILES IDX 73 96 65 97 66 98 72 99 74 100 67 101 68 102 69 103 70 104
REMARK SMILES IDX 71 105
REMARK H PARENT 11 19 7 24 95 55 61 66
REMARK Flexibility Score: inf
ROOT
ATOM      1  C   UNL     1      -4.036   1.138  -1.897  1.00  0.00     0.188 C 
ENDROOT
BRANCH   1   2
ATOM      2  C   UNL     1      -5.240   0.581  -1.122  1.00  0.00     0.188 C 
BRANCH   2   3
ATOM      3  O   UNL     1      -6.481   1.083  -1.576  1.00  0.00    -0.376 OA
BRANCH   3   4
ATOM      4  C   UNL     1      -7.056   2.234  -0.982  1.00  0.00     0.202 C 
BRANCH   4   5
ATOM      5  C   UNL     1      -6.256   3.499  -0.608  1.00  0.00     0.261 C 
BRANCH   5   6
ATOM      6  O   UNL     1      -4.898   3.341  -0.180  1.00  0.00    -0.460 OA
BRANCH   6   7
ATOM      7  C   UNL     1      -4.701   2.855   1.056  1.00  0.00     0.340 C 
ATOM      8  O   UNL     1      -5.579   2.538   1.843  1.00  0.00    -0.246 OA
BRANCH   7   9
ATOM      9  C   UNL     1      -3.251   2.609   1.312  1.00  0.00     0.083 A 
ATOM     10  C   UNL     1      -2.167   3.320   0.746  1.00  0.00     0.057 A 
ATOM     11  C   UNL     1      -0.915   3.165   1.344  1.00  0.00     0.047 A 
ATOM     12  C   UNL     1      -0.685   2.163   2.289  1.00  0.00     0.043 A 
ATOM     13  C   UNL     1      -2.994   1.550   2.206  1.00  0.00     0.019 A 
ATOM     14  Cl  UNL     1       0.865   1.990   3.013  1.00  0.00    -0.084 Cl
ATOM     15  C   UNL     1      -1.705   1.300   2.661  1.00  0.00     0.021 A 
BRANCH  10  16
ATOM     16  N   UNL     1      -2.352   4.191  -0.343  1.00  0.00    -0.324 N 
ATOM     17  C   UNL     1      -1.580   4.606  -1.392  1.00  0.00     0.243 C 
ATOM     18  O   UNL     1      -2.094   5.473  -2.117  1.00  0.00    -0.273 OA
ATOM     19  H   UNL     1      -3.249   4.597  -0.352  1.00  0.00     0.170 HD
BRANCH  17  20
ATOM     20  C   UNL     1      -0.301   3.906  -1.922  1.00  0.00     0.216 C 
BRANCH  20  21
ATOM     21  N   UNL     1       0.774   3.476  -1.050  1.00  0.00    -0.347 N 
ATOM     22  C   UNL     1       1.338   2.285  -0.738  1.00  0.00     0.225 C 
ATOM     23  O   UNL     1       2.317   2.363   0.016  1.00  0.00    -0.275 OA
ATOM     24  H   UNL     1       1.194   4.228  -0.572  1.00  0.00     0.164 HD
BRANCH  22  25
ATOM     25  C   UNL     1       0.904   0.920  -1.310  1.00  0.00     0.041 C 
ATOM     26  C   UNL     1       1.496  -0.186  -0.401  1.00  0.00     0.021 C 
ATOM     27  C   UNL     1       1.505   0.775  -2.712  1.00  0.00     0.021 C 
ATOM     28  C   UNL     1      -0.601   0.662  -1.356  1.00  0.00     0.021 C 
ENDBRANCH  22  25
ENDBRANCH  20  21
ENDBRANCH  17  20
ENDBRANCH  10  16
ENDBRANCH   7   9
ENDBRANCH   6   7
ENDBRANCH   5   6
ENDBRANCH   4   5
ENDBRANCH   3   4
ENDBRANCH   2   3
ENDBRANCH   1   2
BRANCH   1  29
ATOM     29  O   UNL     1      -4.288   2.307  -2.654  1.00  0.00    -0.377 OA
BRANCH  29  30
ATOM     30  C   UNL     1      -5.058   2.213  -3.853  1.00  0.00     0.188 C 
BRANCH  30  31
ATOM     31  C   UNL     1      -5.772   0.907  -4.276  1.00  0.00     0.188 C 
BRANCH  31  32
ATOM     32  O   UNL     1      -5.077  -0.281  -3.921  1.00  0.00    -0.376 OA
BRANCH  32  33
ATOM     33  C   UNL     1      -4.440  -1.001  -4.962  1.00  0.00     0.202 C 
BRANCH  33  34
ATOM     34  C   UNL     1      -3.214  -0.322  -5.586  1.00  0.00     0.261 C 
BRANCH  34  35
ATOM     35  O   UNL     1      -3.440   0.971  -6.168  1.00  0.00    -0.460 OA
BRANCH  35  36
ATOM     36  C   UNL     1      -4.298   1.045  -7.214  1.00  0.00     0.338 C 
ATOM     37  O   UNL     1      -4.891   0.128  -7.739  1.00  0.00    -0.246 OA
BRANCH  36  38
ATOM     38  C   UNL     1      -4.531   2.481  -7.484  1.00  0.00     0.060 A 
ATOM     39  C   UNL     1      -5.823   3.006  -7.344  1.00  0.00     0.016 A 
ATOM     40  C   UNL     1      -3.466   3.309  -7.844  1.00  0.00     0.016 A 
ATOM     41  C   UNL     1      -6.053   4.364  -7.577  1.00  0.00     0.010 A 
ATOM     42  C   UNL     1      -3.703   4.661  -8.098  1.00  0.00     0.010 A 
ATOM     43  C   UNL     1      -5.000   5.193  -7.986  1.00  0.00    -0.014 A 
BRANCH  43  44
ATOM     44  C   UNL     1      -5.263   6.578  -8.447  1.00  0.00     0.031 A 
ATOM     45  C   UNL     1      -5.360   6.834  -9.926  1.00  0.00     0.074 A 
ATOM     46  C   UNL     1      -5.390   7.593  -7.574  1.00  0.00     0.049 A 
ATOM     47  N   UNL     1      -5.471   7.967 -10.568  1.00  0.00    -0.248 NA
ATOM     48  C   UNL     1      -5.321   5.649 -10.798  1.00  0.00     0.031 C 
ATOM     49  C   UNL     1      -5.355   7.466  -6.118  1.00  0.00     0.029 A 
ATOM     50  N   UNL     1      -5.554   8.940  -7.790  1.00  0.00    -0.354 N 
ATOM     51  C   UNL     1      -5.499   7.636 -11.917  1.00  0.00     0.074 A 
ATOM     52  C   UNL     1      -5.374   6.197 -12.003  1.00  0.00     0.031 C 
ATOM     53  C   UNL     1      -5.473   8.689  -5.571  1.00  0.00     0.029 A 
ATOM     54  C   UNL     1      -5.549   9.688  -6.636  1.00  0.00     0.049 A 
ATOM     55  H   UNL     1      -5.665   9.332  -8.686  1.00  0.00     0.167 HD
ATOM     56  C   UNL     1      -5.620   8.457 -12.987  1.00  0.00     0.037 A 
ATOM     57  C   UNL     1      -5.567  11.026  -6.464  1.00  0.00     0.037 A 
ATOM     58  C   UNL     1      -5.738   9.889 -12.892  1.00  0.00     0.049 A 
ATOM     59  C   UNL     1      -5.619  11.926  -7.674  1.00  0.00     0.074 A 
ATOM     60  C   UNL     1      -5.889  10.808 -13.916  1.00  0.00     0.029 A 
ATOM     61  N   UNL     1      -5.703  10.613 -11.709  1.00  0.00    -0.354 N 
ATOM     62  N   UNL     1      -5.673  11.601  -8.945  1.00  0.00    -0.248 NA
ATOM     63  C   UNL     1      -5.608  13.375  -7.427  1.00  0.00     0.031 C 
ATOM     64  C   UNL     1      -5.883  12.090 -13.357  1.00  0.00     0.029 A 
ATOM     65  C   UNL     1      -5.794  11.968 -11.979  1.00  0.00     0.049 A 
ATOM     66  H   UNL     1      -5.624  10.220 -10.809  1.00  0.00     0.167 HD
ATOM     67  C   UNL     1      -5.729  12.804  -9.645  1.00  0.00     0.074 A 
ATOM     68  C   UNL     1      -5.718  13.861  -8.656  1.00  0.00     0.031 C 
ATOM     69  C   UNL     1      -5.785  13.013 -10.985  1.00  0.00     0.037 A 
BRANCH  56  70
ATOM     70  C   UNL     1      -5.593   7.833 -14.355  1.00  0.00     0.058 A 
ATOM     71  C   UNL     1      -6.656   7.053 -14.837  1.00  0.00     0.135 A 
ATOM     72  C   UNL     1      -4.501   8.051 -15.211  1.00  0.00     0.135 A 
ATOM     73  F   UNL     1      -7.715   6.795 -14.054  1.00  0.00    -0.206 F 
ATOM     74  C   UNL     1      -6.628   6.494 -16.111  1.00  0.00     0.059 A 
ATOM     75  C   UNL     1      -4.465   7.527 -16.500  1.00  0.00     0.059 A 
ATOM     76  F   UNL     1      -3.455   8.784 -14.799  1.00  0.00    -0.206 F 
ATOM     77  C   UNL     1      -5.529   6.739 -16.936  1.00  0.00     0.060 A 
BRANCH  77  78
ATOM     78  S   UNL     1      -5.516   6.018 -18.591  1.00  0.00     0.124 S 
ATOM     79  O   UNL     1      -5.324   4.602 -18.290  1.00  0.00    -0.237 OA
ATOM     80  O   UNL     1      -6.834   6.384 -19.099  1.00  0.00    -0.237 OA
ATOM     81  O   UNL     1      -4.389   6.678 -19.242  1.00  0.00    -0.744 OA
ENDBRANCH  77  78
ENDBRANCH  56  70
BRANCH  57  82
ATOM     82  C   UNL     1      -5.509  11.604  -5.093  1.00  0.00     0.058 A 
ATOM     83  C   UNL     1      -6.603  12.295  -4.551  1.00  0.00     0.135 A 
ATOM     84  C   UNL     1      -4.356  11.488  -4.300  1.00  0.00     0.135 A 
ATOM     85  F   UNL     1      -7.723  12.451  -5.274  1.00  0.00    -0.206 F 
ATOM     86  C   UNL     1      -6.553  12.860  -3.280  1.00  0.00     0.059 A 
ATOM     87  C   UNL     1      -4.292  12.017  -3.014  1.00  0.00     0.059 A 
ATOM     88  F   UNL     1      -3.280  10.836  -4.769  1.00  0.00    -0.206 F 
ATOM     89  C   UNL     1      -5.394  12.710  -2.516  1.00  0.00     0.060 A 
BRANCH  89  90
ATOM     90  S   UNL     1      -5.363  13.402  -0.848  1.00  0.00     0.124 S 
ATOM     91  O   UNL     1      -5.307  14.833  -1.123  1.00  0.00    -0.237 OA
ATOM     92  O   UNL     1      -6.617  12.907  -0.290  1.00  0.00    -0.237 OA
ATOM     93  O   UNL     1      -4.155  12.823  -0.266  1.00  0.00    -0.744 OA
ENDBRANCH  89  90
ENDBRANCH  57  82
BRANCH  69  94
ATOM     94  C   UNL     1      -5.872  14.438 -11.466  1.00  0.00     0.058 A 
ATOM     95  C   UNL     1      -4.779  15.315 -11.385  1.00  0.00     0.135 A 
ATOM     96  C   UNL     1      -7.048  14.914 -12.070  1.00  0.00     0.135 A 
ATOM     97  F   UNL     1      -3.632  14.916 -10.813  1.00  0.00    -0.206 F 
ATOM     98  C   UNL     1      -4.857  16.620 -11.863  1.00  0.00     0.059 A 
ATOM     99  C   UNL     1      -7.137  16.204 -12.584  1.00  0.00     0.059 A 
ATOM    100  F   UNL     1      -8.120  14.114 -12.186  1.00  0.00    -0.206 F 
ATOM    101  C   UNL     1      -6.040  17.055 -12.464  1.00  0.00     0.060 A 
BRANCH 101 102
ATOM    102  S   UNL     1      -6.115  18.739 -13.109  1.00  0.00     0.124 S 
ATOM    103  O   UNL     1      -6.162  19.524 -11.880  1.00  0.00    -0.237 OA
ATOM    104  O   UNL     1      -4.876  18.835 -13.875  1.00  0.00    -0.237 OA
ATOM    105  O   UNL     1      -7.339  18.746 -13.905  1.00  0.00    -0.744 OA
ENDBRANCH 101 102
ENDBRANCH  69  94
ENDBRANCH  43  44
ENDBRANCH  36  38
ENDBRANCH  35  36
ENDBRANCH  34  35
ENDBRANCH  33  34
ENDBRANCH  32  33
ENDBRANCH  31  32
ENDBRANCH  30  31
ENDBRANCH  29  30
ENDBRANCH   1  29
TORSDOF 27
