REMARK SMILES O=C(COc1ccc([N+](=O)[O-])cc1)Nc1ccc(C(=O)OCCOCCOCCOCCOC(=O)c2ccc(-c3c4nc(c(-c5c(F)cc(S(=O)(=O)[O-])cc5F)c5ccc([nH]5)c(-c5c(F)cc(S(=O)(=O)[O-])cc5F)c5nc(c(-c6c(F)cc(S(=O)(=O)[O-])cc6F)c6ccc3[nH]6)C=C5)C=C4)cc2)c(O)c1
REMARK SMILES IDX 26 1 25 2 24 3 23 4 22 5 21 6 19 7 20 8 18 9 15 10 16 11
REMARK SMILES IDX 104 12 17 13 102 14 14 15 1 16 2 17 3 19 4 20 5 21 6 22
REMARK SMILES IDX 13 23 7 24 12 25 8 26 9 27 10 28 11 29 103 30 27 32 28 33
REMARK SMILES IDX 29 34 30 35 31 36 32 37 33 38 34 39 35 40 36 41 37 42 101 43
REMARK SMILES IDX 38 44 100 45 39 46 40 47 41 48 94 49 42 50 99 51 93 52 95 53
REMARK SMILES IDX 43 54 98 55 92 56 91 57 44 59 78 60 57 61 77 62 58 63 61 64
REMARK SMILES IDX 76 65 96 66 59 67 60 68 75 70 97 71 62 72 45 73 46 74 55 75
REMARK SMILES IDX 47 76 48 77 54 78 56 79 49 80 50 81 51 82 52 83 53 84 79 85
REMARK SMILES IDX 80 86 89 87 81 88 82 89 88 90 90 91 83 92 84 93 85 94 86 95
REMARK SMILES IDX 87 96 63 97 64 98 73 99 65 100 66 101 72 102 74 103 67 104
REMARK SMILES IDX 68 105 69 106 70 107 71 108
REMARK H PARENT 14 18 103 31 95 58 61 69
REMARK Flexibility Score: inf
ROOT
ATOM      1  C   UNL     1       1.536  -7.285  -0.617  1.00  0.00     0.188 C 
ENDROOT
BRANCH   1   2
ATOM      2  C   UNL     1       1.239  -7.919   0.768  1.00  0.00     0.188 C 
BRANCH   2   3
ATOM      3  O   UNL     1       0.178  -8.852   0.797  1.00  0.00    -0.376 OA
BRANCH   3   4
ATOM      4  C   UNL     1      -1.043  -8.537   1.434  1.00  0.00     0.202 C 
BRANCH   4   5
ATOM      5  C   UNL     1      -1.813  -7.283   1.009  1.00  0.00     0.261 C 
BRANCH   5   6
ATOM      6  O   UNL     1      -1.001  -6.172   0.634  1.00  0.00    -0.460 OA
BRANCH   6   7
ATOM      7  C   UNL     1      -0.553  -5.377   1.626  1.00  0.00     0.341 C 
ATOM      8  O   UNL     1      -0.703  -5.554   2.825  1.00  0.00    -0.246 OA
BRANCH   7   9
ATOM      9  C   UNL     1       0.367  -4.365   1.059  1.00  0.00     0.101 A 
ATOM     10  C   UNL     1       2.117  -2.360   0.195  1.00  0.00     0.045 A 
ATOM     11  C   UNL     1       2.474  -3.179   1.272  1.00  0.00     0.027 A 
ATOM     12  C   UNL     1       0.959  -2.644  -0.534  1.00  0.00     0.073 A 
ATOM     13  C   UNL     1       1.586  -4.159   1.721  1.00  0.00     0.022 A 
ATOM     14  C   UNL     1       0.088  -3.645  -0.105  1.00  0.00     0.132 A 
BRANCH  10  15
ATOM     15  N   UNL     1       2.877  -1.188   0.006  1.00  0.00    -0.323 N 
ATOM     16  O   UNL     1       1.339   0.122  -1.173  1.00  0.00    -0.271 OA
ATOM     17  C   UNL     1       2.372  -0.005  -0.522  1.00  0.00     0.262 C 
ATOM     18  H   UNL     1       3.827  -1.208   0.264  1.00  0.00     0.170 HD
BRANCH  17  19
ATOM     19  C   UNL     1       3.211   1.219  -0.149  1.00  0.00     0.329 C 
BRANCH  19  20
ATOM     20  O   UNL     1       3.981   1.106   1.047  1.00  0.00    -0.484 OA
BRANCH  20  21
ATOM     21  C   UNL     1       3.304   1.416   2.198  1.00  0.00     0.120 A 
ATOM     22  C   UNL     1       3.840   2.429   2.996  1.00  0.00     0.053 A 
ATOM     23  C   UNL     1       2.229   0.658   2.669  1.00  0.00     0.053 A 
ATOM     24  C   UNL     1       3.312   2.680   4.268  1.00  0.00     0.089 A 
ATOM     25  C   UNL     1       1.706   0.888   3.945  1.00  0.00     0.089 A 
ATOM     26  C   UNL     1       2.258   1.891   4.747  1.00  0.00     0.269 A 
BRANCH  26  27
ATOM     27  N   UNL     1       1.760   2.084   6.115  1.00  0.00     0.062 N 
ATOM     28  O   UNL     1       2.267   2.992   6.789  1.00  0.00    -0.258 OA
ATOM     29  O   UNL     1       0.876   1.317   6.522  1.00  0.00    -0.258 OA
ENDBRANCH  26  27
ENDBRANCH  20  21
ENDBRANCH  19  20
ENDBRANCH  17  19
ENDBRANCH  10  15
BRANCH  14  30
ATOM     30  O   UNL     1      -1.058  -3.874  -0.811  1.00  0.00    -0.507 OA
ATOM     31  H   UNL     1      -1.653  -4.543  -0.535  1.00  0.00     0.293 HD
ENDBRANCH  14  30
ENDBRANCH   7   9
ENDBRANCH   6   7
ENDBRANCH   5   6
ENDBRANCH   4   5
ENDBRANCH   3   4
ENDBRANCH   2   3
ENDBRANCH   1   2
BRANCH   1  32
ATOM     32  O   UNL     1       0.827  -7.624  -1.803  1.00  0.00    -0.377 OA
BRANCH  32  33
ATOM     33  C   UNL     1       0.094  -8.839  -1.874  1.00  0.00     0.188 C 
BRANCH  33  34
ATOM     34  C   UNL     1       0.827 -10.144  -1.501  1.00  0.00     0.188 C 
BRANCH  34  35
ATOM     35  O   UNL     1       2.135  -9.932  -0.992  1.00  0.00    -0.376 OA
BRANCH  35  36
ATOM     36  C   UNL     1       3.226 -10.177  -1.861  1.00  0.00     0.202 C 
BRANCH  36  37
ATOM     37  C   UNL     1       3.293  -9.437  -3.206  1.00  0.00     0.261 C 
BRANCH  37  38
ATOM     38  O   UNL     1       2.118  -9.466  -4.029  1.00  0.00    -0.460 OA
BRANCH  38  39
ATOM     39  C   UNL     1       1.740 -10.652  -4.549  1.00  0.00     0.338 C 
ATOM     40  O   UNL     1       2.292 -11.731  -4.394  1.00  0.00    -0.246 OA
BRANCH  39  41
ATOM     41  C   UNL     1       0.424 -10.452  -5.190  1.00  0.00     0.060 A 
ATOM     42  C   UNL     1      -0.694 -11.142  -4.702  1.00  0.00     0.016 A 
ATOM     43  C   UNL     1       0.293  -9.562  -6.259  1.00  0.00     0.016 A 
ATOM     44  C   UNL     1      -1.942 -10.964  -5.302  1.00  0.00     0.010 A 
ATOM     45  C   UNL     1      -0.951  -9.404  -6.874  1.00  0.00     0.010 A 
ATOM     46  C   UNL     1      -2.068 -10.127  -6.419  1.00  0.00    -0.014 A 
BRANCH  46  47
ATOM     47  C   UNL     1      -3.305 -10.162  -7.237  1.00  0.00     0.031 A 
ATOM     48  C   UNL     1      -3.306 -11.008  -8.482  1.00  0.00     0.074 A 
ATOM     49  C   UNL     1      -4.409  -9.481  -6.877  1.00  0.00     0.049 A 
ATOM     50  N   UNL     1      -4.228 -11.140  -9.398  1.00  0.00    -0.248 NA
ATOM     51  C   UNL     1      -2.096 -11.815  -8.727  1.00  0.00     0.031 C 
ATOM     52  C   UNL     1      -4.549  -8.670  -5.668  1.00  0.00     0.029 A 
ATOM     53  N   UNL     1      -5.623  -9.357  -7.506  1.00  0.00    -0.354 N 
ATOM     54  C   UNL     1      -3.716 -12.045 -10.322  1.00  0.00     0.074 A 
ATOM     55  C   UNL     1      -2.385 -12.397  -9.880  1.00  0.00     0.031 C 
ATOM     56  C   UNL     1      -5.778  -8.122  -5.650  1.00  0.00     0.029 A 
ATOM     57  C   UNL     1      -6.497  -8.511  -6.862  1.00  0.00     0.049 A 
ATOM     58  H   UNL     1      -5.848  -9.829  -8.340  1.00  0.00     0.167 HD
ATOM     59  C   UNL     1      -4.309 -12.550 -11.428  1.00  0.00     0.037 A 
ATOM     60  C   UNL     1      -7.723  -8.084  -7.228  1.00  0.00     0.037 A 
ATOM     61  C   UNL     1      -5.632 -12.191 -11.867  1.00  0.00     0.049 A 
ATOM     62  C   UNL     1      -8.318  -8.580  -8.526  1.00  0.00     0.074 A 
ATOM     63  C   UNL     1      -6.316 -12.631 -12.986  1.00  0.00     0.029 A 
ATOM     64  N   UNL     1      -6.471 -11.305 -11.208  1.00  0.00    -0.354 N 
ATOM     65  N   UNL     1      -7.825  -9.437  -9.390  1.00  0.00    -0.248 NA
ATOM     66  C   UNL     1      -9.639  -8.051  -8.899  1.00  0.00     0.031 C 
ATOM     67  C   UNL     1      -7.550 -11.976 -13.029  1.00  0.00     0.029 A 
ATOM     68  C   UNL     1      -7.660 -11.174 -11.904  1.00  0.00     0.049 A 
ATOM     69  H   UNL     1      -6.253 -10.838 -10.368  1.00  0.00     0.167 HD
ATOM     70  C   UNL     1      -8.794  -9.582 -10.380  1.00  0.00     0.074 A 
ATOM     71  C   UNL     1      -9.904  -8.733 -10.004  1.00  0.00     0.031 C 
ATOM     72  C   UNL     1      -8.769 -10.347 -11.500  1.00  0.00     0.037 A 
BRANCH  59  73
ATOM     73  C   UNL     1      -3.533 -13.543 -12.248  1.00  0.00     0.058 A 
ATOM     74  C   UNL     1      -3.292 -14.847 -11.785  1.00  0.00     0.135 A 
ATOM     75  C   UNL     1      -3.075 -13.210 -13.533  1.00  0.00     0.135 A 
ATOM     76  F   UNL     1      -3.687 -15.212 -10.555  1.00  0.00    -0.206 F 
ATOM     77  C   UNL     1      -2.619 -15.782 -12.564  1.00  0.00     0.059 A 
ATOM     78  C   UNL     1      -2.424 -14.138 -14.340  1.00  0.00     0.059 A 
ATOM     79  F   UNL     1      -3.271 -11.975 -14.021  1.00  0.00    -0.206 F 
ATOM     80  C   UNL     1      -2.196 -15.420 -13.844  1.00  0.00     0.060 A 
BRANCH  80  81
ATOM     81  S   UNL     1      -1.358 -16.660 -14.854  1.00  0.00     0.124 S 
ATOM     82  O   UNL     1      -0.086 -16.799 -14.150  1.00  0.00    -0.237 OA
ATOM     83  O   UNL     1      -2.263 -17.800 -14.758  1.00  0.00    -0.237 OA
ATOM     84  O   UNL     1      -1.279 -16.032 -16.169  1.00  0.00    -0.744 OA
ENDBRANCH  80  81
ENDBRANCH  59  73
BRANCH  60  85
ATOM     85  C   UNL     1      -8.477  -7.115  -6.383  1.00  0.00     0.058 A 
ATOM     86  C   UNL     1      -9.694  -7.471  -5.781  1.00  0.00     0.135 A 
ATOM     87  C   UNL     1      -8.031  -5.794  -6.214  1.00  0.00     0.135 A 
ATOM     88  F   UNL     1     -10.171  -8.717  -5.921  1.00  0.00    -0.206 F 
ATOM     89  C   UNL     1     -10.463  -6.545  -5.082  1.00  0.00     0.059 A 
ATOM     90  C   UNL     1      -8.765  -4.859  -5.489  1.00  0.00     0.059 A 
ATOM     91  F   UNL     1      -6.870  -5.399  -6.758  1.00  0.00    -0.206 F 
ATOM     92  C   UNL     1      -9.992  -5.239  -4.946  1.00  0.00     0.060 A 
BRANCH  92  93
ATOM     93  S   UNL     1     -11.000  -4.043  -4.044  1.00  0.00     0.124 S 
ATOM     94  O   UNL     1     -12.094  -3.816  -4.981  1.00  0.00    -0.237 OA
ATOM     95  O   UNL     1     -11.340  -4.782  -2.832  1.00  0.00    -0.237 OA
ATOM     96  O   UNL     1     -10.092  -2.917  -3.849  1.00  0.00    -0.744 OA
ENDBRANCH  92  93
ENDBRANCH  60  85
BRANCH  72  97
ATOM     97  C   UNL     1      -9.999 -10.358 -12.368  1.00  0.00     0.058 A 
ATOM     98  C   UNL     1     -10.371  -9.251 -13.147  1.00  0.00     0.135 A 
ATOM     99  C   UNL     1     -10.785 -11.519 -12.466  1.00  0.00     0.135 A 
ATOM    100  F   UNL     1      -9.659  -8.115 -13.090  1.00  0.00    -0.206 F 
ATOM    101  C   UNL     1     -11.494  -9.285 -13.968  1.00  0.00     0.059 A 
ATOM    102  C   UNL     1     -11.892 -11.586 -13.306  1.00  0.00     0.059 A 
ATOM    103  F   UNL     1     -10.468 -12.613 -11.754  1.00  0.00    -0.206 F 
ATOM    104  C   UNL     1     -12.246 -10.459 -14.045  1.00  0.00     0.060 A 
BRANCH 104 105
ATOM    105  S   UNL     1     -13.678 -10.499 -15.143  1.00  0.00     0.124 S 
ATOM    106  O   UNL     1     -14.622  -9.646 -14.428  1.00  0.00    -0.237 OA
ATOM    107  O   UNL     1     -13.136  -9.946 -16.381  1.00  0.00    -0.237 OA
ATOM    108  O   UNL     1     -14.027 -11.915 -15.197  1.00  0.00    -0.744 OA
ENDBRANCH 104 105
ENDBRANCH  72  97
ENDBRANCH  46  47
ENDBRANCH  39  41
ENDBRANCH  38  39
ENDBRANCH  37  38
ENDBRANCH  36  37
ENDBRANCH  35  36
ENDBRANCH  34  35
ENDBRANCH  33  34
ENDBRANCH  32  33
ENDBRANCH   1  32
TORSDOF 29
