REMARK SMILES Cc1ccc(S(=O)(=O)n2cc(C(=O)C(=O)N[C@@H](Cc3c[nH]c4ccccc34)C(=O)OCCOCCOCCOCCOC(=O)c3ccc(-c4c5nc(c(-c6c(F)cc(S(=O)(=O)[O-])cc6F)c6ccc([nH]6)c(-c6c(F)cc(S(=O)(=O)[O-])cc6F)c6nc(c(-c7c(F)cc(S(=O)(=O)[O-])cc7F)c7ccc4[nH]7)C=C6)C=C5)cc3)c3ccccc32)cc1
REMARK SMILES IDX 35 1 34 2 33 3 32 4 31 5 30 6 28 7 29 8 17 9 16 10 14 11
REMARK SMILES IDX 15 12 12 14 13 15 11 16 9 17 10 18 116 19 111 20 115 21
REMARK SMILES IDX 112 22 114 23 113 24 6 25 7 26 8 27 5 28 1 29 2 30 3 31
REMARK SMILES IDX 118 32 4 33 117 34 18 35 19 36 20 37 27 38 21 39 22 40 26 41
REMARK SMILES IDX 23 43 25 44 24 45 36 46 37 47 38 48 39 49 40 50 41 51 42 52
REMARK SMILES IDX 43 53 44 54 45 55 46 56 110 57 47 58 109 59 48 60 49 61
REMARK SMILES IDX 50 62 103 63 51 64 108 65 102 66 104 67 52 68 107 69 101 70
REMARK SMILES IDX 100 71 53 73 87 74 66 75 86 76 67 77 70 78 85 79 105 80
REMARK SMILES IDX 68 81 69 82 84 84 106 85 71 86 54 87 55 88 64 89 56 90 57 91
REMARK SMILES IDX 63 92 65 93 58 94 59 95 60 96 61 97 62 98 88 99 89 100
REMARK SMILES IDX 98 101 90 102 91 103 97 104 99 105 92 106 93 107 94 108
REMARK SMILES IDX 95 109 96 110 72 111 73 112 82 113 74 114 75 115 81 116
REMARK SMILES IDX 83 117 76 118 77 119 78 120 79 121 80 122
REMARK H PARENT 16 13 21 42 104 72 70 83
REMARK Flexibility Score: inf
ROOT
ATOM      1  C   UNL     1      -8.843   0.456  -3.328  1.00  0.00     0.188 C 
ENDROOT
BRANCH   1   2
ATOM      2  C   UNL     1     -10.272  -0.099  -3.156  1.00  0.00     0.188 C 
BRANCH   2   3
ATOM      3  O   UNL     1     -10.769   0.367  -1.903  1.00  0.00    -0.376 OA
BRANCH   3   4
ATOM      4  C   UNL     1     -12.184   0.357  -1.791  1.00  0.00     0.202 C 
BRANCH   4   5
ATOM      5  C   UNL     1     -12.655   0.815  -0.432  1.00  0.00     0.261 C 
BRANCH   5   6
ATOM      6  O   UNL     1     -11.619   1.444   0.282  1.00  0.00    -0.462 OA
BRANCH   6   7
ATOM      7  C   UNL     1     -11.069   0.608   1.196  1.00  0.00     0.329 C 
ATOM      8  O   UNL     1     -11.379  -0.556   1.431  1.00  0.00    -0.250 OA
BRANCH   7   9
ATOM      9  C   UNL     1     -10.206   1.426   2.121  1.00  0.00     0.197 C 
BRANCH   9  10
ATOM     10  N   UNL     1      -9.435   2.516   1.470  1.00  0.00    -0.335 N 
ATOM     11  C   UNL     1      -8.249   2.403   0.742  1.00  0.00     0.293 C 
ATOM     12  O   UNL     1      -7.575   3.377   0.431  1.00  0.00    -0.265 OA
ATOM     13  H   UNL     1      -9.804   3.425   1.562  1.00  0.00     0.164 HD
BRANCH  11  14
ATOM     14  C   UNL     1      -7.852   1.023   0.249  1.00  0.00     0.252 C 
ATOM     15  O   UNL     1      -8.815   0.323  -0.056  1.00  0.00    -0.283 OA
BRANCH  14  16
ATOM     16  C   UNL     1      -6.533   0.386   0.259  1.00  0.00     0.054 A 
ATOM     17  N   UNL     1      -4.476  -0.358   0.739  1.00  0.00    -0.240 N 
ATOM     18  C   UNL     1      -5.209   0.798   0.460  1.00  0.00     0.117 A 
ATOM     19  C   UNL     1      -5.376  -1.434   0.791  1.00  0.00     0.065 A 
ATOM     20  C   UNL     1      -6.450  -1.023   0.028  1.00  0.00     0.012 A 
ATOM     21  C   UNL     1      -5.213  -2.783   1.157  1.00  0.00     0.028 A 
ATOM     22  C   UNL     1      -7.259  -2.001  -0.590  1.00  0.00     0.011 A 
ATOM     23  C   UNL     1      -5.995  -3.735   0.504  1.00  0.00     0.002 A 
ATOM     24  C   UNL     1      -6.970  -3.353  -0.406  1.00  0.00     0.001 A 
BRANCH  17  25
ATOM     25  S   UNL     1      -2.950  -0.895   0.146  1.00  0.00     0.268 S 
ATOM     26  O   UNL     1      -3.249  -1.323  -1.212  1.00  0.00    -0.201 OA
ATOM     27  O   UNL     1      -2.592  -1.867   1.177  1.00  0.00    -0.201 OA
BRANCH  25  28
ATOM     28  C   UNL     1      -1.422  -0.062   0.000  1.00  0.00     0.088 A 
ATOM     29  C   UNL     1       2.790   0.863  -0.050  1.00  0.00     0.044 C 
ATOM     30  C   UNL     1       1.314   0.598  -0.099  1.00  0.00    -0.051 A 
ATOM     31  C   UNL     1       0.926  -0.710  -0.338  1.00  0.00     0.005 A 
ATOM     32  C   UNL     1       0.321   1.578   0.140  1.00  0.00     0.005 A 
ATOM     33  C   UNL     1      -0.416  -1.018  -0.308  1.00  0.00     0.022 A 
ATOM     34  C   UNL     1      -1.062   1.256   0.198  1.00  0.00     0.022 A 
ENDBRANCH  25  28
ENDBRANCH  17  25
ENDBRANCH  14  16
ENDBRANCH  11  14
ENDBRANCH   9  10
BRANCH   9  35
ATOM     35  C   UNL     1     -11.218   1.876   3.219  1.00  0.00     0.074 C 
BRANCH  35  36
ATOM     36  C   UNL     1     -12.186   2.982   2.855  1.00  0.00    -0.020 A 
ATOM     37  C   UNL     1     -13.538   2.870   2.575  1.00  0.00     0.087 A 
ATOM     38  C   UNL     1     -11.868   4.372   2.746  1.00  0.00     0.003 A 
ATOM     39  N   UNL     1     -14.031   4.119   2.290  1.00  0.00    -0.361 N 
ATOM     40  C   UNL     1     -13.031   5.057   2.395  1.00  0.00     0.046 A 
ATOM     41  C   UNL     1     -10.672   5.101   2.889  1.00  0.00     0.010 A 
ATOM     42  H   UNL     1     -14.964   4.315   2.046  1.00  0.00     0.166 HD
ATOM     43  C   UNL     1     -13.053   6.442   2.189  1.00  0.00     0.026 A 
ATOM     44  C   UNL     1     -10.660   6.468   2.622  1.00  0.00     0.001 A 
ATOM     45  C   UNL     1     -11.838   7.131   2.294  1.00  0.00     0.002 A 
ENDBRANCH  35  36
ENDBRANCH   9  35
ENDBRANCH   7   9
ENDBRANCH   6   7
ENDBRANCH   5   6
ENDBRANCH   4   5
ENDBRANCH   3   4
ENDBRANCH   2   3
ENDBRANCH   1   2
BRANCH   1  46
ATOM     46  O   UNL     1      -8.747   1.748  -3.926  1.00  0.00    -0.377 OA
BRANCH  46  47
ATOM     47  C   UNL     1      -9.088   1.839  -5.297  1.00  0.00     0.188 C 
BRANCH  47  48
ATOM     48  C   UNL     1      -7.871   1.859  -6.214  1.00  0.00     0.188 C 
BRANCH  48  49
ATOM     49  O   UNL     1      -6.748   2.637  -5.832  1.00  0.00    -0.376 OA
BRANCH  49  50
ATOM     50  C   UNL     1      -6.944   3.872  -5.142  1.00  0.00     0.202 C 
BRANCH  50  51
ATOM     51  C   UNL     1      -7.956   4.916  -5.682  1.00  0.00     0.261 C 
BRANCH  51  52
ATOM     52  O   UNL     1      -8.244   4.745  -7.087  1.00  0.00    -0.460 OA
BRANCH  52  53
ATOM     53  C   UNL     1      -9.251   5.523  -7.609  1.00  0.00     0.338 C 
ATOM     54  O   UNL     1      -9.090   6.526  -8.259  1.00  0.00    -0.246 OA
BRANCH  53  55
ATOM     55  C   UNL     1     -10.533   4.759  -7.634  1.00  0.00     0.060 A 
ATOM     56  C   UNL     1     -11.751   5.308  -7.240  1.00  0.00     0.016 A 
ATOM     57  C   UNL     1     -10.496   3.424  -8.014  1.00  0.00     0.016 A 
ATOM     58  C   UNL     1     -12.829   4.444  -6.961  1.00  0.00     0.010 A 
ATOM     59  C   UNL     1     -11.507   2.563  -7.599  1.00  0.00     0.010 A 
ATOM     60  C   UNL     1     -12.575   3.062  -6.848  1.00  0.00    -0.014 A 
BRANCH  60  61
ATOM     61  C   UNL     1     -12.798   2.378  -5.506  1.00  0.00     0.031 A 
ATOM     62  C   UNL     1     -13.189   0.917  -5.328  1.00  0.00     0.074 A 
ATOM     63  C   UNL     1     -12.305   3.150  -4.496  1.00  0.00     0.049 A 
ATOM     64  N   UNL     1     -13.871   0.423  -4.324  1.00  0.00    -0.248 NA
ATOM     65  C   UNL     1     -12.970  -0.102  -6.360  1.00  0.00     0.031 C 
ATOM     66  C   UNL     1     -11.608   2.876  -3.261  1.00  0.00     0.029 A 
ATOM     67  N   UNL     1     -12.745   4.454  -4.262  1.00  0.00    -0.354 N 
ATOM     68  C   UNL     1     -13.976  -0.966  -4.481  1.00  0.00     0.074 A 
ATOM     69  C   UNL     1     -13.506  -1.201  -5.819  1.00  0.00     0.031 C 
ATOM     70  C   UNL     1     -11.990   3.707  -2.289  1.00  0.00     0.029 A 
ATOM     71  C   UNL     1     -12.946   4.569  -2.905  1.00  0.00     0.049 A 
ATOM     72  H   UNL     1     -12.885   5.156  -4.937  1.00  0.00     0.167 HD
ATOM     73  C   UNL     1     -14.367  -1.839  -3.488  1.00  0.00     0.037 A 
ATOM     74  C   UNL     1     -13.666   5.451  -2.221  1.00  0.00     0.037 A 
ATOM     75  C   UNL     1     -14.933  -1.173  -2.293  1.00  0.00     0.049 A 
ATOM     76  C   UNL     1     -14.765   4.674  -1.521  1.00  0.00     0.074 A 
ATOM     77  C   UNL     1     -14.880  -1.449  -0.935  1.00  0.00     0.029 A 
ATOM     78  N   UNL     1     -15.618   0.050  -2.394  1.00  0.00    -0.354 N 
ATOM     79  N   UNL     1     -14.924   3.356  -1.538  1.00  0.00    -0.248 NA
ATOM     80  C   UNL     1     -15.848   5.340  -0.813  1.00  0.00     0.031 C 
ATOM     81  C   UNL     1     -15.439  -0.347  -0.230  1.00  0.00     0.029 A 
ATOM     82  C   UNL     1     -15.883   0.594  -1.150  1.00  0.00     0.049 A 
ATOM     83  H   UNL     1     -15.878   0.468  -3.246  1.00  0.00     0.167 HD
ATOM     84  C   UNL     1     -16.159   3.021  -0.979  1.00  0.00     0.074 A 
ATOM     85  C   UNL     1     -16.644   4.306  -0.492  1.00  0.00     0.031 C 
ATOM     86  C   UNL     1     -16.744   1.764  -0.962  1.00  0.00     0.037 A 
BRANCH  73  87
ATOM     87  C   UNL     1     -14.079  -3.390  -3.515  1.00  0.00     0.058 A 
ATOM     88  C   UNL     1     -14.693  -4.301  -2.611  1.00  0.00     0.135 A 
ATOM     89  C   UNL     1     -13.108  -4.019  -4.338  1.00  0.00     0.135 A 
ATOM     90  F   UNL     1     -15.633  -3.893  -1.748  1.00  0.00    -0.206 F 
ATOM     91  C   UNL     1     -14.379  -5.678  -2.537  1.00  0.00     0.059 A 
ATOM     92  C   UNL     1     -12.849  -5.404  -4.347  1.00  0.00     0.059 A 
ATOM     93  F   UNL     1     -12.302  -3.312  -5.141  1.00  0.00    -0.206 F 
ATOM     94  C   UNL     1     -13.470  -6.230  -3.426  1.00  0.00     0.060 A 
BRANCH  94  95
ATOM     95  S   UNL     1     -13.127  -8.010  -3.415  1.00  0.00     0.124 S 
ATOM     96  O   UNL     1     -12.129  -8.125  -2.357  1.00  0.00    -0.237 OA
ATOM     97  O   UNL     1     -14.433  -8.592  -3.121  1.00  0.00    -0.237 OA
ATOM     98  O   UNL     1     -12.635  -8.262  -4.768  1.00  0.00    -0.744 OA
ENDBRANCH  94  95
ENDBRANCH  73  87
BRANCH  74  99
ATOM     99  C   UNL     1     -13.084   6.820  -2.395  1.00  0.00     0.058 A 
ATOM    100  C   UNL     1     -11.923   7.087  -1.630  1.00  0.00     0.135 A 
ATOM    101  C   UNL     1     -13.112   7.437  -3.668  1.00  0.00     0.135 A 
ATOM    102  F   UNL     1     -11.767   6.474  -0.452  1.00  0.00    -0.206 F 
ATOM    103  C   UNL     1     -10.805   7.764  -2.135  1.00  0.00     0.059 A 
ATOM    104  C   UNL     1     -11.994   8.102  -4.206  1.00  0.00     0.059 A 
ATOM    105  F   UNL     1     -14.135   7.192  -4.503  1.00  0.00    -0.206 F 
ATOM    106  C   UNL     1     -10.826   8.216  -3.449  1.00  0.00     0.060 A 
BRANCH 106 107
ATOM    107  S   UNL     1      -9.260   8.673  -4.253  1.00  0.00     0.124 S 
ATOM    108  O   UNL     1      -9.183  10.102  -3.977  1.00  0.00    -0.237 OA
ATOM    109  O   UNL     1      -8.282   7.833  -3.566  1.00  0.00    -0.237 OA
ATOM    110  O   UNL     1      -9.511   8.295  -5.638  1.00  0.00    -0.744 OA
ENDBRANCH 106 107
ENDBRANCH  74  99
BRANCH  86 111
ATOM    111  C   UNL     1     -18.230   1.409  -0.651  1.00  0.00     0.058 A 
ATOM    112  C   UNL     1     -19.302   2.318  -0.640  1.00  0.00     0.135 A 
ATOM    113  C   UNL     1     -18.651   0.047  -0.505  1.00  0.00     0.135 A 
ATOM    114  F   UNL     1     -19.129   3.617  -0.907  1.00  0.00    -0.206 F 
ATOM    115  C   UNL     1     -20.637   1.928  -0.435  1.00  0.00     0.059 A 
ATOM    116  C   UNL     1     -19.969  -0.364  -0.328  1.00  0.00     0.059 A 
ATOM    117  F   UNL     1     -17.810  -0.990  -0.584  1.00  0.00    -0.206 F 
ATOM    118  C   UNL     1     -20.963   0.585  -0.286  1.00  0.00     0.060 A 
BRANCH 118 119
ATOM    119  S   UNL     1     -22.685   0.072  -0.179  1.00  0.00     0.124 S 
ATOM    120  O   UNL     1     -22.993   0.364   1.217  1.00  0.00    -0.237 OA
ATOM    121  O   UNL     1     -23.328   0.936  -1.164  1.00  0.00    -0.237 OA
ATOM    122  O   UNL     1     -22.645  -1.344  -0.532  1.00  0.00    -0.744 OA
ENDBRANCH 118 119
ENDBRANCH  86 111
ENDBRANCH  60  61
ENDBRANCH  53  55
ENDBRANCH  52  53
ENDBRANCH  51  52
ENDBRANCH  50  51
ENDBRANCH  49  50
ENDBRANCH  48  49
ENDBRANCH  47  48
ENDBRANCH  46  47
ENDBRANCH   1  46
TORSDOF 30
