REMARK SMILES CCC[C@H](CNC(=O)N1CCN2C(=O)NC[C@H]2C1)C(=O)OCCOCCOCCOCCOC(=O)c1ccc(-c2c3nc(c(-c4c(F)cc(S(=O)(=O)[O-])cc4F)c4ccc([nH]4)c(-c4c(F)cc(S(=O)(=O)[O-])cc4F)c4nc(c(-c5c(F)cc(S(=O)(=O)[O-])cc5F)c5ccc2[nH]5)C=C4)C=C3)cc1
REMARK SMILES IDX 27 1 26 2 25 3 24 4 23 5 22 6 21 7 19 8 20 9 4 10 3 11 2 12
REMARK SMILES IDX 1 13 5 14 6 15 7 16 8 18 9 19 10 20 18 21 11 22 17 23 12 24
REMARK SMILES IDX 16 25 13 26 15 27 14 28 28 30 29 31 30 32 31 33 32 34 33 35
REMARK SMILES IDX 34 36 35 37 36 38 37 39 101 40 38 41 100 42 39 43 40 44
REMARK SMILES IDX 41 45 94 46 42 47 99 48 93 49 95 50 43 51 98 52 92 53 91 54
REMARK SMILES IDX 44 56 78 57 57 58 77 59 58 60 61 61 76 62 96 63 59 64 60 65
REMARK SMILES IDX 75 67 97 68 62 69 45 70 46 71 55 72 47 73 48 74 54 75 56 76
REMARK SMILES IDX 49 77 50 78 51 79 52 80 53 81 79 82 80 83 89 84 81 85 82 86
REMARK SMILES IDX 88 87 90 88 83 89 84 90 85 91 86 92 87 93 63 94 64 95 73 96
REMARK SMILES IDX 65 97 66 98 72 99 74 100 67 101 68 102 69 103 70 104 71 105
REMARK H PARENT 6 17 15 29 95 55 61 66
REMARK Flexibility Score: inf
ROOT
ATOM      1  O   UNL     1       3.506   0.377  -5.430  1.00  0.00    -0.377 OA
ENDROOT
BRANCH   1   2
ATOM      2  C   UNL     1       3.329  -0.779  -4.622  1.00  0.00     0.188 C 
BRANCH   2   3
ATOM      3  C   UNL     1       2.945  -2.119  -5.269  1.00  0.00     0.188 C 
BRANCH   3   4
ATOM      4  O   UNL     1       2.396  -2.212  -6.573  1.00  0.00    -0.376 OA
BRANCH   4   5
ATOM      5  C   UNL     1       1.497  -1.238  -7.076  1.00  0.00     0.202 C 
BRANCH   5   6
ATOM      6  C   UNL     1       0.143  -1.065  -6.397  1.00  0.00     0.261 C 
BRANCH   6   7
ATOM      7  O   UNL     1       0.224  -0.447  -5.100  1.00  0.00    -0.463 OA
BRANCH   7   8
ATOM      8  C   UNL     1      -0.029  -1.249  -4.045  1.00  0.00     0.310 C 
ATOM      9  O   UNL     1      -0.154  -2.469  -4.119  1.00  0.00    -0.252 OA
BRANCH   8  10
ATOM     10  C   UNL     1      -0.224  -0.520  -2.722  1.00  0.00     0.118 C 
BRANCH  10  11
ATOM     11  C   UNL     1      -1.727  -0.661  -2.392  1.00  0.00     0.017 C 
BRANCH  11  12
ATOM     12  C   UNL     1      -1.963  -1.278  -1.016  1.00  0.00    -0.002 C 
ATOM     13  C   UNL     1      -1.375  -0.455   0.118  1.00  0.00     0.004 C 
ENDBRANCH  11  12
ENDBRANCH  10  11
BRANCH  10  14
ATOM     14  C   UNL     1       0.168   0.962  -2.640  1.00  0.00     0.133 C 
BRANCH  14  15
ATOM     15  N   UNL     1       1.522   1.236  -2.181  1.00  0.00    -0.337 N 
ATOM     16  C   UNL     1       2.349   2.270  -2.496  1.00  0.00     0.317 C 
ATOM     17  H   UNL     1       1.894   0.577  -1.550  1.00  0.00     0.165 HD
ATOM     18  O   UNL     1       3.533   2.193  -2.169  1.00  0.00    -0.249 OA
BRANCH  16  19
ATOM     19  N   UNL     1       1.867   3.291  -3.261  1.00  0.00    -0.321 N 
ATOM     20  C   UNL     1       0.647   4.064  -2.990  1.00  0.00     0.143 C 
ATOM     21  C   UNL     1       2.388   3.422  -4.624  1.00  0.00     0.148 C 
ATOM     22  C   UNL     1      -0.450   3.912  -4.069  1.00  0.00     0.143 C 
ATOM     23  C   UNL     1       1.332   2.794  -5.516  1.00  0.00     0.125 C 
ATOM     24  N   UNL     1       0.059   3.485  -5.364  1.00  0.00    -0.317 N 
ATOM     25  C   UNL     1       1.524   2.747  -7.013  1.00  0.00     0.144 C 
ATOM     26  C   UNL     1      -0.680   3.387  -6.528  1.00  0.00     0.317 C 
ATOM     27  N   UNL     1       0.172   2.878  -7.505  1.00  0.00    -0.336 N 
ATOM     28  O   UNL     1      -1.841   3.692  -6.687  1.00  0.00    -0.249 OA
ATOM     29  H   UNL     1      -0.111   2.638  -8.417  1.00  0.00     0.165 HD
ENDBRANCH  16  19
ENDBRANCH  14  15
ENDBRANCH  10  14
ENDBRANCH   8  10
ENDBRANCH   7   8
ENDBRANCH   6   7
ENDBRANCH   5   6
ENDBRANCH   4   5
ENDBRANCH   3   4
ENDBRANCH   2   3
ENDBRANCH   1   2
BRANCH   1  30
ATOM     30  C   UNL     1       4.413   0.262  -6.510  1.00  0.00     0.188 C 
BRANCH  30  31
ATOM     31  C   UNL     1       5.912   0.394  -6.243  1.00  0.00     0.188 C 
BRANCH  31  32
ATOM     32  O   UNL     1       6.402   0.046  -4.962  1.00  0.00    -0.376 OA
BRANCH  32  33
ATOM     33  C   UNL     1       6.163   0.983  -3.905  1.00  0.00     0.202 C 
BRANCH  33  34
ATOM     34  C   UNL     1       6.711   2.404  -4.089  1.00  0.00     0.261 C 
BRANCH  34  35
ATOM     35  O   UNL     1       5.843   3.215  -4.915  1.00  0.00    -0.460 OA
BRANCH  35  36
ATOM     36  C   UNL     1       6.405   3.789  -6.003  1.00  0.00     0.338 C 
ATOM     37  O   UNL     1       7.552   3.663  -6.396  1.00  0.00    -0.246 OA
BRANCH  36  38
ATOM     38  C   UNL     1       5.374   4.518  -6.769  1.00  0.00     0.060 A 
ATOM     39  C   UNL     1       5.024   4.062  -8.046  1.00  0.00     0.016 A 
ATOM     40  C   UNL     1       4.836   5.708  -6.277  1.00  0.00     0.016 A 
ATOM     41  C   UNL     1       4.148   4.812  -8.842  1.00  0.00     0.010 A 
ATOM     42  C   UNL     1       3.964   6.459  -7.078  1.00  0.00     0.010 A 
ATOM     43  C   UNL     1       3.628   6.031  -8.374  1.00  0.00    -0.014 A 
BRANCH  43  44
ATOM     44  C   UNL     1       2.827   6.913  -9.273  1.00  0.00     0.031 A 
ATOM     45  C   UNL     1       3.510   8.025 -10.000  1.00  0.00     0.074 A 
ATOM     46  C   UNL     1       1.500   6.753  -9.433  1.00  0.00     0.049 A 
ATOM     47  N   UNL     1       2.979   8.951 -10.752  1.00  0.00    -0.248 NA
ATOM     48  C   UNL     1       4.965   8.132  -9.830  1.00  0.00     0.031 C 
ATOM     49  C   UNL     1       0.726   5.760  -8.723  1.00  0.00     0.029 A 
ATOM     50  N   UNL     1       0.561   7.400 -10.200  1.00  0.00    -0.354 N 
ATOM     51  C   UNL     1       4.029   9.774 -11.126  1.00  0.00     0.074 A 
ATOM     52  C   UNL     1       5.226   9.240 -10.509  1.00  0.00     0.031 C 
ATOM     53  C   UNL     1      -0.550   5.791  -9.126  1.00  0.00     0.029 A 
ATOM     54  C   UNL     1      -0.718   6.905 -10.043  1.00  0.00     0.049 A 
ATOM     55  H   UNL     1       0.780   8.146 -10.804  1.00  0.00     0.167 HD
ATOM     56  C   UNL     1       3.984  10.879 -11.904  1.00  0.00     0.037 A 
ATOM     57  C   UNL     1      -1.909   7.328 -10.513  1.00  0.00     0.037 A 
ATOM     58  C   UNL     1       2.779  11.410 -12.489  1.00  0.00     0.049 A 
ATOM     59  C   UNL     1      -1.933   8.582 -11.337  1.00  0.00     0.074 A 
ATOM     60  C   UNL     1       2.644  12.512 -13.314  1.00  0.00     0.029 A 
ATOM     61  N   UNL     1       1.502  10.897 -12.298  1.00  0.00    -0.354 N 
ATOM     62  N   UNL     1      -0.923   9.329 -11.712  1.00  0.00    -0.248 NA
ATOM     63  C   UNL     1      -3.246   9.076 -11.769  1.00  0.00     0.031 C 
ATOM     64  C   UNL     1       1.283  12.701 -13.574  1.00  0.00     0.029 A 
ATOM     65  C   UNL     1       0.571  11.680 -12.964  1.00  0.00     0.049 A 
ATOM     66  H   UNL     1       1.290  10.096 -11.767  1.00  0.00     0.167 HD
ATOM     67  C   UNL     1      -1.477  10.384 -12.422  1.00  0.00     0.074 A 
ATOM     68  C   UNL     1      -2.909  10.160 -12.455  1.00  0.00     0.031 C 
ATOM     69  C   UNL     1      -0.854  11.449 -12.983  1.00  0.00     0.037 A 
BRANCH  56  70
ATOM     70  C   UNL     1       5.277  11.608 -12.126  1.00  0.00     0.058 A 
ATOM     71  C   UNL     1       6.306  11.065 -12.912  1.00  0.00     0.135 A 
ATOM     72  C   UNL     1       5.484  12.873 -11.555  1.00  0.00     0.135 A 
ATOM     73  F   UNL     1       6.169   9.846 -13.459  1.00  0.00    -0.206 F 
ATOM     74  C   UNL     1       7.506  11.740 -13.102  1.00  0.00     0.059 A 
ATOM     75  C   UNL     1       6.664  13.581 -11.757  1.00  0.00     0.059 A 
ATOM     76  F   UNL     1       4.536  13.432 -10.786  1.00  0.00    -0.206 F 
ATOM     77  C   UNL     1       7.674  12.999 -12.522  1.00  0.00     0.060 A 
BRANCH  77  78
ATOM     78  S   UNL     1       9.235  13.864 -12.788  1.00  0.00     0.124 S 
ATOM     79  O   UNL     1      10.153  13.061 -11.986  1.00  0.00    -0.237 OA
ATOM     80  O   UNL     1       9.402  13.763 -14.234  1.00  0.00    -0.237 OA
ATOM     81  O   UNL     1       8.970  15.207 -12.282  1.00  0.00    -0.744 OA
ENDBRANCH  77  78
ENDBRANCH  56  70
BRANCH  57  82
ATOM     82  C   UNL     1      -3.172   6.609 -10.165  1.00  0.00     0.058 A 
ATOM     83  C   UNL     1      -3.934   5.964 -11.152  1.00  0.00     0.135 A 
ATOM     84  C   UNL     1      -3.646   6.546  -8.843  1.00  0.00     0.135 A 
ATOM     85  F   UNL     1      -3.543   6.006 -12.435  1.00  0.00    -0.206 F 
ATOM     86  C   UNL     1      -5.117   5.295 -10.845  1.00  0.00     0.059 A 
ATOM     87  C   UNL     1      -4.802   5.847  -8.505  1.00  0.00     0.059 A 
ATOM     88  F   UNL     1      -2.966   7.154  -7.857  1.00  0.00    -0.206 F 
ATOM     89  C   UNL     1      -5.540   5.235  -9.516  1.00  0.00     0.060 A 
BRANCH  89  90
ATOM     90  S   UNL     1      -7.059   4.335  -9.131  1.00  0.00     0.124 S 
ATOM     91  O   UNL     1      -8.073   5.206  -9.714  1.00  0.00    -0.237 OA
ATOM     92  O   UNL     1      -6.845   3.063  -9.816  1.00  0.00    -0.237 OA
ATOM     93  O   UNL     1      -7.056   4.263  -7.673  1.00  0.00    -0.744 OA
ENDBRANCH  89  90
ENDBRANCH  57  82
BRANCH  69  94
ATOM     94  C   UNL     1      -1.719  12.447 -13.699  1.00  0.00     0.058 A 
ATOM     95  C   UNL     1      -2.562  13.325 -13.002  1.00  0.00     0.135 A 
ATOM     96  C   UNL     1      -1.666  12.556 -15.098  1.00  0.00     0.135 A 
ATOM     97  F   UNL     1      -2.662  13.250 -11.665  1.00  0.00    -0.206 F 
ATOM     98  C   UNL     1      -3.334  14.271 -13.668  1.00  0.00     0.059 A 
ATOM     99  C   UNL     1      -2.405  13.515 -15.782  1.00  0.00     0.059 A 
ATOM    100  F   UNL     1      -0.874  11.739 -15.811  1.00  0.00    -0.206 F 
ATOM    101  C   UNL     1      -3.242  14.363 -15.059  1.00  0.00     0.060 A 
BRANCH 101 102
ATOM    102  S   UNL     1      -4.207  15.632 -15.904  1.00  0.00     0.124 S 
ATOM    103  O   UNL     1      -5.563  15.113 -15.766  1.00  0.00    -0.237 OA
ATOM    104  O   UNL     1      -3.901  16.826 -15.122  1.00  0.00    -0.237 OA
ATOM    105  O   UNL     1      -3.667  15.623 -17.261  1.00  0.00    -0.744 OA
ENDBRANCH 101 102
ENDBRANCH  69  94
ENDBRANCH  43  44
ENDBRANCH  36  38
ENDBRANCH  35  36
ENDBRANCH  34  35
ENDBRANCH  33  34
ENDBRANCH  32  33
ENDBRANCH  31  32
ENDBRANCH  30  31
ENDBRANCH   1  30
TORSDOF 28
