REMARK SMILES Cc1cc(=O)c(Oc2ccc(C(=O)OCCOCCOCCOCCOC(=O)c3ccc(-c4c5nc(c(-c6c(F)cc(S(=O)(=O)[O-])cc6F)c6ccc([nH]6)c(-c6c(F)cc(S(=O)(=O)[O-])cc6F)c6nc(c(-c7c(F)cc(S(=O)(=O)[O-])cc7F)c7ccc4[nH]7)C=C6)C=C5)cc3)cc2)c(-c2ccc(S(C)(=O)=O)cc2)o1
REMARK SMILES IDX 19 1 18 2 17 3 16 4 15 5 14 6 12 7 13 8 11 9 8 10 9 11 96 12
REMARK SMILES IDX 10 13 95 14 7 15 6 16 1 17 2 18 3 19 108 20 4 21 97 22 5 23
REMARK SMILES IDX 98 24 99 25 107 26 100 27 106 28 101 29 102 30 103 31 104 32
REMARK SMILES IDX 105 33 20 34 21 35 22 36 23 37 24 38 25 39 26 40 27 41 28 42
REMARK SMILES IDX 29 43 30 44 94 45 31 46 93 47 32 48 33 49 34 50 87 51 35 52
REMARK SMILES IDX 92 53 86 54 88 55 36 56 91 57 85 58 84 59 37 61 71 62 50 63
REMARK SMILES IDX 70 64 51 65 54 66 69 67 89 68 52 69 53 70 68 72 90 73 55 74
REMARK SMILES IDX 38 75 39 76 48 77 40 78 41 79 47 80 49 81 42 82 43 83 44 84
REMARK SMILES IDX 45 85 46 86 72 87 73 88 82 89 74 90 75 91 81 92 83 93 76 94
REMARK SMILES IDX 77 95 78 96 79 97 80 98 56 99 57 100 66 101 58 102 59 103
REMARK SMILES IDX 65 104 67 105 60 106 61 107 62 108 63 109 64 110
REMARK H PARENT 88 60 54 71
REMARK Flexibility Score: inf
ROOT
ATOM      1  C   UNL     1      -4.354   3.449  -6.840  1.00  0.00     0.188 C 
ENDROOT
BRANCH   1   2
ATOM      2  C   UNL     1      -3.508   2.835  -7.920  1.00  0.00     0.188 C 
BRANCH   2   3
ATOM      3  O   UNL     1      -3.324   3.635  -9.081  1.00  0.00    -0.376 OA
BRANCH   3   4
ATOM      4  C   UNL     1      -4.342   3.467 -10.061  1.00  0.00     0.202 C 
BRANCH   4   5
ATOM      5  C   UNL     1      -4.272   2.143 -10.853  1.00  0.00     0.261 C 
BRANCH   5   6
ATOM      6  O   UNL     1      -3.695   1.042 -10.120  1.00  0.00    -0.460 OA
BRANCH   6   7
ATOM      7  C   UNL     1      -2.335   0.984 -10.097  1.00  0.00     0.338 C 
ATOM      8  O   UNL     1      -1.577   1.556 -10.864  1.00  0.00    -0.246 OA
BRANCH   7   9
ATOM      9  C   UNL     1      -1.865   0.269  -8.861  1.00  0.00     0.060 A 
ATOM     10  C   UNL     1      -0.952  -0.825  -6.417  1.00  0.00     0.127 A 
ATOM     11  C   UNL     1      -0.104  -0.030  -7.182  1.00  0.00     0.048 A 
ATOM     12  C   UNL     1      -2.242  -1.102  -6.890  1.00  0.00     0.048 A 
ATOM     13  C   UNL     1      -0.568   0.532  -8.386  1.00  0.00     0.019 A 
ATOM     14  C   UNL     1      -2.700  -0.560  -8.101  1.00  0.00     0.019 A 
BRANCH  10  15
ATOM     15  O   UNL     1      -0.530  -1.574  -5.354  1.00  0.00    -0.449 OA
BRANCH  15  16
ATOM     16  C   UNL     1      -0.013  -1.135  -4.149  1.00  0.00     0.217 A 
ATOM     17  C   UNL     1       1.174  -0.303  -0.069  1.00  0.00     0.088 C 
ATOM     18  C   UNL     1       0.846  -0.725  -1.466  1.00  0.00     0.105 A 
ATOM     19  C   UNL     1       0.656  -1.994  -1.828  1.00  0.00     0.098 A 
ATOM     20  O   UNL     1       0.731   0.315  -2.358  1.00  0.00    -0.457 OA
ATOM     21  C   UNL     1       0.307  -2.282  -3.228  1.00  0.00     0.228 A 
ATOM     22  C   UNL     1       0.227   0.100  -3.640  1.00  0.00     0.180 A 
ATOM     23  O   UNL     1       0.260  -3.453  -3.595  1.00  0.00    -0.285 OA
BRANCH  22  24
ATOM     24  C   UNL     1       0.001   1.405  -4.269  1.00  0.00     0.021 A 
ATOM     25  C   UNL     1       1.093   2.258  -4.516  1.00  0.00     0.013 A 
ATOM     26  C   UNL     1      -1.292   1.881  -4.475  1.00  0.00     0.013 A 
ATOM     27  C   UNL     1       0.902   3.546  -5.024  1.00  0.00     0.021 A 
ATOM     28  C   UNL     1      -1.478   3.174  -4.963  1.00  0.00     0.021 A 
ATOM     29  C   UNL     1      -0.392   3.999  -5.254  1.00  0.00     0.067 A 
BRANCH  29  30
ATOM     30  S   UNL     1      -0.653   5.576  -6.044  1.00  0.00     0.175 S 
ATOM     31  C   UNL     1      -1.010   6.693  -4.720  1.00  0.00     0.163 C 
ATOM     32  O   UNL     1       0.607   5.976  -6.638  1.00  0.00    -0.224 OA
ATOM     33  O   UNL     1      -1.846   5.461  -6.855  1.00  0.00    -0.224 OA
ENDBRANCH  29  30
ENDBRANCH  22  24
ENDBRANCH  15  16
ENDBRANCH  10  15
ENDBRANCH   7   9
ENDBRANCH   6   7
ENDBRANCH   5   6
ENDBRANCH   4   5
ENDBRANCH   3   4
ENDBRANCH   2   3
ENDBRANCH   1   2
BRANCH   1  34
ATOM     34  O   UNL     1      -5.666   3.750  -7.266  1.00  0.00    -0.377 OA
BRANCH  34  35
ATOM     35  C   UNL     1      -6.417   4.401  -6.246  1.00  0.00     0.188 C 
BRANCH  35  36
ATOM     36  C   UNL     1      -5.781   5.697  -5.694  1.00  0.00     0.188 C 
BRANCH  36  37
ATOM     37  O   UNL     1      -4.696   5.620  -4.753  1.00  0.00    -0.376 OA
BRANCH  37  38
ATOM     38  C   UNL     1      -4.640   4.592  -3.771  1.00  0.00     0.202 C 
BRANCH  38  39
ATOM     39  C   UNL     1      -5.364   4.865  -2.460  1.00  0.00     0.261 C 
BRANCH  39  40
ATOM     40  O   UNL     1      -6.710   4.410  -2.583  1.00  0.00    -0.460 OA
BRANCH  40  41
ATOM     41  C   UNL     1      -7.604   5.348  -2.970  1.00  0.00     0.338 C 
ATOM     42  O   UNL     1      -7.461   6.554  -2.935  1.00  0.00    -0.246 OA
BRANCH  41  43
ATOM     43  C   UNL     1      -8.669   4.641  -3.713  1.00  0.00     0.060 A 
ATOM     44  C   UNL     1      -9.000   3.312  -3.421  1.00  0.00     0.016 A 
ATOM     45  C   UNL     1      -9.255   5.298  -4.803  1.00  0.00     0.016 A 
ATOM     46  C   UNL     1      -9.936   2.650  -4.207  1.00  0.00     0.010 A 
ATOM     47  C   UNL     1     -10.182   4.633  -5.598  1.00  0.00     0.010 A 
ATOM     48  C   UNL     1     -10.552   3.321  -5.276  1.00  0.00    -0.014 A 
BRANCH  48  49
ATOM     49  C   UNL     1     -11.790   2.757  -5.843  1.00  0.00     0.031 A 
ATOM     50  C   UNL     1     -11.816   1.996  -7.123  1.00  0.00     0.074 A 
ATOM     51  C   UNL     1     -12.906   2.969  -5.122  1.00  0.00     0.049 A 
ATOM     52  N   UNL     1     -12.820   1.358  -7.663  1.00  0.00    -0.248 NA
ATOM     53  C   UNL     1     -10.571   1.945  -7.900  1.00  0.00     0.031 C 
ATOM     54  C   UNL     1     -12.956   3.735  -3.871  1.00  0.00     0.029 A 
ATOM     55  N   UNL     1     -14.195   2.561  -5.315  1.00  0.00    -0.354 N 
ATOM     56  C   UNL     1     -12.331   0.807  -8.838  1.00  0.00     0.074 A 
ATOM     57  C   UNL     1     -10.946   1.223  -8.951  1.00  0.00     0.031 C 
ATOM     58  C   UNL     1     -14.206   3.716  -3.394  1.00  0.00     0.029 A 
ATOM     59  C   UNL     1     -15.046   2.963  -4.316  1.00  0.00     0.049 A 
ATOM     60  H   UNL     1     -14.485   2.032  -6.093  1.00  0.00     0.167 HD
ATOM     61  C   UNL     1     -12.988   0.020  -9.725  1.00  0.00     0.037 A 
ATOM     62  C   UNL     1     -16.362   2.743  -4.154  1.00  0.00     0.037 A 
ATOM     63  C   UNL     1     -14.380  -0.343  -9.592  1.00  0.00     0.049 A 
ATOM     64  C   UNL     1     -17.069   1.895  -5.165  1.00  0.00     0.074 A 
ATOM     65  C   UNL     1     -15.136  -1.166 -10.408  1.00  0.00     0.029 A 
ATOM     66  N   UNL     1     -15.231   0.115  -8.593  1.00  0.00    -0.354 N 
ATOM     67  N   UNL     1     -16.576   1.307  -6.229  1.00  0.00    -0.248 NA
ATOM     68  C   UNL     1     -18.503   1.674  -4.955  1.00  0.00     0.031 C 
ATOM     69  C   UNL     1     -16.454  -1.157  -9.938  1.00  0.00     0.029 A 
ATOM     70  C   UNL     1     -16.512  -0.377  -8.794  1.00  0.00     0.049 A 
ATOM     71  H   UNL     1     -14.963   0.703  -7.850  1.00  0.00     0.167 HD
ATOM     72  C   UNL     1     -17.639   0.637  -6.818  1.00  0.00     0.074 A 
ATOM     73  C   UNL     1     -18.796   0.875  -5.974  1.00  0.00     0.031 C 
ATOM     74  C   UNL     1     -17.657  -0.104  -7.954  1.00  0.00     0.037 A 
BRANCH  61  75
ATOM     75  C   UNL     1     -12.222  -0.487 -10.916  1.00  0.00     0.058 A 
ATOM     76  C   UNL     1     -11.203  -1.445 -10.783  1.00  0.00     0.135 A 
ATOM     77  C   UNL     1     -12.536  -0.048 -12.213  1.00  0.00     0.135 A 
ATOM     78  F   UNL     1     -10.853  -1.897  -9.568  1.00  0.00    -0.206 F 
ATOM     79  C   UNL     1     -10.505  -1.926 -11.887  1.00  0.00     0.059 A 
ATOM     80  C   UNL     1     -11.869  -0.534 -13.334  1.00  0.00     0.059 A 
ATOM     81  F   UNL     1     -13.503   0.864 -12.401  1.00  0.00    -0.206 F 
ATOM     82  C   UNL     1     -10.844  -1.462 -13.159  1.00  0.00     0.060 A 
BRANCH  82  83
ATOM     83  S   UNL     1      -9.917  -2.087 -14.576  1.00  0.00     0.124 S 
ATOM     84  O   UNL     1      -8.608  -1.478 -14.357  1.00  0.00    -0.237 OA
ATOM     85  O   UNL     1      -9.984  -3.532 -14.378  1.00  0.00    -0.237 OA
ATOM     86  O   UNL     1     -10.661  -1.578 -15.724  1.00  0.00    -0.744 OA
ENDBRANCH  82  83
ENDBRANCH  61  75
BRANCH  62  87
ATOM     87  C   UNL     1     -17.043   3.308  -2.964  1.00  0.00     0.058 A 
ATOM     88  C   UNL     1     -17.428   2.485  -1.898  1.00  0.00     0.135 A 
ATOM     89  C   UNL     1     -17.215   4.695  -2.820  1.00  0.00     0.135 A 
ATOM     90  F   UNL     1     -17.274   1.155  -1.988  1.00  0.00    -0.206 F 
ATOM     91  C   UNL     1     -17.954   3.015  -0.726  1.00  0.00     0.059 A 
ATOM     92  C   UNL     1     -17.715   5.251  -1.649  1.00  0.00     0.059 A 
ATOM     93  F   UNL     1     -16.833   5.525  -3.803  1.00  0.00    -0.206 F 
ATOM     94  C   UNL     1     -18.081   4.401  -0.606  1.00  0.00     0.060 A 
BRANCH  94  95
ATOM     95  S   UNL     1     -18.676   5.079   0.958  1.00  0.00     0.124 S 
ATOM     96  O   UNL     1     -20.068   4.644   0.957  1.00  0.00    -0.237 OA
ATOM     97  O   UNL     1     -17.802   4.421   1.925  1.00  0.00    -0.237 OA
ATOM     98  O   UNL     1     -18.463   6.515   0.807  1.00  0.00    -0.744 OA
ENDBRANCH  94  95
ENDBRANCH  62  87
BRANCH  74  99
ATOM     99  C   UNL     1     -18.978  -0.697  -8.359  1.00  0.00     0.058 A 
ATOM    100  C   UNL     1     -20.016   0.104  -8.860  1.00  0.00     0.135 A 
ATOM    101  C   UNL     1     -19.191  -2.083  -8.291  1.00  0.00     0.135 A 
ATOM    102  F   UNL     1     -19.867   1.436  -8.934  1.00  0.00    -0.206 F 
ATOM    103  C   UNL     1     -21.227  -0.447  -9.264  1.00  0.00     0.059 A 
ATOM    104  C   UNL     1     -20.384  -2.659  -8.718  1.00  0.00     0.059 A 
ATOM    105  F   UNL     1     -18.229  -2.894  -7.824  1.00  0.00    -0.206 F 
ATOM    106  C   UNL     1     -21.399  -1.831  -9.194  1.00  0.00     0.060 A 
BRANCH 106 107
ATOM    107  S   UNL     1     -22.964  -2.532  -9.757  1.00  0.00     0.124 S 
ATOM    108  O   UNL     1     -23.881  -2.077  -8.717  1.00  0.00    -0.237 OA
ATOM    109  O   UNL     1     -23.130  -1.907 -11.066  1.00  0.00    -0.237 OA
ATOM    110  O   UNL     1     -22.705  -3.968  -9.781  1.00  0.00    -0.744 OA
ENDBRANCH 106 107
ENDBRANCH  74  99
ENDBRANCH  48  49
ENDBRANCH  41  43
ENDBRANCH  40  41
ENDBRANCH  39  40
ENDBRANCH  38  39
ENDBRANCH  37  38
ENDBRANCH  36  37
ENDBRANCH  35  36
ENDBRANCH  34  35
ENDBRANCH   1  34
TORSDOF 27
