REMARK SMILES CC(C)(C)c1csc(C[NH2+][C@H]2CCC[C@@H](C(=O)OCCOCCOCCOCCOC(=O)c3ccc(-c4c5nc(c(-c6c(F)cc(S(=O)(=O)[O-])cc6F)c6ccc([nH]6)c(-c6c(F)cc(S(=O)(=O)[O-])cc6F)c6nc(c(-c7c(F)cc(S(=O)(=O)[O-])cc7F)c7ccc4[nH]7)C=C6)C=C5)cc3)C2)n1
REMARK SMILES IDX 23 1 22 2 21 3 20 4 19 5 18 6 16 7 17 8 15 9 11 10 12 11
REMARK SMILES IDX 99 12 13 13 14 14 10 15 9 18 8 19 5 20 6 21 100 22 7 23 2 24
REMARK SMILES IDX 1 25 3 26 4 27 24 28 25 29 26 30 27 31 28 32 29 33 30 34
REMARK SMILES IDX 31 35 32 36 33 37 34 38 98 39 35 40 97 41 36 42 37 43 38 44
REMARK SMILES IDX 91 45 39 46 96 47 90 48 92 49 40 50 95 51 89 52 88 53 41 55
REMARK SMILES IDX 75 56 54 57 74 58 55 59 58 60 73 61 93 62 56 63 57 64 72 66
REMARK SMILES IDX 94 67 59 68 42 69 43 70 52 71 44 72 45 73 51 74 53 75 46 76
REMARK SMILES IDX 47 77 48 78 49 79 50 80 76 81 77 82 86 83 78 84 79 85 85 86
REMARK SMILES IDX 87 87 80 88 81 89 82 90 83 91 84 92 60 93 61 94 70 95 62 96
REMARK SMILES IDX 63 97 69 98 71 99 64 100 65 101 66 102 67 103 68 104
REMARK H PARENT 10 16 10 17 92 54 58 65
REMARK Flexibility Score: inf
ROOT
ATOM      1  C   UNL     1       6.892  -1.693  -8.051  1.00  0.00     0.188 C 
ENDROOT
BRANCH   1   2
ATOM      2  C   UNL     1       7.198  -2.907  -8.959  1.00  0.00     0.188 C 
BRANCH   2   3
ATOM      3  O   UNL     1       6.335  -3.310 -10.011  1.00  0.00    -0.376 OA
BRANCH   3   4
ATOM      4  C   UNL     1       4.930  -3.269  -9.889  1.00  0.00     0.202 C 
BRANCH   4   5
ATOM      5  C   UNL     1       4.196  -3.572  -8.594  1.00  0.00     0.261 C 
BRANCH   5   6
ATOM      6  O   UNL     1       4.926  -3.557  -7.368  1.00  0.00    -0.463 OA
BRANCH   6   7
ATOM      7  C   UNL     1       5.512  -4.715  -7.011  1.00  0.00     0.309 C 
ATOM      8  O   UNL     1       5.622  -5.683  -7.750  1.00  0.00    -0.252 OA
BRANCH   7   9
ATOM      9  C   UNL     1       6.035  -4.617  -5.584  1.00  0.00     0.105 C 
ATOM     10  C   UNL     1       3.907  -5.144  -4.090  1.00  0.00     0.183 C 
ATOM     11  C   UNL     1       4.489  -6.575  -3.956  1.00  0.00     0.065 C 
ATOM     12  C   UNL     1       5.028  -4.143  -4.511  1.00  0.00     0.080 C 
ATOM     13  C   UNL     1       5.519  -6.998  -5.004  1.00  0.00     0.007 C 
ATOM     14  C   UNL     1       6.626  -5.963  -5.189  1.00  0.00     0.016 C 
BRANCH  10  15
ATOM     15  N   UNL     1       2.561  -5.126  -4.759  1.00  0.00    -0.338 N 
ATOM     16  H   UNL     1       2.264  -6.088  -4.923  1.00  0.00     0.346 HD
ATOM     17  H   UNL     1       1.915  -4.634  -4.142  1.00  0.00     0.346 HD
BRANCH  15  18
ATOM     18  C   UNL     1       2.579  -4.418  -6.035  1.00  0.00     0.329 C 
BRANCH  18  19
ATOM     19  C   UNL     1       1.388  -4.196  -6.946  1.00  0.00     0.147 A 
ATOM     20  C   UNL     1       0.625  -3.088  -8.746  1.00  0.00     0.057 A 
ATOM     21  C   UNL     1       0.389  -4.394  -9.145  1.00  0.00     0.091 A 
ATOM     22  N   UNL     1       1.119  -2.997  -7.446  1.00  0.00    -0.240 NA
ATOM     23  S   UNL     1       0.754  -5.499  -7.878  1.00  0.00    -0.121 S 
BRANCH  20  24
ATOM     24  C   UNL     1       0.426  -1.821  -9.590  1.00  0.00     0.005 C 
ATOM     25  C   UNL     1       0.969  -0.558  -8.886  1.00  0.00     0.017 C 
ATOM     26  C   UNL     1      -1.073  -1.613  -9.864  1.00  0.00     0.017 C 
ATOM     27  C   UNL     1       1.159  -1.922 -10.950  1.00  0.00     0.017 C 
ENDBRANCH  20  24
ENDBRANCH  18  19
ENDBRANCH  15  18
ENDBRANCH  10  15
ENDBRANCH   7   9
ENDBRANCH   6   7
ENDBRANCH   5   6
ENDBRANCH   4   5
ENDBRANCH   3   4
ENDBRANCH   2   3
ENDBRANCH   1   2
BRANCH   1  28
ATOM     28  O   UNL     1       5.560  -1.215  -8.120  1.00  0.00    -0.377 OA
BRANCH  28  29
ATOM     29  C   UNL     1       5.331  -0.034  -8.869  1.00  0.00     0.188 C 
BRANCH  29  30
ATOM     30  C   UNL     1       5.894   0.002 -10.301  1.00  0.00     0.188 C 
BRANCH  30  31
ATOM     31  O   UNL     1       7.244  -0.423 -10.370  1.00  0.00    -0.376 OA
BRANCH  31  32
ATOM     32  C   UNL     1       8.252   0.565 -10.476  1.00  0.00     0.202 C 
BRANCH  32  33
ATOM     33  C   UNL     1       8.415   1.566  -9.317  1.00  0.00     0.261 C 
BRANCH  33  34
ATOM     34  O   UNL     1       7.240   2.260  -8.868  1.00  0.00    -0.460 OA
BRANCH  34  35
ATOM     35  C   UNL     1       6.598   3.062  -9.750  1.00  0.00     0.338 C 
ATOM     36  O   UNL     1       6.939   3.300 -10.888  1.00  0.00    -0.246 OA
BRANCH  35  37
ATOM     37  C   UNL     1       5.281   3.429  -9.162  1.00  0.00     0.060 A 
ATOM     38  C   UNL     1       4.108   3.122  -9.867  1.00  0.00     0.016 A 
ATOM     39  C   UNL     1       5.205   4.083  -7.930  1.00  0.00     0.016 A 
ATOM     40  C   UNL     1       2.863   3.519  -9.372  1.00  0.00     0.010 A 
ATOM     41  C   UNL     1       3.960   4.506  -7.449  1.00  0.00     0.010 A 
ATOM     42  C   UNL     1       2.788   4.268  -8.191  1.00  0.00    -0.014 A 
BRANCH  42  43
ATOM     43  C   UNL     1       1.546   5.019  -7.870  1.00  0.00     0.031 A 
ATOM     44  C   UNL     1       1.475   6.468  -8.286  1.00  0.00     0.074 A 
ATOM     45  C   UNL     1       0.498   4.443  -7.253  1.00  0.00     0.049 A 
ATOM     46  N   UNL     1       0.542   7.356  -8.061  1.00  0.00    -0.248 NA
ATOM     47  C   UNL     1       2.618   6.982  -9.060  1.00  0.00     0.031 C 
ATOM     48  C   UNL     1       0.416   3.040  -6.851  1.00  0.00     0.029 A 
ATOM     49  N   UNL     1      -0.700   4.979  -6.846  1.00  0.00    -0.354 N 
ATOM     50  C   UNL     1       0.985   8.530  -8.662  1.00  0.00     0.074 A 
ATOM     51  C   UNL     1       2.286   8.252  -9.229  1.00  0.00     0.031 C 
ATOM     52  C   UNL     1      -0.765   2.830  -6.240  1.00  0.00     0.029 A 
ATOM     53  C   UNL     1      -1.506   4.090  -6.174  1.00  0.00     0.049 A 
ATOM     54  H   UNL     1      -0.957   5.914  -7.020  1.00  0.00     0.167 HD
ATOM     55  C   UNL     1       0.361   9.728  -8.746  1.00  0.00     0.037 A 
ATOM     56  C   UNL     1      -2.690   4.282  -5.556  1.00  0.00     0.037 A 
ATOM     57  C   UNL     1      -0.930  10.004  -8.174  1.00  0.00     0.049 A 
ATOM     58  C   UNL     1      -3.322   5.655  -5.577  1.00  0.00     0.074 A 
ATOM     59  C   UNL     1      -1.646  11.188  -8.198  1.00  0.00     0.029 A 
ATOM     60  N   UNL     1      -1.697   9.087  -7.471  1.00  0.00    -0.354 N 
ATOM     61  N   UNL     1      -2.897   6.755  -6.155  1.00  0.00    -0.248 NA
ATOM     62  C   UNL     1      -4.597   5.814  -4.861  1.00  0.00     0.031 C 
ATOM     63  C   UNL     1      -2.821  11.003  -7.463  1.00  0.00     0.029 A 
ATOM     64  C   UNL     1      -2.868   9.685  -7.037  1.00  0.00     0.049 A 
ATOM     65  H   UNL     1      -1.446   8.150  -7.305  1.00  0.00     0.167 HD
ATOM     66  C   UNL     1      -3.872   7.719  -5.908  1.00  0.00     0.074 A 
ATOM     67  C   UNL     1      -4.911   7.072  -5.136  1.00  0.00     0.031 C 
ATOM     68  C   UNL     1      -3.906   9.022  -6.287  1.00  0.00     0.037 A 
BRANCH  55  69
ATOM     69  C   UNL     1       1.075  10.840  -9.465  1.00  0.00     0.058 A 
ATOM     70  C   UNL     1       1.246  10.828 -10.859  1.00  0.00     0.135 A 
ATOM     71  C   UNL     1       1.556  11.954  -8.758  1.00  0.00     0.135 A 
ATOM     72  F   UNL     1       0.828   9.778 -11.583  1.00  0.00    -0.206 F 
ATOM     73  C   UNL     1       1.884  11.871 -11.523  1.00  0.00     0.059 A 
ATOM     74  C   UNL     1       2.169  13.023  -9.404  1.00  0.00     0.059 A 
ATOM     75  F   UNL     1       1.426  12.014  -7.423  1.00  0.00    -0.206 F 
ATOM     76  C   UNL     1       2.337  12.967 -10.787  1.00  0.00     0.060 A 
BRANCH  76  77
ATOM     77  S   UNL     1       3.140  14.322 -11.668  1.00  0.00     0.124 S 
ATOM     78  O   UNL     1       4.400  13.704 -12.069  1.00  0.00    -0.237 OA
ATOM     79  O   UNL     1       2.195  14.593 -12.747  1.00  0.00    -0.237 OA
ATOM     80  O   UNL     1       3.250  15.369 -10.658  1.00  0.00    -0.744 OA
ENDBRANCH  76  77
ENDBRANCH  55  69
BRANCH  56  81
ATOM     81  C   UNL     1      -3.363   3.159  -4.842  1.00  0.00     0.058 A 
ATOM     82  C   UNL     1      -4.595   2.652  -5.282  1.00  0.00     0.135 A 
ATOM     83  C   UNL     1      -2.811   2.603  -3.676  1.00  0.00     0.135 A 
ATOM     84  F   UNL     1      -5.174   3.158  -6.382  1.00  0.00    -0.206 F 
ATOM     85  C   UNL     1      -5.270   1.658  -4.580  1.00  0.00     0.059 A 
ATOM     86  C   UNL     1      -3.451   1.586  -2.974  1.00  0.00     0.059 A 
ATOM     87  F   UNL     1      -1.633   3.047  -3.211  1.00  0.00    -0.206 F 
ATOM     88  C   UNL     1      -4.690   1.132  -3.425  1.00  0.00     0.060 A 
BRANCH  88  89
ATOM     89  S   UNL     1      -5.568  -0.167  -2.528  1.00  0.00     0.124 S 
ATOM     90  O   UNL     1      -6.675   0.580  -1.940  1.00  0.00    -0.237 OA
ATOM     91  O   UNL     1      -5.920  -1.094  -3.599  1.00  0.00    -0.237 OA
ATOM     92  O   UNL     1      -4.569  -0.659  -1.584  1.00  0.00    -0.744 OA
ENDBRANCH  88  89
ENDBRANCH  56  81
BRANCH  68  93
ATOM     93  C   UNL     1      -5.128   9.826  -5.928  1.00  0.00     0.058 A 
ATOM     94  C   UNL     1      -5.405  10.213  -4.608  1.00  0.00     0.135 A 
ATOM     95  C   UNL     1      -6.006  10.266  -6.935  1.00  0.00     0.135 A 
ATOM     96  F   UNL     1      -4.603   9.820  -3.606  1.00  0.00    -0.206 F 
ATOM     97  C   UNL     1      -6.523  10.981  -4.294  1.00  0.00     0.059 A 
ATOM     98  C   UNL     1      -7.110  11.063  -6.648  1.00  0.00     0.059 A 
ATOM     99  F   UNL     1      -5.782   9.938  -8.217  1.00  0.00    -0.206 F 
ATOM    100  C   UNL     1      -7.368  11.405  -5.322  1.00  0.00     0.060 A 
BRANCH 100 101
ATOM    101  S   UNL     1      -8.795  12.428  -4.903  1.00  0.00     0.124 S 
ATOM    102  O   UNL     1      -9.669  11.460  -4.248  1.00  0.00    -0.237 OA
ATOM    103  O   UNL     1      -8.207  13.442  -4.034  1.00  0.00    -0.237 OA
ATOM    104  O   UNL     1      -9.258  12.914  -6.200  1.00  0.00    -0.744 OA
ENDBRANCH 100 101
ENDBRANCH  68  93
ENDBRANCH  42  43
ENDBRANCH  35  37
ENDBRANCH  34  35
ENDBRANCH  33  34
ENDBRANCH  32  33
ENDBRANCH  31  32
ENDBRANCH  30  31
ENDBRANCH  29  30
ENDBRANCH  28  29
ENDBRANCH   1  28
TORSDOF 27
