REMARK SMILES Cc1nc(C)n(CC[C@H]2CCC[C@@]2([NH2+]C(C)C)C(=O)OCCOCCOCCOCCOC(=O)c2ccc(-c3c4nc(c(-c5c(F)cc(S(=O)(=O)[O-])cc5F)c5ccc([nH]5)c(-c5c(F)cc(S(=O)(=O)[O-])cc5F)c5nc(c(-c6c(F)cc(S(=O)(=O)[O-])cc6F)c6ccc3[nH]6)C=C5)C=C4)cc2)n1
REMARK SMILES IDX 26 1 25 2 24 3 23 4 22 5 21 6 20 7 18 8 19 9 13 10 9 11
REMARK SMILES IDX 10 12 11 13 12 14 8 15 7 16 6 17 1 18 2 19 3 20 101 21 4 22
REMARK SMILES IDX 5 23 14 24 15 27 16 28 17 29 27 30 28 31 29 32 30 33 31 34
REMARK SMILES IDX 32 35 33 36 34 37 35 38 36 39 100 40 37 41 99 42 38 43 39 44
REMARK SMILES IDX 40 45 93 46 41 47 98 48 92 49 94 50 42 51 97 52 91 53 90 54
REMARK SMILES IDX 43 56 77 57 56 58 76 59 57 60 60 61 75 62 95 63 58 64 59 65
REMARK SMILES IDX 74 67 96 68 61 69 44 70 45 71 54 72 46 73 47 74 53 75 55 76
REMARK SMILES IDX 48 77 49 78 50 79 51 80 52 81 78 82 79 83 88 84 80 85 81 86
REMARK SMILES IDX 87 87 89 88 82 89 83 90 84 91 85 92 86 93 62 94 63 95 72 96
REMARK SMILES IDX 64 97 65 98 71 99 73 100 66 101 67 102 68 103 69 104 70 105
REMARK H PARENT 14 25 14 26 94 55 60 66
REMARK Flexibility Score: inf
ROOT
ATOM      1  O   UNL     1       1.892   9.549  -3.424  1.00  0.00    -0.377 OA
ENDROOT
BRANCH   1   2
ATOM      2  C   UNL     1       2.513   8.797  -4.452  1.00  0.00     0.188 C 
BRANCH   2   3
ATOM      3  C   UNL     1       1.920   9.027  -5.864  1.00  0.00     0.188 C 
BRANCH   3   4
ATOM      4  O   UNL     1       0.765   9.840  -6.065  1.00  0.00    -0.376 OA
BRANCH   4   5
ATOM      5  C   UNL     1      -0.214   9.939  -5.045  1.00  0.00     0.202 C 
BRANCH   5   6
ATOM      6  C   UNL     1      -0.848   8.661  -4.489  1.00  0.00     0.261 C 
BRANCH   6   7
ATOM      7  O   UNL     1      -0.035   7.481  -4.524  1.00  0.00    -0.459 OA
BRANCH   7   8
ATOM      8  C   UNL     1      -0.138   6.736  -5.658  1.00  0.00     0.368 C 
ATOM      9  O   UNL     1      -0.800   7.063  -6.639  1.00  0.00    -0.245 OA
BRANCH   8  10
ATOM     10  C   UNL     1       0.650   5.403  -5.546  1.00  0.00     0.197 C 
ATOM     11  C   UNL     1       0.430   4.666  -4.184  1.00  0.00     0.064 C 
ATOM     12  C   UNL     1       0.682   3.192  -4.559  1.00  0.00     0.011 C 
ATOM     13  C   UNL     1       0.173   3.025  -5.986  1.00  0.00     0.008 C 
ATOM     14  C   UNL     1       0.019   4.426  -6.552  1.00  0.00     0.081 C 
BRANCH  11  15
ATOM     15  C   UNL     1      -0.911   4.854  -3.439  1.00  0.00     0.034 C 
BRANCH  15  16
ATOM     16  C   UNL     1      -0.701   5.015  -1.915  1.00  0.00     0.147 C 
BRANCH  16  17
ATOM     17  N   UNL     1      -0.184   6.300  -1.469  1.00  0.00    -0.250 N 
ATOM     18  C   UNL     1      -0.699   9.562  -0.228  1.00  0.00     0.092 C 
ATOM     19  C   UNL     1      -0.241   8.230  -0.670  1.00  0.00     0.147 A 
ATOM     20  N   UNL     1       1.071   7.868  -0.594  1.00  0.00    -0.217 NA
ATOM     21  N   UNL     1      -1.057   7.290  -1.165  1.00  0.00    -0.156 NA
ATOM     22  C   UNL     1       1.096   6.662  -1.119  1.00  0.00     0.124 A 
ATOM     23  C   UNL     1       2.325   5.860  -1.311  1.00  0.00     0.089 C 
ENDBRANCH  16  17
ENDBRANCH  15  16
ENDBRANCH  11  15
BRANCH  10  24
ATOM     24  N   UNL     1       2.124   5.617  -5.623  1.00  0.00    -0.330 N 
ATOM     25  H   UNL     1       2.532   4.923  -4.997  1.00  0.00     0.347 HD
ATOM     26  H   UNL     1       2.174   6.616  -5.425  1.00  0.00     0.347 HD
BRANCH  24  27
ATOM     27  C   UNL     1       2.917   5.553  -6.843  1.00  0.00     0.176 C 
ATOM     28  C   UNL     1       4.286   6.178  -6.496  1.00  0.00     0.075 C 
ATOM     29  C   UNL     1       3.194   4.127  -7.323  1.00  0.00     0.075 C 
ENDBRANCH  24  27
ENDBRANCH  10  24
ENDBRANCH   8  10
ENDBRANCH   7   8
ENDBRANCH   6   7
ENDBRANCH   5   6
ENDBRANCH   4   5
ENDBRANCH   3   4
ENDBRANCH   2   3
ENDBRANCH   1   2
BRANCH   1  30
ATOM     30  C   UNL     1       2.555  10.750  -3.058  1.00  0.00     0.188 C 
BRANCH  30  31
ATOM     31  C   UNL     1       2.873  11.762  -4.184  1.00  0.00     0.188 C 
BRANCH  31  32
ATOM     32  O   UNL     1       3.419  11.183  -5.366  1.00  0.00    -0.376 OA
BRANCH  32  33
ATOM     33  C   UNL     1       4.744  11.495  -5.770  1.00  0.00     0.202 C 
BRANCH  33  34
ATOM     34  C   UNL     1       5.785  10.540  -5.187  1.00  0.00     0.261 C 
BRANCH  34  35
ATOM     35  O   UNL     1       5.639  10.375  -3.785  1.00  0.00    -0.460 OA
BRANCH  35  36
ATOM     36  C   UNL     1       5.750  11.498  -3.069  1.00  0.00     0.338 C 
ATOM     37  O   UNL     1       5.938  12.645  -3.507  1.00  0.00    -0.246 OA
BRANCH  36  38
ATOM     38  C   UNL     1       5.712  11.177  -1.649  1.00  0.00     0.060 A 
ATOM     39  C   UNL     1       5.968  12.258  -0.811  1.00  0.00     0.016 A 
ATOM     40  C   UNL     1       5.920   9.841  -1.269  1.00  0.00     0.016 A 
ATOM     41  C   UNL     1       6.837  12.032   0.215  1.00  0.00     0.010 A 
ATOM     42  C   UNL     1       6.793   9.617  -0.244  1.00  0.00     0.010 A 
ATOM     43  C   UNL     1       7.338  10.736   0.375  1.00  0.00    -0.014 A 
BRANCH  43  44
ATOM     44  C   UNL     1       8.508  10.606   1.199  1.00  0.00     0.031 A 
ATOM     45  C   UNL     1       8.199  10.720   2.630  1.00  0.00     0.074 A 
ATOM     46  C   UNL     1       9.719  10.371   0.665  1.00  0.00     0.049 A 
ATOM     47  N   UNL     1       8.538  11.660   3.444  1.00  0.00    -0.248 NA
ATOM     48  C   UNL     1       7.220   9.761   3.167  1.00  0.00     0.031 C 
ATOM     49  C   UNL     1      10.047   9.972  -0.708  1.00  0.00     0.029 A 
ATOM     50  N   UNL     1      10.918  10.326   1.293  1.00  0.00    -0.354 N 
ATOM     51  C   UNL     1       8.005  11.276   4.666  1.00  0.00     0.074 A 
ATOM     52  C   UNL     1       7.045  10.236   4.398  1.00  0.00     0.031 C 
ATOM     53  C   UNL     1      11.310   9.489  -0.731  1.00  0.00     0.029 A 
ATOM     54  C   UNL     1      11.901   9.653   0.588  1.00  0.00     0.049 A 
ATOM     55  H   UNL     1      11.076  10.736   2.174  1.00  0.00     0.167 HD
ATOM     56  C   UNL     1       8.601  11.627   5.833  1.00  0.00     0.037 A 
ATOM     57  C   UNL     1      13.047   9.159   1.118  1.00  0.00     0.037 A 
ATOM     58  C   UNL     1       9.472  12.762   5.676  1.00  0.00     0.049 A 
ATOM     59  C   UNL     1      13.276   9.867   2.410  1.00  0.00     0.074 A 
ATOM     60  C   UNL     1       9.290  14.058   5.231  1.00  0.00     0.029 A 
ATOM     61  N   UNL     1      10.828  12.540   5.639  1.00  0.00    -0.354 N 
ATOM     62  N   UNL     1      13.552  11.140   2.511  1.00  0.00    -0.248 NA
ATOM     63  C   UNL     1      12.752   9.255   3.625  1.00  0.00     0.031 C 
ATOM     64  C   UNL     1      10.483  14.383   4.523  1.00  0.00     0.029 A 
ATOM     65  C   UNL     1      11.338  13.283   4.603  1.00  0.00     0.049 A 
ATOM     66  H   UNL     1      11.339  11.955   6.244  1.00  0.00     0.167 HD
ATOM     67  C   UNL     1      12.871  11.573   3.643  1.00  0.00     0.074 A 
ATOM     68  C   UNL     1      12.477  10.351   4.337  1.00  0.00     0.031 C 
ATOM     69  C   UNL     1      12.446  12.866   3.768  1.00  0.00     0.037 A 
BRANCH  56  70
ATOM     70  C   UNL     1       8.666  10.682   6.997  1.00  0.00     0.058 A 
ATOM     71  C   UNL     1       9.015  11.167   8.267  1.00  0.00     0.135 A 
ATOM     72  C   UNL     1       8.652   9.273   6.852  1.00  0.00     0.135 A 
ATOM     73  F   UNL     1       9.086  12.487   8.496  1.00  0.00    -0.206 F 
ATOM     74  C   UNL     1       9.372  10.312   9.309  1.00  0.00     0.059 A 
ATOM     75  C   UNL     1       8.939   8.404   7.892  1.00  0.00     0.059 A 
ATOM     76  F   UNL     1       8.465   8.676   5.668  1.00  0.00    -0.206 F 
ATOM     77  C   UNL     1       9.343   8.933   9.104  1.00  0.00     0.060 A 
BRANCH  77  78
ATOM     78  S   UNL     1       9.925   7.828  10.398  1.00  0.00     0.124 S 
ATOM     79  O   UNL     1      11.364   8.061  10.345  1.00  0.00    -0.237 OA
ATOM     80  O   UNL     1       9.234   8.346  11.574  1.00  0.00    -0.237 OA
ATOM     81  O   UNL     1       9.478   6.515   9.944  1.00  0.00    -0.744 OA
ENDBRANCH  77  78
ENDBRANCH  56  70
BRANCH  57  82
ATOM     82  C   UNL     1      13.687   7.859   0.778  1.00  0.00     0.058 A 
ATOM     83  C   UNL     1      14.983   7.551   1.223  1.00  0.00     0.135 A 
ATOM     84  C   UNL     1      12.950   6.788   0.227  1.00  0.00     0.135 A 
ATOM     85  F   UNL     1      15.744   8.499   1.790  1.00  0.00    -0.206 F 
ATOM     86  C   UNL     1      15.505   6.253   1.157  1.00  0.00     0.059 A 
ATOM     87  C   UNL     1      13.455   5.494   0.133  1.00  0.00     0.059 A 
ATOM     88  F   UNL     1      11.675   6.941  -0.157  1.00  0.00    -0.206 F 
ATOM     89  C   UNL     1      14.726   5.227   0.622  1.00  0.00     0.060 A 
BRANCH  89  90
ATOM     90  S   UNL     1      15.327   3.524   0.675  1.00  0.00     0.124 S 
ATOM     91  O   UNL     1      16.416   3.558  -0.293  1.00  0.00    -0.237 OA
ATOM     92  O   UNL     1      15.718   3.379   2.073  1.00  0.00    -0.237 OA
ATOM     93  O   UNL     1      14.161   2.740   0.274  1.00  0.00    -0.744 OA
ENDBRANCH  89  90
ENDBRANCH  57  82
BRANCH  69  94
ATOM     94  C   UNL     1      12.981  13.887   2.795  1.00  0.00     0.058 A 
ATOM     95  C   UNL     1      12.722  13.866   1.413  1.00  0.00     0.135 A 
ATOM     96  C   UNL     1      13.649  15.012   3.302  1.00  0.00     0.135 A 
ATOM     97  F   UNL     1      11.992  12.885   0.865  1.00  0.00    -0.206 F 
ATOM     98  C   UNL     1      13.147  14.892   0.568  1.00  0.00     0.059 A 
ATOM     99  C   UNL     1      14.055  16.062   2.482  1.00  0.00     0.059 A 
ATOM    100  F   UNL     1      13.867  15.125   4.623  1.00  0.00    -0.206 F 
ATOM    101  C   UNL     1      13.812  15.989   1.112  1.00  0.00     0.060 A 
BRANCH 101 102
ATOM    102  S   UNL     1      14.286  17.355   0.029  1.00  0.00     0.124 S 
ATOM    103  O   UNL     1      15.404  16.784  -0.714  1.00  0.00    -0.237 OA
ATOM    104  O   UNL     1      13.067  17.589  -0.741  1.00  0.00    -0.237 OA
ATOM    105  O   UNL     1      14.637  18.424   0.961  1.00  0.00    -0.744 OA
ENDBRANCH 101 102
ENDBRANCH  69  94
ENDBRANCH  43  44
ENDBRANCH  36  38
ENDBRANCH  35  36
ENDBRANCH  34  35
ENDBRANCH  33  34
ENDBRANCH  32  33
ENDBRANCH  31  32
ENDBRANCH  30  31
ENDBRANCH   1  30
TORSDOF 28
