REMARK SMILES Cc1ccc(/C=C(\NC(=O)c2cccc(C)c2)C(=O)OCCOCCOCCOCCOC(=O)c2ccc(-c3c4nc(c(-c5c(F)cc(S(=O)(=O)[O-])cc5F)c5ccc([nH]5)c(-c5c(F)cc(S(=O)(=O)[O-])cc5F)c5nc(c(-c6c(F)cc(S(=O)(=O)[O-])cc6F)c6ccc3[nH]6)C=C5)C=C4)cc2)cc1
REMARK SMILES IDX 27 1 26 2 25 3 24 4 23 5 22 6 21 7 20 8 18 9 19 10 7 11 6 12
REMARK SMILES IDX 5 13 1 14 2 15 3 16 102 17 4 18 101 19 8 20 9 21 10 23 11 24
REMARK SMILES IDX 12 25 17 26 13 27 15 28 14 29 16 30 28 31 29 32 30 33 31 34
REMARK SMILES IDX 32 35 33 36 34 37 35 38 36 39 100 40 37 41 99 42 38 43 39 44
REMARK SMILES IDX 40 45 93 46 41 47 98 48 92 49 94 50 42 51 97 52 91 53 90 54
REMARK SMILES IDX 43 56 77 57 56 58 76 59 57 60 60 61 75 62 95 63 58 64 59 65
REMARK SMILES IDX 74 67 96 68 61 69 44 70 45 71 54 72 46 73 47 74 53 75 55 76
REMARK SMILES IDX 48 77 49 78 50 79 51 80 52 81 78 82 79 83 88 84 80 85 81 86
REMARK SMILES IDX 87 87 89 88 82 89 83 90 84 91 85 92 86 93 62 94 63 95 72 96
REMARK SMILES IDX 64 97 65 98 71 99 73 100 66 101 67 102 68 103 69 104 70 105
REMARK H PARENT 8 22 94 55 60 66
REMARK Flexibility Score: inf
ROOT
ATOM      1  C   UNL     1      -4.802  -2.069   3.784  1.00  0.00     0.188 C 
ENDROOT
BRANCH   1   2
ATOM      2  O   UNL     1      -3.451  -1.603   3.740  1.00  0.00    -0.377 OA
BRANCH   2   3
ATOM      3  C   UNL     1      -3.307  -0.188   3.541  1.00  0.00     0.188 C 
BRANCH   3   4
ATOM      4  C   UNL     1      -3.719   0.376   2.166  1.00  0.00     0.188 C 
BRANCH   4   5
ATOM      5  O   UNL     1      -4.504   1.570   2.300  1.00  0.00    -0.376 OA
BRANCH   5   6
ATOM      6  C   UNL     1      -5.783   1.466   1.664  1.00  0.00     0.202 C 
BRANCH   6   7
ATOM      7  C   UNL     1      -5.859   2.060   0.258  1.00  0.00     0.261 C 
BRANCH   7   8
ATOM      8  O   UNL     1      -5.667   0.981  -0.651  1.00  0.00    -0.459 OA
BRANCH   8   9
ATOM      9  C   UNL     1      -4.610   0.927  -1.456  1.00  0.00     0.354 C 
ATOM     10  O   UNL     1      -3.999   1.935  -1.822  1.00  0.00    -0.244 OA
BRANCH   9  11
ATOM     11  C   UNL     1      -4.003  -0.510  -1.581  1.00  0.00     0.128 C 
ATOM     12  C   UNL     1      -2.704  -0.319  -1.165  1.00  0.00     0.042 C 
BRANCH  12  13
ATOM     13  C   UNL     1      -1.250  -0.495  -0.771  1.00  0.00    -0.023 A 
ATOM     14  C   UNL     1       3.029  -0.211   0.209  1.00  0.00     0.044 C 
ATOM     15  C   UNL     1       1.545  -0.316  -0.015  1.00  0.00    -0.051 A 
ATOM     16  C   UNL     1       0.874  -1.548  -0.144  1.00  0.00     0.004 A 
ATOM     17  C   UNL     1       0.799   0.838  -0.171  1.00  0.00     0.004 A 
ATOM     18  C   UNL     1      -0.509  -1.639  -0.506  1.00  0.00     0.008 A 
ATOM     19  C   UNL     1      -0.546   0.741  -0.545  1.00  0.00     0.008 A 
ENDBRANCH  12  13
BRANCH  11  20
ATOM     20  N   UNL     1      -4.847  -1.655  -1.977  1.00  0.00    -0.316 N 
ATOM     21  C   UNL     1      -6.048  -2.009  -1.148  1.00  0.00     0.255 C 
ATOM     22  H   UNL     1      -4.624  -2.182  -2.779  1.00  0.00     0.170 HD
ATOM     23  O   UNL     1      -5.951  -1.179  -0.224  1.00  0.00    -0.269 OA
BRANCH  21  24
ATOM     24  C   UNL     1      -7.277  -3.493  -1.036  1.00  0.00     0.040 A 
ATOM     25  C   UNL     1      -6.986  -5.434  -0.701  1.00  0.00     0.014 A 
ATOM     26  C   UNL     1      -7.952  -3.073  -2.599  1.00  0.00     0.017 A 
ATOM     27  C   UNL     1      -6.954  -6.550  -2.190  1.00  0.00     0.001 A 
ATOM     28  C   UNL     1      -8.306  -4.237  -3.802  1.00  0.00    -0.050 A 
ATOM     29  C   UNL     1      -7.750  -5.911  -3.671  1.00  0.00     0.003 A 
ATOM     30  C   UNL     1      -9.517  -3.753  -4.580  1.00  0.00     0.044 C 
ENDBRANCH  21  24
ENDBRANCH  11  20
ENDBRANCH   9  11
ENDBRANCH   8   9
ENDBRANCH   7   8
ENDBRANCH   6   7
ENDBRANCH   5   6
ENDBRANCH   4   5
ENDBRANCH   3   4
ENDBRANCH   2   3
ENDBRANCH   1   2
BRANCH   1  31
ATOM     31  C   UNL     1      -5.573  -1.739   5.050  1.00  0.00     0.188 C 
BRANCH  31  32
ATOM     32  O   UNL     1      -6.048  -0.403   4.904  1.00  0.00    -0.376 OA
BRANCH  32  33
ATOM     33  C   UNL     1      -6.193   0.350   6.092  1.00  0.00     0.202 C 
BRANCH  33  34
ATOM     34  C   UNL     1      -7.179  -0.234   7.112  1.00  0.00     0.261 C 
BRANCH  34  35
ATOM     35  O   UNL     1      -8.547   0.054   6.746  1.00  0.00    -0.460 OA
BRANCH  35  36
ATOM     36  C   UNL     1      -9.290  -1.046   6.431  1.00  0.00     0.338 C 
ATOM     37  O   UNL     1      -9.756  -1.811   7.258  1.00  0.00    -0.246 OA
BRANCH  36  38
ATOM     38  C   UNL     1      -9.281  -1.249   4.960  1.00  0.00     0.060 A 
ATOM     39  C   UNL     1      -9.481  -2.509   4.411  1.00  0.00     0.016 A 
ATOM     40  C   UNL     1      -8.803  -0.243   4.142  1.00  0.00     0.016 A 
ATOM     41  C   UNL     1      -8.895  -2.811   3.168  1.00  0.00     0.010 A 
ATOM     42  C   UNL     1      -8.175  -0.603   2.957  1.00  0.00     0.010 A 
ATOM     43  C   UNL     1      -8.080  -1.922   2.496  1.00  0.00    -0.014 A 
BRANCH  43  44
ATOM     44  C   UNL     1      -7.359  -2.206   1.182  1.00  0.00     0.031 A 
ATOM     45  C   UNL     1      -8.242  -1.030   0.049  1.00  0.00     0.074 A 
ATOM     46  C   UNL     1      -6.008  -2.995   1.240  1.00  0.00     0.049 A 
ATOM     47  N   UNL     1      -7.972  -0.600  -1.179  1.00  0.00    -0.248 NA
ATOM     48  C   UNL     1      -9.499  -0.319   0.432  1.00  0.00     0.031 C 
ATOM     49  C   UNL     1      -4.442  -2.888   0.618  1.00  0.00     0.029 A 
ATOM     50  N   UNL     1      -5.879  -4.272   0.628  1.00  0.00    -0.354 N 
ATOM     51  C   UNL     1      -8.624   0.586  -1.504  1.00  0.00     0.074 A 
ATOM     52  C   UNL     1      -9.618   0.681  -0.467  1.00  0.00     0.031 C 
ATOM     53  C   UNL     1      -4.089  -3.644  -0.524  1.00  0.00     0.029 A 
ATOM     54  C   UNL     1      -5.281  -4.343  -0.995  1.00  0.00     0.049 A 
ATOM     55  H   UNL     1      -6.123  -5.093   1.114  1.00  0.00     0.167 HD
ATOM     56  C   UNL     1      -8.210   1.427  -2.526  1.00  0.00     0.037 A 
ATOM     57  C   UNL     1      -6.374  -4.614  -2.298  1.00  0.00     0.037 A 
ATOM     58  C   UNL     1      -7.278   0.844  -3.495  1.00  0.00     0.049 A 
ATOM     59  C   UNL     1      -5.773  -4.128  -3.763  1.00  0.00     0.074 A 
ATOM     60  C   UNL     1      -6.027   1.227  -3.960  1.00  0.00     0.029 A 
ATOM     61  N   UNL     1      -7.686  -0.169  -4.340  1.00  0.00    -0.354 N 
ATOM     62  N   UNL     1      -5.665  -2.870  -4.115  1.00  0.00    -0.248 NA
ATOM     63  C   UNL     1      -5.606  -5.001  -4.955  1.00  0.00     0.031 C 
ATOM     64  C   UNL     1      -5.583   0.284  -4.905  1.00  0.00     0.029 A 
ATOM     65  C   UNL     1      -6.632  -0.579  -5.132  1.00  0.00     0.049 A 
ATOM     66  H   UNL     1      -8.595  -0.544  -4.373  1.00  0.00     0.167 HD
ATOM     67  C   UNL     1      -6.045  -2.813  -5.461  1.00  0.00     0.074 A 
ATOM     68  C   UNL     1      -5.839  -4.146  -5.965  1.00  0.00     0.031 C 
ATOM     69  C   UNL     1      -6.738  -1.747  -5.973  1.00  0.00     0.037 A 
BRANCH  56  70
ATOM     70  C   UNL     1      -8.417   2.962  -2.688  1.00  0.00     0.058 A 
ATOM     71  C   UNL     1      -8.026   3.600  -3.906  1.00  0.00     0.135 A 
ATOM     72  C   UNL     1      -8.667   3.860  -1.636  1.00  0.00     0.135 A 
ATOM     73  F   UNL     1      -7.890   2.897  -5.043  1.00  0.00    -0.206 F 
ATOM     74  C   UNL     1      -7.722   4.962  -4.018  1.00  0.00     0.059 A 
ATOM     75  C   UNL     1      -8.440   5.250  -1.748  1.00  0.00     0.059 A 
ATOM     76  F   UNL     1      -9.095   3.420  -0.445  1.00  0.00    -0.206 F 
ATOM     77  C   UNL     1      -7.905   5.784  -2.920  1.00  0.00     0.060 A 
BRANCH  77  78
ATOM     78  S   UNL     1      -7.487   7.542  -3.063  1.00  0.00     0.124 S 
ATOM     79  O   UNL     1      -6.038   7.533  -2.891  1.00  0.00    -0.237 OA
ATOM     80  O   UNL     1      -7.959   7.882  -4.403  1.00  0.00    -0.237 OA
ATOM     81  O   UNL     1      -8.241   8.155  -1.973  1.00  0.00    -0.744 OA
ENDBRANCH  77  78
ENDBRANCH  56  70
BRANCH  57  82
ATOM     82  C   UNL     1      -8.454  -5.073  -1.839  1.00  0.00     0.058 A 
ATOM     83  C   UNL     1      -9.018  -6.499  -1.300  1.00  0.00     0.135 A 
ATOM     84  C   UNL     1      -9.458  -4.309  -0.979  1.00  0.00     0.135 A 
ATOM     85  F   UNL     1      -9.006  -7.593  -2.102  1.00  0.00    -0.206 F 
ATOM     86  C   UNL     1      -9.290  -6.859   0.061  1.00  0.00     0.059 A 
ATOM     87  C   UNL     1      -9.933  -4.648   0.354  1.00  0.00     0.059 A 
ATOM     88  F   UNL     1     -10.089  -3.236  -1.499  1.00  0.00    -0.206 F 
ATOM     89  C   UNL     1      -9.612  -5.866   0.942  1.00  0.00     0.060 A 
BRANCH  89  90
ATOM     90  S   UNL     1      -9.816  -6.261   2.712  1.00  0.00     0.124 S 
ATOM     91  O   UNL     1     -10.008  -7.707   2.731  1.00  0.00    -0.237 OA
ATOM     92  O   UNL     1      -8.544  -5.829   3.289  1.00  0.00    -0.237 OA
ATOM     93  O   UNL     1     -10.984  -5.470   3.083  1.00  0.00    -0.744 OA
ENDBRANCH  89  90
ENDBRANCH  57  82
BRANCH  69  94
ATOM     94  C   UNL     1      -7.593  -1.692  -7.237  1.00  0.00     0.058 A 
ATOM     95  C   UNL     1      -8.298  -2.788  -7.772  1.00  0.00     0.135 A 
ATOM     96  C   UNL     1      -7.863  -0.454  -7.876  1.00  0.00     0.135 A 
ATOM     97  F   UNL     1      -8.170  -4.021  -7.263  1.00  0.00    -0.206 F 
ATOM     98  C   UNL     1      -9.192  -2.678  -8.842  1.00  0.00     0.059 A 
ATOM     99  C   UNL     1      -8.730  -0.323  -8.970  1.00  0.00     0.059 A 
ATOM    100  F   UNL     1      -7.267   0.675  -7.463  1.00  0.00    -0.206 F 
ATOM    101  C   UNL     1      -9.373  -1.449  -9.463  1.00  0.00     0.060 A 
BRANCH 101 102
ATOM    102  S   UNL     1     -10.370  -1.389 -10.965  1.00  0.00     0.124 S 
ATOM    103  O   UNL     1      -9.508  -2.098 -11.907  1.00  0.00    -0.237 OA
ATOM    104  O   UNL     1     -11.583  -2.098 -10.570  1.00  0.00    -0.237 OA
ATOM    105  O   UNL     1     -10.533   0.038 -11.218  1.00  0.00    -0.744 OA
ENDBRANCH 101 102
ENDBRANCH  69  94
ENDBRANCH  43  44
ENDBRANCH  36  38
ENDBRANCH  35  36
ENDBRANCH  34  35
ENDBRANCH  33  34
ENDBRANCH  32  33
ENDBRANCH  31  32
ENDBRANCH   1  31
TORSDOF 26
