REMARK SMILES C[C@@H](CS(=O)(=O)[C@@H]1CCC[C@H](S(C)(=O)=O)C1)C(=O)OCCOCCOCCOCCOC(=O)c1ccc(-c2c3nc(c(-c4c(F)cc(S(=O)(=O)[O-])cc4F)c4ccc([nH]4)c(-c4c(F)cc(S(=O)(=O)[O-])cc4F)c4nc(c(-c5c(F)cc(S(=O)(=O)[O-])cc5F)c5ccc2[nH]5)C=C4)C=C3)cc1
REMARK SMILES IDX 24 1 23 2 22 3 21 4 20 5 19 6 17 7 18 8 2 9 1 10 3 11 4 12
REMARK SMILES IDX 5 13 6 14 7 15 8 16 16 17 9 18 11 19 10 20 12 21 13 22 14 23
REMARK SMILES IDX 15 24 25 25 26 26 27 27 28 28 29 29 30 30 31 31 32 32 33 33
REMARK SMILES IDX 34 34 35 35 99 36 36 37 98 38 37 39 38 40 39 41 92 42 40 43
REMARK SMILES IDX 97 44 91 45 93 46 41 47 96 48 90 49 89 50 42 52 76 53 55 54
REMARK SMILES IDX 75 55 56 56 59 57 74 58 94 59 57 60 58 61 73 63 95 64 60 65
REMARK SMILES IDX 43 66 44 67 53 68 45 69 46 70 52 71 54 72 47 73 48 74 49 75
REMARK SMILES IDX 50 76 51 77 77 78 78 79 87 80 79 81 80 82 86 83 88 84 81 85
REMARK SMILES IDX 82 86 83 87 84 88 85 89 61 90 62 91 71 92 63 93 64 94 70 95
REMARK SMILES IDX 72 96 65 97 66 98 67 99 68 100 69 101
REMARK H PARENT 93 51 59 62
REMARK Flexibility Score: inf
ROOT
ATOM      1  C   UNL     1      -1.671  -1.229  -0.651  1.00  0.00     0.188 C 
ENDROOT
BRANCH   1   2
ATOM      2  C   UNL     1      -2.246  -2.087   0.489  1.00  0.00     0.188 C 
BRANCH   2   3
ATOM      3  O   UNL     1      -3.519  -1.797   1.044  1.00  0.00    -0.376 OA
BRANCH   3   4
ATOM      4  C   UNL     1      -3.887  -0.460   1.353  1.00  0.00     0.202 C 
BRANCH   4   5
ATOM      5  C   UNL     1      -2.917   0.527   2.029  1.00  0.00     0.261 C 
BRANCH   5   6
ATOM      6  O   UNL     1      -1.518   0.388   1.721  1.00  0.00    -0.463 OA
BRANCH   6   7
ATOM      7  C   UNL     1      -0.746  -0.091   2.720  1.00  0.00     0.309 C 
ATOM      8  O   UNL     1      -1.164  -0.541   3.781  1.00  0.00    -0.252 OA
BRANCH   7   9
ATOM      9  C   UNL     1       0.742  -0.032   2.418  1.00  0.00     0.111 C 
ATOM     10  C   UNL     1       1.205  -0.446   1.035  1.00  0.00     0.021 C 
BRANCH   9  11
ATOM     11  C   UNL     1       1.396   1.238   2.930  1.00  0.00     0.152 C 
BRANCH  11  12
ATOM     12  S   UNL     1       0.875   2.837   2.346  1.00  0.00     0.154 S 
ATOM     13  O   UNL     1      -0.567   2.903   2.466  1.00  0.00    -0.229 OA
ATOM     14  O   UNL     1       1.704   3.765   3.097  1.00  0.00    -0.229 OA
BRANCH  12  15
ATOM     15  C   UNL     1       1.301   3.059   0.587  1.00  0.00     0.110 C 
ATOM     16  C   UNL     1       2.692   2.536   0.240  1.00  0.00     0.020 C 
ATOM     17  C   UNL     1       1.224   4.561   0.236  1.00  0.00     0.039 C 
ATOM     18  C   UNL     1       2.954   2.713  -1.250  1.00  0.00     0.003 C 
ATOM     19  C   UNL     1       1.744   4.948  -1.166  1.00  0.00     0.109 C 
ATOM     20  C   UNL     1       3.006   4.191  -1.595  1.00  0.00     0.020 C 
BRANCH  19  21
ATOM     21  S   UNL     1       2.062   6.742  -1.196  1.00  0.00     0.150 S 
ATOM     22  C   UNL     1       2.600   7.089  -2.853  1.00  0.00     0.158 C 
ATOM     23  O   UNL     1       0.794   7.415  -1.010  1.00  0.00    -0.229 OA
ATOM     24  O   UNL     1       3.191   7.011  -0.324  1.00  0.00    -0.229 OA
ENDBRANCH  19  21
ENDBRANCH  12  15
ENDBRANCH  11  12
ENDBRANCH   9  11
ENDBRANCH   7   9
ENDBRANCH   6   7
ENDBRANCH   5   6
ENDBRANCH   4   5
ENDBRANCH   3   4
ENDBRANCH   2   3
ENDBRANCH   1   2
BRANCH   1  25
ATOM     25  O   UNL     1      -2.317   0.006  -0.864  1.00  0.00    -0.377 OA
BRANCH  25  26
ATOM     26  C   UNL     1      -3.260   0.055  -1.924  1.00  0.00     0.188 C 
BRANCH  26  27
ATOM     27  C   UNL     1      -4.105  -1.206  -2.202  1.00  0.00     0.188 C 
BRANCH  27  28
ATOM     28  O   UNL     1      -3.356  -2.411  -2.320  1.00  0.00    -0.376 OA
BRANCH  28  29
ATOM     29  C   UNL     1      -2.962  -2.851  -3.613  1.00  0.00     0.202 C 
BRANCH  29  30
ATOM     30  C   UNL     1      -1.956  -1.986  -4.394  1.00  0.00     0.261 C 
BRANCH  30  31
ATOM     31  O   UNL     1      -2.365  -0.646  -4.707  1.00  0.00    -0.460 OA
BRANCH  31  32
ATOM     32  C   UNL     1      -3.524  -0.485  -5.387  1.00  0.00     0.338 C 
ATOM     33  O   UNL     1      -4.227  -1.356  -5.847  1.00  0.00    -0.246 OA
BRANCH  32  34
ATOM     34  C   UNL     1      -3.900   0.945  -5.291  1.00  0.00     0.060 A 
ATOM     35  C   UNL     1      -5.104   1.284  -4.660  1.00  0.00     0.016 A 
ATOM     36  C   UNL     1      -3.066   1.940  -5.806  1.00  0.00     0.016 A 
ATOM     37  C   UNL     1      -5.490   2.621  -4.562  1.00  0.00     0.010 A 
ATOM     38  C   UNL     1      -3.470   3.277  -5.734  1.00  0.00     0.010 A 
ATOM     39  C   UNL     1      -4.696   3.620  -5.137  1.00  0.00    -0.014 A 
BRANCH  39  40
ATOM     40  C   UNL     1      -5.235   4.995  -5.275  1.00  0.00     0.031 A 
ATOM     41  C   UNL     1      -5.846   5.393  -6.591  1.00  0.00     0.074 A 
ATOM     42  C   UNL     1      -5.202   5.864  -4.248  1.00  0.00     0.049 A 
ATOM     43  N   UNL     1      -6.318   6.551  -6.971  1.00  0.00    -0.248 NA
ATOM     44  C   UNL     1      -5.933   4.342  -7.620  1.00  0.00     0.031 C 
ATOM     45  C   UNL     1      -4.681   5.578  -2.913  1.00  0.00     0.029 A 
ATOM     46  N   UNL     1      -5.607   7.174  -4.177  1.00  0.00    -0.354 N 
ATOM     47  C   UNL     1      -6.749   6.373  -8.280  1.00  0.00     0.074 A 
ATOM     48  C   UNL     1      -6.461   5.002  -8.640  1.00  0.00     0.031 C 
ATOM     49  C   UNL     1      -4.779   6.687  -2.159  1.00  0.00     0.029 A 
ATOM     50  C   UNL     1      -5.336   7.771  -2.967  1.00  0.00     0.049 A 
ATOM     51  H   UNL     1      -6.050   7.643  -4.921  1.00  0.00     0.167 HD
ATOM     52  C   UNL     1      -7.337   7.271  -9.104  1.00  0.00     0.037 A 
ATOM     53  C   UNL     1      -5.493   9.051  -2.572  1.00  0.00     0.037 A 
ATOM     54  C   UNL     1      -7.625   8.632  -8.736  1.00  0.00     0.049 A 
ATOM     55  C   UNL     1      -6.080  10.052  -3.538  1.00  0.00     0.074 A 
ATOM     56  C   UNL     1      -8.239   9.614  -9.493  1.00  0.00     0.029 A 
ATOM     57  N   UNL     1      -7.313   9.207  -7.512  1.00  0.00    -0.354 N 
ATOM     58  N   UNL     1      -6.509   9.864  -4.765  1.00  0.00    -0.248 NA
ATOM     59  C   UNL     1      -6.207  11.439  -3.067  1.00  0.00     0.031 C 
ATOM     60  C   UNL     1      -8.241  10.799  -8.751  1.00  0.00     0.029 A 
ATOM     61  C   UNL     1      -7.691  10.539  -7.506  1.00  0.00     0.049 A 
ATOM     62  H   UNL     1      -6.887   8.737  -6.760  1.00  0.00     0.167 HD
ATOM     63  C   UNL     1      -6.984  11.101  -5.197  1.00  0.00     0.074 A 
ATOM     64  C   UNL     1      -6.805  12.023  -4.096  1.00  0.00     0.031 C 
ATOM     65  C   UNL     1      -7.518  11.443  -6.396  1.00  0.00     0.037 A 
BRANCH  52  66
ATOM     66  C   UNL     1      -7.683   6.828 -10.499  1.00  0.00     0.058 A 
ATOM     67  C   UNL     1      -8.740   5.941 -10.757  1.00  0.00     0.135 A 
ATOM     68  C   UNL     1      -6.987   7.355 -11.600  1.00  0.00     0.135 A 
ATOM     69  F   UNL     1      -9.423   5.389  -9.741  1.00  0.00    -0.206 F 
ATOM     70  C   UNL     1      -9.090   5.587 -12.056  1.00  0.00     0.059 A 
ATOM     71  C   UNL     1      -7.339   7.037 -12.908  1.00  0.00     0.059 A 
ATOM     72  F   UNL     1      -5.962   8.200 -11.410  1.00  0.00    -0.206 F 
ATOM     73  C   UNL     1      -8.389   6.147 -13.125  1.00  0.00     0.060 A 
BRANCH  73  74
ATOM     74  S   UNL     1      -8.882   5.705 -14.805  1.00  0.00     0.124 S 
ATOM     75  O   UNL     1      -8.456   4.311 -14.877  1.00  0.00    -0.237 OA
ATOM     76  O   UNL     1     -10.324   5.926 -14.771  1.00  0.00    -0.237 OA
ATOM     77  O   UNL     1      -8.127   6.635 -15.638  1.00  0.00    -0.744 OA
ENDBRANCH  73  74
ENDBRANCH  52  66
BRANCH  53  78
ATOM     78  C   UNL     1      -5.062   9.479  -1.212  1.00  0.00     0.058 A 
ATOM     79  C   UNL     1      -5.991   9.924  -0.261  1.00  0.00     0.135 A 
ATOM     80  C   UNL     1      -3.705   9.489  -0.849  1.00  0.00     0.135 A 
ATOM     81  F   UNL     1      -7.299   9.947  -0.560  1.00  0.00    -0.206 F 
ATOM     82  C   UNL     1      -5.592  10.395   0.986  1.00  0.00     0.059 A 
ATOM     83  C   UNL     1      -3.282   9.921   0.405  1.00  0.00     0.059 A 
ATOM     84  F   UNL     1      -2.776   9.069  -1.722  1.00  0.00    -0.206 F 
ATOM     85  C   UNL     1      -4.233  10.392   1.309  1.00  0.00     0.060 A 
BRANCH  85  86
ATOM     86  S   UNL     1      -3.737  11.004   2.934  1.00  0.00     0.124 S 
ATOM     87  O   UNL     1      -3.982  12.435   2.795  1.00  0.00    -0.237 OA
ATOM     88  O   UNL     1      -4.648  10.286   3.821  1.00  0.00    -0.237 OA
ATOM     89  O   UNL     1      -2.335  10.611   3.032  1.00  0.00    -0.744 OA
ENDBRANCH  85  86
ENDBRANCH  53  78
BRANCH  65  90
ATOM     90  C   UNL     1      -7.989  12.863  -6.573  1.00  0.00     0.058 A 
ATOM     91  C   UNL     1      -7.090  13.936  -6.672  1.00  0.00     0.135 A 
ATOM     92  C   UNL     1      -9.360  13.145  -6.702  1.00  0.00     0.135 A 
ATOM     93  F   UNL     1      -5.770  13.725  -6.553  1.00  0.00    -0.206 F 
ATOM     94  C   UNL     1      -7.534  15.241  -6.865  1.00  0.00     0.059 A 
ATOM     95  C   UNL     1      -9.824  14.437  -6.930  1.00  0.00     0.059 A 
ATOM     96  F   UNL     1     -10.264  12.155  -6.630  1.00  0.00    -0.206 F 
ATOM     97  C   UNL     1      -8.903  15.481  -6.997  1.00  0.00     0.060 A 
BRANCH  97  98
ATOM     98  S   UNL     1      -9.461  17.174  -7.282  1.00  0.00     0.124 S 
ATOM     99  O   UNL     1      -9.227  17.785  -5.978  1.00  0.00    -0.237 OA
ATOM    100  O   UNL     1      -8.578  17.615  -8.358  1.00  0.00    -0.237 OA
ATOM    101  O   UNL     1     -10.863  17.012  -7.656  1.00  0.00    -0.744 OA
ENDBRANCH  97  98
ENDBRANCH  65  90
ENDBRANCH  39  40
ENDBRANCH  32  34
ENDBRANCH  31  32
ENDBRANCH  30  31
ENDBRANCH  29  30
ENDBRANCH  28  29
ENDBRANCH  27  28
ENDBRANCH  26  27
ENDBRANCH  25  26
ENDBRANCH   1  25
TORSDOF 27
