REMARK SMILES O=C(OCCOCCOCCOCCOC(=O)c1ccccc1Nc1cccc(S(F)(F)(F)(F)F)c1)c1ccc(-c2c3nc(c(-c4c(F)cc(S(=O)(=O)[O-])cc4F)c4ccc([nH]4)c(-c4c(F)cc(S(=O)(=O)[O-])cc4F)c4nc(c(-c5c(F)cc(S(=O)(=O)[O-])cc5F)c5ccc2[nH]5)C=C4)C=C3)cc1
REMARK SMILES IDX 9 1 8 2 7 3 6 4 5 5 4 6 3 7 2 8 1 9 37 10 38 11 102 12 39 13
REMARK SMILES IDX 101 14 40 15 41 16 42 17 95 18 43 19 100 20 94 21 96 22
REMARK SMILES IDX 44 23 99 24 93 25 92 26 45 28 79 29 58 30 78 31 59 32 62 33
REMARK SMILES IDX 77 34 97 35 60 36 61 37 76 39 98 40 63 41 46 42 47 43 56 44
REMARK SMILES IDX 48 45 49 46 55 47 57 48 50 49 51 50 52 51 53 52 54 53 80 54
REMARK SMILES IDX 81 55 90 56 82 57 83 58 89 59 91 60 84 61 85 62 86 63 87 64
REMARK SMILES IDX 88 65 64 66 65 67 74 68 66 69 67 70 73 71 75 72 68 73 69 74
REMARK SMILES IDX 70 75 71 76 72 77 10 78 11 79 12 80 13 81 14 82 15 83 16 84
REMARK SMILES IDX 17 85 18 86 19 87 23 88 20 89 22 90 21 91 24 92 25 94 26 95
REMARK SMILES IDX 36 96 27 97 29 98 28 99 30 100 31 101 32 102 33 103 34 104
REMARK SMILES IDX 35 105
REMARK H PARENT 96 27 62 38 24 93
REMARK Flexibility Score: inf
ROOT
ATOM      1  O   UNL     1       2.989   0.506   2.637  1.00  0.00    -0.377 OA
ENDROOT
BRANCH   1   2
ATOM      2  C   UNL     1       2.516  -0.791   2.305  1.00  0.00     0.188 C 
BRANCH   2   3
ATOM      3  C   UNL     1       3.022  -1.177   0.924  1.00  0.00     0.188 C 
BRANCH   3   4
ATOM      4  O   UNL     1       4.442  -1.177   0.924  1.00  0.00    -0.376 OA
BRANCH   4   5
ATOM      5  C   UNL     1       4.916   0.120   1.257  1.00  0.00     0.202 C 
BRANCH   5   6
ATOM      6  C   UNL     1       4.409   1.123   0.233  1.00  0.00     0.261 C 
BRANCH   6   7
ATOM      7  O   UNL     1       2.989   1.123   0.233  1.00  0.00    -0.460 OA
BRANCH   7   8
ATOM      8  C   UNL     1       2.279  -0.068  -0.072  1.00  0.00     0.338 C 
ATOM      9  O   UNL     1       1.008  -0.068  -0.072  1.00  0.00    -0.246 OA
BRANCH   8  10
ATOM     10  C   UNL     1       3.039  -1.343  -0.400  1.00  0.00     0.060 A 
ATOM     11  C   UNL     1       4.108  -1.689   0.411  1.00  0.00     0.016 A 
ATOM     12  C   UNL     1       2.680  -2.103  -1.428  1.00  0.00     0.016 A 
ATOM     13  C   UNL     1       4.923  -2.716  -0.122  1.00  0.00     0.010 A 
ATOM     14  C   UNL     1       3.453  -3.174  -1.810  1.00  0.00     0.010 A 
ATOM     15  C   UNL     1       4.556  -3.537  -1.089  1.00  0.00    -0.014 A 
BRANCH  15  16
ATOM     16  C   UNL     1       5.321  -4.817  -1.386  1.00  0.00     0.031 A 
ATOM     17  C   UNL     1       5.892  -4.999  -2.646  1.00  0.00     0.074 A 
ATOM     18  C   UNL     1       5.388  -5.748  -0.363  1.00  0.00     0.049 A 
ATOM     19  N   UNL     1       6.607  -6.042  -3.072  1.00  0.00    -0.248 NA
ATOM     20  C   UNL     1       5.793  -4.027  -3.745  1.00  0.00     0.031 C 
ATOM     21  C   UNL     1       4.821  -5.567   0.914  1.00  0.00     0.029 A 
ATOM     22  N   UNL     1       5.994  -6.984  -0.385  1.00  0.00    -0.354 N 
ATOM     23  C   UNL     1       7.002  -5.847  -4.332  1.00  0.00     0.074 A 
ATOM     24  C   UNL     1       6.478  -4.551  -4.785  1.00  0.00     0.031 C 
ATOM     25  C   UNL     1       5.072  -6.683   1.648  1.00  0.00     0.029 A 
ATOM     26  C   UNL     1       5.800  -7.580   0.842  1.00  0.00     0.049 A 
ATOM     27  H   UNL     1       6.481  -7.375  -1.145  1.00  0.00     0.167 HD
ATOM     28  C   UNL     1       7.778  -6.697  -5.120  1.00  0.00     0.037 A 
ATOM     29  C   UNL     1       6.224  -8.833   1.254  1.00  0.00     0.037 A 
ATOM     30  C   UNL     1       8.239  -7.933  -4.693  1.00  0.00     0.049 A 
ATOM     31  C   UNL     1       6.952  -9.710   0.445  1.00  0.00     0.074 A 
ATOM     32  C   UNL     1       9.030  -8.799  -5.473  1.00  0.00     0.029 A 
ATOM     33  N   UNL     1       8.024  -8.538  -3.475  1.00  0.00    -0.354 N 
ATOM     34  N   UNL     1       7.379  -9.497  -0.800  1.00  0.00    -0.248 NA
ATOM     35  C   UNL     1       7.378 -11.053   0.859  1.00  0.00     0.031 C 
ATOM     36  C   UNL     1       9.280  -9.916  -4.738  1.00  0.00     0.029 A 
ATOM     37  C   UNL     1       8.649  -9.765  -3.489  1.00  0.00     0.049 A 
ATOM     38  H   UNL     1       7.512  -8.159  -2.724  1.00  0.00     0.167 HD
ATOM     39  C   UNL     1       8.059 -10.558  -1.240  1.00  0.00     0.074 A 
ATOM     40  C   UNL     1       8.062 -11.577  -0.181  1.00  0.00     0.031 C 
ATOM     41  C   UNL     1       8.680 -10.716  -2.480  1.00  0.00     0.037 A 
BRANCH  28  42
ATOM     42  C   UNL     1       8.139  -6.243  -6.525  1.00  0.00     0.058 A 
ATOM     43  C   UNL     1       8.950  -5.139  -6.725  1.00  0.00     0.135 A 
ATOM     44  C   UNL     1       7.737  -6.997  -7.543  1.00  0.00     0.135 A 
ATOM     45  F   UNL     1       9.578  -4.511  -5.735  1.00  0.00    -0.206 F 
ATOM     46  C   UNL     1       9.051  -4.739  -8.079  1.00  0.00     0.059 A 
ATOM     47  C   UNL     1       7.989  -6.614  -8.838  1.00  0.00     0.059 A 
ATOM     48  F   UNL     1       7.087  -8.132  -7.305  1.00  0.00    -0.206 F 
ATOM     49  C   UNL     1       8.734  -5.501  -9.110  1.00  0.00     0.060 A 
BRANCH  49  50
ATOM     50  S   UNL     1       9.259  -5.093 -10.794  1.00  0.00     0.124 S 
ATOM     51  O   UNL     1       8.693  -3.727 -11.188  1.00  0.00    -0.237 OA
ATOM     52  O   UNL     1      10.788  -5.048 -10.855  1.00  0.00    -0.237 OA
ATOM     53  O   UNL     1       8.680  -6.283 -11.876  1.00  0.00    -0.744 OA
ENDBRANCH  49  50
ENDBRANCH  28  42
BRANCH  29  54
ATOM     54  C   UNL     1       5.877  -9.280   2.665  1.00  0.00     0.058 A 
ATOM     55  C   UNL     1       6.886  -9.693   3.520  1.00  0.00     0.135 A 
ATOM     56  C   UNL     1       4.600  -9.365   3.016  1.00  0.00     0.135 A 
ATOM     57  F   UNL     1       8.168  -9.398   3.324  1.00  0.00    -0.206 F 
ATOM     58  C   UNL     1       6.429 -10.456   4.620  1.00  0.00     0.059 A 
ATOM     59  C   UNL     1       4.234 -10.007   4.174  1.00  0.00     0.059 A 
ATOM     60  F   UNL     1       3.666  -8.824   2.239  1.00  0.00    -0.206 F 
ATOM     61  C   UNL     1       5.176 -10.492   5.037  1.00  0.00     0.060 A 
BRANCH  61  62
ATOM     62  S   UNL     1       4.732 -11.150   6.664  1.00  0.00     0.124 S 
ATOM     63  O   UNL     1       5.170 -12.613   6.760  1.00  0.00    -0.237 OA
ATOM     64  O   UNL     1       5.434 -10.335   7.753  1.00  0.00    -0.237 OA
ATOM     65  O   UNL     1       3.038 -11.046   6.877  1.00  0.00    -0.744 OA
ENDBRANCH  61  62
ENDBRANCH  29  54
BRANCH  41  66
ATOM     66  C   UNL     1       9.435 -12.009  -2.741  1.00  0.00     0.058 A 
ATOM     67  C   UNL     1       8.740 -13.206  -2.685  1.00  0.00     0.135 A 
ATOM     68  C   UNL     1      10.734 -11.979  -3.017  1.00  0.00     0.135 A 
ATOM     69  F   UNL     1       7.412 -13.273  -2.665  1.00  0.00    -0.206 F 
ATOM     70  C   UNL     1       9.571 -14.351  -2.653  1.00  0.00     0.059 A 
ATOM     71  C   UNL     1      11.457 -13.143  -3.105  1.00  0.00     0.059 A 
ATOM     72  F   UNL     1      11.339 -10.810  -3.211  1.00  0.00    -0.206 F 
ATOM     73  C   UNL     1      10.845 -14.361  -3.001  1.00  0.00     0.060 A 
BRANCH  73  74
ATOM     74  S   UNL     1      11.733 -15.906  -3.323  1.00  0.00     0.124 S 
ATOM     75  O   UNL     1      11.712 -16.778  -2.066  1.00  0.00    -0.237 OA
ATOM     76  O   UNL     1      11.055 -16.653  -4.474  1.00  0.00    -0.237 OA
ATOM     77  O   UNL     1      13.352 -15.555  -3.747  1.00  0.00    -0.744 OA
ENDBRANCH  73  74
ENDBRANCH  41  66
ENDBRANCH  15  16
ENDBRANCH   8  10
ENDBRANCH   7   8
ENDBRANCH   6   7
ENDBRANCH   5   6
ENDBRANCH   4   5
ENDBRANCH   3   4
ENDBRANCH   2   3
ENDBRANCH   1   2
BRANCH   1  78
ATOM     78  C   UNL     1       4.409   0.506   2.637  1.00  0.00     0.188 C 
BRANCH  78  79
ATOM     79  C   UNL     1       4.916  -0.497   3.661  1.00  0.00     0.188 C 
BRANCH  79  80
ATOM     80  O   UNL     1       4.442  -1.793   3.329  1.00  0.00    -0.376 OA
BRANCH  80  81
ATOM     81  C   UNL     1       3.022  -1.794   3.329  1.00  0.00     0.202 C 
BRANCH  81  82
ATOM     82  C   UNL     1       2.516  -1.408   4.709  1.00  0.00     0.261 C 
BRANCH  82  83
ATOM     83  O   UNL     1       2.989  -0.111   5.042  1.00  0.00    -0.460 OA
BRANCH  83  84
ATOM     84  C   UNL     1       4.385   0.140   5.106  1.00  0.00     0.340 C 
ATOM     85  O   UNL     1       5.211  -0.795   4.866  1.00  0.00    -0.246 OA
BRANCH  84  86
ATOM     86  C   UNL     1       4.892   1.528   5.462  1.00  0.00     0.083 A 
ATOM     87  C   UNL     1       5.951   2.097   4.774  1.00  0.00     0.018 A 
ATOM     88  C   UNL     1       4.316   2.156   6.481  1.00  0.00     0.053 A 
ATOM     89  C   UNL     1       6.523   3.215   5.424  1.00  0.00     0.001 A 
ATOM     90  C   UNL     1       4.853   3.319   6.979  1.00  0.00     0.027 A 
ATOM     91  C   UNL     1       5.935   3.905   6.384  1.00  0.00     0.002 A 
BRANCH  88  92
ATOM     92  N   UNL     1       3.093   1.603   7.080  1.00  0.00    -0.355 N 
ATOM     93  H   UNL     1       2.705   0.770   6.727  1.00  0.00     0.167 HD
BRANCH  92  94
ATOM     94  C   UNL     1       2.450   2.293   8.208  1.00  0.00     0.040 A 
ATOM     95  C   UNL     1       2.197   1.557   9.353  1.00  0.00     0.026 A 
ATOM     96  C   UNL     1       2.009   3.539   8.078  1.00  0.00     0.050 A 
ATOM     97  C   UNL     1       1.214   2.128  10.196  1.00  0.00     0.004 A 
ATOM     98  C   UNL     1       1.159   4.080   9.011  1.00  0.00     0.109 A 
ATOM     99  C   UNL     1       0.818   3.387  10.139  1.00  0.00     0.024 A 
BRANCH  98 100
ATOM    100  S   UNL     1       0.479   5.736   8.743  1.00  0.00     0.310 S 
ATOM    101  F   UNL     1      -0.223   5.765  10.165  1.00  0.00    -0.094 F 
ATOM    102  F   UNL     1      -0.849   5.105   8.177  1.00  0.00    -0.094 F 
ATOM    103  F   UNL     1      -0.072   7.172   8.511  1.00  0.00    -0.094 F 
ATOM    104  F   UNL     1       1.756   6.349   9.441  1.00  0.00    -0.094 F 
ATOM    105  F   UNL     1       1.003   4.286   9.088  1.00  0.00    -0.094 F 
ENDBRANCH  98 100
ENDBRANCH  92  94
ENDBRANCH  88  92
ENDBRANCH  84  86
ENDBRANCH  83  84
ENDBRANCH  82  83
ENDBRANCH  81  82
ENDBRANCH  80  81
ENDBRANCH  79  80
ENDBRANCH  78  79
ENDBRANCH   1  78
TORSDOF 26
