REMARK SMILES CC1(C)[C@H](C(=O)OCCOCCOCCOCCOC(=O)c2ccc(-c3c4nc(c(-c5c(F)cc(S(=O)(=O)[O-])cc5F)c5ccc([nH]5)c(-c5c(F)cc(S(=O)(=O)[O-])cc5F)c5nc(c(-c6c(F)cc(S(=O)(=O)[O-])cc6F)c6ccc3[nH]6)C=C5)C=C4)cc2)[C@@H]1C(=O)Nc1ccon1
REMARK SMILES IDX 14 1 13 2 12 3 11 4 10 5 9 6 8 7 7 8 5 9 6 10 4 11 1 12 2 13
REMARK SMILES IDX 3 14 88 15 89 16 90 17 91 18 92 20 93 21 96 22 94 23 95 24
REMARK SMILES IDX 15 25 16 26 17 27 18 28 19 29 20 30 21 31 22 32 23 33 87 34
REMARK SMILES IDX 24 35 86 36 25 37 26 38 27 39 80 40 28 41 85 42 79 43 81 44
REMARK SMILES IDX 29 45 84 46 78 47 77 48 30 50 64 51 43 52 63 53 44 54 47 55
REMARK SMILES IDX 62 56 82 57 45 58 46 59 61 61 83 62 48 63 31 64 32 65 41 66
REMARK SMILES IDX 33 67 34 68 40 69 42 70 35 71 36 72 37 73 38 74 39 75 65 76
REMARK SMILES IDX 66 77 75 78 67 79 68 80 74 81 76 82 69 83 70 84 71 85 72 86
REMARK SMILES IDX 73 87 49 88 50 89 59 90 51 91 52 92 58 93 60 94 53 95 54 96
REMARK SMILES IDX 55 97 56 98 57 99
REMARK H PARENT 91 19 81 49 47 60
REMARK Flexibility Score: inf
ROOT
ATOM      1  C   UNL     1       0.364   3.320  -4.039  1.00  0.00     0.188 C 
ENDROOT
BRANCH   1   2
ATOM      2  O   UNL     1       0.505   2.256  -3.103  1.00  0.00    -0.377 OA
BRANCH   2   3
ATOM      3  C   UNL     1       0.051   0.955  -3.440  1.00  0.00     0.188 C 
BRANCH   3   4
ATOM      4  C   UNL     1      -1.302   0.790  -4.155  1.00  0.00     0.188 C 
BRANCH   4   5
ATOM      5  O   UNL     1      -2.004   2.000  -4.398  1.00  0.00    -0.376 OA
BRANCH   5   6
ATOM      6  C   UNL     1      -3.076   2.333  -3.532  1.00  0.00     0.202 C 
BRANCH   6   7
ATOM      7  C   UNL     1      -2.701   2.791  -2.114  1.00  0.00     0.261 C 
BRANCH   7   8
ATOM      8  O   UNL     1      -1.894   1.903  -1.324  1.00  0.00    -0.463 OA
BRANCH   8   9
ATOM      9  C   UNL     1      -2.317   0.635  -1.191  1.00  0.00     0.310 C 
ATOM     10  O   UNL     1      -3.283   0.138  -1.755  1.00  0.00    -0.252 OA
BRANCH   9  11
ATOM     11  C   UNL     1      -1.492  -0.222  -0.318  1.00  0.00     0.118 C 
ATOM     12  C   UNL     1       0.816  -1.059   0.384  1.00  0.00     0.013 C 
ATOM     13  C   UNL     1      -0.186   0.077   0.383  1.00  0.00    -0.009 C 
ATOM     14  C   UNL     1       0.495   1.427   0.317  1.00  0.00     0.013 C 
ATOM     15  C   UNL     1      -1.501  -0.080   1.187  1.00  0.00     0.100 C 
BRANCH  15  16
ATOM     16  C   UNL     1      -1.974   1.098   1.969  1.00  0.00     0.230 C 
ATOM     17  O   UNL     1      -1.224   1.553   2.829  1.00  0.00    -0.274 OA
ATOM     18  N   UNL     1      -3.183   1.692   1.747  1.00  0.00    -0.308 N 
ATOM     19  H   UNL     1      -3.265   2.593   2.136  1.00  0.00     0.171 HD
BRANCH  18  20
ATOM     20  C   UNL     1      -4.303   1.266   1.080  1.00  0.00     0.175 A 
ATOM     21  C   UNL     1      -4.687  -0.030   0.674  1.00  0.00     0.092 A 
ATOM     22  N   UNL     1      -5.228   2.163   0.721  1.00  0.00    -0.062 NA
ATOM     23  C   UNL     1      -5.806   0.173  -0.094  1.00  0.00     0.233 A 
ATOM     24  O   UNL     1      -6.140   1.483  -0.063  1.00  0.00    -0.363 OA
ENDBRANCH  18  20
ENDBRANCH  15  16
ENDBRANCH   9  11
ENDBRANCH   8   9
ENDBRANCH   7   8
ENDBRANCH   6   7
ENDBRANCH   5   6
ENDBRANCH   4   5
ENDBRANCH   3   4
ENDBRANCH   2   3
ENDBRANCH   1   2
BRANCH   1  25
ATOM     25  C   UNL     1       0.384   3.031  -5.555  1.00  0.00     0.188 C 
BRANCH  25  26
ATOM     26  O   UNL     1       0.808   1.722  -5.909  1.00  0.00    -0.376 OA
BRANCH  26  27
ATOM     27  C   UNL     1       2.147   1.578  -6.355  1.00  0.00     0.202 C 
BRANCH  27  28
ATOM     28  C   UNL     1       3.240   1.863  -5.315  1.00  0.00     0.261 C 
BRANCH  28  29
ATOM     29  O   UNL     1       3.275   3.202  -4.796  1.00  0.00    -0.460 OA
BRANCH  29  30
ATOM     30  C   UNL     1       3.421   4.210  -5.683  1.00  0.00     0.338 C 
ATOM     31  O   UNL     1       3.583   4.115  -6.886  1.00  0.00    -0.246 OA
BRANCH  30  32
ATOM     32  C   UNL     1       3.144   5.475  -4.974  1.00  0.00     0.060 A 
ATOM     33  C   UNL     1       2.116   6.302  -5.444  1.00  0.00     0.016 A 
ATOM     34  C   UNL     1       3.895   5.837  -3.853  1.00  0.00     0.016 A 
ATOM     35  C   UNL     1       1.872   7.526  -4.824  1.00  0.00     0.010 A 
ATOM     36  C   UNL     1       3.668   7.075  -3.249  1.00  0.00     0.010 A 
ATOM     37  C   UNL     1       2.687   7.942  -3.764  1.00  0.00    -0.014 A 
BRANCH  37  38
ATOM     38  C   UNL     1       2.692   9.375  -3.386  1.00  0.00     0.031 A 
ATOM     39  C   UNL     1       3.714  10.265  -4.044  1.00  0.00     0.074 A 
ATOM     40  C   UNL     1       1.792   9.885  -2.529  1.00  0.00     0.049 A 
ATOM     41  N   UNL     1       3.923  11.545  -3.892  1.00  0.00    -0.248 NA
ATOM     42  C   UNL     1       4.623   9.617  -5.006  1.00  0.00     0.031 C 
ATOM     43  C   UNL     1       0.733   9.131  -1.863  1.00  0.00     0.029 A 
ATOM     44  N   UNL     1       1.631  11.169  -2.073  1.00  0.00    -0.354 N 
ATOM     45  C   UNL     1       4.984  11.856  -4.735  1.00  0.00     0.074 A 
ATOM     46  C   UNL     1       5.399  10.626  -5.370  1.00  0.00     0.031 C 
ATOM     47  C   UNL     1       0.034   9.967  -1.073  1.00  0.00     0.029 A 
ATOM     48  C   UNL     1       0.612  11.308  -1.160  1.00  0.00     0.049 A 
ATOM     49  H   UNL     1       2.192  11.921  -2.371  1.00  0.00     0.167 HD
ATOM     50  C   UNL     1       5.553  13.060  -4.971  1.00  0.00     0.037 A 
ATOM     51  C   UNL     1       0.209  12.392  -0.467  1.00  0.00     0.037 A 
ATOM     52  C   UNL     1       5.139  14.281  -4.332  1.00  0.00     0.049 A 
ATOM     53  C   UNL     1       0.904  13.712  -0.694  1.00  0.00     0.074 A 
ATOM     54  C   UNL     1       5.643  15.557  -4.507  1.00  0.00     0.029 A 
ATOM     55  N   UNL     1       4.127  14.374  -3.388  1.00  0.00    -0.354 N 
ATOM     56  N   UNL     1       1.888  13.999  -1.514  1.00  0.00    -0.248 NA
ATOM     57  C   UNL     1       0.431  14.857   0.097  1.00  0.00     0.031 C 
ATOM     58  C   UNL     1       4.969  16.414  -3.631  1.00  0.00     0.029 A 
ATOM     59  C   UNL     1       4.007  15.683  -2.952  1.00  0.00     0.049 A 
ATOM     60  H   UNL     1       3.575  13.622  -3.075  1.00  0.00     0.167 HD
ATOM     61  C   UNL     1       2.130  15.361  -1.359  1.00  0.00     0.074 A 
ATOM     62  C   UNL     1       1.182  15.843  -0.376  1.00  0.00     0.031 C 
ATOM     63  C   UNL     1       3.052  16.145  -1.975  1.00  0.00     0.037 A 
BRANCH  50  64
ATOM     64  C   UNL     1       6.702  13.106  -5.938  1.00  0.00     0.058 A 
ATOM     65  C   UNL     1       6.516  12.925  -7.318  1.00  0.00     0.135 A 
ATOM     66  C   UNL     1       8.006  13.351  -5.479  1.00  0.00     0.135 A 
ATOM     67  F   UNL     1       5.294  12.662  -7.807  1.00  0.00    -0.206 F 
ATOM     68  C   UNL     1       7.587  12.960  -8.206  1.00  0.00     0.059 A 
ATOM     69  C   UNL     1       9.087  13.419  -6.353  1.00  0.00     0.059 A 
ATOM     70  F   UNL     1       8.241  13.523  -4.169  1.00  0.00    -0.206 F 
ATOM     71  C   UNL     1       8.869  13.209  -7.713  1.00  0.00     0.060 A 
BRANCH  71  72
ATOM     72  S   UNL     1      10.246  13.259  -8.879  1.00  0.00     0.124 S 
ATOM     73  O   UNL     1      10.386  11.848  -9.226  1.00  0.00    -0.237 OA
ATOM     74  O   UNL     1       9.728  14.123  -9.936  1.00  0.00    -0.237 OA
ATOM     75  O   UNL     1      11.338  13.823  -8.092  1.00  0.00    -0.744 OA
ENDBRANCH  71  72
ENDBRANCH  50  64
BRANCH  51  76
ATOM     76  C   UNL     1      -0.903  12.279   0.515  1.00  0.00     0.058 A 
ATOM     77  C   UNL     1      -2.139  12.905   0.292  1.00  0.00     0.135 A 
ATOM     78  C   UNL     1      -0.747  11.553   1.707  1.00  0.00     0.135 A 
ATOM     79  F   UNL     1      -2.335  13.622  -0.824  1.00  0.00    -0.206 F 
ATOM     80  C   UNL     1      -3.173  12.830   1.221  1.00  0.00     0.059 A 
ATOM     81  C   UNL     1      -1.775  11.441   2.638  1.00  0.00     0.059 A 
ATOM     82  F   UNL     1       0.413  10.930   1.967  1.00  0.00    -0.206 F 
ATOM     83  C   UNL     1      -2.982  12.092   2.391  1.00  0.00     0.060 A 
BRANCH  83  84
ATOM     84  S   UNL     1      -4.346  11.966   3.568  1.00  0.00     0.124 S 
ATOM     85  O   UNL     1      -4.365  13.307   4.141  1.00  0.00    -0.237 OA
ATOM     86  O   UNL     1      -5.468  11.626   2.700  1.00  0.00    -0.237 OA
ATOM     87  O   UNL     1      -3.914  10.901   4.468  1.00  0.00    -0.744 OA
ENDBRANCH  83  84
ENDBRANCH  51  76
BRANCH  63  88
ATOM     88  C   UNL     1       3.060  17.611  -1.633  1.00  0.00     0.058 A 
ATOM     89  C   UNL     1       3.518  18.079  -0.392  1.00  0.00     0.135 A 
ATOM     90  C   UNL     1       2.654  18.563  -2.583  1.00  0.00     0.135 A 
ATOM     91  F   UNL     1       3.916  17.212   0.552  1.00  0.00    -0.206 F 
ATOM     92  C   UNL     1       3.545  19.438  -0.094  1.00  0.00     0.059 A 
ATOM     93  C   UNL     1       2.701  19.928  -2.317  1.00  0.00     0.059 A 
ATOM     94  F   UNL     1       2.221  18.171  -3.792  1.00  0.00    -0.206 F 
ATOM     95  C   UNL     1       3.135  20.355  -1.064  1.00  0.00     0.060 A 
BRANCH  95  96
ATOM     96  S   UNL     1       3.199  22.116  -0.673  1.00  0.00     0.124 S 
ATOM     97  O   UNL     1       2.068  22.256   0.238  1.00  0.00    -0.237 OA
ATOM     98  O   UNL     1       4.521  22.255  -0.069  1.00  0.00    -0.237 OA
ATOM     99  O   UNL     1       3.041  22.760  -1.974  1.00  0.00    -0.744 OA
ENDBRANCH  95  96
ENDBRANCH  63  88
ENDBRANCH  37  38
ENDBRANCH  30  32
ENDBRANCH  29  30
ENDBRANCH  28  29
ENDBRANCH  27  28
ENDBRANCH  26  27
ENDBRANCH  25  26
ENDBRANCH   1  25
TORSDOF 25
