REMARK SMILES CCCCCCNC(=O)Nc1cccc(-c2ccc([C@@H](C)C(=O)OCCOCCOCCOCCOC(=O)c3ccc(-c4c5nc(c(-c6c(F)cc(S(=O)(=O)[O-])cc6F)c6ccc([nH]6)c(-c6c(F)cc(S(=O)(=O)[O-])cc6F)c6nc(c(-c7c(F)cc(S(=O)(=O)[O-])cc7F)c7ccc4[nH]7)C=C6)C=C5)cc3)cc2F)c1
REMARK SMILES IDX 28 1 27 2 26 3 25 4 24 5 22 6 23 7 20 8 21 9 19 10 16 11
REMARK SMILES IDX 17 12 106 13 18 14 105 15 107 16 15 17 11 18 12 19 108 20
REMARK SMILES IDX 13 21 14 22 10 23 7 24 8 25 9 27 6 29 5 30 4 31 3 32 2 33
REMARK SMILES IDX 1 34 29 35 30 36 31 37 32 38 33 39 34 40 35 41 36 42 37 43
REMARK SMILES IDX 38 44 39 45 40 46 104 47 41 48 103 49 42 50 43 51 44 52
REMARK SMILES IDX 97 53 45 54 102 55 96 56 98 57 46 58 101 59 95 60 94 61
REMARK SMILES IDX 47 63 81 64 60 65 80 66 61 67 64 68 79 69 99 70 62 71 63 72
REMARK SMILES IDX 78 74 100 75 65 76 48 77 49 78 58 79 50 80 51 81 57 82 59 83
REMARK SMILES IDX 52 84 53 85 54 86 55 87 56 88 82 89 83 90 92 91 84 92 85 93
REMARK SMILES IDX 91 94 93 95 86 96 87 97 88 98 89 99 90 100 66 101 67 102
REMARK SMILES IDX 76 103 68 104 69 105 75 106 77 107 70 108 71 109 72 110
REMARK SMILES IDX 73 111 74 112
REMARK H PARENT 7 26 10 28 98 62 64 73
REMARK Flexibility Score: inf
ROOT
ATOM      1  C   UNL     1       1.643  -5.508  -0.775  1.00  0.00     0.188 C 
ENDROOT
BRANCH   1   2
ATOM      2  O   UNL     1       2.350  -5.376  -2.011  1.00  0.00    -0.376 OA
BRANCH   2   3
ATOM      3  C   UNL     1       2.056  -4.274  -2.864  1.00  0.00     0.202 C 
BRANCH   3   4
ATOM      4  C   UNL     1       0.810  -4.416  -3.731  1.00  0.00     0.261 C 
BRANCH   4   5
ATOM      5  O   UNL     1      -0.412  -4.544  -2.980  1.00  0.00    -0.463 OA
BRANCH   5   6
ATOM      6  C   UNL     1      -0.868  -5.815  -2.844  1.00  0.00     0.313 C 
ATOM      7  O   UNL     1      -0.251  -6.818  -3.195  1.00  0.00    -0.252 OA
BRANCH   6   8
ATOM      8  C   UNL     1      -2.297  -5.905  -2.355  1.00  0.00     0.126 C 
ATOM      9  C   UNL     1      -3.217  -5.704  -3.561  1.00  0.00     0.025 C 
BRANCH   8  10
ATOM     10  C   UNL     1      -2.736  -5.065  -1.164  1.00  0.00    -0.031 A 
ATOM     11  C   UNL     1      -4.074  -3.660   0.949  1.00  0.00     0.018 A 
ATOM     12  C   UNL     1      -3.666  -3.013  -0.232  1.00  0.00     0.012 A 
ATOM     13  C   UNL     1      -3.717  -5.008   1.072  1.00  0.00     0.131 A 
ATOM     14  C   UNL     1      -3.000  -3.696  -1.265  1.00  0.00     0.005 A 
ATOM     15  C   UNL     1      -3.062  -5.699   0.045  1.00  0.00     0.044 A 
ATOM     16  F   UNL     1      -4.050  -5.700   2.173  1.00  0.00    -0.206 F 
BRANCH  11  17
ATOM     17  C   UNL     1      -4.832  -2.936   1.995  1.00  0.00    -0.013 A 
ATOM     18  C   UNL     1      -5.075  -2.202   4.313  1.00  0.00     0.043 A 
ATOM     19  C   UNL     1      -6.150  -1.384   3.981  1.00  0.00     0.026 A 
ATOM     20  C   UNL     1      -4.478  -3.033   3.351  1.00  0.00     0.035 A 
ATOM     21  C   UNL     1      -6.524  -1.280   2.646  1.00  0.00     0.003 A 
ATOM     22  C   UNL     1      -5.861  -2.032   1.666  1.00  0.00     0.009 A 
BRANCH  18  23
ATOM     23  N   UNL     1      -4.489  -2.037   5.572  1.00  0.00    -0.308 N 
ATOM     24  N   UNL     1      -2.403  -1.123   4.927  1.00  0.00    -0.338 N 
ATOM     25  C   UNL     1      -3.186  -1.753   5.845  1.00  0.00     0.319 C 
ATOM     26  H   UNL     1      -1.438  -1.128   5.122  1.00  0.00     0.165 HD
ATOM     27  O   UNL     1      -2.733  -1.966   6.970  1.00  0.00    -0.249 OA
ATOM     28  H   UNL     1      -5.086  -2.136   6.348  1.00  0.00     0.171 HD
BRANCH  24  29
ATOM     29  C   UNL     1      -2.788  -0.439   3.693  1.00  0.00     0.117 C 
BRANCH  29  30
ATOM     30  C   UNL     1      -1.667   0.325   3.015  1.00  0.00     0.021 C 
BRANCH  30  31
ATOM     31  C   UNL     1      -0.544  -0.590   2.548  1.00  0.00     0.002 C 
BRANCH  31  32
ATOM     32  C   UNL     1      -0.700  -1.434   1.294  1.00  0.00    -0.000 C 
BRANCH  32  33
ATOM     33  C   UNL     1      -1.097  -0.700   0.018  1.00  0.00    -0.003 C 
ATOM     34  C   UNL     1      -0.117   0.373  -0.420  1.00  0.00     0.004 C 
ENDBRANCH  32  33
ENDBRANCH  31  32
ENDBRANCH  30  31
ENDBRANCH  29  30
ENDBRANCH  24  29
ENDBRANCH  18  23
ENDBRANCH  11  17
ENDBRANCH   8  10
ENDBRANCH   6   8
ENDBRANCH   5   6
ENDBRANCH   4   5
ENDBRANCH   3   4
ENDBRANCH   2   3
ENDBRANCH   1   2
BRANCH   1  35
ATOM     35  C   UNL     1       1.118  -4.235  -0.102  1.00  0.00     0.188 C 
BRANCH  35  36
ATOM     36  O   UNL     1       2.011  -3.122  -0.142  1.00  0.00    -0.377 OA
BRANCH  36  37
ATOM     37  C   UNL     1       3.336  -3.378   0.306  1.00  0.00     0.188 C 
BRANCH  37  38
ATOM     38  C   UNL     1       3.455  -3.191   1.805  1.00  0.00     0.188 C 
BRANCH  38  39
ATOM     39  O   UNL     1       2.590  -4.042   2.554  1.00  0.00    -0.376 OA
BRANCH  39  40
ATOM     40  C   UNL     1       2.740  -3.839   3.963  1.00  0.00     0.202 C 
BRANCH  40  41
ATOM     41  C   UNL     1       1.927  -2.676   4.554  1.00  0.00     0.261 C 
BRANCH  41  42
ATOM     42  O   UNL     1       2.048  -1.379   3.936  1.00  0.00    -0.460 OA
BRANCH  42  43
ATOM     43  C   UNL     1       3.235  -0.734   3.849  1.00  0.00     0.338 C 
ATOM     44  O   UNL     1       4.314  -1.148   4.230  1.00  0.00    -0.246 OA
BRANCH  43  45
ATOM     45  C   UNL     1       3.004   0.486   3.020  1.00  0.00     0.060 A 
ATOM     46  C   UNL     1       3.752   0.728   1.859  1.00  0.00     0.016 A 
ATOM     47  C   UNL     1       1.957   1.348   3.342  1.00  0.00     0.016 A 
ATOM     48  C   UNL     1       3.461   1.840   1.038  1.00  0.00     0.010 A 
ATOM     49  C   UNL     1       1.605   2.384   2.468  1.00  0.00     0.010 A 
ATOM     50  C   UNL     1       2.393   2.696   1.343  1.00  0.00    -0.014 A 
BRANCH  50  51
ATOM     51  C   UNL     1       2.191   4.028   0.675  1.00  0.00     0.031 A 
ATOM     52  C   UNL     1       2.266   5.267   1.550  1.00  0.00     0.074 A 
ATOM     53  C   UNL     1       1.880   4.192  -0.630  1.00  0.00     0.049 A 
ATOM     54  N   UNL     1       1.991   6.516   1.267  1.00  0.00    -0.248 NA
ATOM     55  C   UNL     1       2.643   5.050   2.958  1.00  0.00     0.031 C 
ATOM     56  C   UNL     1       1.717   3.130  -1.619  1.00  0.00     0.029 A 
ATOM     57  N   UNL     1       1.613   5.343  -1.343  1.00  0.00    -0.354 N 
ATOM     58  C   UNL     1       2.117   7.205   2.469  1.00  0.00     0.074 A 
ATOM     59  C   UNL     1       2.360   6.221   3.498  1.00  0.00     0.031 C 
ATOM     60  C   UNL     1       1.346   3.671  -2.796  1.00  0.00     0.029 A 
ATOM     61  C   UNL     1       1.264   5.125  -2.658  1.00  0.00     0.049 A 
ATOM     62  H   UNL     1       1.666   6.243  -0.947  1.00  0.00     0.167 HD
ATOM     63  C   UNL     1       2.121   8.538   2.707  1.00  0.00     0.037 A 
ATOM     64  C   UNL     1       0.933   5.990  -3.642  1.00  0.00     0.037 A 
ATOM     65  C   UNL     1       1.994   9.537   1.687  1.00  0.00     0.049 A 
ATOM     66  C   UNL     1       0.988   7.478  -3.387  1.00  0.00     0.074 A 
ATOM     67  C   UNL     1       2.110  10.910   1.808  1.00  0.00     0.029 A 
ATOM     68  N   UNL     1       1.740   9.268   0.353  1.00  0.00    -0.354 N 
ATOM     69  N   UNL     1       1.225   8.116  -2.266  1.00  0.00    -0.248 NA
ATOM     70  C   UNL     1       0.774   8.365  -4.543  1.00  0.00     0.031 C 
ATOM     71  C   UNL     1       1.906  11.475   0.544  1.00  0.00     0.029 A 
ATOM     72  C   UNL     1       1.693  10.450  -0.364  1.00  0.00     0.049 A 
ATOM     73  H   UNL     1       1.613   8.370  -0.029  1.00  0.00     0.167 HD
ATOM     74  C   UNL     1       1.237   9.470  -2.591  1.00  0.00     0.074 A 
ATOM     75  C   UNL     1       0.974   9.564  -4.010  1.00  0.00     0.031 C 
ATOM     76  C   UNL     1       1.461  10.537  -1.783  1.00  0.00     0.037 A 
BRANCH  63  77
ATOM     77  C   UNL     1       2.327   8.970   4.133  1.00  0.00     0.058 A 
ATOM     78  C   UNL     1       3.548   8.748   4.797  1.00  0.00     0.135 A 
ATOM     79  C   UNL     1       1.283   9.558   4.862  1.00  0.00     0.135 A 
ATOM     80  F   UNL     1       4.575   8.174   4.149  1.00  0.00    -0.206 F 
ATOM     81  C   UNL     1       3.699   9.018   6.151  1.00  0.00     0.059 A 
ATOM     82  C   UNL     1       1.427   9.874   6.210  1.00  0.00     0.059 A 
ATOM     83  F   UNL     1       0.101   9.802   4.276  1.00  0.00    -0.206 F 
ATOM     84  C   UNL     1       2.627   9.569   6.852  1.00  0.00     0.060 A 
BRANCH  84  85
ATOM     85  S   UNL     1       2.816   9.863   8.622  1.00  0.00     0.124 S 
ATOM     86  O   UNL     1       2.629   8.519   9.159  1.00  0.00    -0.237 OA
ATOM     87  O   UNL     1       4.171  10.397   8.711  1.00  0.00    -0.237 OA
ATOM     88  O   UNL     1       1.750  10.815   8.921  1.00  0.00    -0.744 OA
ENDBRANCH  84  85
ENDBRANCH  63  77
BRANCH  64  89
ATOM     89  C   UNL     1       0.595   5.481  -5.001  1.00  0.00     0.058 A 
ATOM     90  C   UNL     1       1.524   5.555  -6.050  1.00  0.00     0.135 A 
ATOM     91  C   UNL     1      -0.656   4.910  -5.279  1.00  0.00     0.135 A 
ATOM     92  F   UNL     1       2.726   6.113  -5.840  1.00  0.00    -0.206 F 
ATOM     93  C   UNL     1       1.228   5.083  -7.325  1.00  0.00     0.059 A 
ATOM     94  C   UNL     1      -0.971   4.415  -6.543  1.00  0.00     0.059 A 
ATOM     95  F   UNL     1      -1.582   4.816  -4.312  1.00  0.00    -0.206 F 
ATOM     96  C   UNL     1      -0.021   4.506  -7.561  1.00  0.00     0.060 A 
BRANCH  96  97
ATOM     97  S   UNL     1      -0.359   3.819  -9.198  1.00  0.00     0.124 S 
ATOM     98  O   UNL     1      -0.503   5.026 -10.003  1.00  0.00    -0.237 OA
ATOM     99  O   UNL     1       0.840   3.024  -9.447  1.00  0.00    -0.237 OA
ATOM    100  O   UNL     1      -1.581   3.046  -8.992  1.00  0.00    -0.744 OA
ENDBRANCH  96  97
ENDBRANCH  64  89
BRANCH  76 101
ATOM    101  C   UNL     1       1.495  11.905  -2.405  1.00  0.00     0.058 A 
ATOM    102  C   UNL     1       0.324  12.569  -2.796  1.00  0.00     0.135 A 
ATOM    103  C   UNL     1       2.712  12.598  -2.521  1.00  0.00     0.135 A 
ATOM    104  F   UNL     1      -0.865  11.952  -2.706  1.00  0.00    -0.206 F 
ATOM    105  C   UNL     1       0.357  13.870  -3.292  1.00  0.00     0.059 A 
ATOM    106  C   UNL     1       2.767  13.906  -2.993  1.00  0.00     0.059 A 
ATOM    107  F   UNL     1       3.861  12.012  -2.147  1.00  0.00    -0.206 F 
ATOM    108  C   UNL     1       1.584  14.531  -3.382  1.00  0.00     0.060 A 
BRANCH 108 109
ATOM    109  S   UNL     1       1.610  16.238  -3.974  1.00  0.00     0.124 S 
ATOM    110  O   UNL     1       1.423  16.054  -5.409  1.00  0.00    -0.237 OA
ATOM    111  O   UNL     1       0.486  16.835  -3.260  1.00  0.00    -0.237 OA
ATOM    112  O   UNL     1       2.928  16.718  -3.567  1.00  0.00    -0.744 OA
ENDBRANCH 108 109
ENDBRANCH  76 101
ENDBRANCH  50  51
ENDBRANCH  43  45
ENDBRANCH  42  43
ENDBRANCH  41  42
ENDBRANCH  40  41
ENDBRANCH  39  40
ENDBRANCH  38  39
ENDBRANCH  37  38
ENDBRANCH  36  37
ENDBRANCH  35  36
ENDBRANCH   1  35
TORSDOF 31
