REMARK SMILES O=C(OCCOCCOCCOCCOC(=O)c1oc2cccc3c2c1CCC3)c1ccc(-c2c3nc(c(-c4c(F)cc(S(=O)(=O)[O-])cc4F)c4ccc([nH]4)c(-c4c(F)cc(S(=O)(=O)[O-])cc4F)c4nc(c(-c5c(F)cc(S(=O)(=O)[O-])cc5F)c5ccc2[nH]5)C=C4)C=C3)cc1
REMARK SMILES IDX 7 1 6 2 5 3 4 4 3 5 2 6 1 7 30 8 31 9 95 10 32 11 94 12
REMARK SMILES IDX 33 13 34 14 35 15 88 16 36 17 93 18 87 19 89 20 37 21 92 22
REMARK SMILES IDX 86 23 85 24 38 26 72 27 51 28 71 29 52 30 55 31 70 32 90 33
REMARK SMILES IDX 53 34 54 35 69 37 91 38 56 39 39 40 40 41 49 42 41 43 42 44
REMARK SMILES IDX 48 45 50 46 43 47 44 48 45 49 46 50 47 51 73 52 74 53 83 54
REMARK SMILES IDX 75 55 76 56 82 57 84 58 77 59 78 60 79 61 80 62 81 63 57 64
REMARK SMILES IDX 58 65 67 66 59 67 60 68 66 69 68 70 61 71 62 72 63 73 64 74
REMARK SMILES IDX 65 75 8 76 9 77 10 78 11 79 12 80 13 81 14 82 15 83 16 84
REMARK SMILES IDX 17 85 18 86 19 87 26 88 20 89 25 90 27 91 21 92 24 93 28 94
REMARK SMILES IDX 22 95 23 96 29 97
REMARK H PARENT 89 25 55 36
REMARK Flexibility Score: inf
ROOT
ATOM      1  C   UNL     1       2.769   1.657  -0.394  1.00  0.00     0.188 C 
ENDROOT
BRANCH   1   2
ATOM      2  O   UNL     1       3.524   0.832   0.485  1.00  0.00    -0.376 OA
BRANCH   2   3
ATOM      3  C   UNL     1       4.755   0.315   0.007  1.00  0.00     0.202 C 
BRANCH   3   4
ATOM      4  C   UNL     1       4.684  -1.128  -0.530  1.00  0.00     0.261 C 
BRANCH   4   5
ATOM      5  O   UNL     1       3.382  -1.750  -0.663  1.00  0.00    -0.460 OA
BRANCH   5   6
ATOM      6  C   UNL     1       2.318  -1.691   0.171  1.00  0.00     0.338 C 
ATOM      7  O   UNL     1       1.184  -1.877  -0.271  1.00  0.00    -0.246 OA
BRANCH   6   8
ATOM      8  C   UNL     1       2.479  -1.414   1.619  1.00  0.00     0.060 A 
ATOM      9  C   UNL     1       3.693  -1.578   2.288  1.00  0.00     0.016 A 
ATOM     10  C   UNL     1       1.341  -0.985   2.331  1.00  0.00     0.016 A 
ATOM     11  C   UNL     1       3.792  -1.279   3.628  1.00  0.00     0.010 A 
ATOM     12  C   UNL     1       1.413  -0.768   3.701  1.00  0.00     0.010 A 
ATOM     13  C   UNL     1       2.640  -0.943   4.335  1.00  0.00    -0.014 A 
BRANCH  13  14
ATOM     14  C   UNL     1       2.777  -1.056   5.774  1.00  0.00     0.031 A 
ATOM     15  C   UNL     1       3.317   0.097   6.526  1.00  0.00     0.074 A 
ATOM     16  C   UNL     1       2.530  -2.257   6.327  1.00  0.00     0.049 A 
ATOM     17  N   UNL     1       4.430   0.175   7.184  1.00  0.00    -0.248 NA
ATOM     18  C   UNL     1       2.538   1.342   6.503  1.00  0.00     0.031 C 
ATOM     19  C   UNL     1       1.801  -3.381   5.724  1.00  0.00     0.029 A 
ATOM     20  N   UNL     1       2.817  -2.699   7.577  1.00  0.00    -0.354 N 
ATOM     21  C   UNL     1       4.407   1.412   7.819  1.00  0.00     0.074 A 
ATOM     22  C   UNL     1       3.279   2.132   7.280  1.00  0.00     0.031 C 
ATOM     23  C   UNL     1       1.527  -4.289   6.682  1.00  0.00     0.029 A 
ATOM     24  C   UNL     1       2.148  -3.860   7.923  1.00  0.00     0.049 A 
ATOM     25  H   UNL     1       3.443  -2.238   8.181  1.00  0.00     0.167 HD
ATOM     26  C   UNL     1       5.191   1.704   8.893  1.00  0.00     0.037 A 
ATOM     27  C   UNL     1       2.009  -4.354   9.174  1.00  0.00     0.037 A 
ATOM     28  C   UNL     1       6.322   0.827   9.012  1.00  0.00     0.049 A 
ATOM     29  C   UNL     1       3.111  -3.796  10.001  1.00  0.00     0.074 A 
ATOM     30  C   UNL     1       7.427   0.560   8.229  1.00  0.00     0.029 A 
ATOM     31  N   UNL     1       6.274  -0.177   9.946  1.00  0.00    -0.354 N 
ATOM     32  N   UNL     1       4.374  -4.092   9.844  1.00  0.00    -0.248 NA
ATOM     33  C   UNL     1       2.852  -2.584  10.764  1.00  0.00     0.031 C 
ATOM     34  C   UNL     1       7.722  -0.817   8.446  1.00  0.00     0.029 A 
ATOM     35  C   UNL     1       6.784  -1.308   9.357  1.00  0.00     0.049 A 
ATOM     36  H   UNL     1       5.936  -0.102  10.868  1.00  0.00     0.167 HD
ATOM     37  C   UNL     1       5.059  -2.921  10.137  1.00  0.00     0.074 A 
ATOM     38  C   UNL     1       4.082  -2.068  10.803  1.00  0.00     0.031 C 
ATOM     39  C   UNL     1       6.275  -2.646   9.578  1.00  0.00     0.037 A 
BRANCH  26  40
ATOM     40  C   UNL     1       4.742   2.618   9.998  1.00  0.00     0.058 A 
ATOM     41  C   UNL     1       5.672   3.209  10.872  1.00  0.00     0.135 A 
ATOM     42  C   UNL     1       3.384   2.731  10.370  1.00  0.00     0.135 A 
ATOM     43  F   UNL     1       6.989   3.121  10.628  1.00  0.00    -0.206 F 
ATOM     44  C   UNL     1       5.278   3.854  12.047  1.00  0.00     0.059 A 
ATOM     45  C   UNL     1       2.966   3.412  11.506  1.00  0.00     0.059 A 
ATOM     46  F   UNL     1       2.415   2.104   9.688  1.00  0.00    -0.206 F 
ATOM     47  C   UNL     1       3.922   3.940  12.359  1.00  0.00     0.060 A 
BRANCH  47  48
ATOM     48  S   UNL     1       3.410   4.686  13.918  1.00  0.00     0.124 S 
ATOM     49  O   UNL     1       3.786   3.649  14.871  1.00  0.00    -0.237 OA
ATOM     50  O   UNL     1       4.209   5.907  13.952  1.00  0.00    -0.237 OA
ATOM     51  O   UNL     1       1.976   4.889  13.736  1.00  0.00    -0.744 OA
ENDBRANCH  47  48
ENDBRANCH  26  40
BRANCH  27  52
ATOM     52  C   UNL     1       0.753  -4.911   9.739  1.00  0.00     0.058 A 
ATOM     53  C   UNL     1       0.753  -5.585  10.970  1.00  0.00     0.135 A 
ATOM     54  C   UNL     1      -0.514  -4.575   9.213  1.00  0.00     0.135 A 
ATOM     55  F   UNL     1       1.913  -5.914  11.558  1.00  0.00    -0.206 F 
ATOM     56  C   UNL     1      -0.430  -5.874  11.656  1.00  0.00     0.059 A 
ATOM     57  C   UNL     1      -1.705  -4.873   9.866  1.00  0.00     0.059 A 
ATOM     58  F   UNL     1      -0.640  -3.857   8.086  1.00  0.00    -0.206 F 
ATOM     59  C   UNL     1      -1.654  -5.497  11.102  1.00  0.00     0.060 A 
BRANCH  59  60
ATOM     60  S   UNL     1      -3.170  -5.714  12.059  1.00  0.00     0.124 S 
ATOM     61  O   UNL     1      -3.280  -7.167  12.124  1.00  0.00    -0.237 OA
ATOM     62  O   UNL     1      -2.837  -5.041  13.311  1.00  0.00    -0.237 OA
ATOM     63  O   UNL     1      -4.184  -5.047  11.247  1.00  0.00    -0.744 OA
ENDBRANCH  59  60
ENDBRANCH  27  52
BRANCH  39  64
ATOM     64  C   UNL     1       7.007  -3.769   8.890  1.00  0.00     0.058 A 
ATOM     65  C   UNL     1       6.556  -4.378   7.706  1.00  0.00     0.135 A 
ATOM     66  C   UNL     1       8.283  -4.128   9.350  1.00  0.00     0.135 A 
ATOM     67  F   UNL     1       5.396  -4.011   7.144  1.00  0.00    -0.206 F 
ATOM     68  C   UNL     1       7.324  -5.328   7.030  1.00  0.00     0.059 A 
ATOM     69  C   UNL     1       9.079  -5.053   8.676  1.00  0.00     0.059 A 
ATOM     70  F   UNL     1       8.797  -3.532  10.440  1.00  0.00    -0.206 F 
ATOM     71  C   UNL     1       8.588  -5.656   7.520  1.00  0.00     0.060 A 
BRANCH  71  72
ATOM     72  S   UNL     1       9.618  -6.807   6.582  1.00  0.00     0.124 S 
ATOM     73  O   UNL     1       8.963  -8.085   6.836  1.00  0.00    -0.237 OA
ATOM     74  O   UNL     1       9.505  -6.296   5.218  1.00  0.00    -0.237 OA
ATOM     75  O   UNL     1      10.940  -6.652   7.185  1.00  0.00    -0.744 OA
ENDBRANCH  71  72
ENDBRANCH  39  64
ENDBRANCH  13  14
ENDBRANCH   6   8
ENDBRANCH   5   6
ENDBRANCH   4   5
ENDBRANCH   3   4
ENDBRANCH   2   3
ENDBRANCH   1   2
BRANCH   1  76
ATOM     76  C   UNL     1       2.438   1.086  -1.777  1.00  0.00     0.188 C 
BRANCH  76  77
ATOM     77  O   UNL     1       3.583   0.616  -2.475  1.00  0.00    -0.377 OA
BRANCH  77  78
ATOM     78  C   UNL     1       4.130   1.468  -3.464  1.00  0.00     0.188 C 
BRANCH  78  79
ATOM     79  C   UNL     1       5.169   2.476  -2.944  1.00  0.00     0.188 C 
BRANCH  79  80
ATOM     80  O   UNL     1       4.719   3.603  -2.202  1.00  0.00    -0.376 OA
BRANCH  80  81
ATOM     81  C   UNL     1       3.579   4.332  -2.635  1.00  0.00     0.202 C 
BRANCH  81  82
ATOM     82  C   UNL     1       3.586   4.972  -4.028  1.00  0.00     0.261 C 
BRANCH  82  83
ATOM     83  O   UNL     1       3.751   4.016  -5.087  1.00  0.00    -0.457 OA
BRANCH  83  84
ATOM     84  C   UNL     1       4.964   4.024  -5.715  1.00  0.00     0.374 C 
ATOM     85  O   UNL     1       5.832   4.874  -5.559  1.00  0.00    -0.242 OA
BRANCH  84  86
ATOM     86  C   UNL     1       5.109   2.804  -6.466  1.00  0.00     0.216 A 
ATOM     87  O   UNL     1       6.077   1.896  -6.060  1.00  0.00    -0.449 OA
ATOM     88  C   UNL     1       4.423   2.283  -7.541  1.00  0.00     0.014 A 
ATOM     89  C   UNL     1       5.994   0.807  -6.882  1.00  0.00     0.135 A 
ATOM     90  C   UNL     1       5.032   1.050  -7.829  1.00  0.00     0.028 A 
ATOM     91  C   UNL     1       3.301   2.743  -8.397  1.00  0.00     0.041 C 
ATOM     92  C   UNL     1       6.717  -0.377  -6.842  1.00  0.00     0.048 A 
ATOM     93  C   UNL     1       4.765   0.175  -8.880  1.00  0.00    -0.037 A 
ATOM     94  C   UNL     1       3.471   2.148  -9.826  1.00  0.00     0.010 C 
ATOM     95  C   UNL     1       6.424  -1.301  -7.867  1.00  0.00     0.004 A 
ATOM     96  C   UNL     1       5.476  -1.029  -8.876  1.00  0.00     0.004 A 
ATOM     97  C   UNL     1       3.717   0.602  -9.872  1.00  0.00     0.036 C 
ENDBRANCH  84  86
ENDBRANCH  83  84
ENDBRANCH  82  83
ENDBRANCH  81  82
ENDBRANCH  80  81
ENDBRANCH  79  80
ENDBRANCH  78  79
ENDBRANCH  77  78
ENDBRANCH  76  77
ENDBRANCH   1  76
TORSDOF 23
