REMARK SMILES O=C(OCCOCCOCCOCCOC(=O)[C@@H](CCOCCO)c1cccc(F)c1)c1ccc(-c2c3nc(c(-c4c(F)cc(S(=O)(=O)[O-])cc4F)c4ccc([nH]4)c(-c4c(F)cc(S(=O)(=O)[O-])cc4F)c4nc(c(-c5c(F)cc(S(=O)(=O)[O-])cc5F)c5ccc2[nH]5)C=C4)C=C3)cc1
REMARK SMILES IDX 10 1 9 2 8 3 7 4 6 5 5 6 4 7 3 8 2 9 1 10 32 11 33 12 97 13
REMARK SMILES IDX 34 14 96 15 35 16 36 17 37 18 90 19 38 20 95 21 89 22 91 23
REMARK SMILES IDX 39 24 94 25 88 26 87 27 40 29 74 30 53 31 73 32 54 33 57 34
REMARK SMILES IDX 72 35 92 36 55 37 56 38 71 40 93 41 58 42 41 43 42 44 51 45
REMARK SMILES IDX 43 46 44 47 50 48 52 49 45 50 46 51 47 52 48 53 49 54 75 55
REMARK SMILES IDX 76 56 85 57 77 58 78 59 84 60 86 61 79 62 80 63 81 64 82 65
REMARK SMILES IDX 83 66 59 67 60 68 69 69 61 70 62 71 68 72 70 73 63 74 64 75
REMARK SMILES IDX 65 76 66 77 67 78 11 79 12 80 13 81 14 82 15 83 16 84 17 85
REMARK SMILES IDX 18 86 19 87 20 88 21 89 22 90 23 91 24 92 25 94 26 95 31 96
REMARK SMILES IDX 27 97 29 98 28 99 30 100
REMARK H PARENT 91 28 57 39 24 93
REMARK Flexibility Score: inf
ROOT
ATOM      1  C   UNL     1       4.745  -0.207  -3.404  1.00  0.00     0.188 C 
ENDROOT
BRANCH   1   2
ATOM      2  O   UNL     1       3.366  -0.452  -3.666  1.00  0.00    -0.377 OA
BRANCH   2   3
ATOM      3  C   UNL     1       2.397  -0.102  -2.678  1.00  0.00     0.188 C 
BRANCH   3   4
ATOM      4  C   UNL     1       2.678  -0.667  -1.303  1.00  0.00     0.188 C 
BRANCH   4   5
ATOM      5  O   UNL     1       3.960  -0.219  -0.921  1.00  0.00    -0.376 OA
BRANCH   5   6
ATOM      6  C   UNL     1       4.783  -1.024  -0.103  1.00  0.00     0.202 C 
BRANCH   6   7
ATOM      7  C   UNL     1       4.183  -1.465   1.218  1.00  0.00     0.261 C 
BRANCH   7   8
ATOM      8  O   UNL     1       2.826  -1.062   1.488  1.00  0.00    -0.460 OA
BRANCH   8   9
ATOM      9  C   UNL     1       2.225   0.112   1.778  1.00  0.00     0.338 C 
ATOM     10  O   UNL     1       1.018   0.091   2.021  1.00  0.00    -0.246 OA
BRANCH   9  11
ATOM     11  C   UNL     1       2.899   1.439   1.822  1.00  0.00     0.060 A 
ATOM     12  C   UNL     1       3.970   1.828   1.028  1.00  0.00     0.016 A 
ATOM     13  C   UNL     1       2.337   2.415   2.659  1.00  0.00     0.016 A 
ATOM     14  C   UNL     1       4.562   3.066   1.124  1.00  0.00     0.010 A 
ATOM     15  C   UNL     1       2.898   3.693   2.748  1.00  0.00     0.010 A 
ATOM     16  C   UNL     1       4.051   3.989   2.014  1.00  0.00    -0.014 A 
BRANCH  16  17
ATOM     17  C   UNL     1       4.942   5.105   2.341  1.00  0.00     0.031 A 
ATOM     18  C   UNL     1       5.691   4.998   3.634  1.00  0.00     0.074 A 
ATOM     19  C   UNL     1       5.243   6.019   1.403  1.00  0.00     0.049 A 
ATOM     20  N   UNL     1       6.482   5.857   4.205  1.00  0.00    -0.248 NA
ATOM     21  C   UNL     1       5.538   3.732   4.380  1.00  0.00     0.031 C 
ATOM     22  C   UNL     1       4.725   6.023   0.030  1.00  0.00     0.029 A 
ATOM     23  N   UNL     1       6.095   7.085   1.441  1.00  0.00    -0.354 N 
ATOM     24  C   UNL     1       6.874   5.261   5.397  1.00  0.00     0.074 A 
ATOM     25  C   UNL     1       6.238   3.970   5.475  1.00  0.00     0.031 C 
ATOM     26  C   UNL     1       5.289   7.036  -0.647  1.00  0.00     0.029 A 
ATOM     27  C   UNL     1       6.127   7.799   0.268  1.00  0.00     0.049 A 
ATOM     28  H   UNL     1       6.635   7.318   2.231  1.00  0.00     0.167 HD
ATOM     29  C   UNL     1       7.694   5.771   6.340  1.00  0.00     0.037 A 
ATOM     30  C   UNL     1       6.732   8.970  -0.000  1.00  0.00     0.037 A 
ATOM     31  C   UNL     1       8.302   7.063   6.196  1.00  0.00     0.049 A 
ATOM     32  C   UNL     1       7.518   9.598   1.117  1.00  0.00     0.074 A 
ATOM     33  C   UNL     1       9.057   7.774   7.104  1.00  0.00     0.029 A 
ATOM     34  N   UNL     1       8.217   7.835   5.040  1.00  0.00    -0.354 N 
ATOM     35  N   UNL     1       7.764   9.118   2.317  1.00  0.00    -0.248 NA
ATOM     36  C   UNL     1       8.089  10.924   0.867  1.00  0.00     0.031 C 
ATOM     37  C   UNL     1       9.384   9.001   6.514  1.00  0.00     0.029 A 
ATOM     38  C   UNL     1       8.893   9.024   5.214  1.00  0.00     0.049 A 
ATOM     39  H   UNL     1       7.744   7.570   4.218  1.00  0.00     0.167 HD
ATOM     40  C   UNL     1       8.536  10.072   2.962  1.00  0.00     0.074 A 
ATOM     41  C   UNL     1       8.721  11.156   2.011  1.00  0.00     0.031 C 
ATOM     42  C   UNL     1       9.049  10.062   4.219  1.00  0.00     0.037 A 
BRANCH  29  43
ATOM     43  C   UNL     1       7.864   4.975   7.603  1.00  0.00     0.058 A 
ATOM     44  C   UNL     1       7.244   5.403   8.787  1.00  0.00     0.135 A 
ATOM     45  C   UNL     1       8.562   3.756   7.637  1.00  0.00     0.135 A 
ATOM     46  F   UNL     1       6.538   6.544   8.807  1.00  0.00    -0.206 F 
ATOM     47  C   UNL     1       7.311   4.656   9.958  1.00  0.00     0.059 A 
ATOM     48  C   UNL     1       8.617   2.976   8.791  1.00  0.00     0.059 A 
ATOM     49  F   UNL     1       9.130   3.271   6.520  1.00  0.00    -0.206 F 
ATOM     50  C   UNL     1       7.993   3.439   9.949  1.00  0.00     0.060 A 
BRANCH  50  51
ATOM     51  S   UNL     1       7.998   2.445  11.456  1.00  0.00     0.124 S 
ATOM     52  O   UNL     1       8.859   3.232  12.331  1.00  0.00    -0.237 OA
ATOM     53  O   UNL     1       6.582   2.419  11.810  1.00  0.00    -0.237 OA
ATOM     54  O   UNL     1       8.547   1.166  11.016  1.00  0.00    -0.744 OA
ENDBRANCH  50  51
ENDBRANCH  29  43
BRANCH  30  55
ATOM     55  C   UNL     1       6.564   9.606  -1.335  1.00  0.00     0.058 A 
ATOM     56  C   UNL     1       5.300  10.030  -1.782  1.00  0.00     0.135 A 
ATOM     57  C   UNL     1       7.641   9.739  -2.221  1.00  0.00     0.135 A 
ATOM     58  F   UNL     1       4.229   9.924  -0.980  1.00  0.00    -0.206 F 
ATOM     59  C   UNL     1       5.103  10.521  -3.068  1.00  0.00     0.059 A 
ATOM     60  C   UNL     1       7.475  10.254  -3.507  1.00  0.00     0.059 A 
ATOM     61  F   UNL     1       8.871   9.359  -1.842  1.00  0.00    -0.206 F 
ATOM     62  C   UNL     1       6.196  10.623  -3.927  1.00  0.00     0.060 A 
BRANCH  62  63
ATOM     63  S   UNL     1       5.915  11.229  -5.605  1.00  0.00     0.124 S 
ATOM     64  O   UNL     1       5.085  10.165  -6.166  1.00  0.00    -0.237 OA
ATOM     65  O   UNL     1       5.229  12.498  -5.356  1.00  0.00    -0.237 OA
ATOM     66  O   UNL     1       7.254  11.339  -6.158  1.00  0.00    -0.744 OA
ENDBRANCH  62  63
ENDBRANCH  30  55
BRANCH  42  67
ATOM     67  C   UNL     1       9.894  11.233   4.618  1.00  0.00     0.058 A 
ATOM     68  C   UNL     1      11.275  11.063   4.805  1.00  0.00     0.135 A 
ATOM     69  C   UNL     1       9.328  12.478   4.924  1.00  0.00     0.135 A 
ATOM     70  F   UNL     1      11.856   9.883   4.535  1.00  0.00    -0.206 F 
ATOM     71  C   UNL     1      12.064  12.084   5.312  1.00  0.00     0.059 A 
ATOM     72  C   UNL     1      10.106  13.526   5.402  1.00  0.00     0.059 A 
ATOM     73  F   UNL     1       8.013  12.685   4.751  1.00  0.00    -0.206 F 
ATOM     74  C   UNL     1      11.469  13.310   5.612  1.00  0.00     0.060 A 
BRANCH  74  75
ATOM     75  S   UNL     1      12.512  14.623   6.273  1.00  0.00     0.124 S 
ATOM     76  O   UNL     1      12.815  14.118   7.608  1.00  0.00    -0.237 OA
ATOM     77  O   UNL     1      13.626  14.633   5.330  1.00  0.00    -0.237 OA
ATOM     78  O   UNL     1      11.648  15.798   6.226  1.00  0.00    -0.744 OA
ENDBRANCH  74  75
ENDBRANCH  42  67
ENDBRANCH  16  17
ENDBRANCH   9  11
ENDBRANCH   8   9
ENDBRANCH   7   8
ENDBRANCH   6   7
ENDBRANCH   5   6
ENDBRANCH   4   5
ENDBRANCH   3   4
ENDBRANCH   2   3
ENDBRANCH   1   2
BRANCH   1  79
ATOM     79  C   UNL     1       5.246   1.232  -3.323  1.00  0.00     0.188 C 
BRANCH  79  80
ATOM     80  O   UNL     1       4.250   2.213  -3.201  1.00  0.00    -0.376 OA
BRANCH  80  81
ATOM     81  C   UNL     1       3.513   2.634  -4.338  1.00  0.00     0.202 C 
BRANCH  81  82
ATOM     82  C   UNL     1       3.609   2.038  -5.766  1.00  0.00     0.261 C 
BRANCH  82  83
ATOM     83  O   UNL     1       3.690   0.602  -5.952  1.00  0.00    -0.463 OA
BRANCH  83  84
ATOM     84  C   UNL     1       4.885   0.127  -6.407  1.00  0.00     0.313 C 
ATOM     85  O   UNL     1       5.861   0.851  -6.600  1.00  0.00    -0.252 OA
BRANCH  84  86
ATOM     86  C   UNL     1       4.943  -1.384  -6.761  1.00  0.00     0.131 C 
BRANCH  86  87
ATOM     87  C   UNL     1       4.301  -2.464  -5.823  1.00  0.00     0.048 C 
BRANCH  87  88
ATOM     88  C   UNL     1       2.789  -2.654  -5.607  1.00  0.00     0.161 C 
BRANCH  88  89
ATOM     89  O   UNL     1       1.971  -2.776  -6.758  1.00  0.00    -0.379 OA
BRANCH  89  90
ATOM     90  C   UNL     1       1.630  -1.552  -7.398  1.00  0.00     0.188 C 
BRANCH  90  91
ATOM     91  C   UNL     1       0.523  -0.698  -6.781  1.00  0.00     0.184 C 
BRANCH  91  92
ATOM     92  O   UNL     1       0.773  -0.283  -5.446  1.00  0.00    -0.394 OA
ATOM     93  H   UNL     1       0.837  -1.062  -4.872  1.00  0.00     0.210 HD
ENDBRANCH  91  92
ENDBRANCH  90  91
ENDBRANCH  89  90
ENDBRANCH  88  89
ENDBRANCH  87  88
ENDBRANCH  86  87
BRANCH  86  94
ATOM     94  C   UNL     1       4.729  -1.649  -8.253  1.00  0.00    -0.031 A 
ATOM     95  C   UNL     1       4.764  -2.966  -8.744  1.00  0.00     0.005 A 
ATOM     96  C   UNL     1       4.402  -0.618  -9.149  1.00  0.00     0.043 A 
ATOM     97  C   UNL     1       4.311  -3.263 -10.027  1.00  0.00     0.003 A 
ATOM     98  C   UNL     1       3.951  -0.925 -10.426  1.00  0.00     0.123 A 
ATOM     99  C   UNL     1       3.869  -2.240 -10.858  1.00  0.00     0.039 A 
ATOM    100  F   UNL     1       3.532   0.063 -11.226  1.00  0.00    -0.207 F 
ENDBRANCH  86  94
ENDBRANCH  84  86
ENDBRANCH  83  84
ENDBRANCH  82  83
ENDBRANCH  81  82
ENDBRANCH  80  81
ENDBRANCH  79  80
ENDBRANCH   1  79
TORSDOF 30
