REMARK SMILES Cc1c(NC(=O)c2ccc(Br)cc2N)cccc1C(=O)OCCOCCOCCOCCOC(=O)c1ccc(-c2c3nc(c(-c4c(F)cc(S(=O)(=O)[O-])cc4F)c4ccc([nH]4)c(-c4c(F)cc(S(=O)(=O)[O-])cc4F)c4nc(c(-c5c(F)cc(S(=O)(=O)[O-])cc5F)c5ccc2[nH]5)C=C4)C=C3)cc1
REMARK SMILES IDX 27 1 26 2 25 3 24 4 23 5 22 6 21 7 19 8 20 9 18 10 1 11 2 12
REMARK SMILES IDX 3 13 15 14 17 15 16 16 4 17 5 18 6 20 7 21 8 22 13 23 9 24
REMARK SMILES IDX 12 25 10 26 11 27 14 28 28 31 29 32 30 33 31 34 32 35 33 36
REMARK SMILES IDX 34 37 35 38 36 39 37 40 101 41 38 42 100 43 39 44 40 45
REMARK SMILES IDX 41 46 94 47 42 48 99 49 93 50 95 51 43 52 98 53 92 54 91 55
REMARK SMILES IDX 44 57 78 58 57 59 77 60 58 61 61 62 76 63 96 64 59 65 60 66
REMARK SMILES IDX 75 68 97 69 62 70 45 71 46 72 55 73 47 74 48 75 54 76 56 77
REMARK SMILES IDX 49 78 50 79 51 80 52 81 53 82 79 83 80 84 89 85 81 86 82 87
REMARK SMILES IDX 88 88 90 89 83 90 84 91 85 92 86 93 87 94 63 95 64 96 73 97
REMARK SMILES IDX 65 98 66 99 72 100 74 101 67 102 68 103 69 104 70 105 71 106
REMARK H PARENT 4 19 14 29 14 30 95 56 61 67
REMARK Flexibility Score: inf
ROOT
ATOM      1  O   UNL     1       1.348   1.214  -2.440  1.00  0.00    -0.377 OA
ENDROOT
BRANCH   1   2
ATOM      2  C   UNL     1       0.002   1.346  -2.857  1.00  0.00     0.188 C 
BRANCH   2   3
ATOM      3  C   UNL     1      -0.969   2.256  -2.091  1.00  0.00     0.188 C 
BRANCH   3   4
ATOM      4  O   UNL     1      -0.706   3.638  -1.943  1.00  0.00    -0.376 OA
BRANCH   4   5
ATOM      5  C   UNL     1       0.194   3.966  -0.892  1.00  0.00     0.202 C 
BRANCH   5   6
ATOM      6  C   UNL     1      -0.273   3.710   0.526  1.00  0.00     0.261 C 
BRANCH   6   7
ATOM      7  O   UNL     1      -0.138   2.325   0.801  1.00  0.00    -0.460 OA
BRANCH   7   8
ATOM      8  C   UNL     1      -1.175   1.804   1.466  1.00  0.00     0.338 C 
ATOM      9  O   UNL     1      -2.005   2.403   2.113  1.00  0.00    -0.246 OA
BRANCH   8  10
ATOM     10  C   UNL     1      -1.367   0.406   1.017  1.00  0.00     0.065 A 
ATOM     11  C   UNL     1       1.082  -0.249   0.508  1.00  0.00     0.047 C 
ATOM     12  C   UNL     1      -0.381  -0.559   0.709  1.00  0.00    -0.013 A 
ATOM     13  C   UNL     1      -0.818  -1.879   0.484  1.00  0.00     0.045 A 
ATOM     14  C   UNL     1      -2.192  -2.162   0.432  1.00  0.00     0.026 A 
ATOM     15  C   UNL     1      -2.729   0.118   0.827  1.00  0.00     0.016 A 
ATOM     16  C   UNL     1      -3.143  -1.157   0.512  1.00  0.00     0.003 A 
BRANCH  13  17
ATOM     17  N   UNL     1       0.149  -2.901   0.328  1.00  0.00    -0.322 N 
ATOM     18  C   UNL     1       0.062  -4.095  -0.354  1.00  0.00     0.257 C 
ATOM     19  H   UNL     1       1.011  -2.734   0.773  1.00  0.00     0.170 HD
ATOM     20  O   UNL     1       0.871  -4.999  -0.157  1.00  0.00    -0.269 OA
BRANCH  18  21
ATOM     21  C   UNL     1      -1.007  -4.281  -1.363  1.00  0.00     0.063 A 
ATOM     22  C   UNL     1      -1.843  -5.392  -1.185  1.00  0.00     0.017 A 
ATOM     23  C   UNL     1      -1.265  -3.328  -2.371  1.00  0.00     0.045 A 
ATOM     24  C   UNL     1      -2.986  -5.529  -1.968  1.00  0.00     0.016 A 
ATOM     25  C   UNL     1      -2.414  -3.491  -3.152  1.00  0.00     0.042 A 
ATOM     26  C   UNL     1      -3.275  -4.567  -2.934  1.00  0.00     0.020 A 
ATOM     27  Br  UNL     1      -4.854  -4.719  -3.962  1.00  0.00    -0.051 Br
BRANCH  23  28
ATOM     28  N   UNL     1      -0.387  -2.302  -2.693  1.00  0.00    -0.398 N 
ATOM     29  H   UNL     1       0.429  -2.167  -2.159  1.00  0.00     0.156 HD
ATOM     30  H   UNL     1      -0.581  -1.710  -3.456  1.00  0.00     0.156 HD
ENDBRANCH  23  28
ENDBRANCH  18  21
ENDBRANCH  13  17
ENDBRANCH   8  10
ENDBRANCH   7   8
ENDBRANCH   6   7
ENDBRANCH   5   6
ENDBRANCH   4   5
ENDBRANCH   3   4
ENDBRANCH   2   3
ENDBRANCH   1   2
BRANCH   1  31
ATOM     31  C   UNL     1       2.337   2.023  -3.090  1.00  0.00     0.188 C 
BRANCH  31  32
ATOM     32  C   UNL     1       2.044   2.563  -4.480  1.00  0.00     0.188 C 
BRANCH  32  33
ATOM     33  O   UNL     1       1.057   3.584  -4.321  1.00  0.00    -0.376 OA
BRANCH  33  34
ATOM     34  C   UNL     1       0.270   3.880  -5.458  1.00  0.00     0.202 C 
BRANCH  34  35
ATOM     35  C   UNL     1       1.087   4.216  -6.707  1.00  0.00     0.261 C 
BRANCH  35  36
ATOM     36  O   UNL     1       1.573   5.584  -6.701  1.00  0.00    -0.460 OA
BRANCH  36  37
ATOM     37  C   UNL     1       2.880   5.841  -6.383  1.00  0.00     0.338 C 
ATOM     38  O   UNL     1       3.708   6.183  -7.213  1.00  0.00    -0.246 OA
BRANCH  37  39
ATOM     39  C   UNL     1       3.110   5.965  -4.917  1.00  0.00     0.060 A 
ATOM     40  C   UNL     1       4.370   5.805  -4.321  1.00  0.00     0.016 A 
ATOM     41  C   UNL     1       2.028   6.231  -4.103  1.00  0.00     0.016 A 
ATOM     42  C   UNL     1       4.503   5.684  -2.919  1.00  0.00     0.010 A 
ATOM     43  C   UNL     1       2.156   6.071  -2.738  1.00  0.00     0.010 A 
ATOM     44  C   UNL     1       3.369   5.735  -2.115  1.00  0.00    -0.014 A 
BRANCH  44  45
ATOM     45  C   UNL     1       3.274   5.376  -0.676  1.00  0.00     0.031 A 
ATOM     46  C   UNL     1       2.484   6.287   0.237  1.00  0.00     0.074 A 
ATOM     47  C   UNL     1       3.527   4.090  -0.303  1.00  0.00     0.049 A 
ATOM     48  N   UNL     1       2.075   5.987   1.421  1.00  0.00    -0.248 NA
ATOM     49  C   UNL     1       2.004   7.615  -0.153  1.00  0.00     0.031 C 
ATOM     50  C   UNL     1       2.942   3.369   0.831  1.00  0.00     0.029 A 
ATOM     51  N   UNL     1       4.271   3.082  -0.891  1.00  0.00    -0.354 N 
ATOM     52  C   UNL     1       1.055   6.847   1.795  1.00  0.00     0.074 A 
ATOM     53  C   UNL     1       1.102   7.888   0.802  1.00  0.00     0.031 C 
ATOM     54  C   UNL     1       3.406   2.114   0.912  1.00  0.00     0.029 A 
ATOM     55  C   UNL     1       4.532   2.058   0.022  1.00  0.00     0.049 A 
ATOM     56  H   UNL     1       4.575   3.087  -1.828  1.00  0.00     0.167 HD
ATOM     57  C   UNL     1       0.239   6.489   2.840  1.00  0.00     0.037 A 
ATOM     58  C   UNL     1       5.792   1.843   0.506  1.00  0.00     0.037 A 
ATOM     59  C   UNL     1       0.786   5.298   3.534  1.00  0.00     0.049 A 
ATOM     60  C   UNL     1       5.827   2.300   1.976  1.00  0.00     0.074 A 
ATOM     61  C   UNL     1       0.297   4.049   3.876  1.00  0.00     0.029 A 
ATOM     62  N   UNL     1       2.154   5.251   3.829  1.00  0.00    -0.354 N 
ATOM     63  N   UNL     1       5.133   3.326   2.437  1.00  0.00    -0.248 NA
ATOM     64  C   UNL     1       6.307   1.438   3.062  1.00  0.00     0.031 C 
ATOM     65  C   UNL     1       1.415   3.205   4.171  1.00  0.00     0.029 A 
ATOM     66  C   UNL     1       2.580   3.966   4.109  1.00  0.00     0.049 A 
ATOM     67  H   UNL     1       2.743   6.040   3.837  1.00  0.00     0.167 HD
ATOM     68  C   UNL     1       4.905   3.152   3.784  1.00  0.00     0.074 A 
ATOM     69  C   UNL     1       5.715   1.991   4.137  1.00  0.00     0.031 C 
ATOM     70  C   UNL     1       3.944   3.735   4.572  1.00  0.00     0.037 A 
BRANCH  57  71
ATOM     71  C   UNL     1      -1.144   7.083   3.189  1.00  0.00     0.058 A 
ATOM     72  C   UNL     1      -1.813   6.695   4.379  1.00  0.00     0.135 A 
ATOM     73  C   UNL     1      -1.909   7.956   2.378  1.00  0.00     0.135 A 
ATOM     74  F   UNL     1      -1.225   5.886   5.271  1.00  0.00    -0.206 F 
ATOM     75  C   UNL     1      -3.108   7.116   4.724  1.00  0.00     0.059 A 
ATOM     76  C   UNL     1      -3.191   8.430   2.728  1.00  0.00     0.059 A 
ATOM     77  F   UNL     1      -1.472   8.369   1.183  1.00  0.00    -0.206 F 
ATOM     78  C   UNL     1      -3.793   7.994   3.899  1.00  0.00     0.060 A 
BRANCH  78  79
ATOM     79  S   UNL     1      -5.434   8.575   4.397  1.00  0.00     0.124 S 
ATOM     80  O   UNL     1      -6.245   7.370   4.263  1.00  0.00    -0.237 OA
ATOM     81  O   UNL     1      -5.203   9.034   5.764  1.00  0.00    -0.237 OA
ATOM     82  O   UNL     1      -5.729   9.633   3.434  1.00  0.00    -0.744 OA
ENDBRANCH  78  79
ENDBRANCH  57  71
BRANCH  58  83
ATOM     83  C   UNL     1       6.778   1.808  -0.627  1.00  0.00     0.058 A 
ATOM     84  C   UNL     1       6.628   0.670  -1.462  1.00  0.00     0.135 A 
ATOM     85  C   UNL     1       7.186   2.994  -1.267  1.00  0.00     0.135 A 
ATOM     86  F   UNL     1       6.276  -0.508  -0.919  1.00  0.00    -0.206 F 
ATOM     87  C   UNL     1       6.600   0.765  -2.855  1.00  0.00     0.059 A 
ATOM     88  C   UNL     1       7.176   3.105  -2.672  1.00  0.00     0.059 A 
ATOM     89  F   UNL     1       7.362   4.115  -0.553  1.00  0.00    -0.206 F 
ATOM     90  C   UNL     1       6.804   2.005  -3.450  1.00  0.00     0.060 A 
BRANCH  90  91
ATOM     91  S   UNL     1       6.330   2.194  -5.196  1.00  0.00     0.124 S 
ATOM     92  O   UNL     1       7.437   1.547  -5.887  1.00  0.00    -0.237 OA
ATOM     93  O   UNL     1       5.047   1.496  -5.246  1.00  0.00    -0.237 OA
ATOM     94  O   UNL     1       6.241   3.638  -5.358  1.00  0.00    -0.744 OA
ENDBRANCH  90  91
ENDBRANCH  58  83
BRANCH  70  95
ATOM     95  C   UNL     1       4.290   4.220   5.965  1.00  0.00     0.058 A 
ATOM     96  C   UNL     1       5.617   4.351   6.403  1.00  0.00     0.135 A 
ATOM     97  C   UNL     1       3.302   4.777   6.820  1.00  0.00     0.135 A 
ATOM     98  F   UNL     1       6.653   3.957   5.649  1.00  0.00    -0.206 F 
ATOM     99  C   UNL     1       5.939   4.929   7.622  1.00  0.00     0.059 A 
ATOM    100  C   UNL     1       3.610   5.416   8.013  1.00  0.00     0.059 A 
ATOM    101  F   UNL     1       1.995   4.751   6.521  1.00  0.00    -0.206 F 
ATOM    102  C   UNL     1       4.931   5.455   8.420  1.00  0.00     0.060 A 
BRANCH 102 103
ATOM    103  S   UNL     1       5.374   6.191   9.994  1.00  0.00     0.124 S 
ATOM    104  O   UNL     1       5.557   5.001  10.818  1.00  0.00    -0.237 OA
ATOM    105  O   UNL     1       6.592   6.926   9.664  1.00  0.00    -0.237 OA
ATOM    106  O   UNL     1       4.218   7.018  10.323  1.00  0.00    -0.744 OA
ENDBRANCH 102 103
ENDBRANCH  70  95
ENDBRANCH  44  45
ENDBRANCH  37  39
ENDBRANCH  36  37
ENDBRANCH  35  36
ENDBRANCH  34  35
ENDBRANCH  33  34
ENDBRANCH  32  33
ENDBRANCH  31  32
ENDBRANCH   1  31
TORSDOF 26
