REMARK SMILES CC1=C[C@H](C)[C@H](CN2C[C@]34C=C[C@H](O3)[C@H](C(=O)OCCOCCOCCOCCOC(=O)c3ccc(-c5c6nc(c(-c7c(F)cc(S(=O)(=O)[O-])cc7F)c7ccc([nH]7)c(-c7c(F)cc(S(=O)(=O)[O-])cc7F)c7nc(c(-c8c(F)cc(S(=O)(=O)[O-])cc8F)c8ccc5[nH]8)C=C7)C=C6)cc3)[C@@H]4C2=O)[C@H](C)C1
REMARK SMILES IDX 25 1 24 2 23 3 22 4 21 5 20 6 19 7 18 8 16 9 17 10 15 11
REMARK SMILES IDX 8 12 9 13 100 14 10 15 99 16 101 17 11 18 14 19 12 20 13 21
REMARK SMILES IDX 7 22 6 23 1 24 2 25 3 26 104 27 4 28 102 29 5 30 103 31
REMARK SMILES IDX 26 32 27 33 28 34 29 35 30 36 31 37 32 38 33 39 34 40 98 41
REMARK SMILES IDX 35 42 97 43 36 44 37 45 38 46 91 47 39 48 96 49 90 50 92 51
REMARK SMILES IDX 40 52 95 53 89 54 88 55 41 57 75 58 54 59 74 60 55 61 58 62
REMARK SMILES IDX 73 63 93 64 56 65 57 66 72 68 94 69 59 70 42 71 43 72 52 73
REMARK SMILES IDX 44 74 45 75 51 76 53 77 46 78 47 79 48 80 49 81 50 82 76 83
REMARK SMILES IDX 77 84 86 85 78 86 79 87 85 88 87 89 80 90 81 91 82 92 83 93
REMARK SMILES IDX 84 94 60 95 61 96 70 97 62 98 63 99 69 100 71 101 64 102
REMARK SMILES IDX 65 103 66 104 67 105 68 106
REMARK H PARENT 92 56 58 67
REMARK Flexibility Score: inf
ROOT
ATOM      1  C   UNL     1       4.295  -2.610  -7.332  1.00  0.00     0.188 C 
ENDROOT
BRANCH   1   2
ATOM      2  O   UNL     1       3.719  -3.671  -6.572  1.00  0.00    -0.377 OA
BRANCH   2   3
ATOM      3  C   UNL     1       4.636  -4.484  -5.873  1.00  0.00     0.188 C 
BRANCH   3   4
ATOM      4  C   UNL     1       4.810  -5.909  -6.412  1.00  0.00     0.188 C 
BRANCH   4   5
ATOM      5  O   UNL     1       4.478  -6.201  -7.761  1.00  0.00    -0.376 OA
BRANCH   5   6
ATOM      6  C   UNL     1       3.189  -5.829  -8.252  1.00  0.00     0.202 C 
BRANCH   6   7
ATOM      7  C   UNL     1       1.925  -6.274  -7.486  1.00  0.00     0.261 C 
BRANCH   7   8
ATOM      8  O   UNL     1       1.891  -5.808  -6.121  1.00  0.00    -0.463 OA
BRANCH   8   9
ATOM      9  C   UNL     1       1.422  -6.668  -5.163  1.00  0.00     0.312 C 
ATOM     10  O   UNL     1       0.898  -7.749  -5.393  1.00  0.00    -0.252 OA
BRANCH   9  11
ATOM     11  C   UNL     1       2.000  -6.282  -3.826  1.00  0.00     0.148 C 
ATOM     12  N   UNL     1      -0.002  -6.314  -0.675  1.00  0.00    -0.339 N 
ATOM     13  C   UNL     1       1.363  -6.239  -0.252  1.00  0.00     0.160 C 
ATOM     14  C   UNL     1       0.010  -6.844  -2.031  1.00  0.00     0.230 C 
ATOM     15  C   UNL     1       2.007  -5.845  -1.552  1.00  0.00     0.117 C 
ATOM     16  C   UNL     1       1.506  -6.923  -2.514  1.00  0.00     0.133 C 
ATOM     17  O   UNL     1      -0.971  -7.105  -2.707  1.00  0.00    -0.274 OA
ATOM     18  C   UNL     1       3.373  -5.245  -1.624  1.00  0.00     0.009 C 
ATOM     19  O   UNL     1       1.312  -4.758  -2.264  1.00  0.00    -0.360 OA
ATOM     20  C   UNL     1       3.376  -4.499  -2.741  1.00  0.00     0.004 C 
ATOM     21  C   UNL     1       2.086  -4.785  -3.467  1.00  0.00     0.157 C 
BRANCH  12  22
ATOM     22  C   UNL     1      -1.027  -5.311  -0.268  1.00  0.00     0.124 C 
BRANCH  22  23
ATOM     23  C   UNL     1      -0.688  -4.060   0.687  1.00  0.00     0.018 C 
ATOM     24  C   UNL     1       0.251   0.296   1.277  1.00  0.00     0.039 C 
ATOM     25  C   UNL     1      -0.152  -1.153   1.368  1.00  0.00    -0.077 C 
ATOM     26  C   UNL     1       0.811  -2.084   1.345  1.00  0.00    -0.025 C 
ATOM     27  C   UNL     1      -1.560  -1.527   0.978  1.00  0.00     0.034 C 
ATOM     28  C   UNL     1       0.587  -3.228   0.389  1.00  0.00     0.014 C 
ATOM     29  C   UNL     1      -1.907  -3.060   0.907  1.00  0.00    -0.005 C 
ATOM     30  C   UNL     1       0.614  -2.600  -1.013  1.00  0.00     0.012 C 
ATOM     31  C   UNL     1      -3.052  -3.218  -0.102  1.00  0.00     0.008 C 
ENDBRANCH  22  23
ENDBRANCH  12  22
ENDBRANCH   9  11
ENDBRANCH   8   9
ENDBRANCH   7   8
ENDBRANCH   6   7
ENDBRANCH   5   6
ENDBRANCH   4   5
ENDBRANCH   3   4
ENDBRANCH   2   3
ENDBRANCH   1   2
BRANCH   1  32
ATOM     32  C   UNL     1       5.542  -2.968  -8.163  1.00  0.00     0.188 C 
BRANCH  32  33
ATOM     33  O   UNL     1       6.652  -3.369  -7.359  1.00  0.00    -0.376 OA
BRANCH  33  34
ATOM     34  C   UNL     1       7.652  -2.394  -7.088  1.00  0.00     0.202 C 
BRANCH  34  35
ATOM     35  C   UNL     1       7.252  -1.245  -6.148  1.00  0.00     0.261 C 
BRANCH  35  36
ATOM     36  O   UNL     1       6.216  -0.369  -6.620  1.00  0.00    -0.460 OA
BRANCH  36  37
ATOM     37  C   UNL     1       6.395   0.230  -7.823  1.00  0.00     0.338 C 
ATOM     38  O   UNL     1       7.366   0.171  -8.533  1.00  0.00    -0.246 OA
BRANCH  37  39
ATOM     39  C   UNL     1       5.094   0.820  -8.213  1.00  0.00     0.060 A 
ATOM     40  C   UNL     1       4.497   0.404  -9.410  1.00  0.00     0.016 A 
ATOM     41  C   UNL     1       4.480   1.782  -7.409  1.00  0.00     0.016 A 
ATOM     42  C   UNL     1       3.297   0.980  -9.825  1.00  0.00     0.010 A 
ATOM     43  C   UNL     1       3.289   2.371  -7.836  1.00  0.00     0.010 A 
ATOM     44  C   UNL     1       2.711   1.998  -9.062  1.00  0.00    -0.014 A 
BRANCH  44  45
ATOM     45  C   UNL     1       1.611   2.811  -9.635  1.00  0.00     0.031 A 
ATOM     46  C   UNL     1       1.958   4.132 -10.265  1.00  0.00     0.074 A 
ATOM     47  C   UNL     1       0.335   2.391  -9.594  1.00  0.00     0.049 A 
ATOM     48  N   UNL     1       1.170   5.045 -10.770  1.00  0.00    -0.248 NA
ATOM     49  C   UNL     1       3.389   4.471 -10.326  1.00  0.00     0.031 C 
ATOM     50  C   UNL     1      -0.120   1.120  -9.034  1.00  0.00     0.029 A 
ATOM     51  N   UNL     1      -0.817   3.006 -10.018  1.00  0.00    -0.354 N 
ATOM     52  C   UNL     1       2.006   6.070 -11.197  1.00  0.00     0.074 A 
ATOM     53  C   UNL     1       3.359   5.680 -10.867  1.00  0.00     0.031 C 
ATOM     54  C   UNL     1      -1.460   1.060  -9.127  1.00  0.00     0.029 A 
ATOM     55  C   UNL     1      -1.958   2.299  -9.724  1.00  0.00     0.049 A 
ATOM     56  H   UNL     1      -0.825   3.871 -10.488  1.00  0.00     0.167 HD
ATOM     57  C   UNL     1       1.675   7.229 -11.813  1.00  0.00     0.037 A 
ATOM     58  C   UNL     1      -3.255   2.629  -9.892  1.00  0.00     0.037 A 
ATOM     59  C   UNL     1       0.326   7.612 -12.135  1.00  0.00     0.049 A 
ATOM     60  C   UNL     1      -3.605   3.948 -10.533  1.00  0.00     0.074 A 
ATOM     61  C   UNL     1      -0.113   8.752 -12.785  1.00  0.00     0.029 A 
ATOM     62  N   UNL     1      -0.804   6.872 -11.818  1.00  0.00    -0.354 N 
ATOM     63  N   UNL     1      -2.805   4.893 -10.969  1.00  0.00    -0.248 NA
ATOM     64  C   UNL     1      -5.034   4.245 -10.711  1.00  0.00     0.031 C 
ATOM     65  C   UNL     1      -1.511   8.728 -12.811  1.00  0.00     0.029 A 
ATOM     66  C   UNL     1      -1.942   7.544 -12.232  1.00  0.00     0.049 A 
ATOM     67  H   UNL     1      -0.798   5.998 -11.364  1.00  0.00     0.167 HD
ATOM     68  C   UNL     1      -3.631   5.882 -11.496  1.00  0.00     0.074 A 
ATOM     69  C   UNL     1      -4.993   5.416 -11.333  1.00  0.00     0.031 C 
ATOM     70  C   UNL     1      -3.293   7.065 -12.068  1.00  0.00     0.037 A 
BRANCH  57  71
ATOM     71  C   UNL     1       2.792   8.180 -12.145  1.00  0.00     0.058 A 
ATOM     72  C   UNL     1       3.733   7.900 -13.149  1.00  0.00     0.135 A 
ATOM     73  C   UNL     1       2.915   9.397 -11.455  1.00  0.00     0.135 A 
ATOM     74  F   UNL     1       3.676   6.742 -13.827  1.00  0.00    -0.206 F 
ATOM     75  C   UNL     1       4.776   8.776 -13.434  1.00  0.00     0.059 A 
ATOM     76  C   UNL     1       3.931  10.302 -11.744  1.00  0.00     0.059 A 
ATOM     77  F   UNL     1       2.045   9.714 -10.483  1.00  0.00    -0.206 F 
ATOM     78  C   UNL     1       4.867   9.975 -12.723  1.00  0.00     0.060 A 
BRANCH  78  79
ATOM     79  S   UNL     1       6.231  11.096 -13.096  1.00  0.00     0.124 S 
ATOM     80  O   UNL     1       7.363  10.382 -12.513  1.00  0.00    -0.237 OA
ATOM     81  O   UNL     1       6.200  11.151 -14.554  1.00  0.00    -0.237 OA
ATOM     82  O   UNL     1       5.852  12.331 -12.416  1.00  0.00    -0.744 OA
ENDBRANCH  78  79
ENDBRANCH  57  71
BRANCH  58  83
ATOM     83  C   UNL     1      -4.320   1.699  -9.429  1.00  0.00     0.058 A 
ATOM     84  C   UNL     1      -5.137   1.015 -10.340  1.00  0.00     0.135 A 
ATOM     85  C   UNL     1      -4.534   1.470  -8.060  1.00  0.00     0.135 A 
ATOM     86  F   UNL     1      -4.981   1.210 -11.659  1.00  0.00    -0.206 F 
ATOM     87  C   UNL     1      -6.135   0.144  -9.913  1.00  0.00     0.059 A 
ATOM     88  C   UNL     1      -5.507   0.584  -7.609  1.00  0.00     0.059 A 
ATOM     89  F   UNL     1      -3.773   2.094  -7.147  1.00  0.00    -0.206 F 
ATOM     90  C   UNL     1      -6.308  -0.069  -8.544  1.00  0.00     0.060 A 
BRANCH  90  91
ATOM     91  S   UNL     1      -7.569  -1.244  -8.004  1.00  0.00     0.124 S 
ATOM     92  O   UNL     1      -8.796  -0.511  -8.291  1.00  0.00    -0.237 OA
ATOM     93  O   UNL     1      -7.297  -2.396  -8.859  1.00  0.00    -0.237 OA
ATOM     94  O   UNL     1      -7.264  -1.436  -6.589  1.00  0.00    -0.744 OA
ENDBRANCH  90  91
ENDBRANCH  58  83
BRANCH  70  95
ATOM     95  C   UNL     1      -4.405   7.930 -12.599  1.00  0.00     0.058 A 
ATOM     96  C   UNL     1      -5.275   8.627 -11.746  1.00  0.00     0.135 A 
ATOM     97  C   UNL     1      -4.559   8.114 -13.983  1.00  0.00     0.135 A 
ATOM     98  F   UNL     1      -5.175   8.484 -10.415  1.00  0.00    -0.206 F 
ATOM     99  C   UNL     1      -6.271   9.460 -12.247  1.00  0.00     0.059 A 
ATOM    100  C   UNL     1      -5.529   8.965 -14.505  1.00  0.00     0.059 A 
ATOM    101  F   UNL     1      -3.747   7.481 -14.844  1.00  0.00    -0.206 F 
ATOM    102  C   UNL     1      -6.388   9.625 -13.629  1.00  0.00     0.060 A 
BRANCH 102 103
ATOM    103  S   UNL     1      -7.659  10.739 -14.264  1.00  0.00     0.124 S 
ATOM    104  O   UNL     1      -8.873   9.963 -14.033  1.00  0.00    -0.237 OA
ATOM    105  O   UNL     1      -7.490  11.919 -13.421  1.00  0.00    -0.237 OA
ATOM    106  O   UNL     1      -7.285  10.919 -15.664  1.00  0.00    -0.744 OA
ENDBRANCH 102 103
ENDBRANCH  70  95
ENDBRANCH  44  45
ENDBRANCH  37  39
ENDBRANCH  36  37
ENDBRANCH  35  36
ENDBRANCH  34  35
ENDBRANCH  33  34
ENDBRANCH  32  33
ENDBRANCH   1  32
TORSDOF 25
