REMARK SMILES CCOc1cnc(C(=O)c2[nH]c3cc(Cl)ccc3c2CC(=O)OCCOCCOCCOCCOC(=O)c2ccc(-c3c4nc(c(-c5c(F)cc(S(=O)(=O)[O-])cc5F)c5ccc([nH]5)c(-c5c(F)cc(S(=O)(=O)[O-])cc5F)c5nc(c(-c6c(F)cc(S(=O)(=O)[O-])cc6F)c6ccc3[nH]6)C=C5)C=C4)cc2)cc1CC
REMARK SMILES IDX 28 1 27 2 26 3 25 4 24 5 23 6 21 7 22 8 20 9 19 10 10 11
REMARK SMILES IDX 11 12 12 13 18 15 13 16 17 17 14 18 16 19 15 20 8 21 9 22
REMARK SMILES IDX 7 23 4 24 5 25 105 26 6 27 104 28 3 29 2 30 1 31 106 32
REMARK SMILES IDX 107 33 29 34 30 35 31 36 32 37 33 38 34 39 35 40 36 41 37 42
REMARK SMILES IDX 38 43 39 44 103 45 40 46 102 47 41 48 42 49 43 50 96 51
REMARK SMILES IDX 44 52 101 53 95 54 97 55 45 56 100 57 94 58 93 59 46 61
REMARK SMILES IDX 80 62 59 63 79 64 60 65 63 66 78 67 98 68 61 69 62 70 77 72
REMARK SMILES IDX 99 73 64 74 47 75 48 76 57 77 49 78 50 79 56 80 58 81 51 82
REMARK SMILES IDX 52 83 53 84 54 85 55 86 81 87 82 88 91 89 83 90 84 91 90 92
REMARK SMILES IDX 92 93 85 94 86 95 87 96 88 97 89 98 65 99 66 100 75 101
REMARK SMILES IDX 67 102 68 103 74 104 76 105 69 106 70 107 71 108 72 109
REMARK SMILES IDX 73 110
REMARK H PARENT 11 14 97 60 63 71
REMARK Flexibility Score: inf
ROOT
ATOM      1  C   UNL     1       7.858  -0.821  -5.347  1.00  0.00     0.188 C 
ENDROOT
BRANCH   1   2
ATOM      2  C   UNL     1       8.427   0.148  -6.382  1.00  0.00     0.188 C 
BRANCH   2   3
ATOM      3  O   UNL     1       9.400  -0.343  -7.279  1.00  0.00    -0.376 OA
BRANCH   3   4
ATOM      4  C   UNL     1      10.617  -0.830  -6.716  1.00  0.00     0.202 C 
BRANCH   4   5
ATOM      5  C   UNL     1      11.256  -0.108  -5.509  1.00  0.00     0.261 C 
BRANCH   5   6
ATOM      6  O   UNL     1      10.502  -0.161  -4.264  1.00  0.00    -0.463 OA
BRANCH   6   7
ATOM      7  C   UNL     1      10.342   1.013  -3.605  1.00  0.00     0.310 C 
ATOM      8  O   UNL     1      10.816   2.076  -4.012  1.00  0.00    -0.252 OA
BRANCH   7   9
ATOM      9  C   UNL     1       9.550   1.006  -2.306  1.00  0.00     0.161 C 
BRANCH   9  10
ATOM     10  C   UNL     1       8.888  -0.237  -1.755  1.00  0.00     0.000 A 
ATOM     11  C   UNL     1       7.543  -0.632  -1.875  1.00  0.00     0.093 A 
ATOM     12  N   UNL     1       7.475  -1.891  -1.310  1.00  0.00    -0.351 N 
ATOM     13  C   UNL     1       8.496  -2.046  -0.406  1.00  0.00     0.048 A 
ATOM     14  H   UNL     1       6.798  -2.573  -1.524  1.00  0.00     0.167 HD
ATOM     15  C   UNL     1       9.426  -1.049  -0.692  1.00  0.00     0.004 A 
ATOM     16  C   UNL     1       8.652  -2.970   0.635  1.00  0.00     0.047 A 
ATOM     17  C   UNL     1      10.582  -0.970   0.115  1.00  0.00     0.012 A 
ATOM     18  C   UNL     1       9.776  -2.826   1.451  1.00  0.00     0.043 A 
ATOM     19  C   UNL     1      10.731  -1.846   1.200  1.00  0.00     0.021 A 
ATOM     20  Cl  UNL     1       9.960  -3.860   2.817  1.00  0.00    -0.084 Cl
BRANCH  11  21
ATOM     21  C   UNL     1       6.419   0.095  -2.474  1.00  0.00     0.227 C 
ATOM     22  O   UNL     1       6.568   1.163  -3.071  1.00  0.00    -0.285 OA
BRANCH  21  23
ATOM     23  C   UNL     1       5.007  -0.385  -2.319  1.00  0.00     0.113 A 
ATOM     24  C   UNL     1       2.315  -0.768  -1.994  1.00  0.00     0.140 A 
ATOM     25  C   UNL     1       2.875  -0.397  -3.210  1.00  0.00     0.158 A 
ATOM     26  C   UNL     1       3.161  -1.079  -0.926  1.00  0.00    -0.002 A 
ATOM     27  N   UNL     1       4.200  -0.207  -3.397  1.00  0.00    -0.249 NA
ATOM     28  C   UNL     1       4.532  -0.831  -1.088  1.00  0.00     0.040 A 
BRANCH  24  29
ATOM     29  O   UNL     1       0.957  -0.832  -1.852  1.00  0.00    -0.492 OA
BRANCH  29  30
ATOM     30  C   UNL     1       0.394   0.472  -1.616  1.00  0.00     0.226 C 
ATOM     31  C   UNL     1       0.198   0.714  -0.127  1.00  0.00     0.049 C 
ENDBRANCH  29  30
ENDBRANCH  24  29
BRANCH  26  32
ATOM     32  C   UNL     1       2.633  -1.567   0.401  1.00  0.00     0.036 C 
ATOM     33  C   UNL     1       3.272  -2.866   0.872  1.00  0.00     0.009 C 
ENDBRANCH  26  32
ENDBRANCH  21  23
ENDBRANCH  11  21
ENDBRANCH   9  10
ENDBRANCH   7   9
ENDBRANCH   6   7
ENDBRANCH   5   6
ENDBRANCH   4   5
ENDBRANCH   3   4
ENDBRANCH   2   3
ENDBRANCH   1   2
BRANCH   1  34
ATOM     34  O   UNL     1       8.643  -1.921  -4.925  1.00  0.00    -0.377 OA
BRANCH  34  35
ATOM     35  C   UNL     1       8.444  -3.204  -5.502  1.00  0.00     0.188 C 
BRANCH  35  36
ATOM     36  C   UNL     1       7.399  -3.340  -6.608  1.00  0.00     0.188 C 
BRANCH  36  37
ATOM     37  O   UNL     1       6.029  -3.100  -6.274  1.00  0.00    -0.376 OA
BRANCH  37  38
ATOM     38  C   UNL     1       5.592  -3.286  -4.930  1.00  0.00     0.202 C 
BRANCH  38  39
ATOM     39  C   UNL     1       5.149  -4.705  -4.595  1.00  0.00     0.261 C 
BRANCH  39  40
ATOM     40  O   UNL     1       6.285  -5.569  -4.456  1.00  0.00    -0.460 OA
BRANCH  40  41
ATOM     41  C   UNL     1       6.561  -6.323  -5.544  1.00  0.00     0.338 C 
ATOM     42  O   UNL     1       5.903  -6.414  -6.568  1.00  0.00    -0.246 OA
BRANCH  41  43
ATOM     43  C   UNL     1       7.902  -6.910  -5.389  1.00  0.00     0.060 A 
ATOM     44  C   UNL     1       8.766  -6.865  -6.491  1.00  0.00     0.016 A 
ATOM     45  C   UNL     1       8.289  -7.534  -4.200  1.00  0.00     0.016 A 
ATOM     46  C   UNL     1      10.003  -7.494  -6.427  1.00  0.00     0.010 A 
ATOM     47  C   UNL     1       9.523  -8.178  -4.141  1.00  0.00     0.010 A 
ATOM     48  C   UNL     1      10.360  -8.197  -5.271  1.00  0.00    -0.014 A 
BRANCH  48  49
ATOM     49  C   UNL     1      11.496  -9.138  -5.326  1.00  0.00     0.031 A 
ATOM     50  C   UNL     1      11.195 -10.589  -5.576  1.00  0.00     0.074 A 
ATOM     51  C   UNL     1      12.758  -8.701  -5.185  1.00  0.00     0.049 A 
ATOM     52  N   UNL     1      12.007 -11.611  -5.611  1.00  0.00    -0.248 NA
ATOM     53  C   UNL     1       9.782 -10.934  -5.815  1.00  0.00     0.031 C 
ATOM     54  C   UNL     1      13.152  -7.307  -4.989  1.00  0.00     0.029 A 
ATOM     55  N   UNL     1      13.940  -9.392  -5.177  1.00  0.00    -0.354 N 
ATOM     56  C   UNL     1      11.206 -12.719  -5.863  1.00  0.00     0.074 A 
ATOM     57  C   UNL     1       9.841 -12.251  -5.943  1.00  0.00     0.031 C 
ATOM     58  C   UNL     1      14.488  -7.247  -4.860  1.00  0.00     0.029 A 
ATOM     59  C   UNL     1      15.035  -8.601  -4.929  1.00  0.00     0.049 A 
ATOM     60  H   UNL     1      14.000 -10.362  -5.333  1.00  0.00     0.167 HD
ATOM     61  C   UNL     1      11.582 -14.009  -6.019  1.00  0.00     0.037 A 
ATOM     62  C   UNL     1      16.326  -8.943  -4.750  1.00  0.00     0.037 A 
ATOM     63  C   UNL     1      12.948 -14.451  -5.933  1.00  0.00     0.049 A 
ATOM     64  C   UNL     1      16.712 -10.396  -4.861  1.00  0.00     0.074 A 
ATOM     65  C   UNL     1      13.449 -15.731  -6.088  1.00  0.00     0.029 A 
ATOM     66  N   UNL     1      14.030 -13.626  -5.660  1.00  0.00    -0.354 N 
ATOM     67  N   UNL     1      15.952 -11.436  -5.117  1.00  0.00    -0.248 NA
ATOM     68  C   UNL     1      18.130 -10.724  -4.663  1.00  0.00     0.031 C 
ATOM     69  C   UNL     1      14.826 -15.688  -5.848  1.00  0.00     0.029 A 
ATOM     70  C   UNL     1      15.194 -14.372  -5.613  1.00  0.00     0.049 A 
ATOM     71  H   UNL     1      13.977 -12.653  -5.521  1.00  0.00     0.167 HD
ATOM     72  C   UNL     1      16.804 -12.535  -5.143  1.00  0.00     0.074 A 
ATOM     73  C   UNL     1      18.138 -12.031  -4.887  1.00  0.00     0.031 C 
ATOM     74  C   UNL     1      16.513 -13.843  -5.364  1.00  0.00     0.037 A 
BRANCH  61  75
ATOM     75  C   UNL     1      10.503 -15.030  -6.256  1.00  0.00     0.058 A 
ATOM     76  C   UNL     1       9.779 -15.084  -7.458  1.00  0.00     0.135 A 
ATOM     77  C   UNL     1      10.207 -15.987  -5.272  1.00  0.00     0.135 A 
ATOM     78  F   UNL     1      10.002 -14.178  -8.424  1.00  0.00    -0.206 F 
ATOM     79  C   UNL     1       8.786 -16.035  -7.667  1.00  0.00     0.059 A 
ATOM     80  C   UNL     1       9.239 -16.967  -5.472  1.00  0.00     0.059 A 
ATOM     81  F   UNL     1      10.861 -15.976  -4.100  1.00  0.00    -0.206 F 
ATOM     82  C   UNL     1       8.525 -16.976  -6.668  1.00  0.00     0.060 A 
BRANCH  82  83
ATOM     83  S   UNL     1       7.244 -18.213  -6.961  1.00  0.00     0.124 S 
ATOM     84  O   UNL     1       6.033 -17.400  -6.896  1.00  0.00    -0.237 OA
ATOM     85  O   UNL     1       7.597 -18.719  -8.284  1.00  0.00    -0.237 OA
ATOM     86  O   UNL     1       7.424 -19.157  -5.863  1.00  0.00    -0.744 OA
ENDBRANCH  82  83
ENDBRANCH  61  75
BRANCH  62  87
ATOM     87  C   UNL     1      17.336  -7.898  -4.433  1.00  0.00     0.058 A 
ATOM     88  C   UNL     1      18.348  -7.563  -5.344  1.00  0.00     0.135 A 
ATOM     89  C   UNL     1      17.304  -7.207  -3.211  1.00  0.00     0.135 A 
ATOM     90  F   UNL     1      18.427  -8.200  -6.522  1.00  0.00    -0.206 F 
ATOM     91  C   UNL     1      19.302  -6.594  -5.050  1.00  0.00     0.059 A 
ATOM     92  C   UNL     1      18.229  -6.214  -2.906  1.00  0.00     0.059 A 
ATOM     93  F   UNL     1      16.350  -7.480  -2.307  1.00  0.00    -0.206 F 
ATOM     94  C   UNL     1      19.231  -5.921  -3.829  1.00  0.00     0.060 A 
BRANCH  94  95
ATOM     95  S   UNL     1      20.448  -4.634  -3.479  1.00  0.00     0.124 S 
ATOM     96  O   UNL     1      21.659  -5.420  -3.276  1.00  0.00    -0.237 OA
ATOM     97  O   UNL     1      20.402  -3.832  -4.697  1.00  0.00    -0.237 OA
ATOM     98  O   UNL     1      19.912  -3.981  -2.287  1.00  0.00    -0.744 OA
ENDBRANCH  94  95
ENDBRANCH  62  87
BRANCH  74  99
ATOM     99  C   UNL     1      17.661 -14.815  -5.382  1.00  0.00     0.058 A 
ATOM    100  C   UNL     1      18.346 -15.178  -4.213  1.00  0.00     0.135 A 
ATOM    101  C   UNL     1      18.038 -15.439  -6.584  1.00  0.00     0.135 A 
ATOM    102  F   UNL     1      18.029 -14.609  -3.039  1.00  0.00    -0.206 F 
ATOM    103  C   UNL     1      19.381 -16.107  -4.237  1.00  0.00     0.059 A 
ATOM    104  C   UNL     1      19.047 -16.395  -6.625  1.00  0.00     0.059 A 
ATOM    105  F   UNL     1      17.406 -15.138  -7.730  1.00  0.00    -0.206 F 
ATOM    106  C   UNL     1      19.721 -16.713  -5.448  1.00  0.00     0.060 A 
BRANCH 106 107
ATOM    107  S   UNL     1      21.042 -17.943  -5.458  1.00  0.00     0.124 S 
ATOM    108  O   UNL     1      22.223 -17.108  -5.263  1.00  0.00    -0.237 OA
ATOM    109  O   UNL     1      20.678 -18.799  -4.334  1.00  0.00    -0.237 OA
ATOM    110  O   UNL     1      20.922 -18.562  -6.775  1.00  0.00    -0.744 OA
ENDBRANCH 106 107
ENDBRANCH  74  99
ENDBRANCH  48  49
ENDBRANCH  41  43
ENDBRANCH  40  41
ENDBRANCH  39  40
ENDBRANCH  38  39
ENDBRANCH  37  38
ENDBRANCH  36  37
ENDBRANCH  35  36
ENDBRANCH  34  35
ENDBRANCH   1  34
TORSDOF 29
