REMARK SMILES Cc1ccccc1C(=O)Nc1cc(C(=O)OCCOCCOCCOCCOC(=O)c2ccc(-c3c4nc(c(-c5c(F)cc(S(=O)(=O)[O-])cc5F)c5ccc([nH]5)c(-c5c(F)cc(S(=O)(=O)[O-])cc5F)c5nc(c(-c6c(F)cc(S(=O)(=O)[O-])cc6F)c6ccc3[nH]6)C=C5)C=C4)cc2)ccc1N1CC[NH+](CC(=O)Nc2ccc(F)cc2)CC1
REMARK SMILES IDX 21 1 20 2 19 3 18 4 17 5 16 6 14 7 15 8 13 9 11 10 12 11
REMARK SMILES IDX 99 12 98 13 97 14 10 15 8 16 9 17 7 19 1 20 2 21 3 22 4 23
REMARK SMILES IDX 6 24 5 25 100 26 101 27 116 28 102 29 115 30 103 31 104 33
REMARK SMILES IDX 105 34 106 35 107 36 108 38 109 39 114 40 110 41 113 42
REMARK SMILES IDX 111 43 112 44 22 45 23 46 24 47 25 48 26 49 27 50 28 51
REMARK SMILES IDX 29 52 30 53 31 54 32 55 96 56 33 57 95 58 34 59 35 60 36 61
REMARK SMILES IDX 89 62 37 63 94 64 88 65 90 66 38 67 93 68 87 69 86 70 39 72
REMARK SMILES IDX 73 73 52 74 72 75 53 76 56 77 71 78 91 79 54 80 55 81 70 83
REMARK SMILES IDX 92 84 57 85 40 86 41 87 50 88 42 89 43 90 49 91 51 92 44 93
REMARK SMILES IDX 45 94 46 95 47 96 48 97 74 98 75 99 84 100 76 101 77 102
REMARK SMILES IDX 83 103 85 104 78 105 79 106 80 107 81 108 82 109 58 110
REMARK SMILES IDX 59 111 68 112 60 113 61 114 67 115 69 116 62 117 63 118
REMARK SMILES IDX 64 119 65 120 66 121
REMARK H PARENT 10 18 103 32 107 37 90 71 56 82
REMARK Flexibility Score: inf
ROOT
ATOM      1  C   UNL     1       5.757  -0.155  -3.069  1.00  0.00     0.188 C 
ENDROOT
BRANCH   1   2
ATOM      2  C   UNL     1       5.622  -1.438  -2.255  1.00  0.00     0.188 C 
BRANCH   2   3
ATOM      3  O   UNL     1       5.977  -2.711  -2.784  1.00  0.00    -0.376 OA
BRANCH   3   4
ATOM      4  C   UNL     1       4.919  -3.671  -2.656  1.00  0.00     0.202 C 
BRANCH   4   5
ATOM      5  C   UNL     1       4.368  -4.020  -1.265  1.00  0.00     0.261 C 
BRANCH   5   6
ATOM      6  O   UNL     1       3.852  -2.892  -0.572  1.00  0.00    -0.460 OA
BRANCH   6   7
ATOM      7  C   UNL     1       4.478  -2.615   0.581  1.00  0.00     0.338 C 
ATOM      8  O   UNL     1       5.104  -3.359   1.296  1.00  0.00    -0.246 OA
BRANCH   7   9
ATOM      9  C   UNL     1       4.588  -1.146   0.612  1.00  0.00     0.062 A 
ATOM     10  C   UNL     1       3.841   1.096   0.159  1.00  0.00     0.065 A 
ATOM     11  C   UNL     1       3.628  -0.268   0.081  1.00  0.00     0.044 A 
ATOM     12  C   UNL     1       5.125   1.588   0.589  1.00  0.00     0.061 A 
ATOM     13  C   UNL     1       6.122   0.650   0.916  1.00  0.00     0.029 A 
ATOM     14  C   UNL     1       5.830  -0.690   1.023  1.00  0.00     0.018 A 
BRANCH  10  15
ATOM     15  N   UNL     1       2.819   2.018  -0.139  1.00  0.00    -0.320 N 
ATOM     16  C   UNL     1       1.470   2.142   0.155  1.00  0.00     0.255 C 
ATOM     17  O   UNL     1       1.034   3.300   0.017  1.00  0.00    -0.269 OA
ATOM     18  H   UNL     1       3.144   2.761  -0.696  1.00  0.00     0.170 HD
BRANCH  16  19
ATOM     19  C   UNL     1       0.473   1.122   0.645  1.00  0.00     0.043 A 
ATOM     20  C   UNL     1       1.834  -0.352   2.296  1.00  0.00     0.045 C 
ATOM     21  C   UNL     1       0.637  -0.004   1.470  1.00  0.00    -0.038 A 
ATOM     22  C   UNL     1      -0.450  -0.891   1.664  1.00  0.00     0.004 A 
ATOM     23  C   UNL     1      -1.733  -0.587   1.235  1.00  0.00     0.000 A 
ATOM     24  C   UNL     1      -0.864   1.432   0.272  1.00  0.00     0.014 A 
ATOM     25  C   UNL     1      -1.953   0.611   0.585  1.00  0.00     0.001 A 
ENDBRANCH  16  19
ENDBRANCH  10  15
BRANCH  12  26
ATOM     26  N   UNL     1       5.371   2.964   0.886  1.00  0.00    -0.359 N 
ATOM     27  C   UNL     1       6.752   3.329   1.347  1.00  0.00     0.178 C 
ATOM     28  C   UNL     1       4.352   3.482   1.802  1.00  0.00     0.178 C 
ATOM     29  C   UNL     1       6.872   4.758   1.941  1.00  0.00     0.284 C 
ATOM     30  C   UNL     1       4.539   4.988   1.999  1.00  0.00     0.284 C 
ATOM     31  N   UNL     1       5.747   5.261   2.746  1.00  0.00    -0.324 N 
ATOM     32  H   UNL     1       5.965   6.250   2.865  1.00  0.00     0.348 HD
BRANCH  31  33
ATOM     33  C   UNL     1       5.611   4.952   4.191  1.00  0.00     0.364 C 
BRANCH  33  34
ATOM     34  C   UNL     1       5.222   3.553   4.709  1.00  0.00     0.279 C 
ATOM     35  O   UNL     1       6.149   2.765   4.974  1.00  0.00    -0.268 OA
ATOM     36  N   UNL     1       3.977   3.084   5.059  1.00  0.00    -0.321 N 
ATOM     37  H   UNL     1       4.097   2.336   5.687  1.00  0.00     0.170 HD
BRANCH  36  38
ATOM     38  C   UNL     1       2.579   3.274   4.854  1.00  0.00     0.041 A 
ATOM     39  C   UNL     1       1.732   2.512   5.683  1.00  0.00     0.029 A 
ATOM     40  C   UNL     1       1.932   3.999   3.858  1.00  0.00     0.029 A 
ATOM     41  C   UNL     1       0.332   2.506   5.531  1.00  0.00     0.041 A 
ATOM     42  C   UNL     1       0.538   3.967   3.659  1.00  0.00     0.041 A 
ATOM     43  C   UNL     1      -0.256   3.235   4.512  1.00  0.00     0.123 A 
ATOM     44  F   UNL     1      -1.585   3.229   4.352  1.00  0.00    -0.207 F 
ENDBRANCH  36  38
ENDBRANCH  33  34
ENDBRANCH  31  33
ENDBRANCH  12  26
ENDBRANCH   7   9
ENDBRANCH   6   7
ENDBRANCH   5   6
ENDBRANCH   4   5
ENDBRANCH   3   4
ENDBRANCH   2   3
ENDBRANCH   1   2
BRANCH   1  45
ATOM     45  O   UNL     1       4.527   0.372  -3.575  1.00  0.00    -0.377 OA
BRANCH  45  46
ATOM     46  C   UNL     1       3.872  -0.400  -4.584  1.00  0.00     0.188 C 
BRANCH  46  47
ATOM     47  C   UNL     1       4.755  -0.709  -5.785  1.00  0.00     0.188 C 
BRANCH  47  48
ATOM     48  O   UNL     1       5.607  -1.809  -5.458  1.00  0.00    -0.376 OA
BRANCH  48  49
ATOM     49  C   UNL     1       6.965  -1.746  -5.873  1.00  0.00     0.202 C 
BRANCH  49  50
ATOM     50  C   UNL     1       7.180  -1.416  -7.349  1.00  0.00     0.261 C 
BRANCH  50  51
ATOM     51  O   UNL     1       6.920  -2.565  -8.182  1.00  0.00    -0.460 OA
BRANCH  51  52
ATOM     52  C   UNL     1       5.713  -2.578  -8.821  1.00  0.00     0.338 C 
ATOM     53  O   UNL     1       5.517  -2.035  -9.893  1.00  0.00    -0.246 OA
BRANCH  52  54
ATOM     54  C   UNL     1       4.714  -3.391  -8.066  1.00  0.00     0.060 A 
ATOM     55  C   UNL     1       3.335  -3.237  -8.270  1.00  0.00     0.016 A 
ATOM     56  C   UNL     1       5.149  -4.159  -7.001  1.00  0.00     0.016 A 
ATOM     57  C   UNL     1       2.407  -3.658  -7.291  1.00  0.00     0.010 A 
ATOM     58  C   UNL     1       4.246  -4.487  -6.010  1.00  0.00     0.010 A 
ATOM     59  C   UNL     1       2.869  -4.211  -6.100  1.00  0.00    -0.014 A 
BRANCH  59  60
ATOM     60  C   UNL     1       2.111  -4.398  -4.827  1.00  0.00     0.031 A 
ATOM     61  C   UNL     1       2.404  -5.650  -4.011  1.00  0.00     0.074 A 
ATOM     62  C   UNL     1       1.585  -3.281  -4.254  1.00  0.00     0.049 A 
ATOM     63  N   UNL     1       2.124  -5.859  -2.768  1.00  0.00    -0.248 NA
ATOM     64  C   UNL     1       3.100  -6.810  -4.585  1.00  0.00     0.031 C 
ATOM     65  C   UNL     1       1.641  -2.905  -2.837  1.00  0.00     0.029 A 
ATOM     66  N   UNL     1       0.980  -2.162  -4.819  1.00  0.00    -0.354 N 
ATOM     67  C   UNL     1       2.847  -6.968  -2.309  1.00  0.00     0.074 A 
ATOM     68  C   UNL     1       3.393  -7.547  -3.506  1.00  0.00     0.031 C 
ATOM     69  C   UNL     1       1.066  -1.714  -2.627  1.00  0.00     0.029 A 
ATOM     70  C   UNL     1       0.329  -1.414  -3.817  1.00  0.00     0.049 A 
ATOM     71  H   UNL     1       1.003  -1.928  -5.775  1.00  0.00     0.167 HD
ATOM     72  C   UNL     1       2.983  -7.187  -0.956  1.00  0.00     0.037 A 
ATOM     73  C   UNL     1      -1.036  -1.369  -3.767  1.00  0.00     0.037 A 
ATOM     74  C   UNL     1       2.065  -6.299  -0.213  1.00  0.00     0.049 A 
ATOM     75  C   UNL     1      -1.635  -2.275  -2.674  1.00  0.00     0.074 A 
ATOM     76  C   UNL     1       2.211  -5.366   0.799  1.00  0.00     0.029 A 
ATOM     77  N   UNL     1       0.745  -6.169  -0.651  1.00  0.00    -0.354 N 
ATOM     78  N   UNL     1      -0.977  -3.265  -2.099  1.00  0.00    -0.248 NA
ATOM     79  C   UNL     1      -2.947  -2.092  -2.055  1.00  0.00     0.031 C 
ATOM     80  C   UNL     1       1.035  -4.561   0.827  1.00  0.00     0.029 A 
ATOM     81  C   UNL     1       0.128  -5.071  -0.091  1.00  0.00     0.049 A 
ATOM     82  H   UNL     1       0.309  -6.785  -1.283  1.00  0.00     0.167 HD
ATOM     83  C   UNL     1      -1.714  -3.823  -1.085  1.00  0.00     0.074 A 
ATOM     84  C   UNL     1      -2.939  -3.042  -1.100  1.00  0.00     0.031 C 
ATOM     85  C   UNL     1      -1.302  -4.864  -0.287  1.00  0.00     0.037 A 
BRANCH  72  86
ATOM     86  C   UNL     1       4.050  -8.059  -0.226  1.00  0.00     0.058 A 
ATOM     87  C   UNL     1       4.064  -8.154   1.194  1.00  0.00     0.135 A 
ATOM     88  C   UNL     1       5.135  -8.744  -0.824  1.00  0.00     0.135 A 
ATOM     89  F   UNL     1       3.094  -7.607   1.938  1.00  0.00    -0.206 F 
ATOM     90  C   UNL     1       5.058  -8.818   1.938  1.00  0.00     0.059 A 
ATOM     91  C   UNL     1       6.116  -9.461  -0.102  1.00  0.00     0.059 A 
ATOM     92  F   UNL     1       5.328  -8.741  -2.147  1.00  0.00    -0.206 F 
ATOM     93  C   UNL     1       6.082  -9.481   1.284  1.00  0.00     0.060 A 
BRANCH  93  94
ATOM     94  S   UNL     1       7.306 -10.396   2.256  1.00  0.00     0.124 S 
ATOM     95  O   UNL     1       8.039  -9.325   2.922  1.00  0.00    -0.237 OA
ATOM     96  O   UNL     1       6.468 -11.221   3.120  1.00  0.00    -0.237 OA
ATOM     97  O   UNL     1       8.063 -11.132   1.247  1.00  0.00    -0.744 OA
ENDBRANCH  93  94
ENDBRANCH  72  86
BRANCH  73  98
ATOM     98  C   UNL     1      -1.549  -0.741  -5.039  1.00  0.00     0.058 A 
ATOM     99  C   UNL     1      -1.147   0.616  -5.164  1.00  0.00     0.135 A 
ATOM    100  C   UNL     1      -1.477  -1.514  -6.215  1.00  0.00     0.135 A 
ATOM    101  F   UNL     1      -1.255   1.435  -4.104  1.00  0.00    -0.206 F 
ATOM    102  C   UNL     1      -0.372   1.056  -6.241  1.00  0.00     0.059 A 
ATOM    103  C   UNL     1      -0.715  -1.086  -7.315  1.00  0.00     0.059 A 
ATOM    104  F   UNL     1      -1.889  -2.791  -6.199  1.00  0.00    -0.206 F 
ATOM    105  C   UNL     1      -0.091   0.165  -7.273  1.00  0.00     0.060 A 
BRANCH 105 106
ATOM    106  S   UNL     1       1.306   0.537  -8.376  1.00  0.00     0.124 S 
ATOM    107  O   UNL     1       0.755   1.578  -9.232  1.00  0.00    -0.237 OA
ATOM    108  O   UNL     1       2.339   0.958  -7.432  1.00  0.00    -0.237 OA
ATOM    109  O   UNL     1       1.559  -0.746  -9.019  1.00  0.00    -0.744 OA
ENDBRANCH 105 106
ENDBRANCH  73  98
BRANCH  85 110
ATOM    110  C   UNL     1      -2.230  -5.811   0.471  1.00  0.00     0.058 A 
ATOM    111  C   UNL     1      -3.589  -5.969   0.162  1.00  0.00     0.135 A 
ATOM    112  C   UNL     1      -1.723  -6.748   1.418  1.00  0.00     0.135 A 
ATOM    113  F   UNL     1      -4.175  -5.279  -0.824  1.00  0.00    -0.206 F 
ATOM    114  C   UNL     1      -4.405  -6.894   0.812  1.00  0.00     0.059 A 
ATOM    115  C   UNL     1      -2.504  -7.732   2.020  1.00  0.00     0.059 A 
ATOM    116  F   UNL     1      -0.434  -6.776   1.782  1.00  0.00    -0.206 F 
ATOM    117  C   UNL     1      -3.856  -7.770   1.739  1.00  0.00     0.060 A 
BRANCH 117 118
ATOM    118  S   UNL     1      -4.919  -8.985   2.527  1.00  0.00     0.124 S 
ATOM    119  O   UNL     1      -5.554  -8.178   3.564  1.00  0.00    -0.237 OA
ATOM    120  O   UNL     1      -5.788  -9.400   1.429  1.00  0.00    -0.237 OA
ATOM    121  O   UNL     1      -3.986 -10.003   2.998  1.00  0.00    -0.744 OA
ENDBRANCH 117 118
ENDBRANCH  85 110
ENDBRANCH  59  60
ENDBRANCH  52  54
ENDBRANCH  51  52
ENDBRANCH  50  51
ENDBRANCH  49  50
ENDBRANCH  48  49
ENDBRANCH  47  48
ENDBRANCH  46  47
ENDBRANCH  45  46
ENDBRANCH   1  45
TORSDOF 29
