REMARK SMILES O=C(OCCOCCOCCOCCOC(=O)c1ccc2c(c1)[C@@H]1C=CC[C@@H]1[C@H](c1ccncc1)N2)c1ccc(-c2c3nc(c(-c4c(F)cc(S(=O)(=O)[O-])cc4F)c4ccc([nH]4)c(-c4c(F)cc(S(=O)(=O)[O-])cc4F)c4nc(c(-c5c(F)cc(S(=O)(=O)[O-])cc5F)c5ccc2[nH]5)C=C4)C=C3)cc1
REMARK SMILES IDX 8 1 7 2 6 3 5 4 4 5 3 6 2 7 1 8 37 9 38 10 102 11 39 12
REMARK SMILES IDX 101 13 40 14 41 15 42 16 95 17 43 18 100 19 94 20 96 21
REMARK SMILES IDX 44 22 99 23 93 24 92 25 45 27 79 28 58 29 78 30 59 31 62 32
REMARK SMILES IDX 77 33 97 34 60 35 61 36 76 38 98 39 63 40 46 41 47 42 56 43
REMARK SMILES IDX 48 44 49 45 55 46 57 47 50 48 51 49 52 50 53 51 54 52 80 53
REMARK SMILES IDX 81 54 90 55 82 56 83 57 89 58 91 59 84 60 85 61 86 62 87 63
REMARK SMILES IDX 88 64 64 65 65 66 74 67 66 68 67 69 73 70 75 71 68 72 69 73
REMARK SMILES IDX 70 74 71 75 72 76 9 77 10 78 11 79 12 80 13 81 14 82 15 83
REMARK SMILES IDX 16 84 17 85 18 86 19 87 23 88 20 89 22 90 21 91 24 92 36 93
REMARK SMILES IDX 25 94 28 95 29 96 26 98 27 99 30 100 31 101 35 102 32 103
REMARK SMILES IDX 34 104 33 105
REMARK H PARENT 96 26 62 37 36 97
REMARK Flexibility Score: inf
ROOT
ATOM      1  C   UNL     1       1.845  -2.274  -1.582  1.00  0.00     0.188 C 
ENDROOT
BRANCH   1   2
ATOM      2  C   UNL     1       2.349  -1.412  -0.422  1.00  0.00     0.188 C 
BRANCH   2   3
ATOM      3  O   UNL     1       3.679  -0.939  -0.631  1.00  0.00    -0.376 OA
BRANCH   3   4
ATOM      4  C   UNL     1       4.580  -1.001   0.473  1.00  0.00     0.202 C 
BRANCH   4   5
ATOM      5  C   UNL     1       4.321  -0.002   1.599  1.00  0.00     0.261 C 
BRANCH   5   6
ATOM      6  O   UNL     1       2.952   0.402   1.707  1.00  0.00    -0.460 OA
BRANCH   6   7
ATOM      7  C   UNL     1       2.302   1.377   1.028  1.00  0.00     0.338 C 
ATOM      8  O   UNL     1       1.112   1.556   1.290  1.00  0.00    -0.246 OA
BRANCH   7   9
ATOM      9  C   UNL     1       2.913   2.239  -0.034  1.00  0.00     0.060 A 
ATOM     10  C   UNL     1       4.020   1.920  -0.824  1.00  0.00     0.016 A 
ATOM     11  C   UNL     1       2.249   3.447  -0.304  1.00  0.00     0.016 A 
ATOM     12  C   UNL     1       4.483   2.763  -1.822  1.00  0.00     0.010 A 
ATOM     13  C   UNL     1       2.712   4.317  -1.292  1.00  0.00     0.010 A 
ATOM     14  C   UNL     1       3.854   3.982  -2.025  1.00  0.00    -0.014 A 
BRANCH  14  15
ATOM     15  C   UNL     1       4.583   4.997  -2.793  1.00  0.00     0.031 A 
ATOM     16  C   UNL     1       5.323   6.027  -2.000  1.00  0.00     0.074 A 
ATOM     17  C   UNL     1       4.667   4.915  -4.129  1.00  0.00     0.049 A 
ATOM     18  N   UNL     1       5.898   7.125  -2.395  1.00  0.00    -0.248 NA
ATOM     19  C   UNL     1       5.428   5.777  -0.549  1.00  0.00     0.031 C 
ATOM     20  C   UNL     1       4.119   3.829  -4.944  1.00  0.00     0.029 A 
ATOM     21  N   UNL     1       5.247   5.758  -5.034  1.00  0.00    -0.354 N 
ATOM     22  C   UNL     1       6.377   7.727  -1.238  1.00  0.00     0.074 A 
ATOM     23  C   UNL     1       6.038   6.871  -0.127  1.00  0.00     0.031 C 
ATOM     24  C   UNL     1       4.370   4.088  -6.238  1.00  0.00     0.029 A 
ATOM     25  C   UNL     1       5.019   5.390  -6.337  1.00  0.00     0.049 A 
ATOM     26  H   UNL     1       5.775   6.548  -4.777  1.00  0.00     0.167 HD
ATOM     27  C   UNL     1       7.024   8.908  -1.131  1.00  0.00     0.037 A 
ATOM     28  C   UNL     1       5.253   6.079  -7.470  1.00  0.00     0.037 A 
ATOM     29  C   UNL     1       7.326   9.715  -2.281  1.00  0.00     0.049 A 
ATOM     30  C   UNL     1       5.881   7.440  -7.333  1.00  0.00     0.074 A 
ATOM     31  C   UNL     1       7.916  10.961  -2.337  1.00  0.00     0.029 A 
ATOM     32  N   UNL     1       7.044   9.337  -3.591  1.00  0.00    -0.354 N 
ATOM     33  N   UNL     1       6.251   8.066  -6.237  1.00  0.00    -0.248 NA
ATOM     34  C   UNL     1       6.114   8.197  -8.566  1.00  0.00     0.031 C 
ATOM     35  C   UNL     1       7.938  11.360  -3.678  1.00  0.00     0.029 A 
ATOM     36  C   UNL     1       7.431  10.332  -4.465  1.00  0.00     0.049 A 
ATOM     37  H   UNL     1       6.629   8.485  -3.855  1.00  0.00     0.167 HD
ATOM     38  C   UNL     1       6.790   9.277  -6.648  1.00  0.00     0.074 A 
ATOM     39  C   UNL     1       6.691   9.296  -8.097  1.00  0.00     0.031 C 
ATOM     40  C   UNL     1       7.326  10.280  -5.906  1.00  0.00     0.037 A 
BRANCH  27  41
ATOM     41  C   UNL     1       7.318   9.405   0.257  1.00  0.00     0.058 A 
ATOM     42  C   UNL     1       8.240   8.771   1.107  1.00  0.00     0.135 A 
ATOM     43  C   UNL     1       6.593  10.490   0.778  1.00  0.00     0.135 A 
ATOM     44  F   UNL     1       8.936   7.706   0.678  1.00  0.00    -0.206 F 
ATOM     45  C   UNL     1       8.395   9.162   2.435  1.00  0.00     0.059 A 
ATOM     46  C   UNL     1       6.756  10.918   2.092  1.00  0.00     0.059 A 
ATOM     47  F   UNL     1       5.687  11.124   0.018  1.00  0.00    -0.206 F 
ATOM     48  C   UNL     1       7.641  10.232   2.920  1.00  0.00     0.060 A 
BRANCH  48  49
ATOM     49  S   UNL     1       7.815  10.697   4.656  1.00  0.00     0.124 S 
ATOM     50  O   UNL     1       7.135   9.591   5.324  1.00  0.00    -0.237 OA
ATOM     51  O   UNL     1       9.264  10.741   4.823  1.00  0.00    -0.237 OA
ATOM     52  O   UNL     1       7.138  11.988   4.733  1.00  0.00    -0.744 OA
ENDBRANCH  48  49
ENDBRANCH  27  41
BRANCH  28  53
ATOM     53  C   UNL     1       4.836   5.511  -8.779  1.00  0.00     0.058 A 
ATOM     54  C   UNL     1       5.777   5.096  -9.731  1.00  0.00     0.135 A 
ATOM     55  C   UNL     1       3.477   5.306  -9.078  1.00  0.00     0.135 A 
ATOM     56  F   UNL     1       7.086   5.273  -9.501  1.00  0.00    -0.206 F 
ATOM     57  C   UNL     1       5.389   4.494 -10.927  1.00  0.00     0.059 A 
ATOM     58  C   UNL     1       3.066   4.684 -10.253  1.00  0.00     0.059 A 
ATOM     59  F   UNL     1       2.532   5.675  -8.199  1.00  0.00    -0.206 F 
ATOM     60  C   UNL     1       4.031   4.282 -11.174  1.00  0.00     0.060 A 
BRANCH  60  61
ATOM     61  S   UNL     1       3.547   3.432 -12.692  1.00  0.00     0.124 S 
ATOM     62  O   UNL     1       3.865   4.432 -13.705  1.00  0.00    -0.237 OA
ATOM     63  O   UNL     1       4.405   2.252 -12.668  1.00  0.00    -0.237 OA
ATOM     64  O   UNL     1       2.125   3.167 -12.493  1.00  0.00    -0.744 OA
ENDBRANCH  60  61
ENDBRANCH  28  53
BRANCH  40  65
ATOM     65  C   UNL     1       7.909  11.445  -6.648  1.00  0.00     0.058 A 
ATOM     66  C   UNL     1       7.103  12.429  -7.234  1.00  0.00     0.135 A 
ATOM     67  C   UNL     1       9.301  11.632  -6.655  1.00  0.00     0.135 A 
ATOM     68  F   UNL     1       5.768  12.287  -7.256  1.00  0.00    -0.206 F 
ATOM     69  C   UNL     1       7.659  13.568  -7.803  1.00  0.00     0.059 A 
ATOM     70  C   UNL     1       9.876  12.776  -7.190  1.00  0.00     0.059 A 
ATOM     71  F   UNL     1      10.110  10.718  -6.094  1.00  0.00    -0.206 F 
ATOM     72  C   UNL     1       9.046  13.738  -7.763  1.00  0.00     0.060 A 
BRANCH  72  73
ATOM     73  S   UNL     1       9.746  15.262  -8.425  1.00  0.00     0.124 S 
ATOM     74  O   UNL     1       9.578  15.063  -9.861  1.00  0.00    -0.237 OA
ATOM     75  O   UNL     1       8.896  16.282  -7.820  1.00  0.00    -0.237 OA
ATOM     76  O   UNL     1      11.125  15.239  -7.945  1.00  0.00    -0.744 OA
ENDBRANCH  72  73
ENDBRANCH  40  65
ENDBRANCH  14  15
ENDBRANCH   7   9
ENDBRANCH   6   7
ENDBRANCH   5   6
ENDBRANCH   4   5
ENDBRANCH   3   4
ENDBRANCH   2   3
ENDBRANCH   1   2
BRANCH   1  77
ATOM     77  O   UNL     1       2.530  -3.506  -1.790  1.00  0.00    -0.377 OA
BRANCH  77  78
ATOM     78  C   UNL     1       3.953  -3.455  -1.742  1.00  0.00     0.188 C 
BRANCH  78  79
ATOM     79  C   UNL     1       4.701  -2.510  -2.716  1.00  0.00     0.188 C 
BRANCH  79  80
ATOM     80  O   UNL     1       3.853  -1.624  -3.424  1.00  0.00    -0.376 OA
BRANCH  80  81
ATOM     81  C   UNL     1       3.609  -1.929  -4.790  1.00  0.00     0.202 C 
BRANCH  81  82
ATOM     82  C   UNL     1       2.986  -3.294  -5.144  1.00  0.00     0.261 C 
BRANCH  82  83
ATOM     83  O   UNL     1       3.521  -4.454  -4.479  1.00  0.00    -0.460 OA
BRANCH  83  84
ATOM     84  C   UNL     1       4.741  -4.906  -4.838  1.00  0.00     0.338 C 
ATOM     85  O   UNL     1       5.461  -4.467  -5.719  1.00  0.00    -0.246 OA
BRANCH  84  86
ATOM     86  C   UNL     1       5.169  -5.897  -3.819  1.00  0.00     0.060 A 
ATOM     87  C   UNL     1       6.336  -5.659  -3.081  1.00  0.00     0.018 A 
ATOM     88  C   UNL     1       4.374  -7.005  -3.520  1.00  0.00     0.022 A 
ATOM     89  C   UNL     1       6.700  -6.526  -2.047  1.00  0.00     0.027 A 
ATOM     90  C   UNL     1       4.781  -7.924  -2.533  1.00  0.00    -0.017 A 
ATOM     91  C   UNL     1       5.969  -7.695  -1.810  1.00  0.00     0.038 A 
ATOM     92  C   UNL     1       3.992  -9.197  -2.341  1.00  0.00     0.049 C 
ATOM     93  N   UNL     1       6.450  -8.636  -0.893  1.00  0.00    -0.378 N 
ATOM     94  C   UNL     1       2.619  -9.012  -1.758  1.00  0.00    -0.023 C 
ATOM     95  C   UNL     1       4.617 -10.202  -1.356  1.00  0.00     0.031 C 
ATOM     96  C   UNL     1       6.130 -10.020  -1.217  1.00  0.00     0.114 C 
ATOM     97  H   UNL     1       6.963  -8.383  -0.092  1.00  0.00     0.161 HD
ATOM     98  C   UNL     1       2.516  -9.519  -0.523  1.00  0.00    -0.030 C 
ATOM     99  C   UNL     1       3.816 -10.076  -0.050  1.00  0.00     0.034 C 
BRANCH  96 100
ATOM    100  C   UNL     1       6.726 -11.034  -0.255  1.00  0.00    -0.022 A 
ATOM    101  C   UNL     1       6.758 -12.381  -0.650  1.00  0.00     0.026 A 
ATOM    102  C   UNL     1       7.198 -10.721   1.022  1.00  0.00     0.026 A 
ATOM    103  C   UNL     1       7.234 -13.336   0.231  1.00  0.00     0.111 A 
ATOM    104  C   UNL     1       7.671 -11.748   1.828  1.00  0.00     0.111 A 
ATOM    105  N   UNL     1       7.695 -13.049   1.464  1.00  0.00    -0.265 NA
ENDBRANCH  96 100
ENDBRANCH  84  86
ENDBRANCH  83  84
ENDBRANCH  82  83
ENDBRANCH  81  82
ENDBRANCH  80  81
ENDBRANCH  79  80
ENDBRANCH  78  79
ENDBRANCH  77  78
ENDBRANCH   1  77
TORSDOF 24
