REMARK SMILES C[C@@H](Oc1ccc(/C=N/NC(=O)c2ccc(I)c(O)c2)cc1)C(=O)OCCOCCOCCOCCOC(=O)c1ccc(-c2c3nc(c(-c4c(F)cc(S(=O)(=O)[O-])cc4F)c4ccc([nH]4)c(-c4c(F)cc(S(=O)(=O)[O-])cc4F)c4nc(c(-c5c(F)cc(S(=O)(=O)[O-])cc5F)c5ccc2[nH]5)C=C4)C=C3)cc1
REMARK SMILES IDX 29 1 28 2 27 3 26 4 25 5 23 6 24 7 2 8 1 9 3 10 4 11 5 12
REMARK SMILES IDX 22 13 6 14 21 15 7 16 8 17 9 18 10 19 11 20 12 22 13 23
REMARK SMILES IDX 14 24 20 25 15 26 18 27 16 28 17 29 19 30 30 32 31 33 32 34
REMARK SMILES IDX 33 35 34 36 35 37 36 38 37 39 38 40 39 41 40 42 41 43 105 44
REMARK SMILES IDX 42 45 104 46 43 47 44 48 45 49 98 50 46 51 103 52 97 53
REMARK SMILES IDX 99 54 47 55 102 56 96 57 95 58 48 60 82 61 61 62 81 63 62 64
REMARK SMILES IDX 65 65 80 66 100 67 63 68 64 69 79 71 101 72 66 73 49 74
REMARK SMILES IDX 50 75 59 76 51 77 52 78 58 79 60 80 53 81 54 82 55 83 56 84
REMARK SMILES IDX 57 85 83 86 84 87 93 88 85 89 86 90 92 91 94 92 87 93 88 94
REMARK SMILES IDX 89 95 90 96 91 97 67 98 68 99 77 100 69 101 70 102 76 103
REMARK SMILES IDX 78 104 71 105 72 106 73 107 74 108 75 109
REMARK H PARENT 10 21 19 31 99 59 65 70
REMARK Flexibility Score: inf
ROOT
ATOM      1  C   UNL     1      -2.429  -2.154   0.756  1.00  0.00     0.188 C 
ENDROOT
BRANCH   1   2
ATOM      2  O   UNL     1      -3.747  -1.713   1.029  1.00  0.00    -0.376 OA
BRANCH   2   3
ATOM      3  C   UNL     1      -4.032  -0.349   1.322  1.00  0.00     0.202 C 
BRANCH   3   4
ATOM      4  C   UNL     1      -3.089   0.571   2.117  1.00  0.00     0.261 C 
BRANCH   4   5
ATOM      5  O   UNL     1      -1.764   0.742   1.591  1.00  0.00    -0.461 OA
BRANCH   5   6
ATOM      6  C   UNL     1      -0.757   0.211   2.324  1.00  0.00     0.347 C 
ATOM      7  O   UNL     1      -0.922  -0.428   3.362  1.00  0.00    -0.248 OA
BRANCH   6   8
ATOM      8  C   UNL     1       0.637   0.469   1.759  1.00  0.00     0.279 C 
ATOM      9  C   UNL     1       0.775   0.857   0.290  1.00  0.00     0.066 C 
BRANCH   8  10
ATOM     10  O   UNL     1       1.181   1.502   2.602  1.00  0.00    -0.479 OA
BRANCH  10  11
ATOM     11  C   UNL     1       2.515   1.330   2.822  1.00  0.00     0.120 A 
ATOM     12  C   UNL     1       2.942   1.130   4.134  1.00  0.00     0.047 A 
ATOM     13  C   UNL     1       3.433   1.415   1.779  1.00  0.00     0.047 A 
ATOM     14  C   UNL     1       4.305   0.992   4.399  1.00  0.00     0.013 A 
ATOM     15  C   UNL     1       4.773   1.181   2.022  1.00  0.00     0.013 A 
ATOM     16  C   UNL     1       5.204   1.001   3.333  1.00  0.00    -0.005 A 
BRANCH  16  17
ATOM     17  C   UNL     1       6.652   0.964   3.529  1.00  0.00     0.141 C 
ATOM     18  N   UNL     1       7.226   1.824   4.304  1.00  0.00    -0.180 NA
BRANCH  18  19
ATOM     19  N   UNL     1       8.587   1.891   4.266  1.00  0.00    -0.243 N 
ATOM     20  C   UNL     1       9.437   1.914   3.171  1.00  0.00     0.271 C 
ATOM     21  H   UNL     1       9.031   1.928   5.144  1.00  0.00     0.194 HD
ATOM     22  O   UNL     1      10.657   1.891   3.329  1.00  0.00    -0.267 OA
BRANCH  20  23
ATOM     23  C   UNL     1       8.908   1.956   1.785  1.00  0.00     0.045 A 
ATOM     24  C   UNL     1       9.448   1.058   0.855  1.00  0.00     0.015 A 
ATOM     25  C   UNL     1       7.895   2.843   1.397  1.00  0.00     0.061 A 
ATOM     26  C   UNL     1       8.933   0.996  -0.442  1.00  0.00     0.019 A 
ATOM     27  C   UNL     1       7.374   2.767   0.102  1.00  0.00     0.129 A 
ATOM     28  C   UNL     1       7.883   1.839  -0.814  1.00  0.00     0.055 A 
ATOM     29  I   UNL     1       7.084   1.625  -2.735  1.00  0.00    -0.040 I 
BRANCH  27  30
ATOM     30  O   UNL     1       6.316   3.560  -0.247  1.00  0.00    -0.507 OA
ATOM     31  H   UNL     1       5.962   3.514  -1.113  1.00  0.00     0.293 HD
ENDBRANCH  27  30
ENDBRANCH  20  23
ENDBRANCH  18  19
ENDBRANCH  16  17
ENDBRANCH  10  11
ENDBRANCH   8  10
ENDBRANCH   6   8
ENDBRANCH   5   6
ENDBRANCH   4   5
ENDBRANCH   3   4
ENDBRANCH   2   3
ENDBRANCH   1   2
BRANCH   1  32
ATOM     32  C   UNL     1      -1.645  -1.554  -0.414  1.00  0.00     0.188 C 
BRANCH  32  33
ATOM     33  O   UNL     1      -2.046  -0.250  -0.774  1.00  0.00    -0.377 OA
BRANCH  33  34
ATOM     34  C   UNL     1      -3.005  -0.052  -1.801  1.00  0.00     0.188 C 
BRANCH  34  35
ATOM     35  C   UNL     1      -3.955  -1.202  -2.165  1.00  0.00     0.188 C 
BRANCH  35  36
ATOM     36  O   UNL     1      -3.304  -2.448  -2.361  1.00  0.00    -0.376 OA
BRANCH  36  37
ATOM     37  C   UNL     1      -2.888  -2.800  -3.673  1.00  0.00     0.202 C 
BRANCH  37  38
ATOM     38  C   UNL     1      -1.890  -1.879  -4.396  1.00  0.00     0.261 C 
BRANCH  38  39
ATOM     39  O   UNL     1      -2.326  -0.536  -4.677  1.00  0.00    -0.460 OA
BRANCH  39  40
ATOM     40  C   UNL     1      -3.485  -0.357  -5.340  1.00  0.00     0.338 C 
ATOM     41  O   UNL     1      -4.198  -1.225  -5.819  1.00  0.00    -0.246 OA
BRANCH  40  42
ATOM     42  C   UNL     1      -3.864   1.066  -5.216  1.00  0.00     0.060 A 
ATOM     43  C   UNL     1      -5.062   1.397  -4.571  1.00  0.00     0.016 A 
ATOM     44  C   UNL     1      -3.047   2.069  -5.743  1.00  0.00     0.016 A 
ATOM     45  C   UNL     1      -5.463   2.731  -4.478  1.00  0.00     0.010 A 
ATOM     46  C   UNL     1      -3.462   3.403  -5.669  1.00  0.00     0.010 A 
ATOM     47  C   UNL     1      -4.686   3.739  -5.063  1.00  0.00    -0.014 A 
BRANCH  47  48
ATOM     48  C   UNL     1      -5.231   5.114  -5.188  1.00  0.00     0.031 A 
ATOM     49  C   UNL     1      -5.831   5.534  -6.504  1.00  0.00     0.074 A 
ATOM     50  C   UNL     1      -5.214   5.969  -4.149  1.00  0.00     0.049 A 
ATOM     51  N   UNL     1      -6.308   6.696  -6.866  1.00  0.00    -0.248 NA
ATOM     52  C   UNL     1      -5.902   4.502  -7.553  1.00  0.00     0.031 C 
ATOM     53  C   UNL     1      -4.703   5.665  -2.813  1.00  0.00     0.029 A 
ATOM     54  N   UNL     1      -5.628   7.275  -4.061  1.00  0.00    -0.354 N 
ATOM     55  C   UNL     1      -6.724   6.541  -8.184  1.00  0.00     0.074 A 
ATOM     56  C   UNL     1      -6.423   5.179  -8.566  1.00  0.00     0.031 C 
ATOM     57  C   UNL     1      -4.817   6.762  -2.043  1.00  0.00     0.029 A 
ATOM     58  C   UNL     1      -5.373   7.855  -2.840  1.00  0.00     0.049 A 
ATOM     59  H   UNL     1      -6.067   7.752  -4.802  1.00  0.00     0.167 HD
ATOM     60  C   UNL     1      -7.308   7.452  -8.998  1.00  0.00     0.037 A 
ATOM     61  C   UNL     1      -5.538   9.128  -2.425  1.00  0.00     0.037 A 
ATOM     62  C   UNL     1      -7.608   8.805  -8.609  1.00  0.00     0.049 A 
ATOM     63  C   UNL     1      -6.122  10.143  -3.377  1.00  0.00     0.074 A 
ATOM     64  C   UNL     1      -8.222   9.797  -9.355  1.00  0.00     0.029 A 
ATOM     65  N   UNL     1      -7.311   9.362  -7.374  1.00  0.00    -0.354 N 
ATOM     66  N   UNL     1      -6.537   9.977  -4.612  1.00  0.00    -0.248 NA
ATOM     67  C   UNL     1      -6.263  11.520  -2.881  1.00  0.00     0.031 C 
ATOM     68  C   UNL     1      -8.237  10.970  -8.594  1.00  0.00     0.029 A 
ATOM     69  C   UNL     1      -7.697  10.692  -7.349  1.00  0.00     0.049 A 
ATOM     70  H   UNL     1      -6.887   8.883  -6.625  1.00  0.00     0.167 HD
ATOM     71  C   UNL     1      -7.016  11.217  -5.025  1.00  0.00     0.074 A 
ATOM     72  C   UNL     1      -6.853  12.120  -3.905  1.00  0.00     0.031 C 
ATOM     73  C   UNL     1      -7.541  11.578  -6.222  1.00  0.00     0.037 A 
BRANCH  60  74
ATOM     74  C   UNL     1      -7.639   7.032 -10.404  1.00  0.00     0.058 A 
ATOM     75  C   UNL     1      -8.688   6.143 -10.687  1.00  0.00     0.135 A 
ATOM     76  C   UNL     1      -6.941   7.586 -11.490  1.00  0.00     0.135 A 
ATOM     77  F   UNL     1      -9.375   5.567  -9.687  1.00  0.00    -0.206 F 
ATOM     78  C   UNL     1      -9.026   5.810 -11.995  1.00  0.00     0.059 A 
ATOM     79  C   UNL     1      -7.280   7.290 -12.807  1.00  0.00     0.059 A 
ATOM     80  F   UNL     1      -5.925   8.437 -11.277  1.00  0.00    -0.206 F 
ATOM     81  C   UNL     1      -8.321   6.395 -13.048  1.00  0.00     0.060 A 
BRANCH  81  82
ATOM     82  S   UNL     1      -8.799   5.981 -14.739  1.00  0.00     0.124 S 
ATOM     83  O   UNL     1      -8.362   4.592 -14.835  1.00  0.00    -0.237 OA
ATOM     84  O   UNL     1     -10.243   6.191 -14.713  1.00  0.00    -0.237 OA
ATOM     85  O   UNL     1      -8.045   6.932 -15.550  1.00  0.00    -0.744 OA
ENDBRANCH  81  82
ENDBRANCH  60  74
BRANCH  61  86
ATOM     86  C   UNL     1      -5.117   9.534  -1.055  1.00  0.00     0.058 A 
ATOM     87  C   UNL     1      -6.053   9.956  -0.099  1.00  0.00     0.135 A 
ATOM     88  C   UNL     1      -3.762   9.543  -0.686  1.00  0.00     0.135 A 
ATOM     89  F   UNL     1      -7.360   9.979  -0.404  1.00  0.00    -0.206 F 
ATOM     90  C   UNL     1      -5.662  10.396   1.162  1.00  0.00     0.059 A 
ATOM     91  C   UNL     1      -3.349   9.947   0.580  1.00  0.00     0.059 A 
ATOM     92  F   UNL     1      -2.824   9.143  -1.558  1.00  0.00    -0.206 F 
ATOM     93  C   UNL     1      -4.306  10.388   1.492  1.00  0.00     0.060 A 
BRANCH  93  94
ATOM     94  S   UNL     1      -3.811  10.937   3.140  1.00  0.00     0.124 S 
ATOM     95  O   UNL     1      -4.042  12.374   3.052  1.00  0.00    -0.237 OA
ATOM     96  O   UNL     1      -4.728  10.194   3.997  1.00  0.00    -0.237 OA
ATOM     97  O   UNL     1      -2.413  10.526   3.224  1.00  0.00    -0.744 OA
ENDBRANCH  93  94
ENDBRANCH  61  86
BRANCH  73  98
ATOM     98  C   UNL     1      -8.023  12.997  -6.377  1.00  0.00     0.058 A 
ATOM     99  C   UNL     1      -7.134  14.080  -6.445  1.00  0.00     0.135 A 
ATOM    100  C   UNL     1      -9.395  13.269  -6.514  1.00  0.00     0.135 A 
ATOM    101  F   UNL     1      -5.813  13.880  -6.315  1.00  0.00    -0.206 F 
ATOM    102  C   UNL     1      -7.588  15.385  -6.615  1.00  0.00     0.059 A 
ATOM    103  C   UNL     1      -9.869  14.561  -6.720  1.00  0.00     0.059 A 
ATOM    104  F   UNL     1     -10.291  12.269  -6.470  1.00  0.00    -0.206 F 
ATOM    105  C   UNL     1      -8.958  15.614  -6.755  1.00  0.00     0.060 A 
BRANCH 105 106
ATOM    106  S   UNL     1      -9.530  17.308  -7.007  1.00  0.00     0.124 S 
ATOM    107  O   UNL     1      -9.310  17.892  -5.688  1.00  0.00    -0.237 OA
ATOM    108  O   UNL     1      -8.643  17.782  -8.066  1.00  0.00    -0.237 OA
ATOM    109  O   UNL     1     -10.927  17.143  -7.395  1.00  0.00    -0.744 OA
ENDBRANCH 105 106
ENDBRANCH  73  98
ENDBRANCH  47  48
ENDBRANCH  40  42
ENDBRANCH  39  40
ENDBRANCH  38  39
ENDBRANCH  37  38
ENDBRANCH  36  37
ENDBRANCH  35  36
ENDBRANCH  34  35
ENDBRANCH  33  34
ENDBRANCH  32  33
ENDBRANCH   1  32
TORSDOF 29
