REMARK SMILES CS(=O)(=O)c1ccc(-n2nc(C(F)(F)F)cc2-c2ccc(CC(=O)OCCOCCOCCOCCOC(=O)c3ccc(-c4c5nc(c(-c6c(F)cc(S(=O)(=O)[O-])cc6F)c6ccc([nH]6)c(-c6c(F)cc(S(=O)(=O)[O-])cc6F)c6nc(c(-c7c(F)cc(S(=O)(=O)[O-])cc7F)c7ccc4[nH]7)C=C6)C=C5)cc3)cc2)cc1
REMARK SMILES IDX 30 1 29 2 28 3 27 4 26 5 25 6 23 7 24 8 22 9 21 10 18 11
REMARK SMILES IDX 19 12 107 13 20 14 106 15 17 16 9 17 10 18 11 19 16 20 8 21
REMARK SMILES IDX 5 22 6 23 109 24 7 25 108 26 2 27 1 28 3 29 4 30 12 31 13 32
REMARK SMILES IDX 14 33 15 34 31 35 32 36 33 37 34 38 35 39 36 40 37 41 38 42
REMARK SMILES IDX 39 43 40 44 41 45 105 46 42 47 104 48 43 49 44 50 45 51
REMARK SMILES IDX 98 52 46 53 103 54 97 55 99 56 47 57 102 58 96 59 95 60
REMARK SMILES IDX 48 62 82 63 61 64 81 65 62 66 65 67 80 68 100 69 63 70 64 71
REMARK SMILES IDX 79 73 101 74 66 75 49 76 50 77 59 78 51 79 52 80 58 81 60 82
REMARK SMILES IDX 53 83 54 84 55 85 56 86 57 87 83 88 84 89 93 90 85 91 86 92
REMARK SMILES IDX 92 93 94 94 87 95 88 96 89 97 90 98 91 99 67 100 68 101
REMARK SMILES IDX 77 102 69 103 70 104 76 105 78 106 71 107 72 108 73 109
REMARK SMILES IDX 74 110 75 111
REMARK H PARENT 99 61 65 72
REMARK Flexibility Score: inf
ROOT
ATOM      1  C   UNL     1      -1.668  -3.429  -2.858  1.00  0.00     0.188 C 
ENDROOT
BRANCH   1   2
ATOM      2  C   UNL     1      -2.191  -3.004  -4.231  1.00  0.00     0.188 C 
BRANCH   2   3
ATOM      3  O   UNL     1      -3.249  -2.083  -4.243  1.00  0.00    -0.376 OA
BRANCH   3   4
ATOM      4  C   UNL     1      -4.511  -2.438  -3.722  1.00  0.00     0.202 C 
BRANCH   4   5
ATOM      5  C   UNL     1      -4.853  -3.775  -3.008  1.00  0.00     0.261 C 
BRANCH   5   6
ATOM      6  O   UNL     1      -3.905  -4.873  -2.993  1.00  0.00    -0.463 OA
BRANCH   6   7
ATOM      7  C   UNL     1      -3.828  -5.676  -4.074  1.00  0.00     0.310 C 
ATOM      8  O   UNL     1      -4.627  -5.582  -5.006  1.00  0.00    -0.252 OA
BRANCH   7   9
ATOM      9  C   UNL     1      -2.648  -6.663  -4.152  1.00  0.00     0.158 C 
BRANCH   9  10
ATOM     10  C   UNL     1      -1.464  -6.798  -3.172  1.00  0.00    -0.037 A 
ATOM     11  C   UNL     1       0.878  -7.267  -1.484  1.00  0.00     0.000 A 
ATOM     12  C   UNL     1       0.948  -6.468  -2.629  1.00  0.00     0.010 A 
ATOM     13  C   UNL     1      -0.383  -7.839  -1.214  1.00  0.00     0.010 A 
ATOM     14  C   UNL     1      -0.188  -6.262  -3.466  1.00  0.00     0.005 A 
ATOM     15  C   UNL     1      -1.532  -7.596  -2.024  1.00  0.00     0.005 A 
BRANCH  11  16
ATOM     16  C   UNL     1       2.093  -7.628  -0.682  1.00  0.00     0.075 A 
ATOM     17  N   UNL     1       3.105  -6.795  -0.139  1.00  0.00    -0.233 N 
ATOM     18  N   UNL     1       4.138  -7.510   0.354  1.00  0.00    -0.163 NA
ATOM     19  C   UNL     1       3.764  -8.792   0.309  1.00  0.00     0.167 A 
ATOM     20  C   UNL     1       2.541  -8.917  -0.397  1.00  0.00     0.064 A 
BRANCH  17  21
ATOM     21  C   UNL     1       3.169  -5.386   0.036  1.00  0.00     0.065 A 
ATOM     22  C   UNL     1       3.284  -2.502   0.331  1.00  0.00     0.067 A 
ATOM     23  C   UNL     1       2.148  -3.308   0.437  1.00  0.00     0.022 A 
ATOM     24  C   UNL     1       4.440  -3.242   0.254  1.00  0.00     0.022 A 
ATOM     25  C   UNL     1       2.019  -4.689   0.228  1.00  0.00     0.030 A 
ATOM     26  C   UNL     1       4.387  -4.670   0.157  1.00  0.00     0.030 A 
BRANCH  22  27
ATOM     27  S   UNL     1       3.259  -0.657   0.598  1.00  0.00     0.175 S 
ATOM     28  C   UNL     1       2.815   0.356  -0.752  1.00  0.00     0.163 C 
ATOM     29  O   UNL     1       4.643  -0.239   0.826  1.00  0.00    -0.224 OA
ATOM     30  O   UNL     1       2.246  -0.363   1.548  1.00  0.00    -0.224 OA
ENDBRANCH  22  27
ENDBRANCH  17  21
BRANCH  19  31
ATOM     31  C   UNL     1       4.601  -9.889   0.923  1.00  0.00     0.435 C 
ATOM     32  F   UNL     1       5.926  -9.610   0.930  1.00  0.00    -0.164 F 
ATOM     33  F   UNL     1       4.228 -10.145   2.205  1.00  0.00    -0.164 F 
ATOM     34  F   UNL     1       4.452 -11.060   0.242  1.00  0.00    -0.164 F 
ENDBRANCH  19  31
ENDBRANCH  11  16
ENDBRANCH   9  10
ENDBRANCH   7   9
ENDBRANCH   6   7
ENDBRANCH   5   6
ENDBRANCH   4   5
ENDBRANCH   3   4
ENDBRANCH   2   3
ENDBRANCH   1   2
BRANCH   1  35
ATOM     35  O   UNL     1      -2.151  -2.893  -1.646  1.00  0.00    -0.377 OA
BRANCH  35  36
ATOM     36  C   UNL     1      -2.457  -1.520  -1.472  1.00  0.00     0.188 C 
BRANCH  36  37
ATOM     37  C   UNL     1      -1.644  -0.412  -2.162  1.00  0.00     0.188 C 
BRANCH  37  38
ATOM     38  O   UNL     1      -0.828  -0.851  -3.221  1.00  0.00    -0.376 OA
BRANCH  38  39
ATOM     39  C   UNL     1       0.451  -1.256  -2.815  1.00  0.00     0.202 C 
BRANCH  39  40
ATOM     40  C   UNL     1       0.654  -1.923  -1.441  1.00  0.00     0.261 C 
BRANCH  40  41
ATOM     41  O   UNL     1      -0.187  -1.914  -0.193  1.00  0.00    -0.460 OA
BRANCH  41  42
ATOM     42  C   UNL     1      -0.421  -1.006   0.815  1.00  0.00     0.338 C 
ATOM     43  O   UNL     1      -0.598   0.188   0.615  1.00  0.00    -0.246 OA
BRANCH  42  44
ATOM     44  C   UNL     1      -0.358  -1.568   2.264  1.00  0.00     0.060 A 
ATOM     45  C   UNL     1       0.017  -0.621   3.221  1.00  0.00     0.016 A 
ATOM     46  C   UNL     1       0.038  -2.873   2.535  1.00  0.00     0.016 A 
ATOM     47  C   UNL     1       1.195  -0.829   3.971  1.00  0.00     0.010 A 
ATOM     48  C   UNL     1       1.274  -3.055   3.194  1.00  0.00     0.010 A 
ATOM     49  C   UNL     1       1.971  -1.986   3.774  1.00  0.00    -0.014 A 
BRANCH  49  50
ATOM     50  C   UNL     1       3.219  -2.259   4.564  1.00  0.00     0.031 A 
ATOM     51  C   UNL     1       2.689  -2.626   5.892  1.00  0.00     0.074 A 
ATOM     52  C   UNL     1       4.564  -2.346   4.325  1.00  0.00     0.049 A 
ATOM     53  N   UNL     1       2.422  -1.783   6.838  1.00  0.00    -0.248 NA
ATOM     54  C   UNL     1       1.941  -3.894   5.991  1.00  0.00     0.031 C 
ATOM     55  C   UNL     1       5.332  -2.151   3.112  1.00  0.00     0.029 A 
ATOM     56  N   UNL     1       5.601  -2.673   5.192  1.00  0.00    -0.354 N 
ATOM     57  C   UNL     1       1.745  -2.553   7.766  1.00  0.00     0.074 A 
ATOM     58  C   UNL     1       1.136  -3.606   7.014  1.00  0.00     0.031 C 
ATOM     59  C   UNL     1       6.596  -2.623   3.190  1.00  0.00     0.029 A 
ATOM     60  C   UNL     1       6.824  -3.025   4.551  1.00  0.00     0.049 A 
ATOM     61  H   UNL     1       5.497  -2.662   6.171  1.00  0.00     0.167 HD
ATOM     62  C   UNL     1       2.179  -2.570   9.053  1.00  0.00     0.037 A 
ATOM     63  C   UNL     1       7.989  -3.489   5.102  1.00  0.00     0.037 A 
ATOM     64  C   UNL     1       2.973  -1.385   9.322  1.00  0.00     0.049 A 
ATOM     65  C   UNL     1       7.922  -3.137   6.543  1.00  0.00     0.074 A 
ATOM     66  C   UNL     1       2.758  -0.027   9.165  1.00  0.00     0.029 A 
ATOM     67  N   UNL     1       4.338  -1.546   9.374  1.00  0.00    -0.354 N 
ATOM     68  N   UNL     1       7.967  -1.903   6.971  1.00  0.00    -0.248 NA
ATOM     69  C   UNL     1       7.201  -4.083   7.381  1.00  0.00     0.031 C 
ATOM     70  C   UNL     1       3.988   0.493   8.666  1.00  0.00     0.029 A 
ATOM     71  C   UNL     1       4.933  -0.532   8.668  1.00  0.00     0.049 A 
ATOM     72  H   UNL     1       4.811  -2.271   9.843  1.00  0.00     0.167 HD
ATOM     73  C   UNL     1       6.899  -1.815   7.853  1.00  0.00     0.074 A 
ATOM     74  C   UNL     1       6.462  -3.200   8.058  1.00  0.00     0.031 C 
ATOM     75  C   UNL     1       6.256  -0.633   8.088  1.00  0.00     0.037 A 
BRANCH  62  76
ATOM     76  C   UNL     1       2.304  -3.854   9.852  1.00  0.00     0.058 A 
ATOM     77  C   UNL     1       2.705  -3.747  11.195  1.00  0.00     0.135 A 
ATOM     78  C   UNL     1       2.306  -5.176   9.333  1.00  0.00     0.135 A 
ATOM     79  F   UNL     1       2.720  -2.552  11.807  1.00  0.00    -0.206 F 
ATOM     80  C   UNL     1       3.165  -4.840  11.927  1.00  0.00     0.059 A 
ATOM     81  C   UNL     1       2.726  -6.281  10.054  1.00  0.00     0.059 A 
ATOM     82  F   UNL     1       1.961  -5.499   8.086  1.00  0.00    -0.206 F 
ATOM     83  C   UNL     1       3.185  -6.101  11.339  1.00  0.00     0.060 A 
BRANCH  83  84
ATOM     84  S   UNL     1       3.817  -7.506  12.256  1.00  0.00     0.124 S 
ATOM     85  O   UNL     1       5.225  -7.156  12.390  1.00  0.00    -0.237 OA
ATOM     86  O   UNL     1       3.017  -7.442  13.475  1.00  0.00    -0.237 OA
ATOM     87  O   UNL     1       3.526  -8.639  11.382  1.00  0.00    -0.744 OA
ENDBRANCH  83  84
ENDBRANCH  62  76
BRANCH  63  88
ATOM     88  C   UNL     1       8.930  -4.545   4.583  1.00  0.00     0.058 A 
ATOM     89  C   UNL     1      10.115  -4.904   5.267  1.00  0.00     0.135 A 
ATOM     90  C   UNL     1       8.532  -5.437   3.569  1.00  0.00     0.135 A 
ATOM     91  F   UNL     1      10.594  -4.120   6.247  1.00  0.00    -0.206 F 
ATOM     92  C   UNL     1      10.806  -6.106   5.017  1.00  0.00     0.059 A 
ATOM     93  C   UNL     1       9.200  -6.637   3.303  1.00  0.00     0.059 A 
ATOM     94  F   UNL     1       7.421  -5.212   2.853  1.00  0.00    -0.206 F 
ATOM     95  C   UNL     1      10.318  -6.985   4.052  1.00  0.00     0.060 A 
BRANCH  95  96
ATOM     96  S   UNL     1      11.063  -8.629   3.854  1.00  0.00     0.124 S 
ATOM     97  O   UNL     1      12.371  -8.309   3.292  1.00  0.00    -0.237 OA
ATOM     98  O   UNL     1      11.068  -9.138   5.221  1.00  0.00    -0.237 OA
ATOM     99  O   UNL     1      10.148  -9.311   2.943  1.00  0.00    -0.744 OA
ENDBRANCH  95  96
ENDBRANCH  63  88
BRANCH  75 100
ATOM    100  C   UNL     1       6.885   0.655   7.614  1.00  0.00     0.058 A 
ATOM    101  C   UNL     1       7.093   1.028   6.272  1.00  0.00     0.135 A 
ATOM    102  C   UNL     1       7.131   1.632   8.591  1.00  0.00     0.135 A 
ATOM    103  F   UNL     1       6.798   0.185   5.270  1.00  0.00    -0.206 F 
ATOM    104  C   UNL     1       7.552   2.308   5.928  1.00  0.00     0.059 A 
ATOM    105  C   UNL     1       7.556   2.915   8.271  1.00  0.00     0.059 A 
ATOM    106  F   UNL     1       6.900   1.357   9.885  1.00  0.00    -0.206 F 
ATOM    107  C   UNL     1       7.780   3.246   6.939  1.00  0.00     0.060 A 
BRANCH 107 108
ATOM    108  S   UNL     1       8.341   4.912   6.518  1.00  0.00     0.124 S 
ATOM    109  O   UNL     1       9.687   4.666   6.011  1.00  0.00    -0.237 OA
ATOM    110  O   UNL     1       7.359   5.341   5.527  1.00  0.00    -0.237 OA
ATOM    111  O   UNL     1       8.280   5.627   7.791  1.00  0.00    -0.744 OA
ENDBRANCH 107 108
ENDBRANCH  75 100
ENDBRANCH  49  50
ENDBRANCH  42  44
ENDBRANCH  41  42
ENDBRANCH  40  41
ENDBRANCH  39  40
ENDBRANCH  38  39
ENDBRANCH  37  38
ENDBRANCH  36  37
ENDBRANCH  35  36
ENDBRANCH   1  35
TORSDOF 28
