REMARK SMILES O=C(OCCOCCOCCOCCOC(=O)c1cc(-c2ccsc2)nc2ccccc12)c1ccc(-c2c3nc(c(-c4c(F)cc(S(=O)(=O)[O-])cc4F)c4ccc([nH]4)c(-c4c(F)cc(S(=O)(=O)[O-])cc4F)c4nc(c(-c5c(F)cc(S(=O)(=O)[O-])cc5F)c5ccc2[nH]5)C=C4)C=C3)cc1
REMARK SMILES IDX 8 1 7 2 6 3 5 4 4 5 3 6 2 7 1 8 33 9 34 10 98 11 35 12 97 13
REMARK SMILES IDX 36 14 37 15 38 16 91 17 39 18 96 19 90 20 92 21 40 22 95 23
REMARK SMILES IDX 89 24 88 25 41 27 75 28 54 29 74 30 55 31 58 32 73 33 93 34
REMARK SMILES IDX 56 35 57 36 72 38 94 39 59 40 42 41 43 42 52 43 44 44 45 45
REMARK SMILES IDX 51 46 53 47 46 48 47 49 48 50 49 51 50 52 76 53 77 54 86 55
REMARK SMILES IDX 78 56 79 57 85 58 87 59 80 60 81 61 82 62 83 63 84 64 60 65
REMARK SMILES IDX 61 66 70 67 62 68 63 69 69 70 71 71 64 72 65 73 66 74 67 75
REMARK SMILES IDX 68 76 9 77 10 78 11 79 12 80 13 81 14 82 15 83 16 84 17 85
REMARK SMILES IDX 18 86 19 87 32 88 20 89 27 90 31 91 26 92 28 93 30 94 29 95
REMARK SMILES IDX 21 96 22 97 25 98 23 99 24 100
REMARK H PARENT 92 26 58 37
REMARK Flexibility Score: inf
ROOT
ATOM      1  C   UNL     1       1.929   1.326  -2.632  1.00  0.00     0.188 C 
ENDROOT
BRANCH   1   2
ATOM      2  C   UNL     1       2.362   0.281  -1.598  1.00  0.00     0.188 C 
BRANCH   2   3
ATOM      3  O   UNL     1       3.716   0.457  -1.221  1.00  0.00    -0.376 OA
BRANCH   3   4
ATOM      4  C   UNL     1       4.541  -0.617  -0.809  1.00  0.00     0.202 C 
BRANCH   4   5
ATOM      5  C   UNL     1       3.921  -1.754  -0.016  1.00  0.00     0.261 C 
BRANCH   5   6
ATOM      6  O   UNL     1       2.570  -1.580   0.459  1.00  0.00    -0.460 OA
BRANCH   6   7
ATOM      7  C   UNL     1       1.986  -0.768   1.367  1.00  0.00     0.338 C 
ATOM      8  O   UNL     1       0.776  -0.875   1.558  1.00  0.00    -0.246 OA
BRANCH   7   9
ATOM      9  C   UNL     1       2.724   0.232   2.173  1.00  0.00     0.060 A 
ATOM     10  C   UNL     1       3.729   1.053   1.683  1.00  0.00     0.016 A 
ATOM     11  C   UNL     1       2.295   0.448   3.487  1.00  0.00     0.016 A 
ATOM     12  C   UNL     1       4.482   1.858   2.508  1.00  0.00     0.010 A 
ATOM     13  C   UNL     1       2.958   1.366   4.305  1.00  0.00     0.010 A 
ATOM     14  C   UNL     1       4.113   2.005   3.835  1.00  0.00    -0.014 A 
BRANCH  14  15
ATOM     15  C   UNL     1       5.079   2.655   4.735  1.00  0.00     0.031 A 
ATOM     16  C   UNL     1       5.756   1.783   5.751  1.00  0.00     0.074 A 
ATOM     17  C   UNL     1       5.457   3.929   4.518  1.00  0.00     0.049 A 
ATOM     18  N   UNL     1       6.576   2.110   6.709  1.00  0.00    -0.248 NA
ATOM     19  C   UNL     1       5.471   0.337   5.676  1.00  0.00     0.031 C 
ATOM     20  C   UNL     1       4.964   4.788   3.434  1.00  0.00     0.029 A 
ATOM     21  N   UNL     1       6.376   4.709   5.162  1.00  0.00    -0.354 N 
ATOM     22  C   UNL     1       6.844   0.928   7.388  1.00  0.00     0.074 A 
ATOM     23  C   UNL     1       6.105  -0.126   6.739  1.00  0.00     0.031 C 
ATOM     24  C   UNL     1       5.620   5.957   3.465  1.00  0.00     0.029 A 
ATOM     25  C   UNL     1       6.498   5.969   4.627  1.00  0.00     0.049 A 
ATOM     26  H   UNL     1       6.900   4.398   5.935  1.00  0.00     0.167 HD
ATOM     27  C   UNL     1       7.636   0.755   8.469  1.00  0.00     0.037 A 
ATOM     28  C   UNL     1       7.209   7.023   5.067  1.00  0.00     0.037 A 
ATOM     29  C   UNL     1       8.382   1.834   9.054  1.00  0.00     0.049 A 
ATOM     30  C   UNL     1       8.014   6.830   6.324  1.00  0.00     0.074 A 
ATOM     31  C   UNL     1       9.183   1.824  10.178  1.00  0.00     0.029 A 
ATOM     32  N   UNL     1       8.417   3.126   8.541  1.00  0.00    -0.354 N 
ATOM     33  N   UNL     1       8.183   5.736   7.032  1.00  0.00    -0.248 NA
ATOM     34  C   UNL     1       8.707   8.007   6.854  1.00  0.00     0.031 C 
ATOM     35  C   UNL     1       9.657   3.125  10.376  1.00  0.00     0.029 A 
ATOM     36  C   UNL     1       9.209   3.930   9.337  1.00  0.00     0.049 A 
ATOM     37  H   UNL     1       7.946   3.424   7.730  1.00  0.00     0.167 HD
ATOM     38  C   UNL     1       9.024   6.085   8.079  1.00  0.00     0.074 A 
ATOM     39  C   UNL     1       9.339   7.491   7.899  1.00  0.00     0.031 C 
ATOM     40  C   UNL     1       9.498   5.324   9.099  1.00  0.00     0.037 A 
BRANCH  27  41
ATOM     41  C   UNL     1       7.638  -0.603   9.113  1.00  0.00     0.058 A 
ATOM     42  C   UNL     1       8.213  -1.732   8.507  1.00  0.00     0.135 A 
ATOM     43  C   UNL     1       6.999  -0.783  10.351  1.00  0.00     0.135 A 
ATOM     44  F   UNL     1       8.800  -1.629   7.304  1.00  0.00    -0.206 F 
ATOM     45  C   UNL     1       8.126  -2.994   9.089  1.00  0.00     0.059 A 
ATOM     46  C   UNL     1       6.927  -2.029  10.966  1.00  0.00     0.059 A 
ATOM     47  F   UNL     1       6.413   0.257  10.966  1.00  0.00    -0.206 F 
ATOM     48  C   UNL     1       7.480  -3.132  10.319  1.00  0.00     0.060 A 
BRANCH  48  49
ATOM     49  S   UNL     1       7.368  -4.774  11.060  1.00  0.00     0.124 S 
ATOM     50  O   UNL     1       6.398  -5.424  10.184  1.00  0.00    -0.237 OA
ATOM     51  O   UNL     1       8.741  -5.257  10.953  1.00  0.00    -0.237 OA
ATOM     52  O   UNL     1       6.905  -4.505  12.418  1.00  0.00    -0.744 OA
ENDBRANCH  48  49
ENDBRANCH  27  41
BRANCH  28  53
ATOM     53  C   UNL     1       7.144   8.334   4.363  1.00  0.00     0.058 A 
ATOM     54  C   UNL     1       8.277   8.899   3.761  1.00  0.00     0.135 A 
ATOM     55  C   UNL     1       5.939   9.055   4.276  1.00  0.00     0.135 A 
ATOM     56  F   UNL     1       9.455   8.258   3.816  1.00  0.00    -0.206 F 
ATOM     57  C   UNL     1       8.227  10.134   3.118  1.00  0.00     0.059 A 
ATOM     58  C   UNL     1       5.856  10.275   3.612  1.00  0.00     0.059 A 
ATOM     59  F   UNL     1       4.817   8.562   4.823  1.00  0.00    -0.206 F 
ATOM     60  C   UNL     1       7.010  10.814   3.048  1.00  0.00     0.060 A 
BRANCH  60  61
ATOM     61  S   UNL     1       6.949  12.403   2.192  1.00  0.00     0.124 S 
ATOM     62  O   UNL     1       7.683  13.262   3.114  1.00  0.00    -0.237 OA
ATOM     63  O   UNL     1       7.619  12.098   0.932  1.00  0.00    -0.237 OA
ATOM     64  O   UNL     1       5.518  12.673   2.084  1.00  0.00    -0.744 OA
ENDBRANCH  60  61
ENDBRANCH  28  53
BRANCH  40  65
ATOM     65  C   UNL     1      10.449   5.988  10.049  1.00  0.00     0.058 A 
ATOM     66  C   UNL     1      10.020   6.945  10.980  1.00  0.00     0.135 A 
ATOM     67  C   UNL     1      11.803   5.616  10.055  1.00  0.00     0.135 A 
ATOM     68  F   UNL     1       8.736   7.335  11.007  1.00  0.00    -0.206 F 
ATOM     69  C   UNL     1      10.911   7.538  11.864  1.00  0.00     0.059 A 
ATOM     70  C   UNL     1      12.703   6.168  10.955  1.00  0.00     0.059 A 
ATOM     71  F   UNL     1      12.255   4.692   9.191  1.00  0.00    -0.206 F 
ATOM     72  C   UNL     1      12.250   7.141  11.845  1.00  0.00     0.060 A 
BRANCH  72  73
ATOM     73  S   UNL     1      13.392   7.899  13.016  1.00  0.00     0.124 S 
ATOM     74  O   UNL     1      13.555   9.231  12.444  1.00  0.00    -0.237 OA
ATOM     75  O   UNL     1      12.643   7.832  14.268  1.00  0.00    -0.237 OA
ATOM     76  O   UNL     1      14.568   7.037  12.949  1.00  0.00    -0.744 OA
ENDBRANCH  72  73
ENDBRANCH  40  65
ENDBRANCH  14  15
ENDBRANCH   7   9
ENDBRANCH   6   7
ENDBRANCH   5   6
ENDBRANCH   4   5
ENDBRANCH   3   4
ENDBRANCH   2   3
ENDBRANCH   1   2
BRANCH   1  77
ATOM     77  O   UNL     1       2.709   1.390  -3.824  1.00  0.00    -0.377 OA
BRANCH  77  78
ATOM     78  C   UNL     1       4.125   1.327  -3.661  1.00  0.00     0.188 C 
BRANCH  78  79
ATOM     79  C   UNL     1       4.840   2.400  -2.789  1.00  0.00     0.188 C 
BRANCH  79  80
ATOM     80  O   UNL     1       3.973   3.099  -1.915  1.00  0.00    -0.376 OA
BRANCH  80  81
ATOM     81  C   UNL     1       3.645   4.443  -2.228  1.00  0.00     0.202 C 
BRANCH  81  82
ATOM     82  C   UNL     1       3.188   4.841  -3.647  1.00  0.00     0.261 C 
BRANCH  82  83
ATOM     83  O   UNL     1       3.625   4.011  -4.734  1.00  0.00    -0.460 OA
BRANCH  83  84
ATOM     84  C   UNL     1       4.784   4.327  -5.360  1.00  0.00     0.338 C 
ATOM     85  O   UNL     1       5.535   5.238  -5.095  1.00  0.00    -0.246 OA
BRANCH  84  86
ATOM     86  C   UNL     1       5.106   3.236  -6.315  1.00  0.00     0.071 A 
ATOM     87  C   UNL     1       6.278   2.508  -6.070  1.00  0.00     0.045 A 
ATOM     88  C   UNL     1       4.256   2.898  -7.389  1.00  0.00     0.015 A 
ATOM     89  C   UNL     1       6.531   1.416  -6.876  1.00  0.00     0.073 A 
ATOM     90  C   UNL     1       4.694   1.845  -8.218  1.00  0.00     0.072 A 
ATOM     91  C   UNL     1       3.031   3.543  -7.688  1.00  0.00     0.011 A 
ATOM     92  N   UNL     1       5.785   1.107  -7.957  1.00  0.00    -0.248 NA
ATOM     93  C   UNL     1       3.967   1.554  -9.364  1.00  0.00     0.029 A 
ATOM     94  C   UNL     1       2.304   3.210  -8.828  1.00  0.00     0.001 A 
ATOM     95  C   UNL     1       2.792   2.236  -9.687  1.00  0.00     0.002 A 
BRANCH  89  96
ATOM     96  C   UNL     1       7.607   0.487  -6.575  1.00  0.00     0.011 A 
ATOM     97  C   UNL     1       8.912   0.472  -7.154  1.00  0.00     0.022 A 
ATOM     98  C   UNL     1       7.434  -0.566  -5.694  1.00  0.00     0.075 A 
ATOM     99  C   UNL     1       9.689  -0.561  -6.676  1.00  0.00     0.065 A 
ATOM    100  S   UNL     1       8.846  -1.528  -5.544  1.00  0.00    -0.152 S 
ENDBRANCH  89  96
ENDBRANCH  84  86
ENDBRANCH  83  84
ENDBRANCH  82  83
ENDBRANCH  81  82
ENDBRANCH  80  81
ENDBRANCH  79  80
ENDBRANCH  78  79
ENDBRANCH  77  78
ENDBRANCH   1  77
TORSDOF 24
