REMARK SMILES CC1(C)NC(=O)N(CCC(=O)N2CCC[C@H]2C(=O)OCCOCCOCCOCCOC(=O)c2ccc(-c3c4nc(c(-c5c(F)cc(S(=O)(=O)[O-])cc5F)c5ccc([nH]5)c(-c5c(F)cc(S(=O)(=O)[O-])cc5F)c5nc(c(-c6c(F)cc(S(=O)(=O)[O-])cc6F)c6ccc3[nH]6)C=C5)C=C4)cc2)C1=O
REMARK SMILES IDX 24 1 23 2 22 3 21 4 20 5 19 6 17 7 18 8 16 9 12 10 13 11
REMARK SMILES IDX 14 12 15 13 10 14 11 15 9 16 8 17 7 18 1 19 2 20 3 21 4 22
REMARK SMILES IDX 100 23 5 24 101 26 6 27 25 28 26 29 27 30 28 31 29 32 30 33
REMARK SMILES IDX 31 34 32 35 33 36 34 37 35 38 99 39 36 40 98 41 37 42 38 43
REMARK SMILES IDX 39 44 92 45 40 46 97 47 91 48 93 49 41 50 96 51 90 52 89 53
REMARK SMILES IDX 42 55 76 56 55 57 75 58 56 59 59 60 74 61 94 62 57 63 58 64
REMARK SMILES IDX 73 66 95 67 60 68 43 69 44 70 53 71 45 72 46 73 52 74 54 75
REMARK SMILES IDX 47 76 48 77 49 78 50 79 51 80 77 81 78 82 87 83 79 84 80 85
REMARK SMILES IDX 86 86 88 87 81 88 82 89 83 90 84 91 85 92 61 93 62 94 71 95
REMARK SMILES IDX 63 96 64 97 70 98 72 99 65 100 66 101 67 102 68 103 69 104
REMARK H PARENT 4 25 93 54 59 65
REMARK Flexibility Score: inf
ROOT
ATOM      1  C   UNL     1      -0.062   4.682  -2.002  1.00  0.00     0.188 C 
ENDROOT
BRANCH   1   2
ATOM      2  C   UNL     1       0.791   3.441  -2.256  1.00  0.00     0.188 C 
BRANCH   2   3
ATOM      3  O   UNL     1       0.470   2.741  -3.449  1.00  0.00    -0.376 OA
BRANCH   3   4
ATOM      4  C   UNL     1      -0.450   1.662  -3.313  1.00  0.00     0.202 C 
BRANCH   4   5
ATOM      5  C   UNL     1      -1.899   2.018  -2.938  1.00  0.00     0.261 C 
BRANCH   5   6
ATOM      6  O   UNL     1      -2.032   2.720  -1.682  1.00  0.00    -0.462 OA
BRANCH   6   7
ATOM      7  C   UNL     1      -2.318   2.016  -0.566  1.00  0.00     0.328 C 
ATOM      8  O   UNL     1      -2.460   0.797  -0.549  1.00  0.00    -0.250 OA
BRANCH   7   9
ATOM      9  C   UNL     1      -2.213   2.866   0.729  1.00  0.00     0.195 C 
ATOM     10  N   UNL     1      -2.292   4.329   0.772  1.00  0.00    -0.329 N 
ATOM     11  C   UNL     1      -3.714   4.643   0.712  1.00  0.00     0.120 C 
ATOM     12  C   UNL     1      -4.368   3.578   1.590  1.00  0.00     0.024 C 
ATOM     13  C   UNL     1      -3.324   2.461   1.703  1.00  0.00     0.039 C 
BRANCH  10  14
ATOM     14  C   UNL     1      -1.503   5.081   1.657  1.00  0.00     0.225 C 
ATOM     15  O   UNL     1      -2.021   5.803   2.516  1.00  0.00    -0.275 OA
BRANCH  14  16
ATOM     16  C   UNL     1       0.006   5.217   1.412  1.00  0.00     0.122 C 
BRANCH  16  17
ATOM     17  C   UNL     1       1.107   4.334   2.011  1.00  0.00     0.140 C 
BRANCH  17  18
ATOM     18  N   UNL     1       1.062   2.896   1.823  1.00  0.00    -0.262 N 
ATOM     19  C   UNL     1       2.620  -0.230   1.522  1.00  0.00     0.045 C 
ATOM     20  C   UNL     1       1.461   0.663   1.113  1.00  0.00     0.115 C 
ATOM     21  C   UNL     1       0.832   0.168  -0.178  1.00  0.00     0.045 C 
ATOM     22  N   UNL     1       0.493   0.774   2.176  1.00  0.00    -0.324 N 
ATOM     23  C   UNL     1       1.858   2.153   0.986  1.00  0.00     0.255 C 
ATOM     24  C   UNL     1       0.352   2.062   2.632  1.00  0.00     0.325 C 
ATOM     25  H   UNL     1      -0.012   0.010   2.537  1.00  0.00     0.166 HD
ATOM     26  O   UNL     1       2.730   2.587   0.245  1.00  0.00    -0.272 OA
ATOM     27  O   UNL     1      -0.348   2.380   3.577  1.00  0.00    -0.248 OA
ENDBRANCH  17  18
ENDBRANCH  16  17
ENDBRANCH  14  16
ENDBRANCH  10  14
ENDBRANCH   7   9
ENDBRANCH   6   7
ENDBRANCH   5   6
ENDBRANCH   4   5
ENDBRANCH   3   4
ENDBRANCH   2   3
ENDBRANCH   1   2
BRANCH   1  28
ATOM     28  O   UNL     1      -0.947   5.109  -3.008  1.00  0.00    -0.377 OA
BRANCH  28  29
ATOM     29  C   UNL     1      -0.425   5.241  -4.314  1.00  0.00     0.188 C 
BRANCH  29  30
ATOM     30  C   UNL     1       1.035   5.689  -4.499  1.00  0.00     0.188 C 
BRANCH  30  31
ATOM     31  O   UNL     1       1.592   6.408  -3.402  1.00  0.00    -0.376 OA
BRANCH  31  32
ATOM     32  C   UNL     1       1.659   7.822  -3.534  1.00  0.00     0.202 C 
BRANCH  32  33
ATOM     33  C   UNL     1       0.340   8.555  -3.261  1.00  0.00     0.261 C 
BRANCH  33  34
ATOM     34  O   UNL     1      -0.724   8.288  -4.187  1.00  0.00    -0.460 OA
BRANCH  34  35
ATOM     35  C   UNL     1      -0.504   8.502  -5.503  1.00  0.00     0.338 C 
ATOM     36  O   UNL     1       0.492   8.981  -6.016  1.00  0.00    -0.246 OA
BRANCH  35  37
ATOM     37  C   UNL     1      -1.595   7.822  -6.238  1.00  0.00     0.060 A 
ATOM     38  C   UNL     1      -1.254   6.860  -7.201  1.00  0.00     0.016 A 
ATOM     39  C   UNL     1      -2.931   8.019  -5.875  1.00  0.00     0.016 A 
ATOM     40  C   UNL     1      -2.254   6.101  -7.810  1.00  0.00     0.010 A 
ATOM     41  C   UNL     1      -3.934   7.288  -6.514  1.00  0.00     0.010 A 
ATOM     42  C   UNL     1      -3.601   6.348  -7.505  1.00  0.00    -0.014 A 
BRANCH  42  43
ATOM     43  C   UNL     1      -4.652   5.876  -8.438  1.00  0.00     0.031 A 
ATOM     44  C   UNL     1      -4.956   6.769  -9.612  1.00  0.00     0.074 A 
ATOM     45  C   UNL     1      -5.322   4.723  -8.261  1.00  0.00     0.049 A 
ATOM     46  N   UNL     1      -5.843   6.625 -10.558  1.00  0.00    -0.248 NA
ATOM     47  C   UNL     1      -4.147   7.997  -9.727  1.00  0.00     0.031 C 
ATOM     48  C   UNL     1      -5.107   3.765  -7.178  1.00  0.00     0.029 A 
ATOM     49  N   UNL     1      -6.341   4.169  -8.998  1.00  0.00    -0.354 N 
ATOM     50  C   UNL     1      -5.703   7.742 -11.373  1.00  0.00     0.074 A 
ATOM     51  C   UNL     1      -4.658   8.563 -10.808  1.00  0.00     0.031 C 
ATOM     52  C   UNL     1      -5.983   2.751  -7.311  1.00  0.00     0.029 A 
ATOM     53  C   UNL     1      -6.836   2.998  -8.474  1.00  0.00     0.049 A 
ATOM     54  H   UNL     1      -6.686   4.574  -9.827  1.00  0.00     0.167 HD
ATOM     55  C   UNL     1      -6.385   8.059 -12.495  1.00  0.00     0.037 A 
ATOM     56  C   UNL     1      -7.872   2.233  -8.880  1.00  0.00     0.037 A 
ATOM     57  C   UNL     1      -7.427   7.249 -13.055  1.00  0.00     0.049 A 
ATOM     58  C   UNL     1      -8.653   2.640 -10.110  1.00  0.00     0.074 A 
ATOM     59  C   UNL     1      -8.154   7.466 -14.211  1.00  0.00     0.029 A 
ATOM     60  N   UNL     1      -7.902   6.076 -12.492  1.00  0.00    -0.354 N 
ATOM     61  N   UNL     1      -8.465   3.664 -10.909  1.00  0.00    -0.248 NA
ATOM     62  C   UNL     1      -9.790   1.787 -10.492  1.00  0.00     0.031 C 
ATOM     63  C   UNL     1      -9.104   6.447 -14.321  1.00  0.00     0.029 A 
ATOM     64  C   UNL     1      -8.934   5.571 -13.261  1.00  0.00     0.049 A 
ATOM     65  H   UNL     1      -7.556   5.663 -11.667  1.00  0.00     0.167 HD
ATOM     66  C   UNL     1      -9.434   3.557 -11.904  1.00  0.00     0.074 A 
ATOM     67  C   UNL     1     -10.203   2.367 -11.611  1.00  0.00     0.031 C 
ATOM     68  C   UNL     1      -9.668   4.368 -12.965  1.00  0.00     0.037 A 
BRANCH  55  69
ATOM     69  C   UNL     1      -6.044   9.352 -13.172  1.00  0.00     0.058 A 
ATOM     70  C   UNL     1      -4.868   9.504 -13.922  1.00  0.00     0.135 A 
ATOM     71  C   UNL     1      -6.928  10.440 -13.101  1.00  0.00     0.135 A 
ATOM     72  F   UNL     1      -3.976   8.503 -13.992  1.00  0.00    -0.206 F 
ATOM     73  C   UNL     1      -4.579  10.694 -14.580  1.00  0.00     0.059 A 
ATOM     74  C   UNL     1      -6.669  11.631 -13.768  1.00  0.00     0.059 A 
ATOM     75  F   UNL     1      -8.056  10.348 -12.379  1.00  0.00    -0.206 F 
ATOM     76  C   UNL     1      -5.489  11.749 -14.502  1.00  0.00     0.060 A 
BRANCH  76  77
ATOM     77  S   UNL     1      -5.122  13.271 -15.399  1.00  0.00     0.124 S 
ATOM     78  O   UNL     1      -4.057  13.842 -14.581  1.00  0.00    -0.237 OA
ATOM     79  O   UNL     1      -4.716  12.771 -16.709  1.00  0.00    -0.237 OA
ATOM     80  O   UNL     1      -6.389  13.995 -15.374  1.00  0.00    -0.744 OA
ENDBRANCH  76  77
ENDBRANCH  55  69
BRANCH  56  81
ATOM     81  C   UNL     1      -8.269   1.016  -8.117  1.00  0.00     0.058 A 
ATOM     82  C   UNL     1      -8.139  -0.267  -8.673  1.00  0.00     0.135 A 
ATOM     83  C   UNL     1      -8.854   1.116  -6.845  1.00  0.00     0.135 A 
ATOM     84  F   UNL     1      -7.600  -0.417  -9.893  1.00  0.00    -0.206 F 
ATOM     85  C   UNL     1      -8.604  -1.401  -8.013  1.00  0.00     0.059 A 
ATOM     86  C   UNL     1      -9.303  -0.006  -6.154  1.00  0.00     0.059 A 
ATOM     87  F   UNL     1      -8.998   2.317  -6.263  1.00  0.00    -0.206 F 
ATOM     88  C   UNL     1      -9.191  -1.259  -6.755  1.00  0.00     0.060 A 
BRANCH  88  89
ATOM     89  S   UNL     1      -9.788  -2.735  -5.900  1.00  0.00     0.124 S 
ATOM     90  O   UNL     1     -11.020  -3.017  -6.627  1.00  0.00    -0.237 OA
ATOM     91  O   UNL     1      -8.692  -3.677  -6.109  1.00  0.00    -0.237 OA
ATOM     92  O   UNL     1      -9.955  -2.278  -4.523  1.00  0.00    -0.744 OA
ENDBRANCH  88  89
ENDBRANCH  56  81
BRANCH  68  93
ATOM     93  C   UNL     1     -10.761   3.980 -13.921  1.00  0.00     0.058 A 
ATOM     94  C   UNL     1     -12.117   4.133 -13.595  1.00  0.00     0.135 A 
ATOM     95  C   UNL     1     -10.442   3.530 -15.213  1.00  0.00     0.135 A 
ATOM     96  F   UNL     1     -12.474   4.559 -12.373  1.00  0.00    -0.206 F 
ATOM     97  C   UNL     1     -13.120   3.837 -14.511  1.00  0.00     0.059 A 
ATOM     98  C   UNL     1     -11.428   3.253 -16.154  1.00  0.00     0.059 A 
ATOM     99  F   UNL     1      -9.159   3.381 -15.579  1.00  0.00    -0.206 F 
ATOM    100  C   UNL     1     -12.766   3.401 -15.790  1.00  0.00     0.060 A 
BRANCH 100 101
ATOM    101  S   UNL     1     -14.075   3.066 -16.987  1.00  0.00     0.124 S 
ATOM    102  O   UNL     1     -14.586   1.785 -16.511  1.00  0.00    -0.237 OA
ATOM    103  O   UNL     1     -14.964   4.210 -16.809  1.00  0.00    -0.237 OA
ATOM    104  O   UNL     1     -13.366   3.025 -18.263  1.00  0.00    -0.744 OA
ENDBRANCH 100 101
ENDBRANCH  68  93
ENDBRANCH  42  43
ENDBRANCH  35  37
ENDBRANCH  34  35
ENDBRANCH  33  34
ENDBRANCH  32  33
ENDBRANCH  31  32
ENDBRANCH  30  31
ENDBRANCH  29  30
ENDBRANCH  28  29
ENDBRANCH   1  28
TORSDOF 27
