REMARK SMILES Nc1ccc(S[C@@H](C(=O)OCCOCCOCCOCCOC(=O)c2ccc(-c3c4nc(c(-c5c(F)cc(S(=O)(=O)[O-])cc5F)c5ccc([nH]5)c(-c5c(F)cc(S(=O)(=O)[O-])cc5F)c5nc(c(-c6c(F)cc(S(=O)(=O)[O-])cc6F)c6ccc3[nH]6)C=C5)C=C4)cc2)C2CC2)cc1F
REMARK SMILES IDX 16 1 15 2 14 3 13 4 12 5 11 6 10 7 8 8 9 9 7 10 6 11 5 12
REMARK SMILES IDX 2 13 3 14 95 15 4 16 94 17 96 18 1 19 91 22 92 23 93 24
REMARK SMILES IDX 17 25 18 26 19 27 20 28 21 29 22 30 23 31 24 32 25 33 26 34
REMARK SMILES IDX 90 35 27 36 89 37 28 38 29 39 30 40 83 41 31 42 88 43 82 44
REMARK SMILES IDX 84 45 32 46 87 47 81 48 80 49 33 51 67 52 46 53 66 54 47 55
REMARK SMILES IDX 50 56 65 57 85 58 48 59 49 60 64 62 86 63 51 64 34 65 35 66
REMARK SMILES IDX 44 67 36 68 37 69 43 70 45 71 38 72 39 73 40 74 41 75 42 76
REMARK SMILES IDX 68 77 69 78 78 79 70 80 71 81 77 82 79 83 72 84 73 85 74 86
REMARK SMILES IDX 75 87 76 88 52 89 53 90 62 91 54 92 55 93 61 94 63 95 56 96
REMARK SMILES IDX 57 97 58 98 59 99 60 100
REMARK H PARENT 1 20 1 21 84 50 50 61
REMARK Flexibility Score: inf
ROOT
ATOM      1  O   UNL     1       1.646  -0.191  -3.074  1.00  0.00    -0.377 OA
ENDROOT
BRANCH   1   2
ATOM      2  C   UNL     1       2.502   0.199  -2.023  1.00  0.00     0.188 C 
BRANCH   2   3
ATOM      3  C   UNL     1       3.343   1.493  -1.947  1.00  0.00     0.188 C 
BRANCH   3   4
ATOM      4  O   UNL     1       3.986   1.936  -3.120  1.00  0.00    -0.376 OA
BRANCH   4   5
ATOM      5  C   UNL     1       5.135   1.295  -3.639  1.00  0.00     0.202 C 
BRANCH   5   6
ATOM      6  C   UNL     1       5.713  -0.034  -3.112  1.00  0.00     0.261 C 
BRANCH   6   7
ATOM      7  O   UNL     1       5.166  -0.549  -1.883  1.00  0.00    -0.462 OA
BRANCH   7   8
ATOM      8  C   UNL     1       5.881  -0.391  -0.749  1.00  0.00     0.319 C 
ATOM      9  O   UNL     1       7.018   0.078  -0.777  1.00  0.00    -0.251 OA
BRANCH   8  10
ATOM     10  C   UNL     1       5.207  -0.845   0.570  1.00  0.00     0.164 C 
BRANCH  10  11
ATOM     11  S   UNL     1       3.664  -1.888   0.542  1.00  0.00    -0.110 SA
BRANCH  11  12
ATOM     12  C   UNL     1       2.142  -1.012   0.967  1.00  0.00     0.011 A 
ATOM     13  C   UNL     1      -0.393   0.327   1.165  1.00  0.00     0.068 A 
ATOM     14  C   UNL     1       0.790   0.976   1.486  1.00  0.00     0.030 A 
ATOM     15  C   UNL     1      -0.310  -1.038   0.877  1.00  0.00     0.147 A 
ATOM     16  C   UNL     1       2.028   0.310   1.390  1.00  0.00     0.017 A 
ATOM     17  C   UNL     1       0.927  -1.696   0.760  1.00  0.00     0.056 A 
ATOM     18  F   UNL     1      -1.439  -1.720   0.620  1.00  0.00    -0.205 F 
BRANCH  13  19
ATOM     19  N   UNL     1      -1.605   1.008   1.203  1.00  0.00    -0.396 N 
ATOM     20  H   UNL     1      -1.622   1.970   1.409  1.00  0.00     0.156 HD
ATOM     21  H   UNL     1      -2.445   0.527   1.024  1.00  0.00     0.156 HD
ENDBRANCH  13  19
ENDBRANCH  11  12
ENDBRANCH  10  11
BRANCH  10  22
ATOM     22  C   UNL     1       5.332   0.060   1.773  1.00  0.00     0.014 C 
ATOM     23  C   UNL     1       6.447   1.089   1.894  1.00  0.00     0.006 C 
ATOM     24  C   UNL     1       5.032   1.547   1.819  1.00  0.00     0.006 C 
ENDBRANCH  10  22
ENDBRANCH   8  10
ENDBRANCH   7   8
ENDBRANCH   6   7
ENDBRANCH   5   6
ENDBRANCH   4   5
ENDBRANCH   3   4
ENDBRANCH   2   3
ENDBRANCH   1   2
BRANCH   1  25
ATOM     25  C   UNL     1       1.861   0.384  -4.335  1.00  0.00     0.188 C 
BRANCH  25  26
ATOM     26  C   UNL     1       1.239   1.779  -4.434  1.00  0.00     0.188 C 
BRANCH  26  27
ATOM     27  O   UNL     1       1.016   2.389  -3.169  1.00  0.00    -0.376 OA
BRANCH  27  28
ATOM     28  C   UNL     1      -0.253   2.252  -2.540  1.00  0.00     0.202 C 
BRANCH  28  29
ATOM     29  C   UNL     1      -0.931   0.886  -2.321  1.00  0.00     0.261 C 
BRANCH  29  30
ATOM     30  O   UNL     1      -1.032  -0.007  -3.426  1.00  0.00    -0.460 OA
BRANCH  30  31
ATOM     31  C   UNL     1      -1.725   0.374  -4.508  1.00  0.00     0.338 C 
ATOM     32  O   UNL     1      -2.347   1.411  -4.668  1.00  0.00    -0.246 OA
BRANCH  31  33
ATOM     33  C   UNL     1      -1.377  -0.612  -5.546  1.00  0.00     0.060 A 
ATOM     34  C   UNL     1      -0.742  -0.159  -6.708  1.00  0.00     0.016 A 
ATOM     35  C   UNL     1      -1.576  -1.980  -5.321  1.00  0.00     0.016 A 
ATOM     36  C   UNL     1      -0.311  -1.074  -7.659  1.00  0.00     0.010 A 
ATOM     37  C   UNL     1      -1.182  -2.895  -6.294  1.00  0.00     0.010 A 
ATOM     38  C   UNL     1      -0.581  -2.436  -7.477  1.00  0.00    -0.014 A 
BRANCH  38  39
ATOM     39  C   UNL     1      -0.496  -3.324  -8.651  1.00  0.00     0.031 A 
ATOM     40  C   UNL     1      -1.753  -3.508  -9.453  1.00  0.00     0.074 A 
ATOM     41  C   UNL     1       0.666  -3.887  -9.018  1.00  0.00     0.049 A 
ATOM     42  N   UNL     1      -1.959  -4.229 -10.520  1.00  0.00    -0.248 NA
ATOM     43  C   UNL     1      -2.942  -2.771  -8.986  1.00  0.00     0.031 C 
ATOM     44  C   UNL     1       1.944  -3.716  -8.328  1.00  0.00     0.029 A 
ATOM     45  N   UNL     1       0.956  -4.718 -10.067  1.00  0.00    -0.354 N 
ATOM     46  C   UNL     1      -3.296  -4.037 -10.846  1.00  0.00     0.074 A 
ATOM     47  C   UNL     1      -3.864  -3.159  -9.851  1.00  0.00     0.031 C 
ATOM     48  C   UNL     1       2.883  -4.434  -8.969  1.00  0.00     0.029 A 
ATOM     49  C   UNL     1       2.263  -5.138 -10.090  1.00  0.00     0.049 A 
ATOM     50  H   UNL     1       0.290  -4.989 -10.740  1.00  0.00     0.167 HD
ATOM     51  C   UNL     1      -3.984  -4.545 -11.893  1.00  0.00     0.037 A 
ATOM     52  C   UNL     1       2.872  -6.014 -10.914  1.00  0.00     0.037 A 
ATOM     53  C   UNL     1      -3.397  -5.429 -12.863  1.00  0.00     0.049 A 
ATOM     54  C   UNL     1       2.064  -6.632 -12.028  1.00  0.00     0.074 A 
ATOM     55  C   UNL     1      -3.991  -6.013 -13.965  1.00  0.00     0.029 A 
ATOM     56  N   UNL     1      -2.078  -5.863 -12.835  1.00  0.00    -0.354 N 
ATOM     57  N   UNL     1       0.803  -6.436 -12.340  1.00  0.00    -0.248 NA
ATOM     58  C   UNL     1       2.758  -7.583 -12.905  1.00  0.00     0.031 C 
ATOM     59  C   UNL     1      -3.047  -6.849 -14.569  1.00  0.00     0.029 A 
ATOM     60  C   UNL     1      -1.845  -6.730 -13.887  1.00  0.00     0.049 A 
ATOM     61  H   UNL     1      -1.408  -5.594 -12.166  1.00  0.00     0.167 HD
ATOM     62  C   UNL     1       0.562  -7.212 -13.469  1.00  0.00     0.074 A 
ATOM     63  C   UNL     1       1.812  -7.875 -13.787  1.00  0.00     0.031 C 
ATOM     64  C   UNL     1      -0.582  -7.362 -14.183  1.00  0.00     0.037 A 
BRANCH  51  65
ATOM     65  C   UNL     1      -5.441  -4.194 -12.008  1.00  0.00     0.058 A 
ATOM     66  C   UNL     1      -5.872  -2.895 -12.327  1.00  0.00     0.135 A 
ATOM     67  C   UNL     1      -6.424  -5.176 -11.805  1.00  0.00     0.135 A 
ATOM     68  F   UNL     1      -4.977  -1.909 -12.502  1.00  0.00    -0.206 F 
ATOM     69  C   UNL     1      -7.223  -2.579 -12.421  1.00  0.00     0.059 A 
ATOM     70  C   UNL     1      -7.780  -4.890 -11.925  1.00  0.00     0.059 A 
ATOM     71  F   UNL     1      -6.070  -6.430 -11.482  1.00  0.00    -0.206 F 
ATOM     72  C   UNL     1      -8.170  -3.586 -12.223  1.00  0.00     0.060 A 
BRANCH  72  73
ATOM     73  S   UNL     1      -9.919  -3.164 -12.368  1.00  0.00     0.124 S 
ATOM     74  O   UNL     1     -10.123  -2.346 -11.177  1.00  0.00    -0.237 OA
ATOM     75  O   UNL     1      -9.961  -2.450 -13.641  1.00  0.00    -0.237 OA
ATOM     76  O   UNL     1     -10.585  -4.463 -12.358  1.00  0.00    -0.744 OA
ENDBRANCH  72  73
ENDBRANCH  51  65
BRANCH  52  77
ATOM     77  C   UNL     1       4.303  -6.363 -10.709  1.00  0.00     0.058 A 
ATOM     78  C   UNL     1       5.286  -5.997 -11.639  1.00  0.00     0.135 A 
ATOM     79  C   UNL     1       4.720  -7.069  -9.567  1.00  0.00     0.135 A 
ATOM     80  F   UNL     1       4.942  -5.330 -12.751  1.00  0.00    -0.206 F 
ATOM     81  C   UNL     1       6.626  -6.328 -11.456  1.00  0.00     0.059 A 
ATOM     82  C   UNL     1       6.056  -7.385  -9.346  1.00  0.00     0.059 A 
ATOM     83  F   UNL     1       3.823  -7.436  -8.639  1.00  0.00    -0.206 F 
ATOM     84  C   UNL     1       7.002  -7.019 -10.302  1.00  0.00     0.060 A 
BRANCH  84  85
ATOM     85  S   UNL     1       8.749  -7.399 -10.051  1.00  0.00     0.124 S 
ATOM     86  O   UNL     1       8.978  -8.419 -11.069  1.00  0.00    -0.237 OA
ATOM     87  O   UNL     1       9.380  -6.105 -10.290  1.00  0.00    -0.237 OA
ATOM     88  O   UNL     1       8.797  -7.865  -8.669  1.00  0.00    -0.744 OA
ENDBRANCH  84  85
ENDBRANCH  52  77
BRANCH  64  89
ATOM     89  C   UNL     1      -0.527  -8.233 -15.408  1.00  0.00     0.058 A 
ATOM     90  C   UNL     1      -0.423  -9.629 -15.323  1.00  0.00     0.135 A 
ATOM     91  C   UNL     1      -0.657  -7.658 -16.684  1.00  0.00     0.135 A 
ATOM     92  F   UNL     1      -0.292 -10.227 -14.129  1.00  0.00    -0.206 F 
ATOM     93  C   UNL     1      -0.426 -10.425 -16.463  1.00  0.00     0.059 A 
ATOM     94  C   UNL     1      -0.698  -8.437 -17.834  1.00  0.00     0.059 A 
ATOM     95  F   UNL     1      -0.774  -6.328 -16.818  1.00  0.00    -0.206 F 
ATOM     96  C   UNL     1      -0.571  -9.820 -17.714  1.00  0.00     0.060 A 
BRANCH  96  97
ATOM     97  S   UNL     1      -0.618 -10.870 -19.181  1.00  0.00     0.124 S 
ATOM     98  O   UNL     1       0.771 -11.308 -19.273  1.00  0.00    -0.237 OA
ATOM     99  O   UNL     1      -1.583 -11.895 -18.798  1.00  0.00    -0.237 OA
ATOM    100  O   UNL     1      -1.060  -9.962 -20.235  1.00  0.00    -0.744 OA
ENDBRANCH  96  97
ENDBRANCH  64  89
ENDBRANCH  38  39
ENDBRANCH  31  33
ENDBRANCH  30  31
ENDBRANCH  29  30
ENDBRANCH  28  29
ENDBRANCH  27  28
ENDBRANCH  26  27
ENDBRANCH  25  26
ENDBRANCH   1  25
TORSDOF 27
