REMARK SMILES CC1(C)S[C@H](c2ccc(-c3ccccc3)o2)[NH2+][C@H]1C(=O)OCCOCCOCCOCCOC(=O)c1ccc(-c2c3nc(c(-c4c(F)cc(S(=O)(=O)[O-])cc4F)c4ccc([nH]4)c(-c4c(F)cc(S(=O)(=O)[O-])cc4F)c4nc(c(-c5c(F)cc(S(=O)(=O)[O-])cc5F)c5ccc2[nH]5)C=C4)C=C3)cc1
REMARK SMILES IDX 28 1 27 2 26 3 25 4 24 5 23 6 22 7 21 8 19 9 20 10 18 11
REMARK SMILES IDX 1 12 2 13 3 14 4 15 5 16 17 17 6 20 7 21 16 22 8 23 9 24
REMARK SMILES IDX 10 25 11 26 15 27 12 28 14 29 13 30 29 31 30 32 31 33 32 34
REMARK SMILES IDX 33 35 34 36 35 37 36 38 37 39 101 40 38 41 100 42 39 43
REMARK SMILES IDX 40 44 41 45 94 46 42 47 99 48 93 49 95 50 43 51 98 52 92 53
REMARK SMILES IDX 91 54 44 56 78 57 57 58 77 59 58 60 61 61 76 62 96 63 59 64
REMARK SMILES IDX 60 65 75 67 97 68 62 69 45 70 46 71 55 72 47 73 48 74 54 75
REMARK SMILES IDX 56 76 49 77 50 78 51 79 52 80 53 81 79 82 80 83 89 84 81 85
REMARK SMILES IDX 82 86 88 87 90 88 83 89 84 90 85 91 86 92 87 93 63 94 64 95
REMARK SMILES IDX 73 96 65 97 66 98 72 99 74 100 67 101 68 102 69 103 70 104
REMARK SMILES IDX 71 105
REMARK H PARENT 17 18 17 19 95 55 61 66
REMARK Flexibility Score: inf
ROOT
ATOM      1  C   UNL     1       4.219   3.587   1.503  1.00  0.00     0.188 C 
ENDROOT
BRANCH   1   2
ATOM      2  O   UNL     1       2.882   3.301   1.144  1.00  0.00    -0.377 OA
BRANCH   2   3
ATOM      3  C   UNL     1       2.666   2.722  -0.122  1.00  0.00     0.188 C 
BRANCH   3   4
ATOM      4  C   UNL     1       2.218   3.679  -1.235  1.00  0.00     0.188 C 
BRANCH   4   5
ATOM      5  O   UNL     1       1.664   4.955  -0.936  1.00  0.00    -0.376 OA
BRANCH   5   6
ATOM      6  C   UNL     1       1.278   5.283   0.388  1.00  0.00     0.202 C 
BRANCH   6   7
ATOM      7  C   UNL     1       0.087   4.535   1.028  1.00  0.00     0.261 C 
BRANCH   7   8
ATOM      8  O   UNL     1      -0.008   3.103   0.855  1.00  0.00    -0.459 OA
BRANCH   8   9
ATOM      9  C   UNL     1      -0.669   2.680  -0.253  1.00  0.00     0.366 C 
ATOM     10  O   UNL     1      -1.129   3.447  -1.096  1.00  0.00    -0.245 OA
BRANCH   9  11
ATOM     11  C   UNL     1      -0.891   1.144  -0.336  1.00  0.00     0.310 C 
ATOM     12  C   UNL     1       0.734   0.254   1.573  1.00  0.00     0.030 C 
ATOM     13  C   UNL     1       0.134   0.084   0.169  1.00  0.00     0.079 C 
ATOM     14  C   UNL     1       1.175  -0.293  -0.905  1.00  0.00     0.030 C 
ATOM     15  S   UNL     1      -0.903  -1.440   0.349  1.00  0.00    -0.078 SA
ATOM     16  C   UNL     1      -2.468  -0.570   0.069  1.00  0.00     0.311 C 
ATOM     17  N   UNL     1      -2.210   0.850   0.284  1.00  0.00    -0.316 N 
ATOM     18  H   UNL     1      -2.182   1.055   1.283  1.00  0.00     0.348 HD
ATOM     19  H   UNL     1      -2.945   1.423  -0.130  1.00  0.00     0.348 HD
BRANCH  16  20
ATOM     20  C   UNL     1      -3.017  -0.940  -1.278  1.00  0.00     0.172 A 
ATOM     21  C   UNL     1      -3.457  -2.159  -1.763  1.00  0.00     0.054 A 
ATOM     22  O   UNL     1      -3.153   0.017  -2.256  1.00  0.00    -0.454 OA
ATOM     23  C   UNL     1      -3.909  -1.936  -3.078  1.00  0.00     0.051 A 
ATOM     24  C   UNL     1      -3.717  -0.596  -3.337  1.00  0.00     0.134 A 
BRANCH  24  25
ATOM     25  C   UNL     1      -4.058   0.226  -4.485  1.00  0.00     0.017 A 
ATOM     26  C   UNL     1      -3.078   0.869  -5.249  1.00  0.00     0.012 A 
ATOM     27  C   UNL     1      -5.396   0.293  -4.898  1.00  0.00     0.012 A 
ATOM     28  C   UNL     1      -3.432   1.538  -6.427  1.00  0.00     0.001 A 
ATOM     29  C   UNL     1      -5.750   0.970  -6.066  1.00  0.00     0.001 A 
ATOM     30  C   UNL     1      -4.766   1.582  -6.837  1.00  0.00     0.000 A 
ENDBRANCH  24  25
ENDBRANCH  16  20
ENDBRANCH   9  11
ENDBRANCH   8   9
ENDBRANCH   7   8
ENDBRANCH   6   7
ENDBRANCH   5   6
ENDBRANCH   4   5
ENDBRANCH   3   4
ENDBRANCH   2   3
ENDBRANCH   1   2
BRANCH   1  31
ATOM     31  C   UNL     1       5.127   4.170   0.411  1.00  0.00     0.188 C 
BRANCH  31  32
ATOM     32  O   UNL     1       5.116   3.419  -0.800  1.00  0.00    -0.376 OA
BRANCH  32  33
ATOM     33  C   UNL     1       6.174   2.510  -1.055  1.00  0.00     0.202 C 
BRANCH  33  34
ATOM     34  C   UNL     1       6.218   1.208  -0.235  1.00  0.00     0.261 C 
BRANCH  34  35
ATOM     35  O   UNL     1       6.231   1.340   1.192  1.00  0.00    -0.460 OA
BRANCH  35  36
ATOM     36  C   UNL     1       7.266   2.012   1.748  1.00  0.00     0.338 C 
ATOM     37  O   UNL     1       8.210   2.503   1.167  1.00  0.00    -0.246 OA
BRANCH  36  38
ATOM     38  C   UNL     1       6.945   2.221   3.179  1.00  0.00     0.060 A 
ATOM     39  C   UNL     1       6.839   3.533   3.660  1.00  0.00     0.016 A 
ATOM     40  C   UNL     1       6.728   1.136   4.031  1.00  0.00     0.016 A 
ATOM     41  C   UNL     1       6.547   3.762   5.005  1.00  0.00     0.010 A 
ATOM     42  C   UNL     1       6.465   1.367   5.385  1.00  0.00     0.010 A 
ATOM     43  C   UNL     1       6.409   2.680   5.884  1.00  0.00    -0.014 A 
BRANCH  43  44
ATOM     44  C   UNL     1       6.431   2.924   7.347  1.00  0.00     0.031 A 
ATOM     45  C   UNL     1       7.749   2.794   8.063  1.00  0.00     0.074 A 
ATOM     46  C   UNL     1       5.324   3.283   8.021  1.00  0.00     0.049 A 
ATOM     47  N   UNL     1       8.024   2.933   9.332  1.00  0.00    -0.248 NA
ATOM     48  C   UNL     1       8.915   2.459   7.228  1.00  0.00     0.031 C 
ATOM     49  C   UNL     1       4.001   3.481   7.432  1.00  0.00     0.029 A 
ATOM     50  N   UNL     1       5.139   3.538   9.357  1.00  0.00    -0.354 N 
ATOM     51  C   UNL     1       9.390   2.701   9.450  1.00  0.00     0.074 A 
ATOM     52  C   UNL     1       9.881   2.378   8.129  1.00  0.00     0.031 C 
ATOM     53  C   UNL     1       3.136   3.815   8.407  1.00  0.00     0.029 A 
ATOM     54  C   UNL     1       3.837   3.824   9.691  1.00  0.00     0.049 A 
ATOM     55  H   UNL     1       5.871   3.518  10.015  1.00  0.00     0.167 HD
ATOM     56  C   UNL     1      10.166   2.760  10.557  1.00  0.00     0.037 A 
ATOM     57  C   UNL     1       3.275   4.046  10.897  1.00  0.00     0.037 A 
ATOM     58  C   UNL     1       9.667   3.072  11.871  1.00  0.00     0.049 A 
ATOM     59  C   UNL     1       4.147   4.034  12.129  1.00  0.00     0.074 A 
ATOM     60  C   UNL     1      10.372   3.168  13.057  1.00  0.00     0.029 A 
ATOM     61  N   UNL     1       8.337   3.325  12.174  1.00  0.00    -0.354 N 
ATOM     62  N   UNL     1       5.442   3.839  12.224  1.00  0.00    -0.248 NA
ATOM     63  C   UNL     1       3.483   4.279  13.417  1.00  0.00     0.031 C 
ATOM     64  C   UNL     1       9.459   3.419  14.087  1.00  0.00     0.029 A 
ATOM     65  C   UNL     1       8.195   3.550  13.533  1.00  0.00     0.049 A 
ATOM     66  H   UNL     1       7.602   3.343  11.519  1.00  0.00     0.167 HD
ATOM     67  C   UNL     1       5.750   3.972  13.575  1.00  0.00     0.074 A 
ATOM     68  C   UNL     1       4.509   4.275  14.256  1.00  0.00     0.031 C 
ATOM     69  C   UNL     1       6.952   3.857  14.197  1.00  0.00     0.037 A 
BRANCH  56  70
ATOM     70  C   UNL     1      11.630   2.449  10.399  1.00  0.00     0.058 A 
ATOM     71  C   UNL     1      12.504   3.312   9.718  1.00  0.00     0.135 A 
ATOM     72  C   UNL     1      12.171   1.280  10.959  1.00  0.00     0.135 A 
ATOM     73  F   UNL     1      12.037   4.432   9.143  1.00  0.00    -0.206 F 
ATOM     74  C   UNL     1      13.855   3.015   9.576  1.00  0.00     0.059 A 
ATOM     75  C   UNL     1      13.525   0.979  10.857  1.00  0.00     0.059 A 
ATOM     76  F   UNL     1      11.380   0.416  11.614  1.00  0.00    -0.206 F 
ATOM     77  C   UNL     1      14.357   1.847  10.152  1.00  0.00     0.060 A 
BRANCH  77  78
ATOM     78  S   UNL     1      16.115   1.482   9.966  1.00  0.00     0.124 S 
ATOM     79  O   UNL     1      16.195   1.149   8.547  1.00  0.00    -0.237 OA
ATOM     80  O   UNL     1      16.737   2.742  10.357  1.00  0.00    -0.237 OA
ATOM     81  O   UNL     1      16.331   0.367  10.884  1.00  0.00    -0.744 OA
ENDBRANCH  77  78
ENDBRANCH  56  70
BRANCH  57  82
ATOM     82  C   UNL     1       1.810   4.288  11.006  1.00  0.00     0.058 A 
ATOM     83  C   UNL     1       1.304   5.535  11.405  1.00  0.00     0.135 A 
ATOM     84  C   UNL     1       0.883   3.271  10.725  1.00  0.00     0.135 A 
ATOM     85  F   UNL     1       2.146   6.537  11.700  1.00  0.00    -0.206 F 
ATOM     86  C   UNL     1      -0.063   5.761  11.536  1.00  0.00     0.059 A 
ATOM     87  C   UNL     1      -0.489   3.481  10.820  1.00  0.00     0.059 A 
ATOM     88  F   UNL     1       1.312   2.060  10.334  1.00  0.00    -0.206 F 
ATOM     89  C   UNL     1      -0.952   4.727  11.236  1.00  0.00     0.060 A 
BRANCH  89  90
ATOM     90  S   UNL     1      -2.726   5.047  11.361  1.00  0.00     0.124 S 
ATOM     91  O   UNL     1      -2.908   5.138  12.805  1.00  0.00    -0.237 OA
ATOM     92  O   UNL     1      -2.862   6.296  10.619  1.00  0.00    -0.237 OA
ATOM     93  O   UNL     1      -3.323   3.878  10.722  1.00  0.00    -0.744 OA
ENDBRANCH  89  90
ENDBRANCH  57  82
BRANCH  69  94
ATOM     94  C   UNL     1       6.996   4.106  15.682  1.00  0.00     0.058 A 
ATOM     95  C   UNL     1       6.429   3.213  16.605  1.00  0.00     0.135 A 
ATOM     96  C   UNL     1       7.660   5.236  16.191  1.00  0.00     0.135 A 
ATOM     97  F   UNL     1       5.782   2.118  16.175  1.00  0.00    -0.206 F 
ATOM     98  C   UNL     1       6.489   3.447  17.975  1.00  0.00     0.059 A 
ATOM     99  C   UNL     1       7.762   5.472  17.558  1.00  0.00     0.059 A 
ATOM    100  F   UNL     1       8.234   6.117  15.356  1.00  0.00    -0.206 F 
ATOM    101  C   UNL     1       7.159   4.580  18.442  1.00  0.00     0.060 A 
BRANCH 101 102
ATOM    102  S   UNL     1       7.244   4.862  20.223  1.00  0.00     0.124 S 
ATOM    103  O   UNL     1       5.871   5.250  20.526  1.00  0.00    -0.237 OA
ATOM    104  O   UNL     1       7.660   3.556  20.726  1.00  0.00    -0.237 OA
ATOM    105  O   UNL     1       8.239   5.923  20.353  1.00  0.00    -0.744 OA
ENDBRANCH 101 102
ENDBRANCH  69  94
ENDBRANCH  43  44
ENDBRANCH  36  38
ENDBRANCH  35  36
ENDBRANCH  34  35
ENDBRANCH  33  34
ENDBRANCH  32  33
ENDBRANCH  31  32
ENDBRANCH   1  31
TORSDOF 25
