REMARK SMILES COC(=O)c1nc(C)cc(N[C@@H]2C=C[C@H](C(=O)OCCOCCOCCOCCOC(=O)c3ccc(-c4c5nc(c(-c6c(F)cc(S(=O)(=O)[O-])cc6F)c6ccc([nH]6)c(-c6c(F)cc(S(=O)(=O)[O-])cc6F)c6nc(c(-c7c(F)cc(S(=O)(=O)[O-])cc7F)c7ccc4[nH]7)C=C6)C=C5)cc3)C2)n1
REMARK SMILES IDX 23 1 22 2 21 3 20 4 19 5 18 6 16 7 17 8 15 9 12 10 13 11
REMARK SMILES IDX 99 12 14 13 11 14 10 16 5 17 6 18 100 19 7 20 8 21 9 22 3 23
REMARK SMILES IDX 4 24 2 25 1 26 24 27 25 28 26 29 27 30 28 31 29 32 30 33
REMARK SMILES IDX 31 34 32 35 33 36 34 37 98 38 35 39 97 40 36 41 37 42 38 43
REMARK SMILES IDX 91 44 39 45 96 46 90 47 92 48 40 49 95 50 89 51 88 52 41 54
REMARK SMILES IDX 75 55 54 56 74 57 55 58 58 59 73 60 93 61 56 62 57 63 72 65
REMARK SMILES IDX 94 66 59 67 42 68 43 69 52 70 44 71 45 72 51 73 53 74 46 75
REMARK SMILES IDX 47 76 48 77 49 78 50 79 76 80 77 81 86 82 78 83 79 84 85 85
REMARK SMILES IDX 87 86 80 87 81 88 82 89 83 90 84 91 60 92 61 93 70 94 62 95
REMARK SMILES IDX 63 96 69 97 71 98 64 99 65 100 66 101 67 102 68 103
REMARK H PARENT 11 15 92 53 58 64
REMARK Flexibility Score: inf
ROOT
ATOM      1  C   UNL     1      -5.911  -0.036  -4.056  1.00  0.00     0.188 C 
ENDROOT
BRANCH   1   2
ATOM      2  C   UNL     1      -6.643  -0.582  -2.823  1.00  0.00     0.188 C 
BRANCH   2   3
ATOM      3  O   UNL     1      -7.487   0.353  -2.178  1.00  0.00    -0.376 OA
BRANCH   3   4
ATOM      4  C   UNL     1      -6.947   1.429  -1.427  1.00  0.00     0.202 C 
BRANCH   4   5
ATOM      5  C   UNL     1      -5.457   1.807  -1.407  1.00  0.00     0.261 C 
BRANCH   5   6
ATOM      6  O   UNL     1      -4.531   0.730  -1.620  1.00  0.00    -0.463 OA
BRANCH   6   7
ATOM      7  C   UNL     1      -3.955   0.142  -0.541  1.00  0.00     0.312 C 
ATOM      8  O   UNL     1      -4.123   0.508   0.615  1.00  0.00    -0.252 OA
BRANCH   7   9
ATOM      9  C   UNL     1      -2.921  -0.903  -0.987  1.00  0.00     0.124 C 
ATOM     10  C   UNL     1      -3.495  -3.222  -1.618  1.00  0.00     0.104 C 
ATOM     11  C   UNL     1      -3.029  -3.137  -0.215  1.00  0.00    -0.006 C 
ATOM     12  C   UNL     1      -3.295  -1.811  -2.171  1.00  0.00     0.048 C 
ATOM     13  C   UNL     1      -2.666  -1.892   0.113  1.00  0.00    -0.014 C 
BRANCH  10  14
ATOM     14  N   UNL     1      -4.815  -3.792  -1.788  1.00  0.00    -0.364 N 
ATOM     15  H   UNL     1      -4.859  -4.496  -2.475  1.00  0.00     0.162 HD
BRANCH  14  16
ATOM     16  C   UNL     1      -6.029  -3.536  -1.169  1.00  0.00     0.131 A 
ATOM     17  C   UNL     1      -7.448  -2.436   0.266  1.00  0.00     0.241 A 
ATOM     18  N   UNL     1      -8.537  -3.141  -0.113  1.00  0.00    -0.227 NA
ATOM     19  N   UNL     1      -6.185  -2.598  -0.220  1.00  0.00    -0.205 NA
ATOM     20  C   UNL     1      -8.364  -4.038  -1.085  1.00  0.00     0.044 A 
ATOM     21  C   UNL     1      -9.591  -4.747  -1.571  1.00  0.00     0.067 C 
ATOM     22  C   UNL     1      -7.124  -4.258  -1.645  1.00  0.00     0.070 A 
BRANCH  17  23
ATOM     23  C   UNL     1      -7.750  -1.389   1.307  1.00  0.00     0.376 C 
ATOM     24  O   UNL     1      -8.738  -1.421   2.034  1.00  0.00    -0.242 OA
BRANCH  23  25
ATOM     25  O   UNL     1      -6.849  -0.374   1.285  1.00  0.00    -0.463 OA
ATOM     26  C   UNL     1      -7.234   0.758   2.076  1.00  0.00     0.282 C 
ENDBRANCH  23  25
ENDBRANCH  17  23
ENDBRANCH  14  16
ENDBRANCH  10  14
ENDBRANCH   7   9
ENDBRANCH   6   7
ENDBRANCH   5   6
ENDBRANCH   4   5
ENDBRANCH   3   4
ENDBRANCH   2   3
ENDBRANCH   1   2
BRANCH   1  27
ATOM     27  O   UNL     1      -6.742   0.260  -5.165  1.00  0.00    -0.377 OA
BRANCH  27  28
ATOM     28  C   UNL     1      -7.887   1.024  -4.844  1.00  0.00     0.188 C 
BRANCH  28  29
ATOM     29  C   UNL     1      -9.186   0.213  -4.638  1.00  0.00     0.188 C 
BRANCH  29  30
ATOM     30  O   UNL     1      -9.278  -1.189  -4.887  1.00  0.00    -0.376 OA
BRANCH  30  31
ATOM     31  C   UNL     1      -8.417  -1.845  -5.801  1.00  0.00     0.202 C 
BRANCH  31  32
ATOM     32  C   UNL     1      -8.483  -1.477  -7.288  1.00  0.00     0.261 C 
BRANCH  32  33
ATOM     33  O   UNL     1      -8.349  -0.078  -7.565  1.00  0.00    -0.460 OA
BRANCH  33  34
ATOM     34  C   UNL     1      -9.512   0.579  -7.826  1.00  0.00     0.338 C 
ATOM     35  O   UNL     1     -10.614   0.097  -7.933  1.00  0.00    -0.246 OA
BRANCH  34  36
ATOM     36  C   UNL     1      -9.255   2.040  -7.738  1.00  0.00     0.060 A 
ATOM     37  C   UNL     1     -10.139   2.803  -6.959  1.00  0.00     0.016 A 
ATOM     38  C   UNL     1      -8.123   2.633  -8.305  1.00  0.00     0.016 A 
ATOM     39  C   UNL     1      -9.908   4.163  -6.765  1.00  0.00     0.010 A 
ATOM     40  C   UNL     1      -7.914   4.007  -8.147  1.00  0.00     0.010 A 
ATOM     41  C   UNL     1      -8.827   4.781  -7.408  1.00  0.00    -0.014 A 
BRANCH  41  42
ATOM     42  C   UNL     1      -8.855   6.252  -7.580  1.00  0.00     0.031 A 
ATOM     43  C   UNL     1      -9.604   6.775  -8.779  1.00  0.00     0.074 A 
ATOM     44  C   UNL     1      -8.283   7.098  -6.705  1.00  0.00     0.049 A 
ATOM     45  N   UNL     1      -9.773   8.004  -9.183  1.00  0.00    -0.248 NA
ATOM     46  C   UNL     1     -10.252   5.764  -9.636  1.00  0.00     0.031 C 
ATOM     47  C   UNL     1      -7.574   6.714  -5.486  1.00  0.00     0.029 A 
ATOM     48  N   UNL     1      -8.208   8.469  -6.720  1.00  0.00    -0.354 N 
ATOM     49  C   UNL     1     -10.552   7.914 -10.331  1.00  0.00     0.074 A 
ATOM     50  C   UNL     1     -10.797   6.513 -10.579  1.00  0.00     0.031 C 
ATOM     51  C   UNL     1      -7.117   7.826  -4.879  1.00  0.00     0.029 A 
ATOM     52  C   UNL     1      -7.482   8.996  -5.678  1.00  0.00     0.049 A 
ATOM     53  H   UNL     1      -8.634   9.024  -7.413  1.00  0.00     0.167 HD
ATOM     54  C   UNL     1     -11.029   8.912 -11.108  1.00  0.00     0.037 A 
ATOM     55  C   UNL     1      -7.138  10.275  -5.420  1.00  0.00     0.037 A 
ATOM     56  C   UNL     1     -10.766  10.303 -10.873  1.00  0.00     0.049 A 
ATOM     57  C   UNL     1      -7.611  11.367  -6.352  1.00  0.00     0.074 A 
ATOM     58  C   UNL     1     -11.189  11.394 -11.609  1.00  0.00     0.029 A 
ATOM     59  N   UNL     1     -10.002  10.793  -9.826  1.00  0.00    -0.354 N 
ATOM     60  N   UNL     1      -8.361  11.271  -7.425  1.00  0.00    -0.248 NA
ATOM     61  C   UNL     1      -7.191  12.742  -6.038  1.00  0.00     0.031 C 
ATOM     62  C   UNL     1     -10.643  12.544 -11.031  1.00  0.00     0.029 A 
ATOM     63  C   UNL     1      -9.924  12.172  -9.906  1.00  0.00     0.049 A 
ATOM     64  H   UNL     1      -9.577  10.243  -9.129  1.00  0.00     0.167 HD
ATOM     65  C   UNL     1      -8.528  12.572  -7.893  1.00  0.00     0.074 A 
ATOM     66  C   UNL     1      -7.809  13.438  -6.983  1.00  0.00     0.031 C 
ATOM     67  C   UNL     1      -9.215  13.014  -8.976  1.00  0.00     0.037 A 
BRANCH  54  68
ATOM     68  C   UNL     1     -11.860   8.524 -12.296  1.00  0.00     0.058 A 
ATOM     69  C   UNL     1     -13.172   8.046 -12.150  1.00  0.00     0.135 A 
ATOM     70  C   UNL     1     -11.346   8.651 -13.595  1.00  0.00     0.135 A 
ATOM     71  F   UNL     1     -13.697   7.874 -10.927  1.00  0.00    -0.206 F 
ATOM     72  C   UNL     1     -13.943   7.697 -13.253  1.00  0.00     0.059 A 
ATOM     73  C   UNL     1     -12.108   8.332 -14.714  1.00  0.00     0.059 A 
ATOM     74  F   UNL     1     -10.091   9.087 -13.786  1.00  0.00    -0.206 F 
ATOM     75  C   UNL     1     -13.403   7.849 -14.532  1.00  0.00     0.060 A 
BRANCH  75  76
ATOM     76  S   UNL     1     -14.427   7.420 -15.955  1.00  0.00     0.124 S 
ATOM     77  O   UNL     1     -14.444   5.963 -15.874  1.00  0.00    -0.237 OA
ATOM     78  O   UNL     1     -15.687   8.087 -15.644  1.00  0.00    -0.237 OA
ATOM     79  O   UNL     1     -13.689   7.977 -17.085  1.00  0.00    -0.744 OA
ENDBRANCH  75  76
ENDBRANCH  54  68
BRANCH  55  80
ATOM     80  C   UNL     1      -6.281  10.608  -4.248  1.00  0.00     0.058 A 
ATOM     81  C   UNL     1      -6.778  11.351  -3.166  1.00  0.00     0.135 A 
ATOM     82  C   UNL     1      -4.931  10.225  -4.208  1.00  0.00     0.135 A 
ATOM     83  F   UNL     1      -8.057  11.755  -3.162  1.00  0.00    -0.206 F 
ATOM     84  C   UNL     1      -5.963  11.725  -2.100  1.00  0.00     0.059 A 
ATOM     85  C   UNL     1      -4.103  10.564  -3.141  1.00  0.00     0.059 A 
ATOM     86  F   UNL     1      -4.404   9.508  -5.212  1.00  0.00    -0.206 F 
ATOM     87  C   UNL     1      -4.625  11.328  -2.098  1.00  0.00     0.060 A 
BRANCH  87  88
ATOM     88  S   UNL     1      -3.581  11.795  -0.700  1.00  0.00     0.124 S 
ATOM     89  O   UNL     1      -3.366  13.214  -0.955  1.00  0.00    -0.237 OA
ATOM     90  O   UNL     1      -4.432  11.471   0.440  1.00  0.00    -0.237 OA
ATOM     91  O   UNL     1      -2.408  10.940  -0.860  1.00  0.00    -0.744 OA
ENDBRANCH  87  88
ENDBRANCH  55  80
BRANCH  67  92
ATOM     92  C   UNL     1      -9.263  14.497  -9.218  1.00  0.00     0.058 A 
ATOM     93  C   UNL     1      -8.151  15.204  -9.698  1.00  0.00     0.135 A 
ATOM     94  C   UNL     1     -10.463  15.205  -9.037  1.00  0.00     0.135 A 
ATOM     95  F   UNL     1      -6.980  14.575  -9.887  1.00  0.00    -0.206 F 
ATOM     96  C   UNL     1      -8.220  16.567  -9.971  1.00  0.00     0.059 A 
ATOM     97  C   UNL     1     -10.563  16.561  -9.329  1.00  0.00     0.059 A 
ATOM     98  F   UNL     1     -11.562  14.572  -8.594  1.00  0.00    -0.206 F 
ATOM     99  C   UNL     1      -9.432  17.236  -9.786  1.00  0.00     0.060 A 
BRANCH  99 100
ATOM    100  S   UNL     1      -9.519  18.995 -10.180  1.00  0.00     0.124 S 
ATOM    101  O   UNL     1      -8.799  19.584  -9.056  1.00  0.00    -0.237 OA
ATOM    102  O   UNL     1      -8.842  19.061 -11.471  1.00  0.00    -0.237 OA
ATOM    103  O   UNL     1     -10.953  19.265 -10.217  1.00  0.00    -0.744 OA
ENDBRANCH  99 100
ENDBRANCH  67  92
ENDBRANCH  41  42
ENDBRANCH  34  36
ENDBRANCH  33  34
ENDBRANCH  32  33
ENDBRANCH  31  32
ENDBRANCH  30  31
ENDBRANCH  29  30
ENDBRANCH  28  29
ENDBRANCH  27  28
ENDBRANCH   1  27
TORSDOF 27
