REMARK SMILES COc1ccc(/C=C2/C(=O)N(c3ccccc3)C(=O)N=C2OCCOCCOCCOCCOC(=O)c2ccc(-c3c4nc(c(-c5c(F)cc(S(=O)(=O)[O-])cc5F)c5ccc([nH]5)c(-c5c(F)cc(S(=O)(=O)[O-])cc5F)c5nc(c(-c6c(F)cc(S(=O)(=O)[O-])cc6F)c6ccc3[nH]6)C=C5)C=C4)cc2)cc1C(=O)[O-]
REMARK SMILES IDX 29 1 28 2 27 3 26 4 25 5 24 6 23 7 22 8 21 9 7 10 8 11 9 12
REMARK SMILES IDX 10 13 11 14 20 15 18 16 19 17 6 18 3 19 4 20 104 21 5 22
REMARK SMILES IDX 103 23 2 24 1 25 105 26 106 27 107 28 12 29 13 30 17 31
REMARK SMILES IDX 14 32 16 33 15 34 30 35 31 36 32 37 33 38 34 39 35 40 36 41
REMARK SMILES IDX 37 42 38 43 102 44 39 45 101 46 40 47 41 48 42 49 95 50
REMARK SMILES IDX 43 51 100 52 94 53 96 54 44 55 99 56 93 57 92 58 45 60 79 61
REMARK SMILES IDX 58 62 78 63 59 64 62 65 77 66 97 67 60 68 61 69 76 71 98 72
REMARK SMILES IDX 63 73 46 74 47 75 56 76 48 77 49 78 55 79 57 80 50 81 51 82
REMARK SMILES IDX 52 83 53 84 54 85 80 86 81 87 90 88 82 89 83 90 89 91 91 92
REMARK SMILES IDX 84 93 85 94 86 95 87 96 88 97 64 98 65 99 74 100 66 101
REMARK SMILES IDX 67 102 73 103 75 104 68 105 69 106 70 107 71 108 72 109
REMARK H PARENT 96 59 62 70
REMARK Flexibility Score: inf
ROOT
ATOM      1  C   UNL     1      -1.988   5.172  -1.171  1.00  0.00     0.188 C 
ENDROOT
BRANCH   1   2
ATOM      2  O   UNL     1      -0.823   5.964  -1.336  1.00  0.00    -0.377 OA
BRANCH   2   3
ATOM      3  C   UNL     1      -0.419   6.135  -2.682  1.00  0.00     0.188 C 
BRANCH   3   4
ATOM      4  C   UNL     1      -1.311   6.946  -3.641  1.00  0.00     0.188 C 
BRANCH   4   5
ATOM      5  O   UNL     1      -2.482   6.434  -4.268  1.00  0.00    -0.376 OA
BRANCH   5   6
ATOM      6  C   UNL     1      -2.754   5.068  -4.518  1.00  0.00     0.201 C 
BRANCH   6   7
ATOM      7  C   UNL     1      -1.894   4.250  -5.480  1.00  0.00     0.260 C 
BRANCH   7   8
ATOM      8  O   UNL     1      -0.496   4.269  -5.158  1.00  0.00    -0.475 OA
BRANCH   8   9
ATOM      9  C   UNL     1       0.272   5.196  -5.749  1.00  0.00     0.231 C 
ATOM     10  C   UNL     1       2.324   4.466  -4.369  1.00  0.00     0.027 C 
ATOM     11  C   UNL     1       1.644   5.288  -5.215  1.00  0.00     0.103 C 
ATOM     12  C   UNL     1       2.328   6.586  -5.599  1.00  0.00     0.272 C 
ATOM     13  O   UNL     1       3.480   6.828  -5.239  1.00  0.00    -0.268 OA
ATOM     14  N   UNL     1       1.532   7.475  -6.321  1.00  0.00    -0.226 N 
ATOM     15  N   UNL     1      -0.263   5.974  -6.611  1.00  0.00    -0.156 NA
ATOM     16  C   UNL     1       0.378   7.098  -7.009  1.00  0.00     0.358 C 
ATOM     17  O   UNL     1      -0.092   7.761  -7.931  1.00  0.00    -0.245 OA
BRANCH  10  18
ATOM     18  C   UNL     1       2.031   3.211  -3.600  1.00  0.00    -0.024 A 
ATOM     19  C   UNL     1       1.494   0.986  -1.878  1.00  0.00     0.127 A 
ATOM     20  C   UNL     1       0.680   1.266  -2.969  1.00  0.00     0.048 A 
ATOM     21  C   UNL     1       2.676   1.712  -1.739  1.00  0.00     0.040 A 
ATOM     22  C   UNL     1       0.986   2.319  -3.848  1.00  0.00     0.012 A 
ATOM     23  C   UNL     1       2.901   2.853  -2.547  1.00  0.00     0.022 A 
BRANCH  19  24
ATOM     24  O   UNL     1       1.100  -0.069  -1.102  1.00  0.00    -0.496 OA
ATOM     25  C   UNL     1       0.946   0.257   0.281  1.00  0.00     0.278 C 
ENDBRANCH  19  24
BRANCH  21  26
ATOM     26  C   UNL     1       3.784   1.278  -0.859  1.00  0.00     0.075 C 
ATOM     27  O   UNL     1       4.593   2.009  -0.316  1.00  0.00    -0.545 OA
ATOM     28  O   UNL     1       3.893  -0.061  -0.819  1.00  0.00    -0.545 OA
ENDBRANCH  21  26
ENDBRANCH  10  18
BRANCH  14  29
ATOM     29  C   UNL     1       1.960   8.815  -6.534  1.00  0.00     0.054 A 
ATOM     30  C   UNL     1       1.166   9.871  -6.053  1.00  0.00     0.027 A 
ATOM     31  C   UNL     1       3.055   9.091  -7.355  1.00  0.00     0.027 A 
ATOM     32  C   UNL     1       1.464  11.190  -6.394  1.00  0.00     0.002 A 
ATOM     33  C   UNL     1       3.328  10.411  -7.722  1.00  0.00     0.002 A 
ATOM     34  C   UNL     1       2.536  11.457  -7.243  1.00  0.00     0.000 A 
ENDBRANCH  14  29
ENDBRANCH   8   9
ENDBRANCH   7   8
ENDBRANCH   6   7
ENDBRANCH   5   6
ENDBRANCH   4   5
ENDBRANCH   3   4
ENDBRANCH   2   3
ENDBRANCH   1   2
BRANCH   1  35
ATOM     35  C   UNL     1      -3.253   6.039  -1.133  1.00  0.00     0.188 C 
BRANCH  35  36
ATOM     36  O   UNL     1      -2.972   7.419  -1.318  1.00  0.00    -0.376 OA
BRANCH  36  37
ATOM     37  C   UNL     1      -2.706   8.216  -0.170  1.00  0.00     0.202 C 
BRANCH  37  38
ATOM     38  C   UNL     1      -1.625   7.796   0.848  1.00  0.00     0.261 C 
BRANCH  38  39
ATOM     39  O   UNL     1      -1.733   6.483   1.417  1.00  0.00    -0.460 OA
BRANCH  39  40
ATOM     40  C   UNL     1      -2.860   6.170   2.089  1.00  0.00     0.338 C 
ATOM     41  O   UNL     1      -3.800   6.904   2.330  1.00  0.00    -0.246 OA
BRANCH  40  42
ATOM     42  C   UNL     1      -2.859   4.701   2.281  1.00  0.00     0.060 A 
ATOM     43  C   UNL     1      -3.952   3.964   1.808  1.00  0.00     0.016 A 
ATOM     44  C   UNL     1      -1.773   4.053   2.878  1.00  0.00     0.016 A 
ATOM     45  C   UNL     1      -3.985   2.581   1.974  1.00  0.00     0.010 A 
ATOM     46  C   UNL     1      -1.817   2.669   3.069  1.00  0.00     0.010 A 
ATOM     47  C   UNL     1      -2.945   1.937   2.656  1.00  0.00    -0.014 A 
BRANCH  47  48
ATOM     48  C   UNL     1      -3.172   0.564   3.163  1.00  0.00     0.031 A 
ATOM     49  C   UNL     1      -3.720   0.417   4.557  1.00  0.00     0.074 A 
ATOM     50  C   UNL     1      -2.961  -0.518   2.396  1.00  0.00     0.049 A 
ATOM     51  N   UNL     1      -4.060  -0.663   5.208  1.00  0.00    -0.248 NA
ATOM     52  C   UNL     1      -3.921   1.666   5.312  1.00  0.00     0.031 C 
ATOM     53  C   UNL     1      -2.488  -0.497   1.014  1.00  0.00     0.029 A 
ATOM     54  N   UNL     1      -3.124  -1.850   2.677  1.00  0.00    -0.354 N 
ATOM     55  C   UNL     1      -4.531  -0.225   6.440  1.00  0.00     0.074 A 
ATOM     56  C   UNL     1      -4.384   1.214   6.466  1.00  0.00     0.031 C 
ATOM     57  C   UNL     1      -2.380  -1.763   0.572  1.00  0.00     0.029 A 
ATOM     58  C   UNL     1      -2.774  -2.680   1.641  1.00  0.00     0.049 A 
ATOM     59  H   UNL     1      -3.461  -2.180   3.542  1.00  0.00     0.167 HD
ATOM     60  C   UNL     1      -5.058  -0.951   7.454  1.00  0.00     0.037 A 
ATOM     61  C   UNL     1      -2.775  -4.025   1.568  1.00  0.00     0.037 A 
ATOM     62  C   UNL     1      -5.177  -2.384   7.433  1.00  0.00     0.049 A 
ATOM     63  C   UNL     1      -3.277  -4.825   2.742  1.00  0.00     0.074 A 
ATOM     64  C   UNL     1      -5.690  -3.222   8.406  1.00  0.00     0.029 A 
ATOM     65  N   UNL     1      -4.759  -3.194   6.386  1.00  0.00    -0.354 N 
ATOM     66  N   UNL     1      -3.745  -4.399   3.893  1.00  0.00    -0.248 NA
ATOM     67  C   UNL     1      -3.269  -6.287   2.600  1.00  0.00     0.031 C 
ATOM     68  C   UNL     1      -5.538  -4.543   7.968  1.00  0.00     0.029 A 
ATOM     69  C   UNL     1      -4.979  -4.525   6.698  1.00  0.00     0.049 A 
ATOM     70  H   UNL     1      -4.364  -2.870   5.545  1.00  0.00     0.167 HD
ATOM     71  C   UNL     1      -4.123  -5.538   4.597  1.00  0.00     0.074 A 
ATOM     72  C   UNL     1      -3.828  -6.670   3.740  1.00  0.00     0.031 C 
ATOM     73  C   UNL     1      -4.675  -5.639   5.833  1.00  0.00     0.037 A 
BRANCH  60  74
ATOM     74  C   UNL     1      -5.501  -0.192   8.674  1.00  0.00     0.058 A 
ATOM     75  C   UNL     1      -6.621   0.658   8.650  1.00  0.00     0.135 A 
ATOM     76  C   UNL     1      -4.773  -0.281   9.870  1.00  0.00     0.135 A 
ATOM     77  F   UNL     1      -7.340   0.798   7.525  1.00  0.00    -0.206 F 
ATOM     78  C   UNL     1      -6.971   1.430   9.753  1.00  0.00     0.059 A 
ATOM     79  C   UNL     1      -5.123   0.460  10.995  1.00  0.00     0.059 A 
ATOM     80  F   UNL     1      -3.692  -1.073   9.947  1.00  0.00    -0.206 F 
ATOM     81  C   UNL     1      -6.208   1.332  10.918  1.00  0.00     0.060 A 
BRANCH  81  82
ATOM     82  S   UNL     1      -6.643   2.373  12.327  1.00  0.00     0.124 S 
ATOM     83  O   UNL     1      -6.160   3.677  11.883  1.00  0.00    -0.237 OA
ATOM     84  O   UNL     1      -8.093   2.224  12.392  1.00  0.00    -0.237 OA
ATOM     85  O   UNL     1      -5.904   1.773  13.433  1.00  0.00    -0.744 OA
ENDBRANCH  81  82
ENDBRANCH  60  74
BRANCH  61  86
ATOM     86  C   UNL     1      -2.318  -4.696   0.322  1.00  0.00     0.058 A 
ATOM     87  C   UNL     1      -3.229  -5.329  -0.534  1.00  0.00     0.135 A 
ATOM     88  C   UNL     1      -0.964  -4.690  -0.050  1.00  0.00     0.135 A 
ATOM     89  F   UNL     1      -4.532  -5.370  -0.215  1.00  0.00    -0.206 F 
ATOM     90  C   UNL     1      -2.817  -5.934  -1.718  1.00  0.00     0.059 A 
ATOM     91  C   UNL     1      -0.531  -5.268  -1.240  1.00  0.00     0.059 A 
ATOM     92  F   UNL     1      -0.054  -4.091   0.734  1.00  0.00    -0.206 F 
ATOM     93  C   UNL     1      -1.466  -5.890  -2.066  1.00  0.00     0.060 A 
BRANCH  93  94
ATOM     94  S   UNL     1      -0.960  -6.611  -3.643  1.00  0.00     0.124 S 
ATOM     95  O   UNL     1      -1.124  -8.036  -3.383  1.00  0.00    -0.237 OA
ATOM     96  O   UNL     1      -1.919  -6.015  -4.570  1.00  0.00    -0.237 OA
ATOM     97  O   UNL     1       0.417  -6.151  -3.798  1.00  0.00    -0.744 OA
ENDBRANCH  93  94
ENDBRANCH  61  86
BRANCH  73  98
ATOM     98  C   UNL     1      -5.032  -7.019   6.317  1.00  0.00     0.058 A 
ATOM     99  C   UNL     1      -4.053  -7.954   6.688  1.00  0.00     0.135 A 
ATOM    100  C   UNL     1      -6.380  -7.400   6.436  1.00  0.00     0.135 A 
ATOM    101  F   UNL     1      -2.751  -7.642   6.591  1.00  0.00    -0.206 F 
ATOM    102  C   UNL     1      -4.395  -9.231   7.120  1.00  0.00     0.059 A 
ATOM    103  C   UNL     1      -6.745  -8.661   6.895  1.00  0.00     0.059 A 
ATOM    104  F   UNL     1      -7.357  -6.540   6.111  1.00  0.00    -0.206 F 
ATOM    105  C   UNL     1      -5.744  -9.577   7.216  1.00  0.00     0.060 A 
BRANCH 105 106
ATOM    106  S   UNL     1      -6.177 -11.237   7.779  1.00  0.00     0.124 S 
ATOM    107  O   UNL     1      -5.878 -12.035   6.595  1.00  0.00    -0.237 OA
ATOM    108  O   UNL     1      -5.281 -11.427   8.915  1.00  0.00    -0.237 OA
ATOM    109  O   UNL     1      -7.593 -11.121   8.119  1.00  0.00    -0.744 OA
ENDBRANCH 105 106
ENDBRANCH  73  98
ENDBRANCH  47  48
ENDBRANCH  40  42
ENDBRANCH  39  40
ENDBRANCH  38  39
ENDBRANCH  37  38
ENDBRANCH  36  37
ENDBRANCH  35  36
ENDBRANCH   1  35
TORSDOF 26
