REMARK SMILES NC(=O)[C@@H]1CCC[N@H+]1[C@@H](C(=O)OCCOCCOCCOCCOC(=O)c1ccc(-c2c3nc(c(-c4c(F)cc(S(=O)(=O)[O-])cc4F)c4ccc([nH]4)c(-c4c(F)cc(S(=O)(=O)[O-])cc4F)c4nc(c(-c5c(F)cc(S(=O)(=O)[O-])cc5F)c5ccc2[nH]5)C=C4)C=C3)cc1)c1c[nH]c2cc(OCc3ccccc3)ccc12
REMARK SMILES IDX 17 1 16 2 15 3 14 4 13 5 12 6 10 7 11 8 9 9 8 10 4 11 5 12
REMARK SMILES IDX 6 13 7 14 2 16 1 17 3 20 93 21 94 22 109 23 95 24 96 25
REMARK SMILES IDX 108 26 97 28 107 29 98 30 99 31 100 32 101 33 102 34 106 35
REMARK SMILES IDX 103 36 105 37 104 38 18 39 19 40 20 41 21 42 22 43 23 44
REMARK SMILES IDX 24 45 25 46 26 47 27 48 28 49 92 50 29 51 91 52 30 53 31 54
REMARK SMILES IDX 32 55 85 56 33 57 90 58 84 59 86 60 34 61 89 62 83 63 82 64
REMARK SMILES IDX 35 66 69 67 48 68 68 69 49 70 52 71 67 72 87 73 50 74 51 75
REMARK SMILES IDX 66 77 88 78 53 79 36 80 37 81 46 82 38 83 39 84 45 85 47 86
REMARK SMILES IDX 40 87 41 88 42 89 43 90 44 91 70 92 71 93 80 94 72 95 73 96
REMARK SMILES IDX 79 97 81 98 74 99 75 100 76 101 77 102 78 103 54 104 55 105
REMARK SMILES IDX 64 106 56 107 57 108 63 109 65 110 58 111 59 112 60 113
REMARK SMILES IDX 61 114 62 115
REMARK H PARENT 8 15 1 18 1 19 95 27 86 65 52 76
REMARK Flexibility Score: inf
ROOT
ATOM      1  C   UNL     1       5.101   0.012  -2.020  1.00  0.00     0.188 C 
ENDROOT
BRANCH   1   2
ATOM      2  C   UNL     1       6.117   0.547  -1.007  1.00  0.00     0.188 C 
BRANCH   2   3
ATOM      3  O   UNL     1       6.287  -0.096   0.248  1.00  0.00    -0.376 OA
BRANCH   3   4
ATOM      4  C   UNL     1       5.172  -0.741   0.843  1.00  0.00     0.202 C 
BRANCH   4   5
ATOM      5  C   UNL     1       3.933   0.107   1.175  1.00  0.00     0.261 C 
BRANCH   5   6
ATOM      6  O   UNL     1       3.302   0.765   0.054  1.00  0.00    -0.459 OA
BRANCH   6   7
ATOM      7  C   UNL     1       3.396   2.133  -0.084  1.00  0.00     0.370 C 
ATOM      8  O   UNL     1       3.952   2.849   0.743  1.00  0.00    -0.245 OA
BRANCH   7   9
ATOM      9  C   UNL     1       2.692   2.678  -1.385  1.00  0.00     0.329 C 
BRANCH   9  10
ATOM     10  N   UNL     1       2.148   1.569  -2.224  1.00  0.00    -0.309 N 
ATOM     11  C   UNL     1       0.763   1.084  -2.095  1.00  0.00     0.275 C 
ATOM     12  C   UNL     1       0.955  -0.277  -2.768  1.00  0.00     0.081 C 
ATOM     13  C   UNL     1       1.790   0.068  -3.995  1.00  0.00     0.068 C 
ATOM     14  C   UNL     1       2.428   1.417  -3.650  1.00  0.00     0.264 C 
ATOM     15  H   UNL     1       2.811   1.036  -1.661  1.00  0.00     0.349 HD
BRANCH  11  16
ATOM     16  C   UNL     1       0.154   1.032  -0.702  1.00  0.00     0.275 C 
ATOM     17  N   UNL     1       0.613   0.091   0.160  1.00  0.00    -0.365 N 
ATOM     18  H   UNL     1       0.238   0.032   1.069  1.00  0.00     0.159 HD
ATOM     19  H   UNL     1       1.319  -0.533  -0.123  1.00  0.00     0.159 HD
ATOM     20  O   UNL     1      -0.723   1.818  -0.348  1.00  0.00    -0.268 OA
ENDBRANCH  11  16
ENDBRANCH   9  10
BRANCH   9  21
ATOM     21  C   UNL     1       3.548   3.693  -2.211  1.00  0.00     0.046 A 
ATOM     22  C   UNL     1       3.054   4.886  -2.726  1.00  0.00     0.094 A 
ATOM     23  C   UNL     1       4.713   3.560  -3.055  1.00  0.00     0.009 A 
ATOM     24  N   UNL     1       3.123   4.699  -4.082  1.00  0.00    -0.361 N 
ATOM     25  C   UNL     1       4.247   3.946  -4.316  1.00  0.00     0.050 A 
ATOM     26  C   UNL     1       6.059   3.143  -2.998  1.00  0.00     0.015 A 
ATOM     27  H   UNL     1       2.490   5.039  -4.756  1.00  0.00     0.166 HD
ATOM     28  C   UNL     1       4.877   3.587  -5.504  1.00  0.00     0.073 A 
ATOM     29  C   UNL     1       6.783   2.911  -4.192  1.00  0.00     0.047 A 
ATOM     30  C   UNL     1       6.154   3.029  -5.427  1.00  0.00     0.121 A 
BRANCH  30  31
ATOM     31  O   UNL     1       6.616   2.602  -6.639  1.00  0.00    -0.489 OA
BRANCH  31  32
ATOM     32  C   UNL     1       8.013   2.569  -6.925  1.00  0.00     0.265 C 
BRANCH  32  33
ATOM     33  C   UNL     1       8.459   3.782  -7.713  1.00  0.00    -0.011 A 
ATOM     34  C   UNL     1       9.709   3.772  -8.352  1.00  0.00     0.007 A 
ATOM     35  C   UNL     1       7.673   4.940  -7.805  1.00  0.00     0.007 A 
ATOM     36  C   UNL     1      10.162   4.899  -9.043  1.00  0.00     0.000 A 
ATOM     37  C   UNL     1       8.126   6.064  -8.493  1.00  0.00     0.000 A 
ATOM     38  C   UNL     1       9.375   6.047  -9.105  1.00  0.00     0.000 A 
ENDBRANCH  32  33
ENDBRANCH  31  32
ENDBRANCH  30  31
ENDBRANCH   9  21
ENDBRANCH   7   9
ENDBRANCH   6   7
ENDBRANCH   5   6
ENDBRANCH   4   5
ENDBRANCH   3   4
ENDBRANCH   2   3
ENDBRANCH   1   2
BRANCH   1  39
ATOM     39  O   UNL     1       4.764  -1.345  -1.839  1.00  0.00    -0.377 OA
BRANCH  39  40
ATOM     40  C   UNL     1       5.218  -2.207  -2.861  1.00  0.00     0.188 C 
BRANCH  40  41
ATOM     41  C   UNL     1       6.719  -2.081  -3.150  1.00  0.00     0.188 C 
BRANCH  41  42
ATOM     42  O   UNL     1       7.097  -0.808  -3.676  1.00  0.00    -0.376 OA
BRANCH  42  43
ATOM     43  C   UNL     1       7.154  -0.667  -5.091  1.00  0.00     0.202 C 
BRANCH  43  44
ATOM     44  C   UNL     1       5.815  -0.603  -5.850  1.00  0.00     0.261 C 
BRANCH  44  45
ATOM     45  O   UNL     1       5.042  -1.813  -5.876  1.00  0.00    -0.460 OA
BRANCH  45  46
ATOM     46  C   UNL     1       5.659  -2.955  -6.238  1.00  0.00     0.338 C 
ATOM     47  O   UNL     1       6.788  -3.083  -6.683  1.00  0.00    -0.246 OA
BRANCH  46  48
ATOM     48  C   UNL     1       4.816  -4.065  -5.766  1.00  0.00     0.060 A 
ATOM     49  C   UNL     1       5.346  -4.942  -4.812  1.00  0.00     0.016 A 
ATOM     50  C   UNL     1       3.509  -4.220  -6.234  1.00  0.00     0.016 A 
ATOM     51  C   UNL     1       4.574  -5.990  -4.328  1.00  0.00     0.010 A 
ATOM     52  C   UNL     1       2.751  -5.302  -5.786  1.00  0.00     0.010 A 
ATOM     53  C   UNL     1       3.296  -6.205  -4.857  1.00  0.00    -0.014 A 
BRANCH  53  54
ATOM     54  C   UNL     1       2.667  -7.523  -4.639  1.00  0.00     0.031 A 
ATOM     55  C   UNL     1       2.957  -8.600  -5.648  1.00  0.00     0.074 A 
ATOM     56  C   UNL     1       1.925  -7.772  -3.547  1.00  0.00     0.049 A 
ATOM     57  N   UNL     1       2.532  -9.833  -5.691  1.00  0.00    -0.248 NA
ATOM     58  C   UNL     1       3.858  -8.234  -6.757  1.00  0.00     0.031 C 
ATOM     59  C   UNL     1       1.641  -6.815  -2.478  1.00  0.00     0.029 A 
ATOM     60  N   UNL     1       1.276  -8.915  -3.158  1.00  0.00    -0.354 N 
ATOM     61  C   UNL     1       3.115 -10.390  -6.822  1.00  0.00     0.074 A 
ATOM     62  C   UNL     1       3.899  -9.356  -7.457  1.00  0.00     0.031 C 
ATOM     63  C   UNL     1       0.860  -7.410  -1.559  1.00  0.00     0.029 A 
ATOM     64  C   UNL     1       0.567  -8.776  -1.989  1.00  0.00     0.049 A 
ATOM     65  H   UNL     1       1.315  -9.757  -3.668  1.00  0.00     0.167 HD
ATOM     66  C   UNL     1       3.011 -11.656  -7.284  1.00  0.00     0.037 A 
ATOM     67  C   UNL     1      -0.242  -9.652  -1.361  1.00  0.00     0.037 A 
ATOM     68  C   UNL     1       2.217 -12.671  -6.649  1.00  0.00     0.049 A 
ATOM     69  C   UNL     1      -0.416 -11.031  -1.949  1.00  0.00     0.074 A 
ATOM     70  C   UNL     1       2.026 -13.984  -7.037  1.00  0.00     0.029 A 
ATOM     71  N   UNL     1       1.474 -12.481  -5.492  1.00  0.00    -0.354 N 
ATOM     72  N   UNL     1       0.145 -11.551  -3.016  1.00  0.00    -0.248 NA
ATOM     73  C   UNL     1      -1.330 -11.943  -1.247  1.00  0.00     0.031 C 
ATOM     74  C   UNL     1       1.129 -14.574  -6.143  1.00  0.00     0.029 A 
ATOM     75  C   UNL     1       0.806 -13.646  -5.164  1.00  0.00     0.049 A 
ATOM     76  H   UNL     1       1.430 -11.641  -4.980  1.00  0.00     0.167 HD
ATOM     77  C   UNL     1      -0.324 -12.859  -3.095  1.00  0.00     0.074 A 
ATOM     78  C   UNL     1      -1.204 -13.053  -1.961  1.00  0.00     0.031 C 
ATOM     79  C   UNL     1      -0.053 -13.815  -4.019  1.00  0.00     0.037 A 
BRANCH  66  80
ATOM     80  C   UNL     1       3.748 -12.000  -8.547  1.00  0.00     0.058 A 
ATOM     81  C   UNL     1       5.147 -12.123  -8.576  1.00  0.00     0.135 A 
ATOM     82  C   UNL     1       3.044 -12.240  -9.737  1.00  0.00     0.135 A 
ATOM     83  F   UNL     1       5.871 -11.874  -7.473  1.00  0.00    -0.206 F 
ATOM     84  C   UNL     1       5.822 -12.461  -9.744  1.00  0.00     0.059 A 
ATOM     85  C   UNL     1       3.696 -12.605 -10.910  1.00  0.00     0.059 A 
ATOM     86  F   UNL     1       1.707 -12.121  -9.767  1.00  0.00    -0.206 F 
ATOM     87  C   UNL     1       5.086 -12.706 -10.905  1.00  0.00     0.060 A 
BRANCH  87  88
ATOM     88  S   UNL     1       5.975 -13.172 -12.405  1.00  0.00     0.124 S 
ATOM     89  O   UNL     1       6.625 -11.914 -12.762  1.00  0.00    -0.237 OA
ATOM     90  O   UNL     1       6.860 -14.229 -11.926  1.00  0.00    -0.237 OA
ATOM     91  O   UNL     1       4.915 -13.607 -13.309  1.00  0.00    -0.744 OA
ENDBRANCH  87  88
ENDBRANCH  66  80
BRANCH  67  92
ATOM     92  C   UNL     1      -0.970  -9.253  -0.125  1.00  0.00     0.058 A 
ATOM     93  C   UNL     1      -0.691  -9.852   1.113  1.00  0.00     0.135 A 
ATOM     94  C   UNL     1      -1.986  -8.284  -0.164  1.00  0.00     0.135 A 
ATOM     95  F   UNL     1       0.264 -10.790   1.203  1.00  0.00    -0.206 F 
ATOM     96  C   UNL     1      -1.408  -9.526   2.260  1.00  0.00     0.059 A 
ATOM     97  C   UNL     1      -2.697  -7.920   0.975  1.00  0.00     0.059 A 
ATOM     98  F   UNL     1      -2.288  -7.672  -1.320  1.00  0.00    -0.206 F 
ATOM     99  C   UNL     1      -2.411  -8.559   2.180  1.00  0.00     0.060 A 
BRANCH  99 100
ATOM    100  S   UNL     1      -3.321  -8.126   3.679  1.00  0.00     0.124 S 
ATOM    101  O   UNL     1      -4.152  -9.309   3.869  1.00  0.00    -0.237 OA
ATOM    102  O   UNL     1      -2.244  -7.938   4.646  1.00  0.00    -0.237 OA
ATOM    103  O   UNL     1      -4.032  -6.908   3.299  1.00  0.00    -0.744 OA
ENDBRANCH  99 100
ENDBRANCH  67  92
BRANCH  79 104
ATOM    104  C   UNL     1      -0.678 -15.169  -3.821  1.00  0.00     0.058 A 
ATOM    105  C   UNL     1      -2.047 -15.390  -4.033  1.00  0.00     0.135 A 
ATOM    106  C   UNL     1       0.121 -16.273  -3.476  1.00  0.00     0.135 A 
ATOM    107  F   UNL     1      -2.854 -14.368  -4.360  1.00  0.00    -0.206 F 
ATOM    108  C   UNL     1      -2.608 -16.654  -3.886  1.00  0.00     0.059 A 
ATOM    109  C   UNL     1      -0.414 -17.550  -3.355  1.00  0.00     0.059 A 
ATOM    110  F   UNL     1       1.439 -16.118  -3.277  1.00  0.00    -0.206 F 
ATOM    111  C   UNL     1      -1.782 -17.729  -3.551  1.00  0.00     0.060 A 
BRANCH 111 112
ATOM    112  S   UNL     1      -2.518 -19.369  -3.400  1.00  0.00     0.124 S 
ATOM    113  O   UNL     1      -3.247 -19.250  -2.141  1.00  0.00    -0.237 OA
ATOM    114  O   UNL     1      -3.341 -19.454  -4.603  1.00  0.00    -0.237 OA
ATOM    115  O   UNL     1      -1.362 -20.260  -3.374  1.00  0.00    -0.744 OA
ENDBRANCH 111 112
ENDBRANCH  79 104
ENDBRANCH  53  54
ENDBRANCH  46  48
ENDBRANCH  45  46
ENDBRANCH  44  45
ENDBRANCH  43  44
ENDBRANCH  42  43
ENDBRANCH  41  42
ENDBRANCH  40  41
ENDBRANCH  39  40
ENDBRANCH   1  39
TORSDOF 29
