REMARK SMILES Nc1ccc2[nH]cc(C(=O)OCCOCCOCCOCCOC(=O)c3ccc(-c4c5nc(c(-c6c(F)cc(S(=O)(=O)[O-])cc6F)c6ccc([nH]6)c(-c6c(F)cc(S(=O)(=O)[O-])cc6F)c6nc(c(-c7c(F)cc(S(=O)(=O)[O-])cc7F)c7ccc4[nH]7)C=C6)C=C5)cc3)c2c1
REMARK SMILES IDX 18 1 17 2 16 3 15 4 14 5 13 6 12 7 11 8 9 9 10 10 8 11 2 12
REMARK SMILES IDX 3 13 93 14 4 15 92 16 5 17 6 18 7 19 1 21 19 24 20 25 21 26
REMARK SMILES IDX 22 27 23 28 24 29 25 30 26 31 27 32 91 33 28 34 90 35 29 36
REMARK SMILES IDX 30 37 31 38 84 39 32 40 89 41 83 42 85 43 33 44 88 45 82 46
REMARK SMILES IDX 81 47 34 49 68 50 47 51 67 52 48 53 51 54 66 55 86 56 49 57
REMARK SMILES IDX 50 58 65 60 87 61 52 62 35 63 36 64 45 65 37 66 38 67 44 68
REMARK SMILES IDX 46 69 39 70 40 71 41 72 42 73 43 74 69 75 70 76 79 77 71 78
REMARK SMILES IDX 72 79 78 80 80 81 73 82 74 83 75 84 76 85 77 86 53 87 54 88
REMARK SMILES IDX 63 89 55 90 56 91 62 92 64 93 57 94 58 95 59 96 60 97 61 98
REMARK H PARENT 6 20 1 22 1 23 85 48 51 59
REMARK Flexibility Score: inf
ROOT
ATOM      1  C   UNL     1      -2.405   5.026   2.295  1.00  0.00     0.188 C 
ENDROOT
BRANCH   1   2
ATOM      2  O   UNL     1      -2.372   4.278   1.088  1.00  0.00    -0.377 OA
BRANCH   2   3
ATOM      3  C   UNL     1      -2.638   4.957  -0.120  1.00  0.00     0.188 C 
BRANCH   3   4
ATOM      4  C   UNL     1      -4.138   5.054  -0.425  1.00  0.00     0.188 C 
BRANCH   4   5
ATOM      5  O   UNL     1      -4.958   4.987   0.724  1.00  0.00    -0.376 OA
BRANCH   5   6
ATOM      6  C   UNL     1      -5.481   3.755   1.209  1.00  0.00     0.202 C 
BRANCH   6   7
ATOM      7  C   UNL     1      -4.736   2.402   1.276  1.00  0.00     0.261 C 
BRANCH   7   8
ATOM      8  O   UNL     1      -3.768   2.106   0.272  1.00  0.00    -0.460 OA
BRANCH   8   9
ATOM      9  C   UNL     1      -4.218   1.925  -0.997  1.00  0.00     0.340 C 
ATOM     10  O   UNL     1      -5.386   1.943  -1.327  1.00  0.00    -0.246 OA
BRANCH   9  11
ATOM     11  C   UNL     1      -3.106   2.007  -1.947  1.00  0.00     0.085 A 
ATOM     12  C   UNL     1       0.370   0.652  -1.006  1.00  0.00     0.032 A 
ATOM     13  C   UNL     1       1.001   1.100  -2.167  1.00  0.00     0.027 A 
ATOM     14  C   UNL     1      -0.983   0.959  -0.798  1.00  0.00     0.036 A 
ATOM     15  C   UNL     1       0.303   1.790  -3.164  1.00  0.00     0.029 A 
ATOM     16  C   UNL     1      -1.732   1.613  -1.804  1.00  0.00     0.016 A 
ATOM     17  C   UNL     1      -1.061   2.019  -2.960  1.00  0.00     0.046 A 
ATOM     18  N   UNL     1      -1.978   2.655  -3.761  1.00  0.00    -0.360 N 
ATOM     19  C   UNL     1      -3.213   2.630  -3.181  1.00  0.00     0.099 A 
ATOM     20  H   UNL     1      -1.774   3.069  -4.630  1.00  0.00     0.166 HD
BRANCH  12  21
ATOM     21  N   UNL     1       1.111   0.035  -0.002  1.00  0.00    -0.399 N 
ATOM     22  H   UNL     1       2.060  -0.179  -0.151  1.00  0.00     0.156 HD
ATOM     23  H   UNL     1       0.685  -0.189   0.857  1.00  0.00     0.156 HD
ENDBRANCH  12  21
ENDBRANCH   9  11
ENDBRANCH   8   9
ENDBRANCH   7   8
ENDBRANCH   6   7
ENDBRANCH   5   6
ENDBRANCH   4   5
ENDBRANCH   3   4
ENDBRANCH   2   3
ENDBRANCH   1   2
BRANCH   1  24
ATOM     24  C   UNL     1      -3.141   6.378   2.409  1.00  0.00     0.188 C 
BRANCH  24  25
ATOM     25  O   UNL     1      -2.740   7.331   1.425  1.00  0.00    -0.376 OA
BRANCH  25  26
ATOM     26  C   UNL     1      -1.913   8.396   1.883  1.00  0.00     0.202 C 
BRANCH  26  27
ATOM     27  C   UNL     1      -0.471   7.995   2.225  1.00  0.00     0.261 C 
BRANCH  27  28
ATOM     28  O   UNL     1      -0.396   7.078   3.327  1.00  0.00    -0.460 OA
BRANCH  28  29
ATOM     29  C   UNL     1      -0.511   7.570   4.583  1.00  0.00     0.338 C 
ATOM     30  O   UNL     1      -0.369   8.726   4.932  1.00  0.00    -0.246 OA
BRANCH  29  31
ATOM     31  C   UNL     1      -1.206   6.510   5.354  1.00  0.00     0.060 A 
ATOM     32  C   UNL     1      -0.848   5.162   5.225  1.00  0.00     0.016 A 
ATOM     33  C   UNL     1      -2.422   6.872   5.947  1.00  0.00     0.016 A 
ATOM     34  C   UNL     1      -1.769   4.178   5.577  1.00  0.00     0.010 A 
ATOM     35  C   UNL     1      -3.346   5.885   6.279  1.00  0.00     0.010 A 
ATOM     36  C   UNL     1      -3.041   4.540   6.047  1.00  0.00    -0.014 A 
BRANCH  36  37
ATOM     37  C   UNL     1      -3.972   3.470   6.435  1.00  0.00     0.031 A 
ATOM     38  C   UNL     1      -3.532   2.685   7.625  1.00  0.00     0.074 A 
ATOM     39  C   UNL     1      -5.213   3.302   5.929  1.00  0.00     0.049 A 
ATOM     40  N   UNL     1      -3.436   1.403   7.778  1.00  0.00    -0.248 NA
ATOM     41  C   UNL     1      -3.061   3.467   8.783  1.00  0.00     0.031 C 
ATOM     42  C   UNL     1      -5.914   4.188   4.999  1.00  0.00     0.029 A 
ATOM     43  N   UNL     1      -6.164   2.363   6.235  1.00  0.00    -0.354 N 
ATOM     44  C   UNL     1      -3.058   1.213   9.106  1.00  0.00     0.074 A 
ATOM     45  C   UNL     1      -2.719   2.507   9.636  1.00  0.00     0.031 C 
ATOM     46  C   UNL     1      -7.223   3.857   4.966  1.00  0.00     0.029 A 
ATOM     47  C   UNL     1      -7.449   2.703   5.819  1.00  0.00     0.049 A 
ATOM     48  H   UNL     1      -5.957   1.524   6.706  1.00  0.00     0.167 HD
ATOM     49  C   UNL     1      -3.217   0.035   9.766  1.00  0.00     0.037 A 
ATOM     50  C   UNL     1      -8.624   2.157   6.231  1.00  0.00     0.037 A 
ATOM     51  C   UNL     1      -3.375  -1.080   8.880  1.00  0.00     0.049 A 
ATOM     52  C   UNL     1      -8.325   0.832   6.831  1.00  0.00     0.074 A 
ATOM     53  C   UNL     1      -2.579  -1.672   7.920  1.00  0.00     0.029 A 
ATOM     54  N   UNL     1      -4.635  -1.585   8.684  1.00  0.00    -0.354 N 
ATOM     55  N   UNL     1      -7.894  -0.205   6.169  1.00  0.00    -0.248 NA
ATOM     56  C   UNL     1      -8.154   0.763   8.274  1.00  0.00     0.031 C 
ATOM     57  C   UNL     1      -3.479  -2.140   6.920  1.00  0.00     0.029 A 
ATOM     58  C   UNL     1      -4.773  -1.825   7.339  1.00  0.00     0.049 A 
ATOM     59  H   UNL     1      -5.314  -1.746   9.378  1.00  0.00     0.167 HD
ATOM     60  C   UNL     1      -7.039  -0.857   7.046  1.00  0.00     0.074 A 
ATOM     61  C   UNL     1      -7.324  -0.279   8.354  1.00  0.00     0.031 C 
ATOM     62  C   UNL     1      -5.995  -1.610   6.592  1.00  0.00     0.037 A 
BRANCH  49  63
ATOM     63  C   UNL     1      -3.498  -0.033  11.242  1.00  0.00     0.058 A 
ATOM     64  C   UNL     1      -3.280  -1.220  11.962  1.00  0.00     0.135 A 
ATOM     65  C   UNL     1      -4.200   0.986  11.928  1.00  0.00     0.135 A 
ATOM     66  F   UNL     1      -2.657  -2.261  11.387  1.00  0.00    -0.206 F 
ATOM     67  C   UNL     1      -3.745  -1.391  13.267  1.00  0.00     0.059 A 
ATOM     68  C   UNL     1      -4.622   0.859  13.245  1.00  0.00     0.059 A 
ATOM     69  F   UNL     1      -4.580   2.115  11.314  1.00  0.00    -0.206 F 
ATOM     70  C   UNL     1      -4.421  -0.347  13.896  1.00  0.00     0.060 A 
BRANCH  70  71
ATOM     71  S   UNL     1      -5.104  -0.598  15.545  1.00  0.00     0.124 S 
ATOM     72  O   UNL     1      -6.186  -1.536  15.270  1.00  0.00    -0.237 OA
ATOM     73  O   UNL     1      -3.958  -1.138  16.270  1.00  0.00    -0.237 OA
ATOM     74  O   UNL     1      -5.516   0.743  15.947  1.00  0.00    -0.744 OA
ENDBRANCH  70  71
ENDBRANCH  49  63
BRANCH  50  75
ATOM     75  C   UNL     1      -9.920   2.862   6.469  1.00  0.00     0.058 A 
ATOM     76  C   UNL     1     -11.108   2.151   6.731  1.00  0.00     0.135 A 
ATOM     77  C   UNL     1      -9.971   4.250   6.719  1.00  0.00     0.135 A 
ATOM     78  F   UNL     1     -11.154   0.823   6.548  1.00  0.00    -0.206 F 
ATOM     79  C   UNL     1     -12.250   2.768   7.260  1.00  0.00     0.059 A 
ATOM     80  C   UNL     1     -11.102   4.888   7.221  1.00  0.00     0.059 A 
ATOM     81  F   UNL     1      -8.887   5.026   6.583  1.00  0.00    -0.206 F 
ATOM     82  C   UNL     1     -12.228   4.137   7.523  1.00  0.00     0.060 A 
BRANCH  82  83
ATOM     83  S   UNL     1     -13.612   4.911   8.393  1.00  0.00     0.124 S 
ATOM     84  O   UNL     1     -14.673   4.846   7.395  1.00  0.00    -0.237 OA
ATOM     85  O   UNL     1     -13.770   4.038   9.552  1.00  0.00    -0.237 OA
ATOM     86  O   UNL     1     -13.117   6.252   8.692  1.00  0.00    -0.744 OA
ENDBRANCH  82  83
ENDBRANCH  50  75
BRANCH  62  87
ATOM     87  C   UNL     1      -5.987  -2.020   5.141  1.00  0.00     0.058 A 
ATOM     88  C   UNL     1      -5.908  -1.121   4.062  1.00  0.00     0.135 A 
ATOM     89  C   UNL     1      -5.900  -3.390   4.841  1.00  0.00     0.135 A 
ATOM     90  F   UNL     1      -5.883   0.204   4.265  1.00  0.00    -0.206 F 
ATOM     91  C   UNL     1      -5.784  -1.567   2.744  1.00  0.00     0.059 A 
ATOM     92  C   UNL     1      -5.741  -3.854   3.538  1.00  0.00     0.059 A 
ATOM     93  F   UNL     1      -5.911  -4.298   5.831  1.00  0.00    -0.206 F 
ATOM     94  C   UNL     1      -5.692  -2.935   2.493  1.00  0.00     0.060 A 
BRANCH  94  95
ATOM     95  S   UNL     1      -5.420  -3.497   0.798  1.00  0.00     0.124 S 
ATOM     96  O   UNL     1      -6.704  -3.207   0.169  1.00  0.00    -0.237 OA
ATOM     97  O   UNL     1      -4.298  -2.666   0.371  1.00  0.00    -0.237 OA
ATOM     98  O   UNL     1      -5.108  -4.916   0.954  1.00  0.00    -0.744 OA
ENDBRANCH  94  95
ENDBRANCH  62  87
ENDBRANCH  36  37
ENDBRANCH  29  31
ENDBRANCH  28  29
ENDBRANCH  27  28
ENDBRANCH  26  27
ENDBRANCH  25  26
ENDBRANCH  24  25
ENDBRANCH   1  24
TORSDOF 24
