REMARK SMILES NC(=O)c1ccc(NC(=O)Cc2ccccc2C(=O)OCCOCCOCCOCCOC(=O)c2ccc(-c3c4nc(c(-c5c(F)cc(S(=O)(=O)[O-])cc5F)c5ccc([nH]5)c(-c5c(F)cc(S(=O)(=O)[O-])cc5F)c5nc(c(-c6c(F)cc(S(=O)(=O)[O-])cc6F)c6ccc3[nH]6)C=C5)C=C4)cc2)cc1
REMARK SMILES IDX 25 1 24 2 23 3 22 4 21 5 20 6 18 7 19 8 17 9 12 10 13 11
REMARK SMILES IDX 14 12 16 13 15 14 11 15 9 16 8 17 10 19 7 20 4 21 5 22
REMARK SMILES IDX 102 23 6 24 101 25 2 26 1 27 3 30 26 31 27 32 28 33 29 34
REMARK SMILES IDX 30 35 31 36 32 37 33 38 34 39 35 40 36 41 100 42 37 43 99 44
REMARK SMILES IDX 38 45 39 46 40 47 93 48 41 49 98 50 92 51 94 52 42 53 97 54
REMARK SMILES IDX 91 55 90 56 43 58 77 59 56 60 76 61 57 62 60 63 75 64 95 65
REMARK SMILES IDX 58 66 59 67 74 69 96 70 61 71 44 72 45 73 54 74 46 75 47 76
REMARK SMILES IDX 53 77 55 78 48 79 49 80 50 81 51 82 52 83 78 84 79 85 88 86
REMARK SMILES IDX 80 87 81 88 87 89 89 90 82 91 83 92 84 93 85 94 86 95 62 96
REMARK SMILES IDX 63 97 72 98 64 99 65 100 71 101 73 102 66 103 67 104 68 105
REMARK SMILES IDX 69 106 70 107
REMARK H PARENT 8 18 1 28 1 29 94 57 60 68
REMARK Flexibility Score: inf
ROOT
ATOM      1  C   UNL     1      -1.868   2.178   6.812  1.00  0.00     0.188 C 
ENDROOT
BRANCH   1   2
ATOM      2  C   UNL     1      -2.165   0.991   5.872  1.00  0.00     0.188 C 
BRANCH   2   3
ATOM      3  O   UNL     1      -1.317  -0.130   6.059  1.00  0.00    -0.376 OA
BRANCH   3   4
ATOM      4  C   UNL     1      -0.156  -0.243   5.263  1.00  0.00     0.202 C 
BRANCH   4   5
ATOM      5  C   UNL     1       0.854   0.902   5.225  1.00  0.00     0.261 C 
BRANCH   5   6
ATOM      6  O   UNL     1       0.381   2.240   4.997  1.00  0.00    -0.460 OA
BRANCH   6   7
ATOM      7  C   UNL     1      -0.307   2.572   3.893  1.00  0.00     0.338 C 
ATOM      8  O   UNL     1      -0.710   1.790   3.048  1.00  0.00    -0.246 OA
BRANCH   7   9
ATOM      9  C   UNL     1      -0.625   4.033   3.911  1.00  0.00     0.063 A 
ATOM     10  C   UNL     1       0.192   5.056   4.448  1.00  0.00    -0.024 A 
ATOM     11  C   UNL     1      -0.304   6.380   4.419  1.00  0.00     0.005 A 
ATOM     12  C   UNL     1      -1.553   6.688   3.875  1.00  0.00     0.000 A 
ATOM     13  C   UNL     1      -1.881   4.362   3.358  1.00  0.00     0.016 A 
ATOM     14  C   UNL     1      -2.343   5.678   3.344  1.00  0.00     0.001 A 
BRANCH  10  15
ATOM     15  C   UNL     1       1.557   4.857   5.089  1.00  0.00     0.136 C 
BRANCH  15  16
ATOM     16  C   UNL     1       2.704   5.561   4.377  1.00  0.00     0.228 C 
ATOM     17  N   UNL     1       3.214   5.148   3.175  1.00  0.00    -0.326 N 
ATOM     18  H   UNL     1       3.925   5.730   2.821  1.00  0.00     0.169 HD
ATOM     19  O   UNL     1       3.160   6.610   4.851  1.00  0.00    -0.274 OA
BRANCH  17  20
ATOM     20  C   UNL     1       2.914   4.053   2.353  1.00  0.00     0.041 A 
ATOM     21  C   UNL     1       1.882   2.113   0.626  1.00  0.00     0.039 A 
ATOM     22  C   UNL     1       2.051   1.825   1.974  1.00  0.00     0.016 A 
ATOM     23  C   UNL     1       2.394   3.295   0.104  1.00  0.00     0.016 A 
ATOM     24  C   UNL     1       2.571   2.800   2.836  1.00  0.00     0.027 A 
ATOM     25  C   UNL     1       2.946   4.249   0.968  1.00  0.00     0.027 A 
BRANCH  21  26
ATOM     26  C   UNL     1       1.038   1.228  -0.198  1.00  0.00     0.248 C 
ATOM     27  N   UNL     1       1.535  -0.016  -0.447  1.00  0.00    -0.366 N 
ATOM     28  H   UNL     1       1.018  -0.653  -0.991  1.00  0.00     0.159 HD
ATOM     29  H   UNL     1       2.411  -0.277  -0.083  1.00  0.00     0.159 HD
ATOM     30  O   UNL     1      -0.047   1.598  -0.624  1.00  0.00    -0.270 OA
ENDBRANCH  21  26
ENDBRANCH  17  20
ENDBRANCH  15  16
ENDBRANCH  10  15
ENDBRANCH   7   9
ENDBRANCH   6   7
ENDBRANCH   5   6
ENDBRANCH   4   5
ENDBRANCH   3   4
ENDBRANCH   2   3
ENDBRANCH   1   2
BRANCH   1  31
ATOM     31  O   UNL     1      -0.621   2.159   7.488  1.00  0.00    -0.377 OA
BRANCH  31  32
ATOM     32  C   UNL     1      -0.349   1.170   8.479  1.00  0.00     0.188 C 
BRANCH  32  33
ATOM     33  C   UNL     1      -1.328   0.019   8.800  1.00  0.00     0.188 C 
BRANCH  33  34
ATOM     34  O   UNL     1      -2.683   0.281   8.491  1.00  0.00    -0.376 OA
BRANCH  34  35
ATOM     35  C   UNL     1      -3.568   0.719   9.501  1.00  0.00     0.202 C 
BRANCH  35  36
ATOM     36  C   UNL     1      -3.220   1.982  10.300  1.00  0.00     0.261 C 
BRANCH  36  37
ATOM     37  O   UNL     1      -1.916   2.037  10.888  1.00  0.00    -0.460 OA
BRANCH  37  38
ATOM     38  C   UNL     1      -1.596   1.091  11.795  1.00  0.00     0.338 C 
ATOM     39  O   UNL     1      -2.314   0.189  12.201  1.00  0.00    -0.246 OA
BRANCH  38  40
ATOM     40  C   UNL     1      -0.148   1.209  12.060  1.00  0.00     0.060 A 
ATOM     41  C   UNL     1       0.690   0.116  11.798  1.00  0.00     0.016 A 
ATOM     42  C   UNL     1       0.380   2.410  12.540  1.00  0.00     0.016 A 
ATOM     43  C   UNL     1       2.056   0.207  12.059  1.00  0.00     0.010 A 
ATOM     44  C   UNL     1       1.742   2.490  12.830  1.00  0.00     0.010 A 
ATOM     45  C   UNL     1       2.575   1.375  12.630  1.00  0.00    -0.014 A 
BRANCH  45  46
ATOM     46  C   UNL     1       3.917   1.343  13.255  1.00  0.00     0.031 A 
ATOM     47  C   UNL     1       3.991   1.081  14.734  1.00  0.00     0.074 A 
ATOM     48  C   UNL     1       5.036   1.523  12.533  1.00  0.00     0.049 A 
ATOM     49  N   UNL     1       5.029   1.069  15.526  1.00  0.00    -0.248 NA
ATOM     50  C   UNL     1       2.713   0.799  15.411  1.00  0.00     0.031 C 
ATOM     51  C   UNL     1       5.085   1.735  11.088  1.00  0.00     0.029 A 
ATOM     52  N   UNL     1       6.348   1.569  12.928  1.00  0.00    -0.354 N 
ATOM     53  C   UNL     1       4.531   0.792  16.794  1.00  0.00     0.074 A 
ATOM     54  C   UNL     1       3.095   0.673  16.672  1.00  0.00     0.031 C 
ATOM     55  C   UNL     1       6.367   1.907  10.719  1.00  0.00     0.029 A 
ATOM     56  C   UNL     1       7.221   1.855  11.905  1.00  0.00     0.049 A 
ATOM     57  H   UNL     1       6.638   1.411  13.855  1.00  0.00     0.167 HD
ATOM     58  C   UNL     1       5.211   0.646  17.954  1.00  0.00     0.037 A 
ATOM     59  C   UNL     1       8.550   2.077  11.935  1.00  0.00     0.037 A 
ATOM     60  C   UNL     1       6.640   0.775  18.063  1.00  0.00     0.049 A 
ATOM     61  C   UNL     1       9.280   1.984  13.252  1.00  0.00     0.074 A 
ATOM     62  C   UNL     1       7.433   0.632  19.186  1.00  0.00     0.029 A 
ATOM     63  N   UNL     1       7.488   1.092  17.011  1.00  0.00    -0.354 N 
ATOM     64  N   UNL     1       8.805   1.701  14.443  1.00  0.00    -0.248 NA
ATOM     65  C   UNL     1      10.728   2.237  13.230  1.00  0.00     0.031 C 
ATOM     66  C   UNL     1       8.752   0.924  18.827  1.00  0.00     0.029 A 
ATOM     67  C   UNL     1       8.793   1.180  17.464  1.00  0.00     0.049 A 
ATOM     68  H   UNL     1       7.203   1.234  16.079  1.00  0.00     0.167 HD
ATOM     69  C   UNL     1       9.898   1.712  15.305  1.00  0.00     0.074 A 
ATOM     70  C   UNL     1      11.060   2.020  14.495  1.00  0.00     0.031 C 
ATOM     71  C   UNL     1       9.939   1.483  16.642  1.00  0.00     0.037 A 
BRANCH  58  72
ATOM     72  C   UNL     1       4.411   0.374  19.199  1.00  0.00     0.058 A 
ATOM     73  C   UNL     1       3.743  -0.844  19.405  1.00  0.00     0.135 A 
ATOM     74  C   UNL     1       4.320   1.348  20.208  1.00  0.00     0.135 A 
ATOM     75  F   UNL     1       3.775  -1.802  18.465  1.00  0.00    -0.206 F 
ATOM     76  C   UNL     1       2.988  -1.074  20.551  1.00  0.00     0.059 A 
ATOM     77  C   UNL     1       3.598   1.126  21.376  1.00  0.00     0.059 A 
ATOM     78  F   UNL     1       4.933   2.533  20.061  1.00  0.00    -0.206 F 
ATOM     79  C   UNL     1       2.922  -0.083  21.531  1.00  0.00     0.060 A 
BRANCH  79  80
ATOM     80  S   UNL     1       1.938  -0.397  23.011  1.00  0.00     0.124 S 
ATOM     81  O   UNL     1       0.581  -0.340  22.476  1.00  0.00    -0.237 OA
ATOM     82  O   UNL     1       2.403  -1.719  23.418  1.00  0.00    -0.237 OA
ATOM     83  O   UNL     1       2.306   0.697  23.904  1.00  0.00    -0.744 OA
ENDBRANCH  79  80
ENDBRANCH  58  72
BRANCH  59  84
ATOM     84  C   UNL     1       9.273   2.421  10.681  1.00  0.00     0.058 A 
ATOM     85  C   UNL     1      10.195   1.534  10.106  1.00  0.00     0.135 A 
ATOM     86  C   UNL     1       9.047   3.642  10.024  1.00  0.00     0.135 A 
ATOM     87  F   UNL     1      10.457   0.361  10.703  1.00  0.00    -0.206 F 
ATOM     88  C   UNL     1      10.870   1.844   8.930  1.00  0.00     0.059 A 
ATOM     89  C   UNL     1       9.689   3.962   8.831  1.00  0.00     0.059 A 
ATOM     90  F   UNL     1       8.171   4.525  10.528  1.00  0.00    -0.206 F 
ATOM     91  C   UNL     1      10.603   3.058   8.295  1.00  0.00     0.060 A 
BRANCH  91  92
ATOM     92  S   UNL     1      11.434   3.415   6.731  1.00  0.00     0.124 S 
ATOM     93  O   UNL     1      12.808   3.634   7.170  1.00  0.00    -0.237 OA
ATOM     94  O   UNL     1      11.193   2.191   5.973  1.00  0.00    -0.237 OA
ATOM     95  O   UNL     1      10.732   4.596   6.239  1.00  0.00    -0.744 OA
ENDBRANCH  91  92
ENDBRANCH  59  84
BRANCH  71  96
ATOM     96  C   UNL     1      11.286   1.513  17.315  1.00  0.00     0.058 A 
ATOM     97  C   UNL     1      11.995   2.709  17.508  1.00  0.00     0.135 A 
ATOM     98  C   UNL     1      11.846   0.331  17.830  1.00  0.00     0.135 A 
ATOM     99  F   UNL     1      11.509   3.867  17.033  1.00  0.00    -0.206 F 
ATOM    100  C   UNL     1      13.221   2.729  18.165  1.00  0.00     0.059 A 
ATOM    101  C   UNL     1      13.054   0.333  18.519  1.00  0.00     0.059 A 
ATOM    102  F   UNL     1      11.205  -0.840  17.685  1.00  0.00    -0.206 F 
ATOM    103  C   UNL     1      13.741   1.536  18.671  1.00  0.00     0.060 A 
BRANCH 103 104
ATOM    104  S   UNL     1      15.317   1.582  19.550  1.00  0.00     0.124 S 
ATOM    105  O   UNL     1      16.256   1.821  18.458  1.00  0.00    -0.237 OA
ATOM    106  O   UNL     1      15.124   2.693  20.476  1.00  0.00    -0.237 OA
ATOM    107  O   UNL     1      15.400   0.263  20.171  1.00  0.00    -0.744 OA
ENDBRANCH 103 104
ENDBRANCH  71  96
ENDBRANCH  45  46
ENDBRANCH  38  40
ENDBRANCH  37  38
ENDBRANCH  36  37
ENDBRANCH  35  36
ENDBRANCH  34  35
ENDBRANCH  33  34
ENDBRANCH  32  33
ENDBRANCH  31  32
ENDBRANCH   1  31
TORSDOF 27
