REMARK SMILES Cc1noc(C)c1C[NH2+][C@H](C)[C@H](C)C(=O)OCCOCCOCCOCCOC(=O)c1ccc(-c2c3nc(c(-c4c(F)cc(S(=O)(=O)[O-])cc4F)c4ccc([nH]4)c(-c4c(F)cc(S(=O)(=O)[O-])cc4F)c4nc(c(-c5c(F)cc(S(=O)(=O)[O-])cc5F)c5ccc2[nH]5)C=C4)C=C3)cc1
REMARK SMILES IDX 21 1 20 2 19 3 18 4 17 5 16 6 14 7 15 8 12 9 13 10 10 11
REMARK SMILES IDX 11 12 9 13 8 16 7 17 1 18 2 19 3 20 4 21 5 22 6 23 22 24
REMARK SMILES IDX 23 25 24 26 25 27 26 28 27 29 28 30 29 31 30 32 31 33 32 34
REMARK SMILES IDX 96 35 33 36 95 37 34 38 35 39 36 40 89 41 37 42 94 43 88 44
REMARK SMILES IDX 90 45 38 46 93 47 87 48 86 49 39 51 73 52 52 53 72 54 53 55
REMARK SMILES IDX 56 56 71 57 91 58 54 59 55 60 70 62 92 63 57 64 40 65 41 66
REMARK SMILES IDX 50 67 42 68 43 69 49 70 51 71 44 72 45 73 46 74 47 75 48 76
REMARK SMILES IDX 74 77 75 78 84 79 76 80 77 81 83 82 85 83 78 84 79 85 80 86
REMARK SMILES IDX 81 87 82 88 58 89 59 90 68 91 60 92 61 93 67 94 69 95 62 96
REMARK SMILES IDX 63 97 64 98 65 99 66 100
REMARK H PARENT 9 14 9 15 90 50 56 61
REMARK Flexibility Score: inf
ROOT
ATOM      1  C   UNL     1       0.544   7.089  -1.616  1.00  0.00     0.188 C 
ENDROOT
BRANCH   1   2
ATOM      2  C   UNL     1       0.407   7.751  -2.995  1.00  0.00     0.188 C 
BRANCH   2   3
ATOM      3  O   UNL     1      -0.304   8.962  -3.213  1.00  0.00    -0.376 OA
BRANCH   3   4
ATOM      4  C   UNL     1      -1.332   9.436  -2.359  1.00  0.00     0.202 C 
BRANCH   4   5
ATOM      5  C   UNL     1      -2.623   8.639  -2.109  1.00  0.00     0.261 C 
BRANCH   5   6
ATOM      6  O   UNL     1      -2.481   7.254  -1.776  1.00  0.00    -0.463 OA
BRANCH   6   7
ATOM      7  C   UNL     1      -2.409   6.429  -2.840  1.00  0.00     0.314 C 
ATOM      8  O   UNL     1      -2.451   6.801  -4.010  1.00  0.00    -0.252 OA
BRANCH   7   9
ATOM      9  C   UNL     1      -2.318   4.957  -2.473  1.00  0.00     0.154 C 
ATOM     10  C   UNL     1      -1.658   4.607  -1.124  1.00  0.00     0.026 C 
BRANCH   9  11
ATOM     11  C   UNL     1      -3.716   4.322  -2.573  1.00  0.00     0.193 C 
ATOM     12  C   UNL     1      -4.515   4.763  -3.803  1.00  0.00     0.076 C 
BRANCH  11  13
ATOM     13  N   UNL     1      -3.576   2.865  -2.677  1.00  0.00    -0.339 N 
ATOM     14  H   UNL     1      -3.983   2.562  -3.562  1.00  0.00     0.346 HD
ATOM     15  H   UNL     1      -2.581   2.650  -2.620  1.00  0.00     0.346 HD
BRANCH  13  16
ATOM     16  C   UNL     1      -4.236   2.150  -1.596  1.00  0.00     0.303 C 
BRANCH  16  17
ATOM     17  C   UNL     1      -4.233   0.723  -1.985  1.00  0.00     0.071 A 
ATOM     18  C   UNL     1      -5.582   0.852  -4.207  1.00  0.00     0.071 C 
ATOM     19  C   UNL     1      -4.841   0.145  -3.133  1.00  0.00     0.090 A 
ATOM     20  N   UNL     1      -4.637  -1.176  -3.183  1.00  0.00    -0.085 NA
ATOM     21  O   UNL     1      -3.871  -1.478  -2.071  1.00  0.00    -0.361 OA
ATOM     22  C   UNL     1      -3.622  -0.343  -1.365  1.00  0.00     0.142 A 
ATOM     23  C   UNL     1      -2.778  -0.479  -0.163  1.00  0.00     0.091 C 
ENDBRANCH  16  17
ENDBRANCH  13  16
ENDBRANCH  11  13
ENDBRANCH   9  11
ENDBRANCH   7   9
ENDBRANCH   6   7
ENDBRANCH   5   6
ENDBRANCH   4   5
ENDBRANCH   3   4
ENDBRANCH   2   3
ENDBRANCH   1   2
BRANCH   1  24
ATOM     24  O   UNL     1      -0.135   7.735  -0.563  1.00  0.00    -0.377 OA
BRANCH  24  25
ATOM     25  C   UNL     1       0.627   8.626   0.242  1.00  0.00     0.188 C 
BRANCH  25  26
ATOM     26  C   UNL     1       1.729   9.452  -0.454  1.00  0.00     0.188 C 
BRANCH  26  27
ATOM     27  O   UNL     1       2.629   8.672  -1.231  1.00  0.00    -0.376 OA
BRANCH  27  28
ATOM     28  C   UNL     1       3.851   8.246  -0.649  1.00  0.00     0.202 C 
BRANCH  28  29
ATOM     29  C   UNL     1       3.797   7.284   0.551  1.00  0.00     0.261 C 
BRANCH  29  30
ATOM     30  O   UNL     1       3.076   7.726   1.712  1.00  0.00    -0.460 OA
BRANCH  30  31
ATOM     31  C   UNL     1       3.441   8.896   2.275  1.00  0.00     0.338 C 
ATOM     32  O   UNL     1       4.384   9.599   1.948  1.00  0.00    -0.246 OA
BRANCH  31  33
ATOM     33  C   UNL     1       2.380   9.306   3.221  1.00  0.00     0.060 A 
ATOM     34  C   UNL     1       1.761  10.549   3.037  1.00  0.00     0.016 A 
ATOM     35  C   UNL     1       2.001   8.482   4.285  1.00  0.00     0.016 A 
ATOM     36  C   UNL     1       0.804  10.997   3.946  1.00  0.00     0.010 A 
ATOM     37  C   UNL     1       1.056   8.942   5.210  1.00  0.00     0.010 A 
ATOM     38  C   UNL     1       0.488  10.221   5.069  1.00  0.00    -0.014 A 
BRANCH  38  39
ATOM     39  C   UNL     1      -0.270  10.845   6.183  1.00  0.00     0.031 A 
ATOM     40  C   UNL     1       0.500  11.374   7.365  1.00  0.00     0.074 A 
ATOM     41  C   UNL     1      -1.604  11.002   6.120  1.00  0.00     0.049 A 
ATOM     42  N   UNL     1       0.064  11.979   8.438  1.00  0.00    -0.248 NA
ATOM     43  C   UNL     1       1.962  11.196   7.328  1.00  0.00     0.031 C 
ATOM     44  C   UNL     1      -2.455  10.567   5.013  1.00  0.00     0.029 A 
ATOM     45  N   UNL     1      -2.477  11.575   7.011  1.00  0.00    -0.354 N 
ATOM     46  C   UNL     1       1.192  12.252   9.205  1.00  0.00     0.074 A 
ATOM     47  C   UNL     1       2.328  11.711   8.492  1.00  0.00     0.031 C 
ATOM     48  C   UNL     1      -3.731  10.887   5.294  1.00  0.00     0.029 A 
ATOM     49  C   UNL     1      -3.790  11.522   6.610  1.00  0.00     0.049 A 
ATOM     50  H   UNL     1      -2.188  11.985   7.858  1.00  0.00     0.167 HD
ATOM     51  C   UNL     1       1.276  12.905  10.388  1.00  0.00     0.037 A 
ATOM     52  C   UNL     1      -4.911  11.927   7.240  1.00  0.00     0.037 A 
ATOM     53  C   UNL     1       0.141  13.438  11.096  1.00  0.00     0.049 A 
ATOM     54  C   UNL     1      -4.799  12.596   8.588  1.00  0.00     0.074 A 
ATOM     55  C   UNL     1       0.121  14.129  12.295  1.00  0.00     0.029 A 
ATOM     56  N   UNL     1      -1.178  13.332  10.677  1.00  0.00    -0.354 N 
ATOM     57  N   UNL     1      -3.724  12.870   9.289  1.00  0.00    -0.248 NA
ATOM     58  C   UNL     1      -6.054  13.020   9.223  1.00  0.00     0.031 C 
ATOM     59  C   UNL     1      -1.213  14.385  12.631  1.00  0.00     0.029 A 
ATOM     60  C   UNL     1      -2.021  13.918  11.607  1.00  0.00     0.049 A 
ATOM     61  H   UNL     1      -1.471  12.903   9.840  1.00  0.00     0.167 HD
ATOM     62  C   UNL     1      -4.171  13.525  10.434  1.00  0.00     0.074 A 
ATOM     63  C   UNL     1      -5.612  13.622  10.318  1.00  0.00     0.031 C 
ATOM     64  C   UNL     1      -3.456  14.003  11.485  1.00  0.00     0.037 A 
BRANCH  51  65
ATOM     65  C   UNL     1       2.641  13.050  11.009  1.00  0.00     0.058 A 
ATOM     66  C   UNL     1       3.625  13.886  10.455  1.00  0.00     0.135 A 
ATOM     67  C   UNL     1       2.958  12.364  12.192  1.00  0.00     0.135 A 
ATOM     68  F   UNL     1       3.385  14.550   9.313  1.00  0.00    -0.206 F 
ATOM     69  C   UNL     1       4.883  14.014  11.037  1.00  0.00     0.059 A 
ATOM     70  C   UNL     1       4.198  12.502  12.809  1.00  0.00     0.059 A 
ATOM     71  F   UNL     1       2.058  11.548  12.762  1.00  0.00    -0.206 F 
ATOM     72  C   UNL     1       5.159  13.319  12.216  1.00  0.00     0.060 A 
BRANCH  72  73
ATOM     73  S   UNL     1       6.793  13.501  12.962  1.00  0.00     0.124 S 
ATOM     74  O   UNL     1       7.630  12.778  12.009  1.00  0.00    -0.237 OA
ATOM     75  O   UNL     1       6.964  14.950  12.984  1.00  0.00    -0.237 OA
ATOM     76  O   UNL     1       6.643  12.870  14.269  1.00  0.00    -0.744 OA
ENDBRANCH  72  73
ENDBRANCH  51  65
BRANCH  52  77
ATOM     77  C   UNL     1      -6.242  11.708   6.609  1.00  0.00     0.058 A 
ATOM     78  C   UNL     1      -7.027  12.784   6.168  1.00  0.00     0.135 A 
ATOM     79  C   UNL     1      -6.759  10.413   6.443  1.00  0.00     0.135 A 
ATOM     80  F   UNL     1      -6.585  14.042   6.316  1.00  0.00    -0.206 F 
ATOM     81  C   UNL     1      -8.281  12.586   5.598  1.00  0.00     0.059 A 
ATOM     82  C   UNL     1      -7.996  10.188   5.849  1.00  0.00     0.059 A 
ATOM     83  F   UNL     1      -6.046   9.348   6.841  1.00  0.00    -0.206 F 
ATOM     84  C   UNL     1      -8.755  11.283   5.438  1.00  0.00     0.060 A 
BRANCH  84  85
ATOM     85  S   UNL     1     -10.358  11.035   4.644  1.00  0.00     0.124 S 
ATOM     86  O   UNL     1     -11.273  11.514   5.673  1.00  0.00    -0.237 OA
ATOM     87  O   UNL     1     -10.239  11.869   3.453  1.00  0.00    -0.237 OA
ATOM     88  O   UNL     1     -10.388   9.597   4.393  1.00  0.00    -0.744 OA
ENDBRANCH  84  85
ENDBRANCH  52  77
BRANCH  64  89
ATOM     89  C   UNL     1      -4.220  14.708  12.576  1.00  0.00     0.058 A 
ATOM     90  C   UNL     1      -5.098  14.022  13.433  1.00  0.00     0.135 A 
ATOM     91  C   UNL     1      -4.063  16.090  12.776  1.00  0.00     0.135 A 
ATOM     92  F   UNL     1      -5.287  12.701  13.290  1.00  0.00    -0.206 F 
ATOM     93  C   UNL     1      -5.831  14.689  14.410  1.00  0.00     0.059 A 
ATOM     94  C   UNL     1      -4.757  16.770  13.771  1.00  0.00     0.059 A 
ATOM     95  F   UNL     1      -3.224  16.795  12.000  1.00  0.00    -0.206 F 
ATOM     96  C   UNL     1      -5.658  16.065  14.568  1.00  0.00     0.060 A 
BRANCH  96  97
ATOM     97  S   UNL     1      -6.625  16.921  15.828  1.00  0.00     0.124 S 
ATOM     98  O   UNL     1      -7.955  16.922  15.226  1.00  0.00    -0.237 OA
ATOM     99  O   UNL     1      -6.457  16.056  16.992  1.00  0.00    -0.237 OA
ATOM    100  O   UNL     1      -5.979  18.227  15.925  1.00  0.00    -0.744 OA
ENDBRANCH  96  97
ENDBRANCH  64  89
ENDBRANCH  38  39
ENDBRANCH  31  33
ENDBRANCH  30  31
ENDBRANCH  29  30
ENDBRANCH  28  29
ENDBRANCH  27  28
ENDBRANCH  26  27
ENDBRANCH  25  26
ENDBRANCH  24  25
ENDBRANCH   1  24
TORSDOF 27
