REMARK SMILES O=C(OCCOCCOCCOCCOC(=O)[C@H](c1c[nH]c2cc(F)ccc12)[NH+]1CC[NH+](CC(=O)N2CCOCC2)CC1)c1ccc(-c2c3nc(c(-c4c(F)cc(S(=O)(=O)[O-])cc4F)c4ccc([nH]4)c(-c4c(F)cc(S(=O)(=O)[O-])cc4F)c4nc(c(-c5c(F)cc(S(=O)(=O)[O-])cc5F)c5ccc2[nH]5)C=C4)C=C3)cc1
REMARK SMILES IDX 9 1 8 2 7 3 6 4 5 5 4 6 3 7 2 8 1 9 44 10 45 11 109 12 46 13
REMARK SMILES IDX 108 14 47 15 48 16 49 17 102 18 50 19 107 20 101 21 103 22
REMARK SMILES IDX 51 23 106 24 100 25 99 26 52 28 86 29 65 30 85 31 66 32
REMARK SMILES IDX 69 33 84 34 104 35 67 36 68 37 83 39 105 40 70 41 53 42
REMARK SMILES IDX 54 43 63 44 55 45 56 46 62 47 64 48 57 49 58 50 59 51 60 52
REMARK SMILES IDX 61 53 87 54 88 55 97 56 89 57 90 58 96 59 98 60 91 61 92 62
REMARK SMILES IDX 93 63 94 64 95 65 71 66 72 67 81 68 73 69 74 70 80 71 82 72
REMARK SMILES IDX 75 73 76 74 77 75 78 76 79 77 10 78 11 79 12 80 13 81 14 82
REMARK SMILES IDX 15 83 16 84 17 85 18 86 29 87 30 88 43 89 31 91 42 92 32 93
REMARK SMILES IDX 33 95 34 96 35 97 36 98 37 99 41 100 38 101 40 102 39 103
REMARK SMILES IDX 19 104 20 105 28 106 21 107 22 108 27 109 23 111 26 112
REMARK SMILES IDX 24 113 25 114
REMARK H PARENT 103 27 69 38 29 90 32 94 21 110
REMARK Flexibility Score: inf
ROOT
ATOM      1  O   UNL     1       6.487   1.966   3.566  1.00  0.00    -0.377 OA
ENDROOT
BRANCH   1   2
ATOM      2  C   UNL     1       7.158   2.811   2.628  1.00  0.00     0.188 C 
BRANCH   2   3
ATOM      3  C   UNL     1       7.802   2.067   1.453  1.00  0.00     0.188 C 
BRANCH   3   4
ATOM      4  O   UNL     1       6.820   1.331   0.733  1.00  0.00    -0.376 OA
BRANCH   4   5
ATOM      5  C   UNL     1       7.076  -0.056   0.503  1.00  0.00     0.202 C 
BRANCH   5   6
ATOM      6  C   UNL     1       7.791  -0.318  -0.807  1.00  0.00     0.261 C 
BRANCH   6   7
ATOM      7  O   UNL     1       8.566   0.805  -1.237  1.00  0.00    -0.460 OA
BRANCH   7   8
ATOM      8  C   UNL     1       8.117   1.972  -1.761  1.00  0.00     0.338 C 
ATOM      9  O   UNL     1       8.931   2.888  -1.891  1.00  0.00    -0.246 OA
BRANCH   8  10
ATOM     10  C   UNL     1       6.720   2.224  -2.244  1.00  0.00     0.060 A 
ATOM     11  C   UNL     1       5.542   1.707  -1.697  1.00  0.00     0.016 A 
ATOM     12  C   UNL     1       6.593   3.162  -3.281  1.00  0.00     0.016 A 
ATOM     13  C   UNL     1       4.291   2.112  -2.126  1.00  0.00     0.010 A 
ATOM     14  C   UNL     1       5.337   3.559  -3.747  1.00  0.00     0.010 A 
ATOM     15  C   UNL     1       4.186   3.024  -3.164  1.00  0.00    -0.014 A 
BRANCH  15  16
ATOM     16  C   UNL     1       2.850   3.197  -3.745  1.00  0.00     0.031 A 
ATOM     17  C   UNL     1       2.550   2.412  -4.983  1.00  0.00     0.074 A 
ATOM     18  C   UNL     1       1.907   3.874  -3.068  1.00  0.00     0.049 A 
ATOM     19  N   UNL     1       1.490   2.435  -5.737  1.00  0.00    -0.248 NA
ATOM     20  C   UNL     1       3.579   1.446  -5.418  1.00  0.00     0.031 C 
ATOM     21  C   UNL     1       2.092   4.491  -1.750  1.00  0.00     0.029 A 
ATOM     22  N   UNL     1       0.601   4.132  -3.375  1.00  0.00    -0.354 N 
ATOM     23  C   UNL     1       1.745   1.531  -6.759  1.00  0.00     0.074 A 
ATOM     24  C   UNL     1       3.044   0.952  -6.522  1.00  0.00     0.031 C 
ATOM     25  C   UNL     1       0.939   5.065  -1.369  1.00  0.00     0.029 A 
ATOM     26  C   UNL     1      -0.031   4.926  -2.447  1.00  0.00     0.049 A 
ATOM     27  H   UNL     1       0.157   3.784  -4.182  1.00  0.00     0.167 HD
ATOM     28  C   UNL     1       0.954   1.240  -7.812  1.00  0.00     0.037 A 
ATOM     29  C   UNL     1      -1.238   5.518  -2.515  1.00  0.00     0.037 A 
ATOM     30  C   UNL     1      -0.337   1.842  -7.992  1.00  0.00     0.049 A 
ATOM     31  C   UNL     1      -2.050   5.276  -3.763  1.00  0.00     0.074 A 
ATOM     32  C   UNL     1      -1.220   1.699  -9.042  1.00  0.00     0.029 A 
ATOM     33  N   UNL     1      -0.923   2.712  -7.080  1.00  0.00    -0.354 N 
ATOM     34  N   UNL     1      -1.776   4.491  -4.782  1.00  0.00    -0.248 NA
ATOM     35  C   UNL     1      -3.314   6.008  -3.889  1.00  0.00     0.031 C 
ATOM     36  C   UNL     1      -2.317   2.530  -8.791  1.00  0.00     0.029 A 
ATOM     37  C   UNL     1      -2.146   3.140  -7.555  1.00  0.00     0.049 A 
ATOM     38  H   UNL     1      -0.524   2.984  -6.222  1.00  0.00     0.167 HD
ATOM     39  C   UNL     1      -2.842   4.621  -5.662  1.00  0.00     0.074 A 
ATOM     40  C   UNL     1      -3.775   5.542  -5.041  1.00  0.00     0.031 C 
ATOM     41  C   UNL     1      -3.038   4.047  -6.876  1.00  0.00     0.037 A 
BRANCH  28  42
ATOM     42  C   UNL     1       1.506   0.330  -8.868  1.00  0.00     0.058 A 
ATOM     43  C   UNL     1       1.639  -1.053  -8.678  1.00  0.00     0.135 A 
ATOM     44  C   UNL     1       1.913   0.866 -10.101  1.00  0.00     0.135 A 
ATOM     45  F   UNL     1       1.313  -1.610  -7.501  1.00  0.00    -0.206 F 
ATOM     46  C   UNL     1       2.154  -1.875  -9.677  1.00  0.00     0.059 A 
ATOM     47  C   UNL     1       2.408   0.061 -11.121  1.00  0.00     0.059 A 
ATOM     48  F   UNL     1       1.838   2.188 -10.320  1.00  0.00    -0.206 F 
ATOM     49  C   UNL     1       2.526  -1.309 -10.899  1.00  0.00     0.060 A 
BRANCH  49  50
ATOM     50  S   UNL     1       3.144  -2.395 -12.202  1.00  0.00     0.124 S 
ATOM     51  O   UNL     1       4.448  -2.779 -11.670  1.00  0.00    -0.237 OA
ATOM     52  O   UNL     1       2.135  -3.450 -12.228  1.00  0.00    -0.237 OA
ATOM     53  O   UNL     1       3.175  -1.532 -13.378  1.00  0.00    -0.744 OA
ENDBRANCH  49  50
ENDBRANCH  28  42
BRANCH  29  54
ATOM     54  C   UNL     1      -1.696   6.460  -1.454  1.00  0.00     0.058 A 
ATOM     55  C   UNL     1      -2.862   6.223  -0.712  1.00  0.00     0.135 A 
ATOM     56  C   UNL     1      -0.996   7.652  -1.194  1.00  0.00     0.135 A 
ATOM     57  F   UNL     1      -3.572   5.104  -0.918  1.00  0.00    -0.206 F 
ATOM     58  C   UNL     1      -3.340   7.147   0.215  1.00  0.00     0.059 A 
ATOM     59  C   UNL     1      -1.434   8.574  -0.249  1.00  0.00     0.059 A 
ATOM     60  F   UNL     1       0.133   7.933  -1.864  1.00  0.00    -0.206 F 
ATOM     61  C   UNL     1      -2.622   8.324   0.434  1.00  0.00     0.060 A 
BRANCH  61  62
ATOM     62  S   UNL     1      -3.258   9.528   1.621  1.00  0.00     0.124 S 
ATOM     63  O   UNL     1      -4.399  10.076   0.897  1.00  0.00    -0.237 OA
ATOM     64  O   UNL     1      -3.573   8.687   2.771  1.00  0.00    -0.237 OA
ATOM     65  O   UNL     1      -2.133  10.440   1.809  1.00  0.00    -0.744 OA
ENDBRANCH  61  62
ENDBRANCH  29  54
BRANCH  41  66
ATOM     66  C   UNL     1      -4.322   4.372  -7.576  1.00  0.00     0.058 A 
ATOM     67  C   UNL     1      -4.538   5.623  -8.169  1.00  0.00     0.135 A 
ATOM     68  C   UNL     1      -5.312   3.386  -7.718  1.00  0.00     0.135 A 
ATOM     69  F   UNL     1      -3.621   6.596  -8.052  1.00  0.00    -0.206 F 
ATOM     70  C   UNL     1      -5.708   5.896  -8.865  1.00  0.00     0.059 A 
ATOM     71  C   UNL     1      -6.473   3.626  -8.440  1.00  0.00     0.059 A 
ATOM     72  F   UNL     1      -5.139   2.169  -7.179  1.00  0.00    -0.206 F 
ATOM     73  C   UNL     1      -6.666   4.888  -9.000  1.00  0.00     0.060 A 
BRANCH  73  74
ATOM     74  S   UNL     1      -8.158   5.240  -9.949  1.00  0.00     0.124 S 
ATOM     75  O   UNL     1      -8.887   6.111  -9.033  1.00  0.00    -0.237 OA
ATOM     76  O   UNL     1      -7.621   5.883 -11.145  1.00  0.00    -0.237 OA
ATOM     77  O   UNL     1      -8.743   3.920 -10.163  1.00  0.00    -0.744 OA
ENDBRANCH  73  74
ENDBRANCH  41  66
ENDBRANCH  15  16
ENDBRANCH   8  10
ENDBRANCH   7   8
ENDBRANCH   6   7
ENDBRANCH   5   6
ENDBRANCH   4   5
ENDBRANCH   3   4
ENDBRANCH   2   3
ENDBRANCH   1   2
BRANCH   1  78
ATOM     78  C   UNL     1       5.558   1.055   2.987  1.00  0.00     0.188 C 
BRANCH  78  79
ATOM     79  C   UNL     1       4.315   1.545   2.230  1.00  0.00     0.188 C 
BRANCH  79  80
ATOM     80  O   UNL     1       4.273   2.949   2.016  1.00  0.00    -0.376 OA
BRANCH  80  81
ATOM     81  C   UNL     1       3.268   3.620   2.780  1.00  0.00     0.202 C 
BRANCH  81  82
ATOM     82  C   UNL     1       3.574   3.722   4.277  1.00  0.00     0.261 C 
BRANCH  82  83
ATOM     83  O   UNL     1       4.112   2.504   4.813  1.00  0.00    -0.459 OA
BRANCH  83  84
ATOM     84  C   UNL     1       3.366   1.549   5.436  1.00  0.00     0.370 C 
ATOM     85  O   UNL     1       2.151   1.633   5.586  1.00  0.00    -0.245 OA
BRANCH  84  86
ATOM     86  C   UNL     1       4.350   0.398   5.970  1.00  0.00     0.328 C 
BRANCH  86  87
ATOM     87  N   UNL     1       4.672   0.655   7.376  1.00  0.00    -0.310 N 
ATOM     88  C   UNL     1       5.360  -0.351   8.185  1.00  0.00     0.325 C 
ATOM     89  C   UNL     1       5.363   1.946   7.399  1.00  0.00     0.325 C 
ATOM     90  H   UNL     1       3.775   0.632   7.861  1.00  0.00     0.349 HD
ATOM     91  C   UNL     1       6.505   0.139   9.159  1.00  0.00     0.325 C 
ATOM     92  C   UNL     1       6.774   2.112   7.901  1.00  0.00     0.325 C 
ATOM     93  N   UNL     1       6.831   1.576   9.245  1.00  0.00    -0.318 N 
ATOM     94  H   UNL     1       7.766   1.619   9.650  1.00  0.00     0.348 HD
BRANCH  93  95
ATOM     95  C   UNL     1       6.109   2.429  10.243  1.00  0.00     0.364 C 
BRANCH  95  96
ATOM     96  C   UNL     1       4.562   2.358  10.397  1.00  0.00     0.277 C 
ATOM     97  O   UNL     1       4.082   1.389  11.003  1.00  0.00    -0.268 OA
ATOM     98  N   UNL     1       3.728   3.431   9.977  1.00  0.00    -0.333 N 
ATOM     99  C   UNL     1       3.940   4.307   8.796  1.00  0.00     0.148 C 
ATOM    100  C   UNL     1       2.310   3.314  10.333  1.00  0.00     0.148 C 
ATOM    101  C   UNL     1       3.083   5.568   8.715  1.00  0.00     0.181 C 
ATOM    102  C   UNL     1       1.579   4.659  10.268  1.00  0.00     0.181 C 
ATOM    103  O   UNL     1       1.711   5.269   8.981  1.00  0.00    -0.378 OA
ENDBRANCH  95  96
ENDBRANCH  93  95
ENDBRANCH  86  87
BRANCH  86 104
ATOM    104  C   UNL     1       3.876  -0.967   5.517  1.00  0.00     0.046 A 
ATOM    105  C   UNL     1       2.568  -1.392   5.356  1.00  0.00     0.094 A 
ATOM    106  C   UNL     1       4.696  -1.975   4.871  1.00  0.00     0.009 A 
ATOM    107  N   UNL     1       2.556  -2.532   4.598  1.00  0.00    -0.361 N 
ATOM    108  C   UNL     1       3.839  -2.902   4.272  1.00  0.00     0.049 A 
ATOM    109  C   UNL     1       6.088  -2.125   4.652  1.00  0.00     0.014 A 
ATOM    110  H   UNL     1       1.744  -3.018   4.325  1.00  0.00     0.166 HD
ATOM    111  C   UNL     1       4.296  -3.957   3.470  1.00  0.00     0.065 A 
ATOM    112  C   UNL     1       6.563  -3.183   3.864  1.00  0.00     0.040 A 
ATOM    113  C   UNL     1       5.672  -4.074   3.286  1.00  0.00     0.125 A 
ATOM    114  F   UNL     1       6.146  -5.067   2.521  1.00  0.00    -0.207 F 
ENDBRANCH  86 104
ENDBRANCH  84  86
ENDBRANCH  83  84
ENDBRANCH  82  83
ENDBRANCH  81  82
ENDBRANCH  80  81
ENDBRANCH  79  80
ENDBRANCH  78  79
ENDBRANCH   1  78
TORSDOF 27
