REMARK SMILES Cc1ccc(CNC(=O)c2csc(/C=C/C(=O)OCCOCCOCCOCCOC(=O)c3ccc(-c4c5nc(c(-c6c(F)cc(S(=O)(=O)[O-])cc6F)c6ccc([nH]6)c(-c6c(F)cc(S(=O)(=O)[O-])cc6F)c6nc(c(-c7c(F)cc(S(=O)(=O)[O-])cc7F)c7ccc4[nH]7)C=C6)C=C5)cc3)c2)s1
REMARK SMILES IDX 23 1 22 2 21 3 20 4 19 5 18 6 16 7 17 8 15 9 14 10 13 11
REMARK SMILES IDX 10 12 11 13 99 14 12 15 8 16 7 17 9 19 6 20 5 21 1 22 2 23
REMARK SMILES IDX 3 24 100 25 4 26 24 27 25 28 26 29 27 30 28 31 29 32 30 33
REMARK SMILES IDX 31 34 32 35 33 36 34 37 98 38 35 39 97 40 36 41 37 42 38 43
REMARK SMILES IDX 91 44 39 45 96 46 90 47 92 48 40 49 95 50 89 51 88 52 41 54
REMARK SMILES IDX 75 55 54 56 74 57 55 58 58 59 73 60 93 61 56 62 57 63 72 65
REMARK SMILES IDX 94 66 59 67 42 68 43 69 52 70 44 71 45 72 51 73 53 74 46 75
REMARK SMILES IDX 47 76 48 77 49 78 50 79 76 80 77 81 86 82 78 83 79 84 85 85
REMARK SMILES IDX 87 86 80 87 81 88 82 89 83 90 84 91 60 92 61 93 70 94 62 95
REMARK SMILES IDX 63 96 69 97 71 98 64 99 65 100 66 101 67 102 68 103
REMARK H PARENT 7 18 92 53 58 64
REMARK Flexibility Score: inf
ROOT
ATOM      1  C   UNL     1      -7.527   5.016  -5.340  1.00  0.00     0.188 C 
ENDROOT
BRANCH   1   2
ATOM      2  C   UNL     1      -6.856   5.464  -6.652  1.00  0.00     0.188 C 
BRANCH   2   3
ATOM      3  O   UNL     1      -7.416   4.869  -7.808  1.00  0.00    -0.376 OA
BRANCH   3   4
ATOM      4  C   UNL     1      -6.801   3.751  -8.423  1.00  0.00     0.202 C 
BRANCH   4   5
ATOM      5  C   UNL     1      -6.239   2.559  -7.629  1.00  0.00     0.261 C 
BRANCH   5   6
ATOM      6  O   UNL     1      -5.681   2.842  -6.345  1.00  0.00    -0.460 OA
BRANCH   6   7
ATOM      7  C   UNL     1      -4.434   3.348  -6.309  1.00  0.00     0.330 C 
ATOM      8  O   UNL     1      -3.719   3.583  -7.271  1.00  0.00    -0.247 OA
BRANCH   7   9
ATOM      9  C   UNL     1      -4.078   3.755  -4.932  1.00  0.00     0.095 C 
ATOM     10  C   UNL     1      -4.711   3.320  -3.830  1.00  0.00     0.026 C 
BRANCH  10  11
ATOM     11  C   UNL     1      -4.341   3.734  -2.515  1.00  0.00     0.028 A 
ATOM     12  C   UNL     1      -3.777   3.565  -0.234  1.00  0.00     0.051 A 
ATOM     13  C   UNL     1      -3.335   4.837  -0.539  1.00  0.00     0.079 A 
ATOM     14  C   UNL     1      -4.521   3.027  -1.338  1.00  0.00     0.033 A 
ATOM     15  S   UNL     1      -3.623   5.260  -2.166  1.00  0.00    -0.144 S 
BRANCH  12  16
ATOM     16  C   UNL     1      -3.502   2.943   1.058  1.00  0.00     0.252 C 
ATOM     17  N   UNL     1      -3.167   1.613   1.097  1.00  0.00    -0.347 N 
ATOM     18  H   UNL     1      -3.081   1.226   1.998  1.00  0.00     0.164 HD
ATOM     19  O   UNL     1      -3.506   3.591   2.103  1.00  0.00    -0.269 OA
BRANCH  17  20
ATOM     20  C   UNL     1      -2.919   0.699   0.001  1.00  0.00     0.163 C 
BRANCH  20  21
ATOM     21  C   UNL     1      -1.571   0.067   0.124  1.00  0.00     0.024 A 
ATOM     22  C   UNL     1       2.342  -0.180   0.046  1.00  0.00     0.056 C 
ATOM     23  C   UNL     1       0.864  -0.350   0.099  1.00  0.00     0.002 A 
ATOM     24  C   UNL     1       0.135  -1.520   0.128  1.00  0.00     0.015 A 
ATOM     25  S   UNL     1      -0.150   1.026   0.106  1.00  0.00    -0.144 S 
ATOM     26  C   UNL     1      -1.269  -1.280   0.148  1.00  0.00     0.017 A 
ENDBRANCH  20  21
ENDBRANCH  17  20
ENDBRANCH  12  16
ENDBRANCH  10  11
ENDBRANCH   7   9
ENDBRANCH   6   7
ENDBRANCH   5   6
ENDBRANCH   4   5
ENDBRANCH   3   4
ENDBRANCH   2   3
ENDBRANCH   1   2
BRANCH   1  27
ATOM     27  O   UNL     1      -8.229   3.785  -5.391  1.00  0.00    -0.377 OA
BRANCH  27  28
ATOM     28  C   UNL     1      -9.428   3.689  -6.163  1.00  0.00     0.188 C 
BRANCH  28  29
ATOM     29  C   UNL     1     -10.032   4.881  -6.949  1.00  0.00     0.188 C 
BRANCH  29  30
ATOM     30  O   UNL     1      -9.660   6.165  -6.473  1.00  0.00    -0.376 OA
BRANCH  30  31
ATOM     31  C   UNL     1     -10.633   6.925  -5.781  1.00  0.00     0.202 C 
BRANCH  31  32
ATOM     32  C   UNL     1     -11.101   6.370  -4.429  1.00  0.00     0.261 C 
BRANCH  32  33
ATOM     33  O   UNL     1     -11.609   5.028  -4.442  1.00  0.00    -0.460 OA
BRANCH  33  34
ATOM     34  C   UNL     1     -12.753   4.810  -5.133  1.00  0.00     0.338 C 
ATOM     35  O   UNL     1     -13.405   5.628  -5.745  1.00  0.00    -0.246 OA
BRANCH  34  36
ATOM     36  C   UNL     1     -12.973   3.347  -5.169  1.00  0.00     0.060 A 
ATOM     37  C   UNL     1     -13.005   2.692  -6.407  1.00  0.00     0.016 A 
ATOM     38  C   UNL     1     -13.136   2.628  -3.983  1.00  0.00     0.016 A 
ATOM     39  C   UNL     1     -13.233   1.316  -6.462  1.00  0.00     0.010 A 
ATOM     40  C   UNL     1     -13.383   1.255  -4.041  1.00  0.00     0.010 A 
ATOM     41  C   UNL     1     -13.466   0.597  -5.281  1.00  0.00    -0.014 A 
BRANCH  41  42
ATOM     42  C   UNL     1     -13.984  -0.792  -5.348  1.00  0.00     0.031 A 
ATOM     43  C   UNL     1     -15.462  -1.011  -5.168  1.00  0.00     0.074 A 
ATOM     44  C   UNL     1     -13.167  -1.837  -5.571  1.00  0.00     0.049 A 
ATOM     45  N   UNL     1     -16.138  -2.129  -5.122  1.00  0.00    -0.248 NA
ATOM     46  C   UNL     1     -16.288   0.199  -5.016  1.00  0.00     0.031 C 
ATOM     47  C   UNL     1     -11.726  -1.751  -5.800  1.00  0.00     0.029 A 
ATOM     48  N   UNL     1     -13.437  -3.183  -5.630  1.00  0.00    -0.354 N 
ATOM     49  C   UNL     1     -17.464  -1.760  -4.926  1.00  0.00     0.074 A 
ATOM     50  C   UNL     1     -17.494  -0.317  -4.830  1.00  0.00     0.031 C 
ATOM     51  C   UNL     1     -11.235  -2.993  -5.961  1.00  0.00     0.029 A 
ATOM     52  C   UNL     1     -12.320  -3.963  -5.811  1.00  0.00     0.049 A 
ATOM     53  H   UNL     1     -14.346  -3.553  -5.552  1.00  0.00     0.167 HD
ATOM     54  C   UNL     1     -18.560  -2.552  -4.843  1.00  0.00     0.037 A 
ATOM     55  C   UNL     1     -12.186  -5.306  -5.825  1.00  0.00     0.037 A 
ATOM     56  C   UNL     1     -18.522  -3.988  -4.937  1.00  0.00     0.049 A 
ATOM     57  C   UNL     1     -13.410  -6.171  -5.654  1.00  0.00     0.074 A 
ATOM     58  C   UNL     1     -19.578  -4.880  -4.883  1.00  0.00     0.029 A 
ATOM     59  N   UNL     1     -17.369  -4.743  -5.091  1.00  0.00    -0.354 N 
ATOM     60  N   UNL     1     -14.662  -5.811  -5.496  1.00  0.00    -0.248 NA
ATOM     61  C   UNL     1     -13.204  -7.627  -5.667  1.00  0.00     0.031 C 
ATOM     62  C   UNL     1     -19.058  -6.177  -4.943  1.00  0.00     0.029 A 
ATOM     63  C   UNL     1     -17.684  -6.092  -5.103  1.00  0.00     0.049 A 
ATOM     64  H   UNL     1     -16.460  -4.375  -5.179  1.00  0.00     0.167 HD
ATOM     65  C   UNL     1     -15.395  -6.993  -5.422  1.00  0.00     0.074 A 
ATOM     66  C   UNL     1     -14.447  -8.078  -5.564  1.00  0.00     0.031 C 
ATOM     67  C   UNL     1     -16.730  -7.164  -5.254  1.00  0.00     0.037 A 
BRANCH  54  68
ATOM     68  C   UNL     1     -19.888  -1.884  -4.610  1.00  0.00     0.058 A 
ATOM     69  C   UNL     1     -20.509  -1.100  -5.596  1.00  0.00     0.135 A 
ATOM     70  C   UNL     1     -20.564  -2.056  -3.391  1.00  0.00     0.135 A 
ATOM     71  F   UNL     1     -19.899  -0.884  -6.773  1.00  0.00    -0.206 F 
ATOM     72  C   UNL     1     -21.740  -0.491  -5.373  1.00  0.00     0.059 A 
ATOM     73  C   UNL     1     -21.810  -1.483  -3.157  1.00  0.00     0.059 A 
ATOM     74  F   UNL     1     -20.015  -2.791  -2.411  1.00  0.00    -0.206 F 
ATOM     75  C   UNL     1     -22.384  -0.690  -4.150  1.00  0.00     0.060 A 
BRANCH  75  76
ATOM     76  S   UNL     1     -23.984   0.100  -3.881  1.00  0.00     0.124 S 
ATOM     77  O   UNL     1     -23.601   1.504  -3.769  1.00  0.00    -0.237 OA
ATOM     78  O   UNL     1     -24.716  -0.263  -5.090  1.00  0.00    -0.237 OA
ATOM     79  O   UNL     1     -24.467  -0.518  -2.650  1.00  0.00    -0.744 OA
ENDBRANCH  75  76
ENDBRANCH  54  68
BRANCH  55  80
ATOM     80  C   UNL     1     -10.840  -5.920  -5.991  1.00  0.00     0.058 A 
ATOM     81  C   UNL     1     -10.509  -6.650  -7.143  1.00  0.00     0.135 A 
ATOM     82  C   UNL     1      -9.858  -5.798  -4.994  1.00  0.00     0.135 A 
ATOM     83  F   UNL     1     -11.416  -6.810  -8.118  1.00  0.00    -0.206 F 
ATOM     84  C   UNL     1      -9.261  -7.246  -7.296  1.00  0.00     0.059 A 
ATOM     85  C   UNL     1      -8.593  -6.360  -5.138  1.00  0.00     0.059 A 
ATOM     86  F   UNL     1     -10.118  -5.106  -3.874  1.00  0.00    -0.206 F 
ATOM     87  C   UNL     1      -8.307  -7.090  -6.290  1.00  0.00     0.060 A 
BRANCH  87  88
ATOM     88  S   UNL     1      -6.672  -7.821  -6.524  1.00  0.00     0.124 S 
ATOM     89  O   UNL     1      -6.962  -9.243  -6.389  1.00  0.00    -0.237 OA
ATOM     90  O   UNL     1      -6.323  -7.363  -7.865  1.00  0.00    -0.237 OA
ATOM     91  O   UNL     1      -5.883  -7.232  -5.444  1.00  0.00    -0.744 OA
ENDBRANCH  87  88
ENDBRANCH  55  80
BRANCH  67  92
ATOM     92  C   UNL     1     -17.261  -8.574  -5.255  1.00  0.00     0.058 A 
ATOM     93  C   UNL     1     -17.021  -9.460  -4.193  1.00  0.00     0.135 A 
ATOM     94  C   UNL     1     -18.074  -9.024  -6.309  1.00  0.00     0.135 A 
ATOM     95  F   UNL     1     -16.248  -9.085  -3.162  1.00  0.00    -0.206 F 
ATOM     96  C   UNL     1     -17.544 -10.750  -4.189  1.00  0.00     0.059 A 
ATOM     97  C   UNL     1     -18.635 -10.298  -6.310  1.00  0.00     0.059 A 
ATOM     98  F   UNL     1     -18.348  -8.216  -7.346  1.00  0.00    -0.206 F 
ATOM     99  C   UNL     1     -18.354 -11.158  -5.251  1.00  0.00     0.060 A 
BRANCH  99 100
ATOM    100  S   UNL     1     -19.053 -12.822  -5.215  1.00  0.00     0.124 S 
ATOM    101  O   UNL     1     -17.873 -13.643  -5.466  1.00  0.00    -0.237 OA
ATOM    102  O   UNL     1     -19.604 -12.900  -3.865  1.00  0.00    -0.237 OA
ATOM    103  O   UNL     1     -20.042 -12.800  -6.288  1.00  0.00    -0.744 OA
ENDBRANCH  99 100
ENDBRANCH  67  92
ENDBRANCH  41  42
ENDBRANCH  34  36
ENDBRANCH  33  34
ENDBRANCH  32  33
ENDBRANCH  31  32
ENDBRANCH  30  31
ENDBRANCH  29  30
ENDBRANCH  28  29
ENDBRANCH  27  28
ENDBRANCH   1  27
TORSDOF 27
