REMARK SMILES Cc1cscc1C(=O)Nc1cc(Br)ccc1C(=O)OCCOCCOCCOCCOC(=O)c1ccc(-c2c3nc(c(-c4c(F)cc(S(=O)(=O)[O-])cc4F)c4ccc([nH]4)c(-c4c(F)cc(S(=O)(=O)[O-])cc4F)c4nc(c(-c5c(F)cc(S(=O)(=O)[O-])cc5F)c5ccc2[nH]5)C=C4)C=C3)cc1
REMARK SMILES IDX 26 1 25 2 24 3 23 4 22 5 21 6 20 7 19 8 17 9 18 10 16 11
REMARK SMILES IDX 10 12 11 13 12 14 15 15 13 16 14 17 9 18 7 19 8 20 6 22 1 23
REMARK SMILES IDX 2 24 3 25 4 26 5 27 27 28 28 29 29 30 30 31 31 32 32 33
REMARK SMILES IDX 33 34 34 35 35 36 99 37 36 38 98 39 37 40 38 41 39 42 92 43
REMARK SMILES IDX 40 44 97 45 91 46 93 47 41 48 96 49 90 50 89 51 42 53 76 54
REMARK SMILES IDX 55 55 75 56 56 57 59 58 74 59 94 60 57 61 58 62 73 64 95 65
REMARK SMILES IDX 60 66 43 67 44 68 53 69 45 70 46 71 52 72 54 73 47 74 48 75
REMARK SMILES IDX 49 76 50 77 51 78 77 79 78 80 87 81 79 82 80 83 86 84 88 85
REMARK SMILES IDX 81 86 82 87 83 88 84 89 85 90 61 91 62 92 71 93 63 94 64 95
REMARK SMILES IDX 70 96 72 97 65 98 66 99 67 100 68 101 69 102
REMARK H PARENT 9 21 93 52 59 63
REMARK Flexibility Score: inf
ROOT
ATOM      1  C   UNL     1       2.939   3.400   4.408  1.00  0.00     0.188 C 
ENDROOT
BRANCH   1   2
ATOM      2  O   UNL     1       3.168   2.657   3.210  1.00  0.00    -0.377 OA
BRANCH   2   3
ATOM      3  C   UNL     1       3.919   1.459   3.266  1.00  0.00     0.188 C 
BRANCH   3   4
ATOM      4  C   UNL     1       5.420   1.619   3.562  1.00  0.00     0.188 C 
BRANCH   4   5
ATOM      5  O   UNL     1       5.755   2.864   4.140  1.00  0.00    -0.376 OA
BRANCH   5   6
ATOM      6  C   UNL     1       6.189   3.947   3.337  1.00  0.00     0.202 C 
BRANCH   6   7
ATOM      7  C   UNL     1       5.535   4.326   1.994  1.00  0.00     0.261 C 
BRANCH   7   8
ATOM      8  O   UNL     1       4.997   3.268   1.192  1.00  0.00    -0.460 OA
BRANCH   8   9
ATOM      9  C   UNL     1       5.879   2.489   0.540  1.00  0.00     0.340 C 
ATOM     10  O   UNL     1       7.093   2.612   0.574  1.00  0.00    -0.246 OA
BRANCH   9  11
ATOM     11  C   UNL     1       5.194   1.345  -0.137  1.00  0.00     0.083 A 
ATOM     12  C   UNL     1       3.857   1.321  -0.599  1.00  0.00     0.057 A 
ATOM     13  C   UNL     1       3.474   0.302  -1.476  1.00  0.00     0.042 A 
ATOM     14  C   UNL     1       4.313  -0.796  -1.683  1.00  0.00     0.020 A 
ATOM     15  C   UNL     1       5.987   0.193  -0.280  1.00  0.00     0.019 A 
ATOM     16  Br  UNL     1       3.763  -2.201  -2.821  1.00  0.00    -0.051 Br
ATOM     17  C   UNL     1       5.531  -0.894  -1.019  1.00  0.00     0.017 A 
BRANCH  12  18
ATOM     18  N   UNL     1       2.935   2.277  -0.150  1.00  0.00    -0.321 N 
ATOM     19  C   UNL     1       1.565   2.341  -0.029  1.00  0.00     0.256 C 
ATOM     20  O   UNL     1       1.114   3.474   0.175  1.00  0.00    -0.269 OA
ATOM     21  H   UNL     1       3.374   3.105   0.152  1.00  0.00     0.170 HD
BRANCH  19  22
ATOM     22  C   UNL     1       0.629   1.192  -0.079  1.00  0.00     0.053 A 
ATOM     23  C   UNL     1       1.883  -0.993   0.816  1.00  0.00     0.046 C 
ATOM     24  C   UNL     1       0.728  -0.226   0.268  1.00  0.00    -0.028 A 
ATOM     25  C   UNL     1      -0.478  -0.884   0.065  1.00  0.00     0.069 A 
ATOM     26  S   UNL     1      -1.743   0.144  -0.400  1.00  0.00    -0.151 S 
ATOM     27  C   UNL     1      -0.700   1.485  -0.385  1.00  0.00     0.079 A 
ENDBRANCH  19  22
ENDBRANCH  12  18
ENDBRANCH   9  11
ENDBRANCH   8   9
ENDBRANCH   7   8
ENDBRANCH   6   7
ENDBRANCH   5   6
ENDBRANCH   4   5
ENDBRANCH   3   4
ENDBRANCH   2   3
ENDBRANCH   1   2
BRANCH   1  28
ATOM     28  C   UNL     1       3.533   2.985   5.777  1.00  0.00     0.188 C 
BRANCH  28  29
ATOM     29  O   UNL     1       3.797   1.597   5.912  1.00  0.00    -0.376 OA
BRANCH  29  30
ATOM     30  C   UNL     1       2.950   0.834   6.751  1.00  0.00     0.202 C 
BRANCH  30  31
ATOM     31  C   UNL     1       1.494   0.677   6.293  1.00  0.00     0.261 C 
BRANCH  31  32
ATOM     32  O   UNL     1       0.783   1.895   6.033  1.00  0.00    -0.460 OA
BRANCH  32  33
ATOM     33  C   UNL     1       0.557   2.715   7.082  1.00  0.00     0.338 C 
ATOM     34  O   UNL     1       0.891   2.530   8.242  1.00  0.00    -0.246 OA
BRANCH  33  35
ATOM     35  C   UNL     1      -0.003   3.974   6.552  1.00  0.00     0.060 A 
ATOM     36  C   UNL     1       0.695   5.172   6.750  1.00  0.00     0.016 A 
ATOM     37  C   UNL     1      -1.207   3.964   5.843  1.00  0.00     0.016 A 
ATOM     38  C   UNL     1       0.172   6.372   6.265  1.00  0.00     0.010 A 
ATOM     39  C   UNL     1      -1.738   5.168   5.375  1.00  0.00     0.010 A 
ATOM     40  C   UNL     1      -1.067   6.381   5.612  1.00  0.00    -0.014 A 
BRANCH  40  41
ATOM     41  C   UNL     1      -1.752   7.668   5.338  1.00  0.00     0.031 A 
ATOM     42  C   UNL     1      -2.824   8.123   6.291  1.00  0.00     0.074 A 
ATOM     43  C   UNL     1      -1.429   8.421   4.271  1.00  0.00     0.049 A 
ATOM     44  N   UNL     1      -3.602   9.171   6.229  1.00  0.00    -0.248 NA
ATOM     45  C   UNL     1      -3.050   7.273   7.472  1.00  0.00     0.031 C 
ATOM     46  C   UNL     1      -0.387   8.104   3.297  1.00  0.00     0.029 A 
ATOM     47  N   UNL     1      -1.960   9.606   3.823  1.00  0.00    -0.354 N 
ATOM     48  C   UNL     1      -4.416   9.103   7.354  1.00  0.00     0.074 A 
ATOM     49  C   UNL     1      -4.059   7.895   8.064  1.00  0.00     0.031 C 
ATOM     50  C   UNL     1      -0.364   9.064   2.356  1.00  0.00     0.029 A 
ATOM     51  C   UNL     1      -1.413  10.043   2.640  1.00  0.00     0.049 A 
ATOM     52  H   UNL     1      -2.665  10.096   4.304  1.00  0.00     0.167 HD
ATOM     53  C   UNL     1      -5.371   9.973   7.761  1.00  0.00     0.037 A 
ATOM     54  C   UNL     1      -1.742  11.095   1.863  1.00  0.00     0.037 A 
ATOM     55  C   UNL     1      -5.725  11.170   7.043  1.00  0.00     0.049 A 
ATOM     56  C   UNL     1      -2.858  12.012   2.298  1.00  0.00     0.074 A 
ATOM     57  C   UNL     1      -6.664  12.129   7.381  1.00  0.00     0.029 A 
ATOM     58  N   UNL     1      -5.166  11.567   5.836  1.00  0.00    -0.354 N 
ATOM     59  N   UNL     1      -3.602  11.955   3.378  1.00  0.00    -0.248 NA
ATOM     60  C   UNL     1      -3.180  13.138   1.410  1.00  0.00     0.031 C 
ATOM     61  C   UNL     1      -6.717  13.071   6.348  1.00  0.00     0.029 A 
ATOM     62  C   UNL     1      -5.762  12.739   5.400  1.00  0.00     0.049 A 
ATOM     63  H   UNL     1      -4.451  11.086   5.360  1.00  0.00     0.167 HD
ATOM     64  C   UNL     1      -4.457  13.052   3.313  1.00  0.00     0.074 A 
ATOM     65  C   UNL     1      -4.130  13.761   2.093  1.00  0.00     0.031 C 
ATOM     66  C   UNL     1      -5.423  13.439   4.185  1.00  0.00     0.037 A 
BRANCH  53  67
ATOM     67  C   UNL     1      -6.123   9.643   9.022  1.00  0.00     0.058 A 
ATOM     68  C   UNL     1      -5.513   9.688  10.286  1.00  0.00     0.135 A 
ATOM     69  C   UNL     1      -7.485   9.300   8.966  1.00  0.00     0.135 A 
ATOM     70  F   UNL     1      -4.210   9.990  10.398  1.00  0.00    -0.206 F 
ATOM     71  C   UNL     1      -6.217   9.376  11.445  1.00  0.00     0.059 A 
ATOM     72  C   UNL     1      -8.216   9.016  10.115  1.00  0.00     0.059 A 
ATOM     73  F   UNL     1      -8.118   9.238   7.785  1.00  0.00    -0.206 F 
ATOM     74  C   UNL     1      -7.569   9.043  11.350  1.00  0.00     0.060 A 
BRANCH  74  75
ATOM     75  S   UNL     1      -8.468   8.645  12.864  1.00  0.00     0.124 S 
ATOM     76  O   UNL     1      -7.888   7.353  13.216  1.00  0.00    -0.237 OA
ATOM     77  O   UNL     1      -8.111   9.758  13.738  1.00  0.00    -0.237 OA
ATOM     78  O   UNL     1      -9.862   8.610  12.434  1.00  0.00    -0.744 OA
ENDBRANCH  74  75
ENDBRANCH  53  67
BRANCH  54  79
ATOM     79  C   UNL     1      -1.014  11.334   0.586  1.00  0.00     0.058 A 
ATOM     80  C   UNL     1      -0.176  12.446   0.425  1.00  0.00     0.135 A 
ATOM     81  C   UNL     1      -1.141  10.451  -0.499  1.00  0.00     0.135 A 
ATOM     82  F   UNL     1      -0.033  13.329   1.425  1.00  0.00    -0.206 F 
ATOM     83  C   UNL     1       0.503  12.682  -0.767  1.00  0.00     0.059 A 
ATOM     84  C   UNL     1      -0.449  10.648  -1.690  1.00  0.00     0.059 A 
ATOM     85  F   UNL     1      -1.929   9.369  -0.397  1.00  0.00    -0.206 F 
ATOM     86  C   UNL     1       0.366  11.772  -1.817  1.00  0.00     0.060 A 
BRANCH  86  87
ATOM     87  S   UNL     1       1.301  12.058  -3.336  1.00  0.00     0.124 S 
ATOM     88  O   UNL     1       0.613  13.217  -3.892  1.00  0.00    -0.237 OA
ATOM     89  O   UNL     1       2.646  12.298  -2.824  1.00  0.00    -0.237 OA
ATOM     90  O   UNL     1       1.133  10.810  -4.075  1.00  0.00    -0.744 OA
ENDBRANCH  86  87
ENDBRANCH  54  79
BRANCH  66  91
ATOM     91  C   UNL     1      -6.174  14.709   3.879  1.00  0.00     0.058 A 
ATOM     92  C   UNL     1      -7.100  14.791   2.827  1.00  0.00     0.135 A 
ATOM     93  C   UNL     1      -6.006  15.844   4.691  1.00  0.00     0.135 A 
ATOM     94  F   UNL     1      -7.298  13.739   2.017  1.00  0.00    -0.206 F 
ATOM     95  C   UNL     1      -7.812  15.960   2.574  1.00  0.00     0.059 A 
ATOM     96  C   UNL     1      -6.731  17.012   4.477  1.00  0.00     0.059 A 
ATOM     97  F   UNL     1      -5.143  15.819   5.719  1.00  0.00    -0.206 F 
ATOM     98  C   UNL     1      -7.623  17.065   3.408  1.00  0.00     0.060 A 
BRANCH  98  99
ATOM     99  S   UNL     1      -8.579  18.563   3.088  1.00  0.00     0.124 S 
ATOM    100  O   UNL     1      -7.950  19.059   1.868  1.00  0.00    -0.237 OA
ATOM    101  O   UNL     1      -9.934  18.043   2.937  1.00  0.00    -0.237 OA
ATOM    102  O   UNL     1      -8.354  19.372   4.282  1.00  0.00    -0.744 OA
ENDBRANCH  98  99
ENDBRANCH  66  91
ENDBRANCH  40  41
ENDBRANCH  33  35
ENDBRANCH  32  33
ENDBRANCH  31  32
ENDBRANCH  30  31
ENDBRANCH  29  30
ENDBRANCH  28  29
ENDBRANCH   1  28
TORSDOF 25
