REMARK SMILES CC(=O)NCCc1c[nH]c2ccc(C(=O)OCCOCCOCCOCCOC(=O)c3ccc(-c4c5nc(c(-c6c(F)cc(S(=O)(=O)[O-])cc6F)c6ccc([nH]6)c(-c6c(F)cc(S(=O)(=O)[O-])cc6F)c6nc(c(-c7c(F)cc(S(=O)(=O)[O-])cc7F)c7ccc4[nH]7)C=C6)C=C5)cc3)cc12
REMARK SMILES IDX 22 1 21 2 20 3 19 4 18 5 17 6 16 7 14 8 15 9 13 10 7 11 8 12
REMARK SMILES IDX 98 13 9 14 10 15 97 16 11 18 12 19 6 20 5 21 4 22 1 23 2 24
REMARK SMILES IDX 3 25 23 27 24 28 25 29 26 30 27 31 28 32 29 33 30 34 31 35
REMARK SMILES IDX 32 36 96 37 33 38 95 39 34 40 35 41 36 42 89 43 37 44 94 45
REMARK SMILES IDX 88 46 90 47 38 48 93 49 87 50 86 51 39 53 73 54 52 55 72 56
REMARK SMILES IDX 53 57 56 58 71 59 91 60 54 61 55 62 70 64 92 65 57 66 40 67
REMARK SMILES IDX 41 68 50 69 42 70 43 71 49 72 51 73 44 74 45 75 46 76 47 77
REMARK SMILES IDX 48 78 74 79 75 80 84 81 76 82 77 83 83 84 85 85 78 86 79 87
REMARK SMILES IDX 80 88 81 89 82 90 58 91 59 92 68 93 60 94 61 95 67 96 69 97
REMARK SMILES IDX 62 98 63 99 64 100 65 101 66 102
REMARK H PARENT 9 17 4 26 90 52 56 63
REMARK Flexibility Score: inf
ROOT
ATOM      1  O   UNL     1       3.154   0.738   8.176  1.00  0.00    -0.377 OA
ENDROOT
BRANCH   1   2
ATOM      2  C   UNL     1       3.187   0.562   6.766  1.00  0.00     0.188 C 
BRANCH   2   3
ATOM      3  C   UNL     1       2.347   1.476   5.846  1.00  0.00     0.188 C 
BRANCH   3   4
ATOM      4  O   UNL     1       1.744   2.577   6.503  1.00  0.00    -0.376 OA
BRANCH   4   5
ATOM      5  C   UNL     1       0.336   2.582   6.657  1.00  0.00     0.202 C 
BRANCH   5   6
ATOM      6  C   UNL     1      -0.311   1.464   7.490  1.00  0.00     0.261 C 
BRANCH   6   7
ATOM      7  O   UNL     1       0.202   0.145   7.261  1.00  0.00    -0.460 OA
BRANCH   7   8
ATOM      8  C   UNL     1      -0.238  -0.476   6.148  1.00  0.00     0.338 C 
ATOM      9  O   UNL     1      -1.039  -0.044   5.339  1.00  0.00    -0.246 OA
BRANCH   8  10
ATOM     10  C   UNL     1       0.564  -1.701   5.937  1.00  0.00     0.060 A 
ATOM     11  C   UNL     1       2.562  -3.542   3.233  1.00  0.00    -0.021 A 
ATOM     12  C   UNL     1       2.985  -4.820   3.551  1.00  0.00     0.087 A 
ATOM     13  C   UNL     1       1.866  -3.049   4.387  1.00  0.00     0.003 A 
ATOM     14  N   UNL     1       2.641  -5.083   4.851  1.00  0.00    -0.361 N 
ATOM     15  C   UNL     1       1.971  -4.011   5.392  1.00  0.00     0.046 A 
ATOM     16  C   UNL     1       1.162  -1.866   4.678  1.00  0.00     0.026 A 
ATOM     17  H   UNL     1       2.843  -5.920   5.329  1.00  0.00     0.166 HD
ATOM     18  C   UNL     1       1.459  -3.824   6.685  1.00  0.00     0.027 A 
ATOM     19  C   UNL     1       0.748  -2.646   6.944  1.00  0.00     0.018 A 
BRANCH  11  20
ATOM     20  C   UNL     1       2.822  -2.818   1.941  1.00  0.00     0.059 C 
BRANCH  20  21
ATOM     21  C   UNL     1       1.609  -2.701   1.009  1.00  0.00     0.120 C 
BRANCH  21  22
ATOM     22  N   UNL     1       0.619  -1.743   1.473  1.00  0.00    -0.356 N 
ATOM     23  C   UNL     1       1.155   0.060  -0.117  1.00  0.00     0.114 C 
ATOM     24  C   UNL     1       0.410  -0.456   1.079  1.00  0.00     0.216 C 
ATOM     25  O   UNL     1      -0.388   0.250   1.691  1.00  0.00    -0.275 OA
ATOM     26  H   UNL     1       0.010  -2.073   2.174  1.00  0.00     0.163 HD
ENDBRANCH  21  22
ENDBRANCH  20  21
ENDBRANCH  11  20
ENDBRANCH   8  10
ENDBRANCH   7   8
ENDBRANCH   6   7
ENDBRANCH   5   6
ENDBRANCH   4   5
ENDBRANCH   3   4
ENDBRANCH   2   3
ENDBRANCH   1   2
BRANCH   1  27
ATOM     27  C   UNL     1       3.159   2.049   8.731  1.00  0.00     0.188 C 
BRANCH  27  28
ATOM     28  C   UNL     1       3.927   3.197   8.037  1.00  0.00     0.188 C 
BRANCH  28  29
ATOM     29  O   UNL     1       4.659   2.806   6.886  1.00  0.00    -0.376 OA
BRANCH  29  30
ATOM     30  C   UNL     1       6.067   2.717   7.009  1.00  0.00     0.202 C 
BRANCH  30  31
ATOM     31  C   UNL     1       6.630   1.706   8.018  1.00  0.00     0.261 C 
BRANCH  31  32
ATOM     32  O   UNL     1       6.135   1.800   9.363  1.00  0.00    -0.460 OA
BRANCH  32  33
ATOM     33  C   UNL     1       6.431   2.918  10.059  1.00  0.00     0.338 C 
ATOM     34  O   UNL     1       7.085   3.874   9.673  1.00  0.00    -0.246 OA
BRANCH  33  35
ATOM     35  C   UNL     1       5.660   2.872  11.319  1.00  0.00     0.060 A 
ATOM     36  C   UNL     1       4.710   3.868  11.582  1.00  0.00     0.016 A 
ATOM     37  C   UNL     1       5.865   1.831  12.228  1.00  0.00     0.016 A 
ATOM     38  C   UNL     1       3.984   3.843  12.774  1.00  0.00     0.010 A 
ATOM     39  C   UNL     1       5.154   1.820  13.430  1.00  0.00     0.010 A 
ATOM     40  C   UNL     1       4.235   2.844  13.724  1.00  0.00    -0.014 A 
BRANCH  40  41
ATOM     41  C   UNL     1       3.695   2.977  15.098  1.00  0.00     0.031 A 
ATOM     42  C   UNL     1       4.600   3.532  16.165  1.00  0.00     0.074 A 
ATOM     43  C   UNL     1       2.431   2.626  15.396  1.00  0.00     0.049 A 
ATOM     44  N   UNL     1       4.382   3.686  17.444  1.00  0.00    -0.248 NA
ATOM     45  C   UNL     1       5.936   3.968  15.726  1.00  0.00     0.031 C 
ATOM     46  C   UNL     1       1.449   2.113  14.442  1.00  0.00     0.029 A 
ATOM     47  N   UNL     1       1.763   2.637  16.595  1.00  0.00    -0.354 N 
ATOM     48  C   UNL     1       5.553   4.224  17.964  1.00  0.00     0.074 A 
ATOM     49  C   UNL     1       6.490   4.342  16.869  1.00  0.00     0.031 C 
ATOM     50  C   UNL     1       0.306   1.844  15.098  1.00  0.00     0.029 A 
ATOM     51  C   UNL     1       0.487   2.131  16.521  1.00  0.00     0.049 A 
ATOM     52  H   UNL     1       2.160   2.976  17.430  1.00  0.00     0.167 HD
ATOM     53  C   UNL     1       5.821   4.595  19.239  1.00  0.00     0.037 A 
ATOM     54  C   UNL     1      -0.418   1.901  17.494  1.00  0.00     0.037 A 
ATOM     55  C   UNL     1       4.883   4.471  20.324  1.00  0.00     0.049 A 
ATOM     56  C   UNL     1      -0.073   2.256  18.920  1.00  0.00     0.074 A 
ATOM     57  C   UNL     1       5.049   4.835  21.648  1.00  0.00     0.029 A 
ATOM     58  N   UNL     1       3.609   3.933  20.214  1.00  0.00    -0.354 N 
ATOM     59  N   UNL     1       1.028   2.789  19.397  1.00  0.00    -0.248 NA
ATOM     60  C   UNL     1      -1.096   1.983  19.941  1.00  0.00     0.031 C 
ATOM     61  C   UNL     1       3.900   4.461  22.351  1.00  0.00     0.029 A 
ATOM     62  C   UNL     1       2.989   3.927  21.453  1.00  0.00     0.049 A 
ATOM     63  H   UNL     1       3.205   3.604  19.379  1.00  0.00     0.167 HD
ATOM     64  C   UNL     1       0.817   2.944  20.764  1.00  0.00     0.074 A 
ATOM     65  C   UNL     1      -0.519   2.458  21.036  1.00  0.00     0.031 C 
ATOM     66  C   UNL     1       1.653   3.447  21.708  1.00  0.00     0.037 A 
BRANCH  53  67
ATOM     67  C   UNL     1       7.193   5.136  19.535  1.00  0.00     0.058 A 
ATOM     68  C   UNL     1       7.616   6.390  19.065  1.00  0.00     0.135 A 
ATOM     69  C   UNL     1       8.090   4.398  20.325  1.00  0.00     0.135 A 
ATOM     70  F   UNL     1       6.809   7.129  18.288  1.00  0.00    -0.206 F 
ATOM     71  C   UNL     1       8.887   6.881  19.347  1.00  0.00     0.059 A 
ATOM     72  C   UNL     1       9.354   4.884  20.646  1.00  0.00     0.059 A 
ATOM     73  F   UNL     1       7.741   3.191  20.796  1.00  0.00    -0.206 F 
ATOM     74  C   UNL     1       9.748   6.122  20.140  1.00  0.00     0.060 A 
BRANCH  74  75
ATOM     75  S   UNL     1      11.390   6.778  20.504  1.00  0.00     0.124 S 
ATOM     76  O   UNL     1      12.044   6.665  19.204  1.00  0.00    -0.237 OA
ATOM     77  O   UNL     1      11.090   8.136  20.947  1.00  0.00    -0.237 OA
ATOM     78  O   UNL     1      11.895   5.881  21.539  1.00  0.00    -0.744 OA
ENDBRANCH  74  75
ENDBRANCH  53  67
BRANCH  54  79
ATOM     79  C   UNL     1      -1.733   1.288  17.160  1.00  0.00     0.058 A 
ATOM     80  C   UNL     1      -2.927   2.015  17.281  1.00  0.00     0.135 A 
ATOM     81  C   UNL     1      -1.823  -0.041  16.717  1.00  0.00     0.135 A 
ATOM     82  F   UNL     1      -2.898   3.284  17.715  1.00  0.00    -0.206 F 
ATOM     83  C   UNL     1      -4.162   1.445  16.988  1.00  0.00     0.059 A 
ATOM     84  C   UNL     1      -3.043  -0.624  16.389  1.00  0.00     0.059 A 
ATOM     85  F   UNL     1      -0.712  -0.781  16.578  1.00  0.00    -0.206 F 
ATOM     86  C   UNL     1      -4.209   0.125  16.537  1.00  0.00     0.060 A 
BRANCH  86  87
ATOM     87  S   UNL     1      -5.813  -0.588  16.109  1.00  0.00     0.124 S 
ATOM     88  O   UNL     1      -6.428  -0.738  17.422  1.00  0.00    -0.237 OA
ATOM     89  O   UNL     1      -6.384   0.444  15.249  1.00  0.00    -0.237 OA
ATOM     90  O   UNL     1      -5.458  -1.832  15.432  1.00  0.00    -0.744 OA
ENDBRANCH  86  87
ENDBRANCH  54  79
BRANCH  66  91
ATOM     91  C   UNL     1       1.137   3.542  23.121  1.00  0.00     0.058 A 
ATOM     92  C   UNL     1       0.934   2.405  23.918  1.00  0.00     0.135 A 
ATOM     93  C   UNL     1       0.898   4.799  23.703  1.00  0.00     0.135 A 
ATOM     94  F   UNL     1       1.143   1.179  23.412  1.00  0.00    -0.206 F 
ATOM     95  C   UNL     1       0.487   2.508  25.232  1.00  0.00     0.059 A 
ATOM     96  C   UNL     1       0.483   4.927  25.025  1.00  0.00     0.059 A 
ATOM     97  F   UNL     1       1.088   5.922  22.992  1.00  0.00    -0.206 F 
ATOM     98  C   UNL     1       0.268   3.775  25.778  1.00  0.00     0.060 A 
BRANCH  98  99
ATOM     99  S   UNL     1      -0.282   3.894  27.494  1.00  0.00     0.124 S 
ATOM    100  O   UNL     1      -1.660   3.425  27.395  1.00  0.00    -0.237 OA
ATOM    101  O   UNL     1       0.645   2.999  28.180  1.00  0.00    -0.237 OA
ATOM    102  O   UNL     1      -0.122   5.311  27.805  1.00  0.00    -0.744 OA
ENDBRANCH  98  99
ENDBRANCH  66  91
ENDBRANCH  40  41
ENDBRANCH  33  35
ENDBRANCH  32  33
ENDBRANCH  31  32
ENDBRANCH  30  31
ENDBRANCH  29  30
ENDBRANCH  28  29
ENDBRANCH  27  28
ENDBRANCH   1  27
TORSDOF 26
