REMARK SMILES O=C(N[C@H]1c2ccccc2C[C@H]1C(=O)OCCOCCOCCOCCOC(=O)c1ccc(-c2c3nc(c(-c4c(F)cc(S(=O)(=O)[O-])cc4F)c4ccc([nH]4)c(-c4c(F)cc(S(=O)(=O)[O-])cc4F)c4nc(c(-c5c(F)cc(S(=O)(=O)[O-])cc5F)c5ccc2[nH]5)C=C4)C=C3)cc1)OCC1c2ccccc2-c2ccccc21
REMARK SMILES IDX 20 1 19 2 18 3 17 4 16 5 15 6 13 7 14 8 12 9 4 10 5 11 6 12
REMARK SMILES IDX 10 13 11 14 7 15 9 16 8 17 3 18 1 19 2 20 96 22 97 23 98 24
REMARK SMILES IDX 99 25 110 26 100 27 104 28 105 29 109 30 101 31 103 32
REMARK SMILES IDX 106 33 108 34 102 35 107 36 21 37 22 38 23 39 24 40 25 41
REMARK SMILES IDX 26 42 27 43 28 44 29 45 30 46 31 47 95 48 32 49 94 50 33 51
REMARK SMILES IDX 34 52 35 53 88 54 36 55 93 56 87 57 89 58 37 59 92 60 86 61
REMARK SMILES IDX 85 62 38 64 72 65 51 66 71 67 52 68 55 69 70 70 90 71 53 72
REMARK SMILES IDX 54 73 69 75 91 76 56 77 39 78 40 79 49 80 41 81 42 82 48 83
REMARK SMILES IDX 50 84 43 85 44 86 45 87 46 88 47 89 73 90 74 91 83 92 75 93
REMARK SMILES IDX 76 94 82 95 84 96 77 97 78 98 79 99 80 100 81 101 57 102
REMARK SMILES IDX 58 103 67 104 59 105 60 106 66 107 68 108 61 109 62 110
REMARK SMILES IDX 63 111 64 112 65 113
REMARK H PARENT 3 21 89 63 55 74
REMARK Flexibility Score: inf
ROOT
ATOM      1  C   UNL     1       4.264   2.199  -4.756  1.00  0.00     0.188 C 
ENDROOT
BRANCH   1   2
ATOM      2  C   UNL     1       3.139   1.572  -3.932  1.00  0.00     0.188 C 
BRANCH   2   3
ATOM      3  O   UNL     1       1.955   2.347  -3.734  1.00  0.00    -0.376 OA
BRANCH   3   4
ATOM      4  C   UNL     1       1.966   3.233  -2.594  1.00  0.00     0.202 C 
BRANCH   4   5
ATOM      5  C   UNL     1       1.321   2.704  -1.254  1.00  0.00     0.261 C 
BRANCH   5   6
ATOM      6  O   UNL     1       2.206   2.352  -0.102  1.00  0.00    -0.463 OA
BRANCH   6   7
ATOM      7  C   UNL     1       2.851   1.149  -0.210  1.00  0.00     0.311 C 
ATOM      8  O   UNL     1       2.561   0.469  -1.181  1.00  0.00    -0.252 OA
BRANCH   7   9
ATOM      9  C   UNL     1       3.903   0.769   0.966  1.00  0.00     0.130 C 
ATOM     10  C   UNL     1       3.114  -0.056   1.966  1.00  0.00     0.130 C 
ATOM     11  C   UNL     1       4.151  -0.690   2.870  1.00  0.00    -0.021 A 
ATOM     12  C   UNL     1       4.151  -1.074   4.197  1.00  0.00     0.006 A 
ATOM     13  C   UNL     1       5.270  -0.969   2.118  1.00  0.00    -0.042 A 
ATOM     14  C   UNL     1       5.242  -0.120   0.895  1.00  0.00     0.053 C 
ATOM     15  C   UNL     1       5.180  -1.921   4.656  1.00  0.00     0.000 A 
ATOM     16  C   UNL     1       6.199  -1.937   2.479  1.00  0.00     0.004 A 
ATOM     17  C   UNL     1       6.143  -2.430   3.773  1.00  0.00     0.000 A 
BRANCH  10  18
ATOM     18  N   UNL     1       2.368  -1.093   1.223  1.00  0.00    -0.314 N 
ATOM     19  O   UNL     1       1.786  -2.593  -0.339  1.00  0.00    -0.225 OA
ATOM     20  C   UNL     1       2.614  -1.747   0.001  1.00  0.00     0.407 C 
ATOM     21  H   UNL     1       1.539  -1.382   1.669  1.00  0.00     0.167 HD
BRANCH  20  22
ATOM     22  O   UNL     1       3.849  -1.588  -0.624  1.00  0.00    -0.449 OA
BRANCH  22  23
ATOM     23  C   UNL     1       4.540  -0.810  -1.847  1.00  0.00     0.248 C 
BRANCH  23  24
ATOM     24  C   UNL     1       5.708   0.519  -1.785  1.00  0.00     0.088 C 
ATOM     25  C   UNL     1       7.203   0.113  -1.594  1.00  0.00    -0.029 A 
ATOM     26  C   UNL     1       5.826   2.045  -1.291  1.00  0.00    -0.029 A 
ATOM     27  C   UNL     1       7.807  -1.129  -1.601  1.00  0.00     0.005 A 
ATOM     28  C   UNL     1       8.002   1.262  -1.365  1.00  0.00    -0.014 A 
ATOM     29  C   UNL     1       7.181   2.430  -1.245  1.00  0.00    -0.014 A 
ATOM     30  C   UNL     1       4.972   3.089  -0.987  1.00  0.00     0.005 A 
ATOM     31  C   UNL     1       9.188  -1.204  -1.363  1.00  0.00     0.000 A 
ATOM     32  C   UNL     1       9.368   1.194  -1.141  1.00  0.00     0.009 A 
ATOM     33  C   UNL     1       7.626   3.756  -1.047  1.00  0.00     0.009 A 
ATOM     34  C   UNL     1       5.381   4.413  -0.697  1.00  0.00     0.000 A 
ATOM     35  C   UNL     1       9.962  -0.056  -1.135  1.00  0.00     0.001 A 
ATOM     36  C   UNL     1       6.712   4.761  -0.780  1.00  0.00     0.001 A 
ENDBRANCH  23  24
ENDBRANCH  22  23
ENDBRANCH  20  22
ENDBRANCH  10  18
ENDBRANCH   7   9
ENDBRANCH   6   7
ENDBRANCH   5   6
ENDBRANCH   4   5
ENDBRANCH   3   4
ENDBRANCH   2   3
ENDBRANCH   1   2
BRANCH   1  37
ATOM     37  O   UNL     1       4.690   3.388  -4.112  1.00  0.00    -0.377 OA
BRANCH  37  38
ATOM     38  C   UNL     1       4.502   4.532  -4.923  1.00  0.00     0.188 C 
BRANCH  38  39
ATOM     39  C   UNL     1       5.851   5.104  -5.311  1.00  0.00     0.188 C 
BRANCH  39  40
ATOM     40  O   UNL     1       6.842   4.173  -5.742  1.00  0.00    -0.376 OA
BRANCH  40  41
ATOM     41  C   UNL     1       7.811   3.873  -4.723  1.00  0.00     0.202 C 
BRANCH  41  42
ATOM     42  C   UNL     1       8.840   4.993  -4.437  1.00  0.00     0.261 C 
BRANCH  42  43
ATOM     43  O   UNL     1       8.292   6.077  -3.646  1.00  0.00    -0.460 OA
BRANCH  43  44
ATOM     44  C   UNL     1       7.920   7.185  -4.330  1.00  0.00     0.338 C 
ATOM     45  O   UNL     1       8.132   7.418  -5.520  1.00  0.00    -0.246 OA
BRANCH  44  46
ATOM     46  C   UNL     1       6.967   7.979  -3.523  1.00  0.00     0.060 A 
ATOM     47  C   UNL     1       5.704   8.260  -4.072  1.00  0.00     0.016 A 
ATOM     48  C   UNL     1       7.309   8.486  -2.269  1.00  0.00     0.016 A 
ATOM     49  C   UNL     1       4.799   9.076  -3.397  1.00  0.00     0.010 A 
ATOM     50  C   UNL     1       6.412   9.334  -1.605  1.00  0.00     0.010 A 
ATOM     51  C   UNL     1       5.175   9.671  -2.188  1.00  0.00    -0.014 A 
BRANCH  51  52
ATOM     52  C   UNL     1       4.408  10.850  -1.706  1.00  0.00     0.031 A 
ATOM     53  C   UNL     1       4.939  12.218  -2.059  1.00  0.00     0.074 A 
ATOM     54  C   UNL     1       3.242  10.728  -1.045  1.00  0.00     0.049 A 
ATOM     55  N   UNL     1       4.482  13.398  -1.733  1.00  0.00    -0.248 NA
ATOM     56  C   UNL     1       6.152  12.256  -2.896  1.00  0.00     0.031 C 
ATOM     57  C   UNL     1       2.585   9.468  -0.703  1.00  0.00     0.029 A 
ATOM     58  N   UNL     1       2.402  11.691  -0.541  1.00  0.00    -0.354 N 
ATOM     59  C   UNL     1       5.345  14.314  -2.325  1.00  0.00     0.074 A 
ATOM     60  C   UNL     1       6.381  13.556  -2.990  1.00  0.00     0.031 C 
ATOM     61  C   UNL     1       1.450   9.736  -0.030  1.00  0.00     0.029 A 
ATOM     62  C   UNL     1       1.313  11.184   0.130  1.00  0.00     0.049 A 
ATOM     63  H   UNL     1       2.563  12.656  -0.651  1.00  0.00     0.167 HD
ATOM     64  C   UNL     1       5.273  15.665  -2.335  1.00  0.00     0.037 A 
ATOM     65  C   UNL     1       0.336  11.818   0.810  1.00  0.00     0.037 A 
ATOM     66  C   UNL     1       4.242  16.422  -1.678  1.00  0.00     0.049 A 
ATOM     67  C   UNL     1       0.336  13.329   0.870  1.00  0.00     0.074 A 
ATOM     68  C   UNL     1       4.093  17.796  -1.615  1.00  0.00     0.029 A 
ATOM     69  N   UNL     1       3.181  15.871  -0.976  1.00  0.00    -0.354 N 
ATOM     70  N   UNL     1       1.160  14.181   0.305  1.00  0.00    -0.248 NA
ATOM     71  C   UNL     1      -0.732  13.966   1.656  1.00  0.00     0.031 C 
ATOM     72  C   UNL     1       2.967  18.078  -0.836  1.00  0.00     0.029 A 
ATOM     73  C   UNL     1       2.382  16.879  -0.464  1.00  0.00     0.049 A 
ATOM     74  H   UNL     1       3.020  14.907  -0.860  1.00  0.00     0.167 HD
ATOM     75  C   UNL     1       0.682  15.449   0.632  1.00  0.00     0.074 A 
ATOM     76  C   UNL     1      -0.509  15.252   1.430  1.00  0.00     0.031 C 
ATOM     77  C   UNL     1       1.183  16.667   0.306  1.00  0.00     0.037 A 
BRANCH  64  78
ATOM     78  C   UNL     1       6.340  16.418  -3.079  1.00  0.00     0.058 A 
ATOM     79  C   UNL     1       6.390  16.424  -4.482  1.00  0.00     0.135 A 
ATOM     80  C   UNL     1       7.285  17.191  -2.386  1.00  0.00     0.135 A 
ATOM     81  F   UNL     1       5.528  15.680  -5.194  1.00  0.00    -0.206 F 
ATOM     82  C   UNL     1       7.342  17.167  -5.172  1.00  0.00     0.059 A 
ATOM     83  C   UNL     1       8.227  17.965  -3.055  1.00  0.00     0.059 A 
ATOM     84  F   UNL     1       7.287  17.211  -1.044  1.00  0.00    -0.206 F 
ATOM     85  C   UNL     1       8.250  17.943  -4.449  1.00  0.00     0.060 A 
BRANCH  85  86
ATOM     86  S   UNL     1       9.446  18.938  -5.363  1.00  0.00     0.124 S 
ATOM     87  O   UNL     1      10.318  17.909  -5.921  1.00  0.00    -0.237 OA
ATOM     88  O   UNL     1       8.597  19.638  -6.322  1.00  0.00    -0.237 OA
ATOM     89  O   UNL     1      10.049  19.778  -4.333  1.00  0.00    -0.744 OA
ENDBRANCH  85  86
ENDBRANCH  64  78
BRANCH  65  90
ATOM     90  C   UNL     1      -0.723  11.048   1.525  1.00  0.00     0.058 A 
ATOM     91  C   UNL     1      -2.074  11.151   1.157  1.00  0.00     0.135 A 
ATOM     92  C   UNL     1      -0.413  10.256   2.643  1.00  0.00     0.135 A 
ATOM     93  F   UNL     1      -2.426  11.903   0.103  1.00  0.00    -0.206 F 
ATOM     94  C   UNL     1      -3.082  10.539   1.897  1.00  0.00     0.059 A 
ATOM     95  C   UNL     1      -1.401   9.607   3.378  1.00  0.00     0.059 A 
ATOM     96  F   UNL     1       0.862  10.111   3.034  1.00  0.00    -0.206 F 
ATOM     97  C   UNL     1      -2.735   9.775   3.011  1.00  0.00     0.060 A 
BRANCH  97  98
ATOM     98  S   UNL     1      -4.049   8.992   3.972  1.00  0.00     0.124 S 
ATOM     99  O   UNL     1      -4.635  10.140   4.655  1.00  0.00    -0.237 OA
ATOM    100  O   UNL     1      -4.867   8.380   2.930  1.00  0.00    -0.237 OA
ATOM    101  O   UNL     1      -3.325   8.052   4.823  1.00  0.00    -0.744 OA
ENDBRANCH  97  98
ENDBRANCH  65  90
BRANCH  77 102
ATOM    102  C   UNL     1       0.416  17.883   0.756  1.00  0.00     0.058 A 
ATOM    103  C   UNL     1       0.353  18.267   2.104  1.00  0.00     0.135 A 
ATOM    104  C   UNL     1      -0.229  18.703  -0.187  1.00  0.00     0.135 A 
ATOM    105  F   UNL     1       0.950  17.521   3.047  1.00  0.00    -0.206 F 
ATOM    106  C   UNL     1      -0.353  19.396   2.507  1.00  0.00     0.059 A 
ATOM    107  C   UNL     1      -0.911  19.856   0.190  1.00  0.00     0.059 A 
ATOM    108  F   UNL     1      -0.188  18.394  -1.493  1.00  0.00    -0.206 F 
ATOM    109  C   UNL     1      -0.981  20.185   1.542  1.00  0.00     0.060 A 
BRANCH 109 110
ATOM    110  S   UNL     1      -1.878  21.657   2.078  1.00  0.00     0.124 S 
ATOM    111  O   UNL     1      -3.055  21.071   2.709  1.00  0.00    -0.237 OA
ATOM    112  O   UNL     1      -0.923  22.292   2.982  1.00  0.00    -0.237 OA
ATOM    113  O   UNL     1      -2.126  22.378   0.833  1.00  0.00    -0.744 OA
ENDBRANCH 109 110
ENDBRANCH  77 102
ENDBRANCH  51  52
ENDBRANCH  44  46
ENDBRANCH  43  44
ENDBRANCH  42  43
ENDBRANCH  41  42
ENDBRANCH  40  41
ENDBRANCH  39  40
ENDBRANCH  38  39
ENDBRANCH  37  38
ENDBRANCH   1  37
TORSDOF 27
