REMARK SMILES COc1ccc(OC)c([C@H](C(=O)OCCOCCOCCOCCOC(=O)c2ccc(-c3c4nc(c(-c5c(F)cc(S(=O)(=O)[O-])cc5F)c5ccc([nH]5)c(-c5c(F)cc(S(=O)(=O)[O-])cc5F)c5nc(c(-c6c(F)cc(S(=O)(=O)[O-])cc6F)c6ccc3[nH]6)C=C5)C=C4)cc2)[NH+]2CC[NH+](Cc3nccn3C)CC2)c1
REMARK SMILES IDX 19 1 18 2 17 3 16 4 15 5 14 6 13 7 11 8 12 9 10 10 9 11 3 12
REMARK SMILES IDX 4 13 107 14 5 15 6 16 2 17 1 18 7 19 8 20 94 21 95 22 106 23
REMARK SMILES IDX 96 25 105 26 97 27 98 29 99 30 100 31 103 32 101 33 102 34
REMARK SMILES IDX 104 35 20 36 21 37 22 38 23 39 24 40 25 41 26 42 27 43 28 44
REMARK SMILES IDX 29 45 93 46 30 47 92 48 31 49 32 50 33 51 86 52 34 53 91 54
REMARK SMILES IDX 85 55 87 56 35 57 90 58 84 59 83 60 36 62 70 63 49 64 69 65
REMARK SMILES IDX 50 66 53 67 68 68 88 69 51 70 52 71 67 73 89 74 54 75 37 76
REMARK SMILES IDX 38 77 47 78 39 79 40 80 46 81 48 82 41 83 42 84 43 85 44 86
REMARK SMILES IDX 45 87 71 88 72 89 81 90 73 91 74 92 80 93 82 94 75 95 76 96
REMARK SMILES IDX 77 97 78 98 79 99 55 100 56 101 65 102 57 103 58 104 64 105
REMARK SMILES IDX 66 106 59 107 60 108 61 109 62 110 63 111
REMARK H PARENT 94 24 97 28 87 61 53 72
REMARK Flexibility Score: inf
ROOT
ATOM      1  O   UNL     1       1.428  -1.127   1.346  1.00  0.00    -0.377 OA
ENDROOT
BRANCH   1   2
ATOM      2  C   UNL     1       1.900  -0.254   2.349  1.00  0.00     0.188 C 
BRANCH   2   3
ATOM      3  C   UNL     1       1.463   1.195   2.214  1.00  0.00     0.188 C 
BRANCH   3   4
ATOM      4  O   UNL     1       0.113   1.488   1.885  1.00  0.00    -0.376 OA
BRANCH   4   5
ATOM      5  C   UNL     1      -0.196   2.881   1.761  1.00  0.00     0.202 C 
BRANCH   5   6
ATOM      6  C   UNL     1       0.834   3.726   0.981  1.00  0.00     0.261 C 
BRANCH   6   7
ATOM      7  O   UNL     1       2.175   3.711   1.534  1.00  0.00    -0.459 OA
BRANCH   7   8
ATOM      8  C   UNL     1       2.318   3.926   2.877  1.00  0.00     0.370 C 
ATOM      9  O   UNL     1       1.448   4.453   3.558  1.00  0.00    -0.245 OA
BRANCH   8  10
ATOM     10  C   UNL     1       3.763   3.509   3.352  1.00  0.00     0.330 C 
BRANCH  10  11
ATOM     11  C   UNL     1       4.761   4.662   3.111  1.00  0.00     0.067 A 
ATOM     12  C   UNL     1       4.930   7.037   2.364  1.00  0.00     0.119 A 
ATOM     13  C   UNL     1       6.297   6.992   2.532  1.00  0.00     0.050 A 
ATOM     14  C   UNL     1       4.198   5.893   2.659  1.00  0.00     0.060 A 
ATOM     15  C   UNL     1       6.900   5.799   2.934  1.00  0.00     0.051 A 
ATOM     16  C   UNL     1       6.162   4.623   3.199  1.00  0.00     0.128 A 
BRANCH  12  17
ATOM     17  O   UNL     1       4.394   8.211   1.910  1.00  0.00    -0.497 OA
ATOM     18  C   UNL     1       2.973   8.247   1.762  1.00  0.00     0.278 C 
ENDBRANCH  12  17
BRANCH  16  19
ATOM     19  O   UNL     1       7.025   3.583   3.395  1.00  0.00    -0.496 OA
ATOM     20  C   UNL     1       6.664   2.472   4.182  1.00  0.00     0.278 C 
ENDBRANCH  16  19
ENDBRANCH  10  11
BRANCH  10  21
ATOM     21  N   UNL     1       3.752   3.002   4.747  1.00  0.00    -0.310 N 
ATOM     22  C   UNL     1       3.207   3.828   5.815  1.00  0.00     0.325 C 
ATOM     23  C   UNL     1       3.647   1.571   5.028  1.00  0.00     0.325 C 
ATOM     24  H   UNL     1       4.759   3.161   4.781  1.00  0.00     0.349 HD
ATOM     25  C   UNL     1       1.851   3.346   6.388  1.00  0.00     0.324 C 
ATOM     26  C   UNL     1       2.364   1.042   5.727  1.00  0.00     0.324 C 
ATOM     27  N   UNL     1       1.699   1.919   6.684  1.00  0.00    -0.319 N 
ATOM     28  H   UNL     1       0.710   1.731   6.518  1.00  0.00     0.348 HD
BRANCH  27  29
ATOM     29  C   UNL     1       1.815   1.551   8.092  1.00  0.00     0.339 C 
BRANCH  29  30
ATOM     30  C   UNL     1       3.219   1.329   8.556  1.00  0.00     0.164 A 
ATOM     31  N   UNL     1       4.094   2.287   8.807  1.00  0.00    -0.236 NA
ATOM     32  N   UNL     1       3.808   0.093   8.711  1.00  0.00    -0.333 N 
ATOM     33  C   UNL     1       5.290   1.662   9.018  1.00  0.00     0.131 A 
ATOM     34  C   UNL     1       5.141   0.299   8.953  1.00  0.00     0.107 A 
ATOM     35  C   UNL     1       3.213  -1.217   8.592  1.00  0.00     0.151 C 
ENDBRANCH  29  30
ENDBRANCH  27  29
ENDBRANCH  10  21
ENDBRANCH   8  10
ENDBRANCH   7   8
ENDBRANCH   6   7
ENDBRANCH   5   6
ENDBRANCH   4   5
ENDBRANCH   3   4
ENDBRANCH   2   3
ENDBRANCH   1   2
BRANCH   1  36
ATOM     36  C   UNL     1       0.026  -1.068   1.128  1.00  0.00     0.188 C 
BRANCH  36  37
ATOM     37  C   UNL     1      -0.913  -1.351   2.323  1.00  0.00     0.188 C 
BRANCH  37  38
ATOM     38  O   UNL     1      -0.319  -1.307   3.622  1.00  0.00    -0.376 OA
BRANCH  38  39
ATOM     39  C   UNL     1      -0.169  -2.569   4.274  1.00  0.00     0.202 C 
BRANCH  39  40
ATOM     40  C   UNL     1       1.037  -3.415   3.825  1.00  0.00     0.261 C 
BRANCH  40  41
ATOM     41  O   UNL     1       1.070  -3.746   2.432  1.00  0.00    -0.460 OA
BRANCH  41  42
ATOM     42  C   UNL     1       0.060  -4.498   1.942  1.00  0.00     0.338 C 
ATOM     43  O   UNL     1      -0.833  -5.024   2.586  1.00  0.00    -0.246 OA
BRANCH  42  44
ATOM     44  C   UNL     1       0.079  -4.353   0.469  1.00  0.00     0.060 A 
ATOM     45  C   UNL     1      -1.106  -3.954  -0.170  1.00  0.00     0.016 A 
ATOM     46  C   UNL     1       1.273  -4.450  -0.255  1.00  0.00     0.016 A 
ATOM     47  C   UNL     1      -1.082  -3.596  -1.519  1.00  0.00     0.010 A 
ATOM     48  C   UNL     1       1.281  -4.157  -1.621  1.00  0.00     0.010 A 
ATOM     49  C   UNL     1       0.103  -3.734  -2.259  1.00  0.00    -0.014 A 
BRANCH  49  50
ATOM     50  C   UNL     1       0.028  -3.736  -3.738  1.00  0.00     0.031 A 
ATOM     51  C   UNL     1      -0.424  -5.019  -4.379  1.00  0.00     0.074 A 
ATOM     52  C   UNL     1       0.347  -2.666  -4.488  1.00  0.00     0.049 A 
ATOM     53  N   UNL     1      -0.571  -5.313  -5.642  1.00  0.00    -0.248 NA
ATOM     54  C   UNL     1      -0.763  -6.122  -3.459  1.00  0.00     0.031 C 
ATOM     55  C   UNL     1       0.766  -1.361  -3.980  1.00  0.00     0.029 A 
ATOM     56  N   UNL     1       0.372  -2.518  -5.854  1.00  0.00    -0.354 N 
ATOM     57  C   UNL     1      -1.033  -6.623  -5.665  1.00  0.00     0.074 A 
ATOM     58  C   UNL     1      -1.121  -7.078  -4.298  1.00  0.00     0.031 C 
ATOM     59  C   UNL     1       1.026  -0.549  -5.024  1.00  0.00     0.029 A 
ATOM     60  C   UNL     1       0.815  -1.284  -6.271  1.00  0.00     0.049 A 
ATOM     61  H   UNL     1       0.099  -3.229  -6.477  1.00  0.00     0.167 HD
ATOM     62  C   UNL     1      -1.357  -7.384  -6.734  1.00  0.00     0.037 A 
ATOM     63  C   UNL     1       1.042  -0.820  -7.518  1.00  0.00     0.037 A 
ATOM     64  C   UNL     1      -1.216  -6.949  -8.093  1.00  0.00     0.049 A 
ATOM     65  C   UNL     1       0.770  -1.723  -8.699  1.00  0.00     0.074 A 
ATOM     66  C   UNL     1      -1.499  -7.646  -9.252  1.00  0.00     0.029 A 
ATOM     67  N   UNL     1      -0.726  -5.708  -8.474  1.00  0.00    -0.354 N 
ATOM     68  N   UNL     1       0.294  -2.947  -8.711  1.00  0.00    -0.248 NA
ATOM     69  C   UNL     1       1.069  -1.187 -10.035  1.00  0.00     0.031 C 
ATOM     70  C   UNL     1      -1.133  -6.843 -10.338  1.00  0.00     0.029 A 
ATOM     71  C   UNL     1      -0.673  -5.628  -9.854  1.00  0.00     0.049 A 
ATOM     72  H   UNL     1      -0.457  -4.992  -7.855  1.00  0.00     0.167 HD
ATOM     73  C   UNL     1       0.213  -3.315 -10.051  1.00  0.00     0.074 A 
ATOM     74  C   UNL     1       0.680  -2.182 -10.822  1.00  0.00     0.031 C 
ATOM     75  C   UNL     1      -0.211  -4.482 -10.598  1.00  0.00     0.037 A 
BRANCH  62  76
ATOM     76  C   UNL     1      -1.849  -8.774  -6.456  1.00  0.00     0.058 A 
ATOM     77  C   UNL     1      -3.122  -9.006  -5.910  1.00  0.00     0.135 A 
ATOM     78  C   UNL     1      -1.034  -9.884  -6.722  1.00  0.00     0.135 A 
ATOM     79  F   UNL     1      -3.926  -7.975  -5.604  1.00  0.00    -0.206 F 
ATOM     80  C   UNL     1      -3.561 -10.292  -5.617  1.00  0.00     0.059 A 
ATOM     81  C   UNL     1      -1.463 -11.181  -6.461  1.00  0.00     0.059 A 
ATOM     82  F   UNL     1       0.199  -9.713  -7.225  1.00  0.00    -0.206 F 
ATOM     83  C   UNL     1      -2.723 -11.373  -5.896  1.00  0.00     0.060 A 
BRANCH  83  84
ATOM     84  S   UNL     1      -3.308 -13.036  -5.512  1.00  0.00     0.124 S 
ATOM     85  O   UNL     1      -3.220 -13.046  -4.055  1.00  0.00    -0.237 OA
ATOM     86  O   UNL     1      -4.659 -13.027  -6.065  1.00  0.00    -0.237 OA
ATOM     87  O   UNL     1      -2.356 -13.899  -6.204  1.00  0.00    -0.744 OA
ENDBRANCH  83  84
ENDBRANCH  62  76
BRANCH  63  88
ATOM     88  C   UNL     1       1.572   0.557  -7.729  1.00  0.00     0.058 A 
ATOM     89  C   UNL     1       0.788   1.556  -8.326  1.00  0.00     0.135 A 
ATOM     90  C   UNL     1       2.884   0.896  -7.359  1.00  0.00     0.135 A 
ATOM     91  F   UNL     1      -0.465   1.281  -8.716  1.00  0.00    -0.206 F 
ATOM     92  C   UNL     1       1.287   2.836  -8.560  1.00  0.00     0.059 A 
ATOM     93  C   UNL     1       3.397   2.175  -7.560  1.00  0.00     0.059 A 
ATOM     94  F   UNL     1       3.678  -0.021  -6.785  1.00  0.00    -0.206 F 
ATOM     95  C   UNL     1       2.593   3.136  -8.170  1.00  0.00     0.060 A 
BRANCH  95  96
ATOM     96  S   UNL     1       3.212   4.814  -8.433  1.00  0.00     0.124 S 
ATOM     97  O   UNL     1       3.398   4.836  -9.879  1.00  0.00    -0.237 OA
ATOM     98  O   UNL     1       2.116   5.628  -7.916  1.00  0.00    -0.237 OA
ATOM     99  O   UNL     1       4.436   4.847  -7.638  1.00  0.00    -0.744 OA
ENDBRANCH  95  96
ENDBRANCH  63  88
BRANCH  75 100
ATOM    100  C   UNL     1      -0.223  -4.592 -12.097  1.00  0.00     0.058 A 
ATOM    101  C   UNL     1       0.959  -4.752 -12.834  1.00  0.00     0.135 A 
ATOM    102  C   UNL     1      -1.443  -4.630 -12.794  1.00  0.00     0.135 A 
ATOM    103  F   UNL     1       2.151  -4.720 -12.216  1.00  0.00    -0.206 F 
ATOM    104  C   UNL     1       0.935  -4.933 -14.213  1.00  0.00     0.059 A 
ATOM    105  C   UNL     1      -1.492  -4.838 -14.168  1.00  0.00     0.059 A 
ATOM    106  F   UNL     1      -2.604  -4.497 -12.133  1.00  0.00    -0.206 F 
ATOM    107  C   UNL     1      -0.296  -4.981 -14.870  1.00  0.00     0.060 A 
BRANCH 107 108
ATOM    108  S   UNL     1      -0.316  -5.272 -16.652  1.00  0.00     0.124 S 
ATOM    109  O   UNL     1       0.135  -3.983 -17.166  1.00  0.00    -0.237 OA
ATOM    110  O   UNL     1       0.625  -6.378 -16.799  1.00  0.00    -0.237 OA
ATOM    111  O   UNL     1      -1.711  -5.604 -16.927  1.00  0.00    -0.744 OA
ENDBRANCH 107 108
ENDBRANCH  75 100
ENDBRANCH  49  50
ENDBRANCH  42  44
ENDBRANCH  41  42
ENDBRANCH  40  41
ENDBRANCH  39  40
ENDBRANCH  38  39
ENDBRANCH  37  38
ENDBRANCH  36  37
ENDBRANCH   1  36
TORSDOF 29
