REMARK SMILES CC[C@H]([NH3+])[C@H](C(=O)OCCOCCOCCOCCOC(=O)c1ccc(-c2c3nc(c(-c4c(F)cc(S(=O)(=O)[O-])cc4F)c4ccc([nH]4)c(-c4c(F)cc(S(=O)(=O)[O-])cc4F)c4nc(c(-c5c(F)cc(S(=O)(=O)[O-])cc5F)c5ccc2[nH]5)C=C4)C=C3)cc1)C(=O)OCC1c2ccccc2-c2ccccc21
REMARK SMILES IDX 13 1 12 2 11 3 10 4 9 5 8 6 6 7 7 8 5 9 3 10 2 11 1 12 4 13
REMARK SMILES IDX 89 17 90 18 91 19 92 20 93 21 94 22 105 23 95 24 99 25
REMARK SMILES IDX 100 26 104 27 96 28 98 29 101 30 103 31 97 32 102 33 14 34
REMARK SMILES IDX 15 35 16 36 17 37 18 38 19 39 20 40 21 41 22 42 23 43 24 44
REMARK SMILES IDX 88 45 25 46 87 47 26 48 27 49 28 50 81 51 29 52 86 53 80 54
REMARK SMILES IDX 82 55 30 56 85 57 79 58 78 59 31 61 65 62 44 63 64 64 45 65
REMARK SMILES IDX 48 66 63 67 83 68 46 69 47 70 62 72 84 73 49 74 32 75 33 76
REMARK SMILES IDX 42 77 34 78 35 79 41 80 43 81 36 82 37 83 38 84 39 85 40 86
REMARK SMILES IDX 66 87 67 88 76 89 68 90 69 91 75 92 77 93 70 94 71 95 72 96
REMARK SMILES IDX 73 97 74 98 50 99 51 100 60 101 52 102 53 103 59 104 61 105
REMARK SMILES IDX 54 106 55 107 56 108 57 109 58 110
REMARK H PARENT 4 14 4 15 4 16 82 60 48 71
REMARK Flexibility Score: inf
ROOT
ATOM      1  C   UNL     1      -0.982  -1.150  -0.749  1.00  0.00     0.188 C 
ENDROOT
BRANCH   1   2
ATOM      2  C   UNL     1      -0.291  -1.728   0.514  1.00  0.00     0.188 C 
BRANCH   2   3
ATOM      3  O   UNL     1       0.549  -0.833   1.220  1.00  0.00    -0.376 OA
BRANCH   3   4
ATOM      4  C   UNL     1       1.951  -1.002   1.224  1.00  0.00     0.202 C 
BRANCH   4   5
ATOM      5  C   UNL     1       2.698  -0.821  -0.110  1.00  0.00     0.261 C 
BRANCH   5   6
ATOM      6  O   UNL     1       2.130  -1.503  -1.239  1.00  0.00    -0.462 OA
BRANCH   6   7
ATOM      7  C   UNL     1       2.113  -2.852  -1.131  1.00  0.00     0.326 C 
ATOM      8  O   UNL     1       2.547  -3.433  -0.143  1.00  0.00    -0.251 OA
BRANCH   7   9
ATOM      9  C   UNL     1       1.303  -3.542  -2.207  1.00  0.00     0.266 C 
BRANCH   9  10
ATOM     10  C   UNL     1       1.402  -3.017  -3.649  1.00  0.00     0.206 C 
BRANCH  10  11
ATOM     11  C   UNL     1       2.805  -3.145  -4.264  1.00  0.00     0.063 C 
ATOM     12  C   UNL     1       2.843  -2.789  -5.746  1.00  0.00     0.010 C 
ENDBRANCH  10  11
BRANCH  10  13
ATOM     13  N   UNL     1       0.879  -1.650  -3.766  1.00  0.00    -0.354 N 
ATOM     14  H   UNL     1       1.461  -1.015  -3.219  1.00  0.00     0.344 HD
ATOM     15  H   UNL     1      -0.078  -1.620  -3.416  1.00  0.00     0.344 HD
ATOM     16  H   UNL     1       0.893  -1.363  -4.745  1.00  0.00     0.344 HD
ENDBRANCH  10  13
ENDBRANCH   9  10
BRANCH   9  17
ATOM     17  C   UNL     1       1.547  -5.024  -2.151  1.00  0.00     0.326 C 
ATOM     18  O   UNL     1       0.668  -5.871  -2.245  1.00  0.00    -0.251 OA
BRANCH  17  19
ATOM     19  O   UNL     1       2.866  -5.281  -1.960  1.00  0.00    -0.464 OA
BRANCH  19  20
ATOM     20  C   UNL     1       3.194  -6.632  -1.654  1.00  0.00     0.246 C 
BRANCH  20  21
ATOM     21  C   UNL     1       3.005  -6.962  -0.154  1.00  0.00     0.088 C 
ATOM     22  C   UNL     1       3.053  -8.480  -0.063  1.00  0.00    -0.029 A 
ATOM     23  C   UNL     1       4.247  -6.586   0.651  1.00  0.00    -0.029 A 
ATOM     24  C   UNL     1       2.079  -9.382  -0.458  1.00  0.00     0.005 A 
ATOM     25  C   UNL     1       4.319  -8.891   0.406  1.00  0.00    -0.014 A 
ATOM     26  C   UNL     1       5.071  -7.720   0.808  1.00  0.00    -0.014 A 
ATOM     27  C   UNL     1       4.617  -5.361   1.181  1.00  0.00     0.005 A 
ATOM     28  C   UNL     1       2.392 -10.737  -0.393  1.00  0.00     0.000 A 
ATOM     29  C   UNL     1       4.624 -10.236   0.472  1.00  0.00     0.009 A 
ATOM     30  C   UNL     1       6.351  -7.586   1.319  1.00  0.00     0.009 A 
ATOM     31  C   UNL     1       5.885  -5.235   1.746  1.00  0.00     0.000 A 
ATOM     32  C   UNL     1       3.653 -11.159   0.063  1.00  0.00     0.001 A 
ATOM     33  C   UNL     1       6.764  -6.327   1.769  1.00  0.00     0.001 A 
ENDBRANCH  20  21
ENDBRANCH  19  20
ENDBRANCH  17  19
ENDBRANCH   9  17
ENDBRANCH   7   9
ENDBRANCH   6   7
ENDBRANCH   5   6
ENDBRANCH   4   5
ENDBRANCH   3   4
ENDBRANCH   2   3
ENDBRANCH   1   2
BRANCH   1  34
ATOM     34  O   UNL     1      -0.865   0.209  -1.146  1.00  0.00    -0.377 OA
BRANCH  34  35
ATOM     35  C   UNL     1      -0.414   1.179  -0.218  1.00  0.00     0.188 C 
BRANCH  35  36
ATOM     36  C   UNL     1      -1.162   1.275   1.127  1.00  0.00     0.188 C 
BRANCH  36  37
ATOM     37  O   UNL     1      -2.091   0.223   1.339  1.00  0.00    -0.376 OA
BRANCH  37  38
ATOM     38  C   UNL     1      -3.460   0.484   1.092  1.00  0.00     0.202 C 
BRANCH  38  39
ATOM     39  C   UNL     1      -3.904   1.045  -0.271  1.00  0.00     0.261 C 
BRANCH  39  40
ATOM     40  O   UNL     1      -3.171   2.158  -0.800  1.00  0.00    -0.460 OA
BRANCH  40  41
ATOM     41  C   UNL     1      -3.240   3.334  -0.144  1.00  0.00     0.338 C 
ATOM     42  O   UNL     1      -3.873   3.571   0.874  1.00  0.00    -0.246 OA
BRANCH  41  43
ATOM     43  C   UNL     1      -2.242   4.237  -0.756  1.00  0.00     0.060 A 
ATOM     44  C   UNL     1      -1.172   4.707   0.019  1.00  0.00     0.016 A 
ATOM     45  C   UNL     1      -2.343   4.585  -2.105  1.00  0.00     0.016 A 
ATOM     46  C   UNL     1      -0.214   5.548  -0.547  1.00  0.00     0.010 A 
ATOM     47  C   UNL     1      -1.401   5.455  -2.662  1.00  0.00     0.010 A 
ATOM     48  C   UNL     1      -0.352   5.964  -1.877  1.00  0.00    -0.014 A 
BRANCH  48  49
ATOM     49  C   UNL     1       0.468   7.091  -2.382  1.00  0.00     0.031 A 
ATOM     50  C   UNL     1      -0.141   8.467  -2.367  1.00  0.00     0.074 A 
ATOM     51  C   UNL     1       1.723   6.907  -2.827  1.00  0.00     0.049 A 
ATOM     52  N   UNL     1       0.346   9.597  -2.808  1.00  0.00    -0.248 NA
ATOM     53  C   UNL     1      -1.485   8.580  -1.776  1.00  0.00     0.031 C 
ATOM     54  C   UNL     1       2.434   5.630  -2.849  1.00  0.00     0.029 A 
ATOM     55  N   UNL     1       2.619   7.801  -3.359  1.00  0.00    -0.354 N 
ATOM     56  C   UNL     1      -0.633  10.551  -2.559  1.00  0.00     0.074 A 
ATOM     57  C   UNL     1      -1.754   9.864  -1.955  1.00  0.00     0.031 C 
ATOM     58  C   UNL     1       3.653   5.820  -3.386  1.00  0.00     0.029 A 
ATOM     59  C   UNL     1       3.793   7.222  -3.779  1.00  0.00     0.049 A 
ATOM     60  H   UNL     1       2.438   8.765  -3.434  1.00  0.00     0.167 HD
ATOM     61  C   UNL     1      -0.599  11.881  -2.806  1.00  0.00     0.037 A 
ATOM     62  C   UNL     1       4.845   7.759  -4.430  1.00  0.00     0.037 A 
ATOM     63  C   UNL     1       0.519  12.555  -3.412  1.00  0.00     0.049 A 
ATOM     64  C   UNL     1       4.832   9.230  -4.763  1.00  0.00     0.074 A 
ATOM     65  C   UNL     1       0.663  13.902  -3.690  1.00  0.00     0.029 A 
ATOM     66  N   UNL     1       1.680  11.931  -3.846  1.00  0.00    -0.354 N 
ATOM     67  N   UNL     1       3.912  10.129  -4.501  1.00  0.00    -0.248 NA
ATOM     68  C   UNL     1       6.002   9.763  -5.476  1.00  0.00     0.031 C 
ATOM     69  C   UNL     1       1.883  14.084  -4.349  1.00  0.00     0.029 A 
ATOM     70  C   UNL     1       2.532  12.861  -4.418  1.00  0.00     0.049 A 
ATOM     71  H   UNL     1       1.871  10.969  -3.760  1.00  0.00     0.167 HD
ATOM     72  C   UNL     1       4.405  11.336  -4.988  1.00  0.00     0.074 A 
ATOM     73  C   UNL     1       5.709  11.054  -5.551  1.00  0.00     0.031 C 
ATOM     74  C   UNL     1       3.833  12.567  -4.968  1.00  0.00     0.037 A 
BRANCH  61  75
ATOM     75  C   UNL     1      -1.819  12.688  -2.455  1.00  0.00     0.058 A 
ATOM     76  C   UNL     1      -2.193  12.931  -1.123  1.00  0.00     0.135 A 
ATOM     77  C   UNL     1      -2.610  13.253  -3.469  1.00  0.00     0.135 A 
ATOM     78  F   UNL     1      -1.487  12.398  -0.114  1.00  0.00    -0.206 F 
ATOM     79  C   UNL     1      -3.322  13.682  -0.810  1.00  0.00     0.059 A 
ATOM     80  C   UNL     1      -3.724  14.035  -3.179  1.00  0.00     0.059 A 
ATOM     81  F   UNL     1      -2.302  13.049  -4.759  1.00  0.00    -0.206 F 
ATOM     82  C   UNL     1      -4.079  14.232  -1.846  1.00  0.00     0.060 A 
BRANCH  82  83
ATOM     83  S   UNL     1      -5.533  15.215  -1.422  1.00  0.00     0.124 S 
ATOM     84  O   UNL     1      -6.444  14.188  -0.926  1.00  0.00    -0.237 OA
ATOM     85  O   UNL     1      -5.005  16.132  -0.417  1.00  0.00    -0.237 OA
ATOM     86  O   UNL     1      -5.911  15.829  -2.690  1.00  0.00    -0.744 OA
ENDBRANCH  82  83
ENDBRANCH  61  75
BRANCH  62  87
ATOM     87  C   UNL     1       5.993   6.899  -4.828  1.00  0.00     0.058 A 
ATOM     88  C   UNL     1       7.258   7.055  -4.242  1.00  0.00     0.135 A 
ATOM     89  C   UNL     1       5.848   5.902  -5.807  1.00  0.00     0.135 A 
ATOM     90  F   UNL     1       7.454   8.002  -3.312  1.00  0.00    -0.206 F 
ATOM     91  C   UNL     1       8.339   6.263  -4.617  1.00  0.00     0.059 A 
ATOM     92  C   UNL     1       6.906   5.079  -6.178  1.00  0.00     0.059 A 
ATOM     93  F   UNL     1       4.658   5.705  -6.396  1.00  0.00    -0.206 F 
ATOM     94  C   UNL     1       8.151   5.273  -5.582  1.00  0.00     0.060 A 
BRANCH  94  95
ATOM     95  S   UNL     1       9.546   4.211  -6.017  1.00  0.00     0.124 S 
ATOM     96  O   UNL     1      10.402   5.134  -6.753  1.00  0.00    -0.237 OA
ATOM     97  O   UNL     1      10.032   3.796  -4.705  1.00  0.00    -0.237 OA
ATOM     98  O   UNL     1       8.928   3.153  -6.810  1.00  0.00    -0.744 OA
ENDBRANCH  94  95
ENDBRANCH  62  87
BRANCH  74  99
ATOM     99  C   UNL     1       4.627  13.717  -5.531  1.00  0.00     0.058 A 
ATOM    100  C   UNL     1       4.860  13.858  -6.908  1.00  0.00     0.135 A 
ATOM    101  C   UNL     1       5.108  14.727  -4.680  1.00  0.00     0.135 A 
ATOM    102  F   UNL     1       4.427  12.921  -7.766  1.00  0.00    -0.206 F 
ATOM    103  C   UNL     1       5.565  14.944  -7.418  1.00  0.00     0.059 A 
ATOM    104  C   UNL     1       5.786  15.838  -5.172  1.00  0.00     0.059 A 
ATOM    105  F   UNL     1       4.903  14.651  -3.356  1.00  0.00    -0.206 F 
ATOM    106  C   UNL     1       6.020  15.931  -6.543  1.00  0.00     0.060 A 
BRANCH 106 107
ATOM    107  S   UNL     1       6.904  17.351  -7.223  1.00  0.00     0.124 S 
ATOM    108  O   UNL     1       8.177  16.748  -7.608  1.00  0.00    -0.237 OA
ATOM    109  O   UNL     1       6.037  17.759  -8.324  1.00  0.00    -0.237 OA
ATOM    110  O   UNL     1       6.965  18.284  -6.102  1.00  0.00    -0.744 OA
ENDBRANCH 106 107
ENDBRANCH  74  99
ENDBRANCH  48  49
ENDBRANCH  41  43
ENDBRANCH  40  41
ENDBRANCH  39  40
ENDBRANCH  38  39
ENDBRANCH  37  38
ENDBRANCH  36  37
ENDBRANCH  35  36
ENDBRANCH  34  35
ENDBRANCH   1  34
TORSDOF 30
