REMARK SMILES CCc1nn2c(C)c(CCC(=O)OCCOCCOCCOCCOC(=O)c3ccc(-c4c5nc(c(-c6c(F)cc(S(=O)(=O)[O-])cc6F)c6ccc([nH]6)c(-c6c(F)cc(S(=O)(=O)[O-])cc6F)c6nc(c(-c7c(F)cc(S(=O)(=O)[O-])cc7F)c7ccc4[nH]7)C=C6)C=C5)cc3)c(C)nc2c1-c1ccccc1
REMARK SMILES IDX 19 1 18 2 17 3 16 4 15 5 14 6 13 7 11 8 12 9 10 10 9 11 8 12
REMARK SMILES IDX 3 13 4 14 98 15 5 16 97 17 6 18 96 19 7 20 94 21 95 22 2 23
REMARK SMILES IDX 1 24 99 25 100 26 104 27 101 28 103 29 102 30 20 31 21 32
REMARK SMILES IDX 22 33 23 34 24 35 25 36 26 37 27 38 28 39 29 40 93 41 30 42
REMARK SMILES IDX 92 43 31 44 32 45 33 46 86 47 34 48 91 49 85 50 87 51 35 52
REMARK SMILES IDX 90 53 84 54 83 55 36 57 70 58 49 59 69 60 50 61 53 62 68 63
REMARK SMILES IDX 88 64 51 65 52 66 67 68 89 69 54 70 37 71 38 72 47 73 39 74
REMARK SMILES IDX 40 75 46 76 48 77 41 78 42 79 43 80 44 81 45 82 71 83 72 84
REMARK SMILES IDX 81 85 73 86 74 87 80 88 82 89 75 90 76 91 77 92 78 93 79 94
REMARK SMILES IDX 55 95 56 96 65 97 57 98 58 99 64 100 66 101 59 102 60 103
REMARK SMILES IDX 61 104 62 105 63 106
REMARK H PARENT 87 56 53 67
REMARK Flexibility Score: inf
ROOT
ATOM      1  O   UNL     1       1.529  -2.620   7.909  1.00  0.00    -0.377 OA
ENDROOT
BRANCH   1   2
ATOM      2  C   UNL     1       2.791  -3.242   8.034  1.00  0.00     0.188 C 
BRANCH   2   3
ATOM      3  C   UNL     1       3.985  -2.497   8.622  1.00  0.00     0.188 C 
BRANCH   3   4
ATOM      4  O   UNL     1       4.418  -1.300   7.995  1.00  0.00    -0.376 OA
BRANCH   4   5
ATOM      5  C   UNL     1       4.939  -1.287   6.671  1.00  0.00     0.202 C 
BRANCH   5   6
ATOM      6  C   UNL     1       5.890  -2.405   6.239  1.00  0.00     0.261 C 
BRANCH   6   7
ATOM      7  O   UNL     1       5.164  -3.525   5.682  1.00  0.00    -0.463 OA
BRANCH   7   8
ATOM      8  C   UNL     1       5.407  -4.762   6.163  1.00  0.00     0.306 C 
ATOM      9  O   UNL     1       6.180  -5.006   7.081  1.00  0.00    -0.252 OA
BRANCH   8  10
ATOM     10  C   UNL     1       4.687  -5.842   5.372  1.00  0.00     0.127 C 
BRANCH  10  11
ATOM     11  C   UNL     1       3.146  -5.858   5.347  1.00  0.00     0.051 C 
BRANCH  11  12
ATOM     12  C   UNL     1       2.406  -5.348   4.114  1.00  0.00    -0.005 A 
ATOM     13  C   UNL     1       0.872  -2.721   0.786  1.00  0.00     0.073 A 
ATOM     14  N   UNL     1       1.525  -2.538   1.930  1.00  0.00    -0.171 NA
ATOM     15  C   UNL     1       0.594  -4.096   0.576  1.00  0.00     0.050 A 
ATOM     16  N   UNL     1       1.641  -3.770   2.479  1.00  0.00    -0.219 N 
ATOM     17  C   UNL     1       1.064  -4.752   1.699  1.00  0.00     0.163 A 
ATOM     18  C   UNL     1       2.290  -4.066   3.681  1.00  0.00     0.046 A 
ATOM     19  N   UNL     1       1.012  -6.046   2.124  1.00  0.00    -0.233 NA
ATOM     20  C   UNL     1       2.769  -2.831   4.356  1.00  0.00     0.067 C 
ATOM     21  C   UNL     1       1.574  -6.321   3.268  1.00  0.00     0.045 A 
ATOM     22  C   UNL     1       1.296  -7.717   3.796  1.00  0.00     0.067 C 
BRANCH  13  23
ATOM     23  C   UNL     1       0.507  -1.547  -0.068  1.00  0.00     0.055 C 
ATOM     24  C   UNL     1       1.143  -0.227   0.362  1.00  0.00     0.011 C 
ENDBRANCH  13  23
BRANCH  15  25
ATOM     25  C   UNL     1      -0.052  -4.745  -0.537  1.00  0.00    -0.013 A 
ATOM     26  C   UNL     1       0.544  -4.685  -1.802  1.00  0.00     0.009 A 
ATOM     27  C   UNL     1      -1.271  -5.406  -0.370  1.00  0.00     0.009 A 
ATOM     28  C   UNL     1      -0.079  -5.280  -2.896  1.00  0.00     0.001 A 
ATOM     29  C   UNL     1      -1.895  -5.997  -1.468  1.00  0.00     0.001 A 
ATOM     30  C   UNL     1      -1.300  -5.933  -2.728  1.00  0.00     0.000 A 
ENDBRANCH  15  25
ENDBRANCH  11  12
ENDBRANCH  10  11
ENDBRANCH   8  10
ENDBRANCH   7   8
ENDBRANCH   6   7
ENDBRANCH   5   6
ENDBRANCH   4   5
ENDBRANCH   3   4
ENDBRANCH   2   3
ENDBRANCH   1   2
BRANCH   1  31
ATOM     31  C   UNL     1       1.430  -1.325   7.342  1.00  0.00     0.188 C 
BRANCH  31  32
ATOM     32  C   UNL     1       1.489  -0.170   8.355  1.00  0.00     0.188 C 
BRANCH  32  33
ATOM     33  O   UNL     1       0.769  -0.218   9.585  1.00  0.00    -0.376 OA
BRANCH  33  34
ATOM     34  C   UNL     1       0.523  -1.465  10.210  1.00  0.00     0.202 C 
BRANCH  34  35
ATOM     35  C   UNL     1      -0.844  -2.071   9.885  1.00  0.00     0.261 C 
BRANCH  35  36
ATOM     36  O   UNL     1      -1.220  -2.013   8.512  1.00  0.00    -0.460 OA
BRANCH  36  37
ATOM     37  C   UNL     1      -1.731  -0.827   8.126  1.00  0.00     0.338 C 
ATOM     38  O   UNL     1      -1.709   0.235   8.752  1.00  0.00    -0.246 OA
BRANCH  37  39
ATOM     39  C   UNL     1      -2.525  -0.994   6.907  1.00  0.00     0.060 A 
ATOM     40  C   UNL     1      -3.226   0.138   6.489  1.00  0.00     0.016 A 
ATOM     41  C   UNL     1      -2.822  -2.274   6.409  1.00  0.00     0.016 A 
ATOM     42  C   UNL     1      -4.388  -0.044   5.780  1.00  0.00     0.010 A 
ATOM     43  C   UNL     1      -3.987  -2.453   5.687  1.00  0.00     0.010 A 
ATOM     44  C   UNL     1      -4.804  -1.347   5.476  1.00  0.00    -0.014 A 
BRANCH  44  45
ATOM     45  C   UNL     1      -6.157  -1.469   4.972  1.00  0.00     0.031 A 
ATOM     46  C   UNL     1      -6.362  -0.894   3.631  1.00  0.00     0.074 A 
ATOM     47  C   UNL     1      -7.162  -2.005   5.687  1.00  0.00     0.049 A 
ATOM     48  N   UNL     1      -7.009   0.178   3.320  1.00  0.00    -0.248 NA
ATOM     49  C   UNL     1      -5.639  -1.521   2.518  1.00  0.00     0.031 C 
ATOM     50  C   UNL     1      -7.078  -2.823   6.899  1.00  0.00     0.029 A 
ATOM     51  N   UNL     1      -8.496  -1.980   5.413  1.00  0.00    -0.354 N 
ATOM     52  C   UNL     1      -6.955   0.252   1.935  1.00  0.00     0.074 A 
ATOM     53  C   UNL     1      -5.978  -0.720   1.510  1.00  0.00     0.031 C 
ATOM     54  C   UNL     1      -8.286  -3.385   7.133  1.00  0.00     0.029 A 
ATOM     55  C   UNL     1      -9.246  -2.861   6.174  1.00  0.00     0.049 A 
ATOM     56  H   UNL     1      -8.892  -1.388   4.733  1.00  0.00     0.167 HD
ATOM     57  C   UNL     1      -7.887   0.938   1.225  1.00  0.00     0.037 A 
ATOM     58  C   UNL     1     -10.545  -3.186   5.972  1.00  0.00     0.037 A 
ATOM     59  C   UNL     1      -8.593   1.892   2.038  1.00  0.00     0.049 A 
ATOM     60  C   UNL     1     -11.169  -2.080   5.199  1.00  0.00     0.074 A 
ATOM     61  C   UNL     1      -8.229   3.000   2.776  1.00  0.00     0.029 A 
ATOM     62  N   UNL     1      -9.870   1.575   2.433  1.00  0.00    -0.354 N 
ATOM     63  N   UNL     1     -11.381  -0.878   5.665  1.00  0.00    -0.248 NA
ATOM     64  C   UNL     1     -11.245  -2.204   3.750  1.00  0.00     0.031 C 
ATOM     65  C   UNL     1      -9.139   3.046   3.871  1.00  0.00     0.029 A 
ATOM     66  C   UNL     1     -10.018   1.969   3.738  1.00  0.00     0.049 A 
ATOM     67  H   UNL     1     -10.557   1.140   1.877  1.00  0.00     0.167 HD
ATOM     68  C   UNL     1     -11.223  -0.037   4.574  1.00  0.00     0.074 A 
ATOM     69  C   UNL     1     -11.268  -0.913   3.411  1.00  0.00     0.031 C 
ATOM     70  C   UNL     1     -10.800   1.251   4.724  1.00  0.00     0.037 A 
BRANCH  57  71
ATOM     71  C   UNL     1      -8.406   0.470  -0.110  1.00  0.00     0.058 A 
ATOM     72  C   UNL     1      -9.215   1.329  -0.878  1.00  0.00     0.135 A 
ATOM     73  C   UNL     1      -8.385  -0.884  -0.516  1.00  0.00     0.135 A 
ATOM     74  F   UNL     1      -9.315   2.631  -0.569  1.00  0.00    -0.206 F 
ATOM     75  C   UNL     1     -10.009   0.860  -1.924  1.00  0.00     0.059 A 
ATOM     76  C   UNL     1      -9.121  -1.360  -1.591  1.00  0.00     0.059 A 
ATOM     77  F   UNL     1      -7.736  -1.830   0.174  1.00  0.00    -0.206 F 
ATOM     78  C   UNL     1      -9.970  -0.492  -2.256  1.00  0.00     0.060 A 
BRANCH  78  79
ATOM     79  S   UNL     1     -11.104  -1.135  -3.497  1.00  0.00     0.124 S 
ATOM     80  O   UNL     1     -12.373  -1.074  -2.783  1.00  0.00    -0.237 OA
ATOM     81  O   UNL     1     -10.934  -0.180  -4.588  1.00  0.00    -0.237 OA
ATOM     82  O   UNL     1     -10.587  -2.475  -3.759  1.00  0.00    -0.744 OA
ENDBRANCH  78  79
ENDBRANCH  57  71
BRANCH  58  83
ATOM     83  C   UNL     1     -11.178  -4.521   6.133  1.00  0.00     0.058 A 
ATOM     84  C   UNL     1     -12.575  -4.671   6.090  1.00  0.00     0.135 A 
ATOM     85  C   UNL     1     -10.423  -5.711   6.062  1.00  0.00     0.135 A 
ATOM     86  F   UNL     1     -13.371  -3.592   6.126  1.00  0.00    -0.206 F 
ATOM     87  C   UNL     1     -13.185  -5.920   5.938  1.00  0.00     0.059 A 
ATOM     88  C   UNL     1     -11.010  -6.967   5.929  1.00  0.00     0.059 A 
ATOM     89  F   UNL     1      -9.083  -5.685   6.027  1.00  0.00    -0.206 F 
ATOM     90  C   UNL     1     -12.392  -7.062   5.839  1.00  0.00     0.060 A 
BRANCH  90  91
ATOM     91  S   UNL     1     -13.166  -8.654   5.479  1.00  0.00     0.124 S 
ATOM     92  O   UNL     1     -13.940  -8.895   6.692  1.00  0.00    -0.237 OA
ATOM     93  O   UNL     1     -13.938  -8.353   4.278  1.00  0.00    -0.237 OA
ATOM     94  O   UNL     1     -12.028  -9.548   5.278  1.00  0.00    -0.744 OA
ENDBRANCH  90  91
ENDBRANCH  58  83
BRANCH  70  95
ATOM     95  C   UNL     1     -10.897   1.887   6.084  1.00  0.00     0.058 A 
ATOM     96  C   UNL     1     -10.116   1.507   7.187  1.00  0.00     0.135 A 
ATOM     97  C   UNL     1     -11.666   3.056   6.208  1.00  0.00     0.135 A 
ATOM     98  F   UNL     1      -9.291   0.452   7.116  1.00  0.00    -0.206 F 
ATOM     99  C   UNL     1     -10.105   2.256   8.366  1.00  0.00     0.059 A 
ATOM    100  C   UNL     1     -11.649   3.832   7.363  1.00  0.00     0.059 A 
ATOM    101  F   UNL     1     -12.392   3.497   5.166  1.00  0.00    -0.206 F 
ATOM    102  C   UNL     1     -10.864   3.426   8.439  1.00  0.00     0.060 A 
BRANCH 102 103
ATOM    103  S   UNL     1     -10.730   4.471   9.908  1.00  0.00     0.124 S 
ATOM    104  O   UNL     1     -11.467   3.701  10.903  1.00  0.00    -0.237 OA
ATOM    105  O   UNL     1      -9.286   4.553  10.109  1.00  0.00    -0.237 OA
ATOM    106  O   UNL     1     -11.362   5.723   9.495  1.00  0.00    -0.744 OA
ENDBRANCH 102 103
ENDBRANCH  70  95
ENDBRANCH  44  45
ENDBRANCH  37  39
ENDBRANCH  36  37
ENDBRANCH  35  36
ENDBRANCH  34  35
ENDBRANCH  33  34
ENDBRANCH  32  33
ENDBRANCH  31  32
ENDBRANCH   1  31
TORSDOF 27
