REMARK SMILES Cc1ccc(-c2cc(Cl)ccc2Cl)c(C(=O)OCCOCCOCCOCCOC(=O)c2ccc(-c3c4nc(c(-c5c(F)cc(S(=O)(=O)[O-])cc5F)c5ccc([nH]5)c(-c5c(F)cc(S(=O)(=O)[O-])cc5F)c5nc(c(-c6c(F)cc(S(=O)(=O)[O-])cc6F)c6ccc3[nH]6)C=C5)C=C4)cc2)c1
REMARK SMILES IDX 24 1 23 2 22 3 21 4 20 5 19 6 18 7 17 8 15 9 16 10 14 11
REMARK SMILES IDX 1 12 2 13 3 14 98 15 4 16 5 17 6 18 7 19 12 20 8 21 11 22
REMARK SMILES IDX 13 23 9 24 10 25 25 26 26 27 27 28 28 29 29 30 30 31 31 32
REMARK SMILES IDX 32 33 33 34 97 35 34 36 96 37 35 38 36 39 37 40 90 41 38 42
REMARK SMILES IDX 95 43 89 44 91 45 39 46 94 47 88 48 87 49 40 51 74 52 53 53
REMARK SMILES IDX 73 54 54 55 57 56 72 57 92 58 55 59 56 60 71 62 93 63 58 64
REMARK SMILES IDX 41 65 42 66 51 67 43 68 44 69 50 70 52 71 45 72 46 73 47 74
REMARK SMILES IDX 48 75 49 76 75 77 76 78 85 79 77 80 78 81 84 82 86 83 79 84
REMARK SMILES IDX 80 85 81 86 82 87 83 88 59 89 60 90 69 91 61 92 62 93 68 94
REMARK SMILES IDX 70 95 63 96 64 97 65 98 66 99 67 100
REMARK H PARENT 91 50 57 61
REMARK Flexibility Score: inf
ROOT
ATOM      1  C   UNL     1      -0.378   3.678  -3.060  1.00  0.00     0.188 C 
ENDROOT
BRANCH   1   2
ATOM      2  O   UNL     1       0.211   2.373  -2.975  1.00  0.00    -0.377 OA
BRANCH   2   3
ATOM      3  C   UNL     1      -0.729   1.298  -2.993  1.00  0.00     0.188 C 
BRANCH   3   4
ATOM      4  C   UNL     1      -1.633   1.283  -1.772  1.00  0.00     0.188 C 
BRANCH   4   5
ATOM      5  O   UNL     1      -3.017   1.514  -2.049  1.00  0.00    -0.376 OA
BRANCH   5   6
ATOM      6  C   UNL     1      -3.627   2.404  -1.105  1.00  0.00     0.202 C 
BRANCH   6   7
ATOM      7  C   UNL     1      -3.768   1.901   0.335  1.00  0.00     0.261 C 
BRANCH   7   8
ATOM      8  O   UNL     1      -2.511   1.413   0.801  1.00  0.00    -0.460 OA
BRANCH   8   9
ATOM      9  C   UNL     1      -2.578   0.296   1.549  1.00  0.00     0.338 C 
ATOM     10  O   UNL     1      -3.442  -0.035   2.319  1.00  0.00    -0.246 OA
BRANCH   9  11
ATOM     11  C   UNL     1      -1.582  -0.626   0.976  1.00  0.00     0.068 A 
ATOM     12  C   UNL     1       2.087  -0.450   0.053  1.00  0.00     0.044 C 
ATOM     13  C   UNL     1       0.686  -0.964   0.212  1.00  0.00    -0.050 A 
ATOM     14  C   UNL     1       0.268  -2.170  -0.372  1.00  0.00     0.004 A 
ATOM     15  C   UNL     1      -0.240  -0.218   0.938  1.00  0.00     0.019 A 
ATOM     16  C   UNL     1      -1.086  -2.562  -0.356  1.00  0.00     0.010 A 
ATOM     17  C   UNL     1      -2.051  -1.767   0.271  1.00  0.00    -0.002 A 
BRANCH  17  18
ATOM     18  C   UNL     1      -3.517  -1.934   0.033  1.00  0.00     0.003 A 
ATOM     19  C   UNL     1      -4.074  -1.359  -1.132  1.00  0.00     0.030 A 
ATOM     20  C   UNL     1      -4.409  -2.319   1.053  1.00  0.00     0.049 A 
ATOM     21  C   UNL     1      -5.427  -1.003  -1.187  1.00  0.00     0.041 A 
ATOM     22  C   UNL     1      -5.757  -1.932   1.006  1.00  0.00     0.023 A 
ATOM     23  Cl  UNL     1      -3.853  -3.186   2.445  1.00  0.00    -0.084 Cl
ATOM     24  Cl  UNL     1      -6.041  -0.164  -2.561  1.00  0.00    -0.084 Cl
ATOM     25  C   UNL     1      -6.257  -1.238  -0.098  1.00  0.00     0.022 A 
ENDBRANCH  17  18
ENDBRANCH   9  11
ENDBRANCH   8   9
ENDBRANCH   7   8
ENDBRANCH   6   7
ENDBRANCH   5   6
ENDBRANCH   4   5
ENDBRANCH   3   4
ENDBRANCH   2   3
ENDBRANCH   1   2
BRANCH   1  26
ATOM     26  C   UNL     1      -1.126   3.884  -4.370  1.00  0.00     0.188 C 
BRANCH  26  27
ATOM     27  O   UNL     1      -2.484   3.480  -4.165  1.00  0.00    -0.376 OA
BRANCH  27  28
ATOM     28  C   UNL     1      -3.147   2.906  -5.283  1.00  0.00     0.202 C 
BRANCH  28  29
ATOM     29  C   UNL     1      -3.174   3.805  -6.522  1.00  0.00     0.261 C 
BRANCH  29  30
ATOM     30  O   UNL     1      -4.098   4.900  -6.354  1.00  0.00    -0.460 OA
BRANCH  30  31
ATOM     31  C   UNL     1      -3.530   6.097  -6.024  1.00  0.00     0.338 C 
ATOM     32  O   UNL     1      -3.022   6.850  -6.836  1.00  0.00    -0.246 OA
BRANCH  31  33
ATOM     33  C   UNL     1      -3.649   6.349  -4.559  1.00  0.00     0.060 A 
ATOM     34  C   UNL     1      -2.797   7.242  -3.892  1.00  0.00     0.016 A 
ATOM     35  C   UNL     1      -4.498   5.545  -3.815  1.00  0.00     0.016 A 
ATOM     36  C   UNL     1      -2.677   7.209  -2.484  1.00  0.00     0.010 A 
ATOM     37  C   UNL     1      -4.325   5.476  -2.447  1.00  0.00     0.010 A 
ATOM     38  C   UNL     1      -3.397   6.270  -1.749  1.00  0.00    -0.014 A 
BRANCH  38  39
ATOM     39  C   UNL     1      -3.231   5.910  -0.315  1.00  0.00     0.031 A 
ATOM     40  C   UNL     1      -4.485   5.677   0.509  1.00  0.00     0.074 A 
ATOM     41  C   UNL     1      -2.046   5.383   0.108  1.00  0.00     0.049 A 
ATOM     42  N   UNL     1      -4.527   5.116   1.670  1.00  0.00    -0.248 NA
ATOM     43  C   UNL     1      -5.841   6.006   0.050  1.00  0.00     0.031 C 
ATOM     44  C   UNL     1      -1.882   4.365   1.154  1.00  0.00     0.029 A 
ATOM     45  N   UNL     1      -0.736   5.521  -0.324  1.00  0.00    -0.354 N 
ATOM     46  C   UNL     1      -5.810   4.649   1.896  1.00  0.00     0.074 A 
ATOM     47  C   UNL     1      -6.609   5.316   0.904  1.00  0.00     0.031 C 
ATOM     48  C   UNL     1      -0.592   4.044   1.330  1.00  0.00     0.029 A 
ATOM     49  C   UNL     1       0.148   5.091   0.677  1.00  0.00     0.049 A 
ATOM     50  H   UNL     1      -0.466   5.869  -1.205  1.00  0.00     0.167 HD
ATOM     51  C   UNL     1      -6.002   3.643   2.805  1.00  0.00     0.037 A 
ATOM     52  C   UNL     1       0.910   5.959   1.419  1.00  0.00     0.037 A 
ATOM     53  C   UNL     1      -4.790   3.418   3.610  1.00  0.00     0.049 A 
ATOM     54  C   UNL     1       0.437   6.013   2.879  1.00  0.00     0.074 A 
ATOM     55  C   UNL     1      -4.054   2.307   3.970  1.00  0.00     0.029 A 
ATOM     56  N   UNL     1      -4.070   4.508   4.105  1.00  0.00    -0.354 N 
ATOM     57  N   UNL     1      -0.804   5.774   3.237  1.00  0.00    -0.248 NA
ATOM     58  C   UNL     1       1.314   6.138   4.046  1.00  0.00     0.031 C 
ATOM     59  C   UNL     1      -2.784   2.747   4.439  1.00  0.00     0.029 A 
ATOM     60  C   UNL     1      -2.821   4.130   4.545  1.00  0.00     0.049 A 
ATOM     61  H   UNL     1      -4.413   5.431   4.136  1.00  0.00     0.167 HD
ATOM     62  C   UNL     1      -0.875   5.573   4.588  1.00  0.00     0.074 A 
ATOM     63  C   UNL     1       0.463   5.884   5.062  1.00  0.00     0.031 C 
ATOM     64  C   UNL     1      -1.967   5.076   5.244  1.00  0.00     0.037 A 
BRANCH  51  65
ATOM     65  C   UNL     1      -7.216   2.703   2.874  1.00  0.00     0.058 A 
ATOM     66  C   UNL     1      -7.392   1.834   3.980  1.00  0.00     0.135 A 
ATOM     67  C   UNL     1      -8.168   2.513   1.845  1.00  0.00     0.135 A 
ATOM     68  F   UNL     1      -6.578   1.894   5.043  1.00  0.00    -0.206 F 
ATOM     69  C   UNL     1      -8.403   0.863   4.055  1.00  0.00     0.059 A 
ATOM     70  C   UNL     1      -9.226   1.590   1.925  1.00  0.00     0.059 A 
ATOM     71  F   UNL     1      -8.092   3.180   0.686  1.00  0.00    -0.206 F 
ATOM     72  C   UNL     1      -9.328   0.753   3.027  1.00  0.00     0.060 A 
BRANCH  72  73
ATOM     73  S   UNL     1     -10.655  -0.467   3.158  1.00  0.00     0.124 S 
ATOM     74  O   UNL     1      -9.932  -1.721   2.970  1.00  0.00    -0.237 OA
ATOM     75  O   UNL     1     -11.176  -0.226   4.499  1.00  0.00    -0.237 OA
ATOM     76  O   UNL     1     -11.560  -0.103   2.070  1.00  0.00    -0.744 OA
ENDBRANCH  72  73
ENDBRANCH  51  65
BRANCH  52  77
ATOM     77  C   UNL     1       1.548   6.998   0.552  1.00  0.00     0.058 A 
ATOM     78  C   UNL     1       2.547   6.492  -0.312  1.00  0.00     0.135 A 
ATOM     79  C   UNL     1       0.775   8.069   0.073  1.00  0.00     0.135 A 
ATOM     80  F   UNL     1       3.359   5.510   0.114  1.00  0.00    -0.206 F 
ATOM     81  C   UNL     1       2.575   6.817  -1.667  1.00  0.00     0.059 A 
ATOM     82  C   UNL     1       0.800   8.423  -1.282  1.00  0.00     0.059 A 
ATOM     83  F   UNL     1      -0.171   8.616   0.850  1.00  0.00    -0.206 F 
ATOM     84  C   UNL     1       1.641   7.727  -2.156  1.00  0.00     0.060 A 
BRANCH  84  85
ATOM     85  S   UNL     1       1.378   7.801  -3.951  1.00  0.00     0.124 S 
ATOM     86  O   UNL     1       2.621   8.402  -4.417  1.00  0.00    -0.237 OA
ATOM     87  O   UNL     1       1.184   6.393  -4.285  1.00  0.00    -0.237 OA
ATOM     88  O   UNL     1       0.185   8.630  -4.074  1.00  0.00    -0.744 OA
ENDBRANCH  84  85
ENDBRANCH  52  77
BRANCH  64  89
ATOM     89  C   UNL     1      -2.331   5.398   6.677  1.00  0.00     0.058 A 
ATOM     90  C   UNL     1      -1.865   6.549   7.328  1.00  0.00     0.135 A 
ATOM     91  C   UNL     1      -3.363   4.690   7.353  1.00  0.00     0.135 A 
ATOM     92  F   UNL     1      -0.968   7.364   6.754  1.00  0.00    -0.206 F 
ATOM     93  C   UNL     1      -2.344   6.944   8.574  1.00  0.00     0.059 A 
ATOM     94  C   UNL     1      -3.894   5.099   8.570  1.00  0.00     0.059 A 
ATOM     95  F   UNL     1      -3.928   3.588   6.840  1.00  0.00    -0.206 F 
ATOM     96  C   UNL     1      -3.359   6.215   9.186  1.00  0.00     0.060 A 
BRANCH  96  97
ATOM     97  S   UNL     1      -3.993   6.765  10.774  1.00  0.00     0.124 S 
ATOM     98  O   UNL     1      -2.969   6.257  11.681  1.00  0.00    -0.237 OA
ATOM     99  O   UNL     1      -4.031   8.216  10.613  1.00  0.00    -0.237 OA
ATOM    100  O   UNL     1      -5.298   6.118  10.867  1.00  0.00    -0.744 OA
ENDBRANCH  96  97
ENDBRANCH  64  89
ENDBRANCH  38  39
ENDBRANCH  31  33
ENDBRANCH  30  31
ENDBRANCH  29  30
ENDBRANCH  28  29
ENDBRANCH  27  28
ENDBRANCH  26  27
ENDBRANCH   1  26
TORSDOF 24
