REMARK SMILES O=C(CCn1c(N2CC[NH2+]CC2)nc2ccccc2c1=O)OCCOCCOCCOCCOC(=O)c1ccc(-c2c3nc(c(-c4c(F)cc(S(=O)(=O)[O-])cc4F)c4ccc([nH]4)c(-c4c(F)cc(S(=O)(=O)[O-])cc4F)c4nc(c(-c5c(F)cc(S(=O)(=O)[O-])cc5F)c5ccc2[nH]5)C=C4)C=C3)cc1
REMARK SMILES IDX 28 1 27 2 26 3 25 4 24 5 23 6 22 7 2 8 1 9 3 10 4 11 5 12
REMARK SMILES IDX 6 13 20 14 13 15 19 16 21 17 14 18 18 19 15 20 17 21 16 22
REMARK SMILES IDX 7 23 8 24 12 25 9 26 11 27 10 28 29 31 30 32 31 33 32 34
REMARK SMILES IDX 33 35 34 36 35 37 36 38 37 39 38 40 102 41 39 42 101 43
REMARK SMILES IDX 40 44 41 45 42 46 95 47 43 48 100 49 94 50 96 51 44 52 99 53
REMARK SMILES IDX 93 54 92 55 45 57 79 58 58 59 78 60 59 61 62 62 77 63 97 64
REMARK SMILES IDX 60 65 61 66 76 68 98 69 63 70 46 71 47 72 56 73 48 74 49 75
REMARK SMILES IDX 55 76 57 77 50 78 51 79 52 80 53 81 54 82 80 83 81 84 90 85
REMARK SMILES IDX 82 86 83 87 89 88 91 89 84 90 85 91 86 92 87 93 88 94 64 95
REMARK SMILES IDX 65 96 74 97 66 98 67 99 73 100 75 101 68 102 69 103 70 104
REMARK SMILES IDX 71 105 72 106
REMARK H PARENT 10 29 10 30 96 56 62 67
REMARK Flexibility Score: inf
ROOT
ATOM      1  O   UNL     1       3.058   0.388   3.078  1.00  0.00    -0.377 OA
ENDROOT
BRANCH   1   2
ATOM      2  C   UNL     1       1.984  -0.493   2.803  1.00  0.00     0.188 C 
BRANCH   2   3
ATOM      3  C   UNL     1       2.157  -1.221   1.474  1.00  0.00     0.188 C 
BRANCH   3   4
ATOM      4  O   UNL     1       3.479  -1.298   0.968  1.00  0.00    -0.376 OA
BRANCH   4   5
ATOM      5  C   UNL     1       4.157  -0.081   0.663  1.00  0.00     0.202 C 
BRANCH   5   6
ATOM      6  C   UNL     1       3.369   1.117   0.152  1.00  0.00     0.261 C 
BRANCH   6   7
ATOM      7  O   UNL     1       2.331   0.905  -0.828  1.00  0.00    -0.463 OA
BRANCH   7   8
ATOM      8  C   UNL     1       2.275   0.137  -1.924  1.00  0.00     0.307 C 
ATOM      9  O   UNL     1       1.297   0.226  -2.669  1.00  0.00    -0.252 OA
BRANCH   8  10
ATOM     10  C   UNL     1       3.324  -0.897  -2.209  1.00  0.00     0.145 C 
BRANCH  10  11
ATOM     11  C   UNL     1       4.448  -0.447  -3.127  1.00  0.00     0.141 C 
BRANCH  11  12
ATOM     12  N   UNL     1       5.465   0.422  -2.520  1.00  0.00    -0.278 N 
ATOM     13  C   UNL     1       6.565  -0.024  -1.769  1.00  0.00     0.209 A 
ATOM     14  C   UNL     1       5.208   1.793  -2.687  1.00  0.00     0.262 A 
ATOM     15  N   UNL     1       7.366   0.830  -1.185  1.00  0.00    -0.214 NA
ATOM     16  C   UNL     1       6.030   2.728  -1.912  1.00  0.00     0.066 A 
ATOM     17  O   UNL     1       4.299   2.237  -3.384  1.00  0.00    -0.269 OA
ATOM     18  C   UNL     1       7.095   2.196  -1.204  1.00  0.00     0.080 A 
ATOM     19  C   UNL     1       5.682   4.080  -1.792  1.00  0.00     0.016 A 
ATOM     20  C   UNL     1       7.849   3.044  -0.387  1.00  0.00     0.029 A 
ATOM     21  C   UNL     1       6.425   4.913  -0.956  1.00  0.00     0.001 A 
ATOM     22  C   UNL     1       7.516   4.396  -0.260  1.00  0.00     0.002 A 
BRANCH  13  23
ATOM     23  N   UNL     1       6.799  -1.361  -1.470  1.00  0.00    -0.331 N 
ATOM     24  C   UNL     1       7.444  -1.679  -0.164  1.00  0.00     0.181 C 
ATOM     25  C   UNL     1       7.007  -2.440  -2.436  1.00  0.00     0.181 C 
ATOM     26  C   UNL     1       6.968  -3.043   0.381  1.00  0.00     0.282 C 
ATOM     27  C   UNL     1       6.450  -3.761  -1.851  1.00  0.00     0.282 C 
ATOM     28  N   UNL     1       7.109  -4.154  -0.588  1.00  0.00    -0.343 N 
ATOM     29  H   UNL     1       6.666  -4.994  -0.215  1.00  0.00     0.346 HD
ATOM     30  H   UNL     1       8.096  -4.348  -0.754  1.00  0.00     0.346 HD
ENDBRANCH  13  23
ENDBRANCH  11  12
ENDBRANCH  10  11
ENDBRANCH   8  10
ENDBRANCH   7   8
ENDBRANCH   6   7
ENDBRANCH   5   6
ENDBRANCH   4   5
ENDBRANCH   3   4
ENDBRANCH   2   3
ENDBRANCH   1   2
BRANCH   1  31
ATOM     31  C   UNL     1       3.898  -0.036   4.142  1.00  0.00     0.188 C 
BRANCH  31  32
ATOM     32  C   UNL     1       4.861  -1.220   3.891  1.00  0.00     0.188 C 
BRANCH  32  33
ATOM     33  O   UNL     1       4.379  -2.529   3.643  1.00  0.00    -0.376 OA
BRANCH  33  34
ATOM     34  C   UNL     1       3.446  -3.198   4.467  1.00  0.00     0.202 C 
BRANCH  34  35
ATOM     35  C   UNL     1       3.394  -3.072   5.998  1.00  0.00     0.261 C 
BRANCH  35  36
ATOM     36  O   UNL     1       3.602  -1.759   6.520  1.00  0.00    -0.460 OA
BRANCH  36  37
ATOM     37  C   UNL     1       4.819  -1.525   7.073  1.00  0.00     0.338 C 
ATOM     38  O   UNL     1       5.710  -2.342   7.241  1.00  0.00    -0.246 OA
BRANCH  37  39
ATOM     39  C   UNL     1       5.005  -0.059   7.208  1.00  0.00     0.060 A 
ATOM     40  C   UNL     1       3.957   0.780   7.601  1.00  0.00     0.016 A 
ATOM     41  C   UNL     1       6.245   0.488   6.845  1.00  0.00     0.016 A 
ATOM     42  C   UNL     1       4.165   2.159   7.667  1.00  0.00     0.010 A 
ATOM     43  C   UNL     1       6.453   1.868   6.913  1.00  0.00     0.010 A 
ATOM     44  C   UNL     1       5.424   2.708   7.359  1.00  0.00    -0.014 A 
BRANCH  44  45
ATOM     45  C   UNL     1       5.724   4.097   7.782  1.00  0.00     0.031 A 
ATOM     46  C   UNL     1       5.737   5.258   6.840  1.00  0.00     0.074 A 
ATOM     47  C   UNL     1       5.982   4.281   9.092  1.00  0.00     0.049 A 
ATOM     48  N   UNL     1       5.826   6.533   7.123  1.00  0.00    -0.248 NA
ATOM     49  C   UNL     1       5.656   4.961   5.405  1.00  0.00     0.031 C 
ATOM     50  C   UNL     1       6.047   3.206  10.086  1.00  0.00     0.029 A 
ATOM     51  N   UNL     1       6.213   5.420   9.815  1.00  0.00    -0.354 N 
ATOM     52  C   UNL     1       5.783   7.200   5.907  1.00  0.00     0.074 A 
ATOM     53  C   UNL     1       5.713   6.180   4.878  1.00  0.00     0.031 C 
ATOM     54  C   UNL     1       6.253   3.740  11.296  1.00  0.00     0.029 A 
ATOM     55  C   UNL     1       6.353   5.190  11.162  1.00  0.00     0.049 A 
ATOM     56  H   UNL     1       6.272   6.316   9.411  1.00  0.00     0.167 HD
ATOM     57  C   UNL     1       5.785   8.537   5.682  1.00  0.00     0.037 A 
ATOM     58  C   UNL     1       6.520   6.047  12.185  1.00  0.00     0.037 A 
ATOM     59  C   UNL     1       5.881   9.536   6.720  1.00  0.00     0.049 A 
ATOM     60  C   UNL     1       6.535   7.520  11.909  1.00  0.00     0.074 A 
ATOM     61  C   UNL     1       5.831  10.915   6.596  1.00  0.00     0.029 A 
ATOM     62  N   UNL     1       6.068   9.268   8.069  1.00  0.00    -0.354 N 
ATOM     63  N   UNL     1       6.385   8.140  10.763  1.00  0.00    -0.248 NA
ATOM     64  C   UNL     1       6.736   8.410  13.058  1.00  0.00     0.031 C 
ATOM     65  C   UNL     1       6.040  11.478   7.860  1.00  0.00     0.029 A 
ATOM     66  C   UNL     1       6.173  10.453   8.782  1.00  0.00     0.049 A 
ATOM     67  H   UNL     1       6.119   8.367   8.463  1.00  0.00     0.167 HD
ATOM     68  C   UNL     1       6.466   9.495  11.053  1.00  0.00     0.074 A 
ATOM     69  C   UNL     1       6.659   9.604  12.486  1.00  0.00     0.031 C 
ATOM     70  C   UNL     1       6.387  10.551  10.206  1.00  0.00     0.037 A 
BRANCH  57  71
ATOM     71  C   UNL     1       5.673   9.008   4.257  1.00  0.00     0.058 A 
ATOM     72  C   UNL     1       4.472   8.884   3.540  1.00  0.00     0.135 A 
ATOM     73  C   UNL     1       6.753   9.639   3.618  1.00  0.00     0.135 A 
ATOM     74  F   UNL     1       3.407   8.290   4.103  1.00  0.00    -0.206 F 
ATOM     75  C   UNL     1       4.356   9.334   2.229  1.00  0.00     0.059 A 
ATOM     76  C   UNL     1       6.653  10.118   2.314  1.00  0.00     0.059 A 
ATOM     77  F   UNL     1       7.922   9.793   4.259  1.00  0.00    -0.206 F 
ATOM     78  C   UNL     1       5.456   9.944   1.622  1.00  0.00     0.060 A 
BRANCH  78  79
ATOM     79  S   UNL     1       5.301  10.481  -0.094  1.00  0.00     0.124 S 
ATOM     80  O   UNL     1       5.296   9.199  -0.793  1.00  0.00    -0.237 OA
ATOM     81  O   UNL     1       4.035  11.205  -0.083  1.00  0.00    -0.237 OA
ATOM     82  O   UNL     1       6.489  11.302  -0.302  1.00  0.00    -0.744 OA
ENDBRANCH  78  79
ENDBRANCH  57  71
BRANCH  58  83
ATOM     83  C   UNL     1       6.618   5.508  13.564  1.00  0.00     0.058 A 
ATOM     84  C   UNL     1       5.543   5.621  14.455  1.00  0.00     0.135 A 
ATOM     85  C   UNL     1       7.748   4.787  13.982  1.00  0.00     0.135 A 
ATOM     86  F   UNL     1       4.441   6.298  14.095  1.00  0.00    -0.206 F 
ATOM     87  C   UNL     1       5.578   5.031  15.713  1.00  0.00     0.059 A 
ATOM     88  C   UNL     1       7.799   4.170  15.227  1.00  0.00     0.059 A 
ATOM     89  F   UNL     1       8.791   4.632  13.152  1.00  0.00    -0.206 F 
ATOM     90  C   UNL     1       6.707   4.298  16.085  1.00  0.00     0.060 A 
BRANCH  90  91
ATOM     91  S   UNL     1       6.702   3.462  17.685  1.00  0.00     0.124 S 
ATOM     92  O   UNL     1       6.807   4.589  18.605  1.00  0.00    -0.237 OA
ATOM     93  O   UNL     1       5.416   2.772  17.663  1.00  0.00    -0.237 OA
ATOM     94  O   UNL     1       7.872   2.593  17.615  1.00  0.00    -0.744 OA
ENDBRANCH  90  91
ENDBRANCH  58  83
BRANCH  70  95
ATOM     95  C   UNL     1       6.531  11.925  10.800  1.00  0.00     0.058 A 
ATOM     96  C   UNL     1       7.780  12.411  11.217  1.00  0.00     0.135 A 
ATOM     97  C   UNL     1       5.428  12.789  10.885  1.00  0.00     0.135 A 
ATOM     98  F   UNL     1       8.863  11.620  11.169  1.00  0.00    -0.206 F 
ATOM     99  C   UNL     1       7.930  13.706  11.702  1.00  0.00     0.059 A 
ATOM    100  C   UNL     1       5.559  14.096  11.345  1.00  0.00     0.059 A 
ATOM    101  F   UNL     1       4.212  12.374  10.496  1.00  0.00    -0.206 F 
ATOM    102  C   UNL     1       6.815  14.544  11.754  1.00  0.00     0.060 A 
BRANCH 102 103
ATOM    103  S   UNL     1       7.041  16.242  12.325  1.00  0.00     0.124 S 
ATOM    104  O   UNL     1       7.279  16.045  13.751  1.00  0.00    -0.237 OA
ATOM    105  O   UNL     1       8.193  16.682  11.544  1.00  0.00    -0.237 OA
ATOM    106  O   UNL     1       5.777  16.888  11.984  1.00  0.00    -0.744 OA
ENDBRANCH 102 103
ENDBRANCH  70  95
ENDBRANCH  44  45
ENDBRANCH  37  39
ENDBRANCH  36  37
ENDBRANCH  35  36
ENDBRANCH  34  35
ENDBRANCH  33  34
ENDBRANCH  32  33
ENDBRANCH  31  32
ENDBRANCH   1  31
TORSDOF 26
