REMARK SMILES O=C(OCCOCCOCCOCCOC(=O)[C@@H]1C[C@@H]1C(=O)N1CCN(c2ncc(C(F)(F)F)cc2Cl)CC1)c1ccc(-c2c3nc(c(-c4c(F)cc(S(=O)(=O)[O-])cc4F)c4ccc([nH]4)c(-c4c(F)cc(S(=O)(=O)[O-])cc4F)c4nc(c(-c5c(F)cc(S(=O)(=O)[O-])cc5F)c5ccc2[nH]5)C=C4)C=C3)cc1
REMARK SMILES IDX 9 1 8 2 7 3 6 4 5 5 4 6 3 7 2 8 1 9 40 10 41 11 105 12 42 13
REMARK SMILES IDX 104 14 43 15 44 16 45 17 98 18 46 19 103 20 97 21 99 22
REMARK SMILES IDX 47 23 102 24 96 25 95 26 48 28 82 29 61 30 81 31 62 32 65 33
REMARK SMILES IDX 80 34 100 35 63 36 64 37 79 39 101 40 66 41 49 42 50 43
REMARK SMILES IDX 59 44 51 45 52 46 58 47 60 48 53 49 54 50 55 51 56 52 57 53
REMARK SMILES IDX 83 54 84 55 93 56 85 57 86 58 92 59 94 60 87 61 88 62 89 63
REMARK SMILES IDX 90 64 91 65 67 66 68 67 77 68 69 69 70 70 76 71 78 72 71 73
REMARK SMILES IDX 72 74 73 75 74 76 75 77 10 78 11 79 12 80 13 81 14 82 15 83
REMARK SMILES IDX 16 84 17 85 18 86 19 87 20 88 21 89 22 90 23 91 24 92 39 93
REMARK SMILES IDX 25 94 38 95 26 96 27 97 28 98 36 99 29 100 35 101 37 102
REMARK SMILES IDX 30 103 31 104 32 105 33 106 34 107
REMARK H PARENT 99 27 65 38
REMARK Flexibility Score: inf
ROOT
ATOM      1  O   UNL     1       2.020  -1.046   3.465  1.00  0.00    -0.377 OA
ENDROOT
BRANCH   1   2
ATOM      2  C   UNL     1       1.454  -0.977   2.160  1.00  0.00     0.188 C 
BRANCH   2   3
ATOM      3  C   UNL     1       1.902   0.257   1.383  1.00  0.00     0.188 C 
BRANCH   3   4
ATOM      4  O   UNL     1       3.236   0.019   0.935  1.00  0.00    -0.376 OA
BRANCH   4   5
ATOM      5  C   UNL     1       4.055   1.170   0.768  1.00  0.00     0.202 C 
BRANCH   5   6
ATOM      6  C   UNL     1       4.011   1.717  -0.658  1.00  0.00     0.261 C 
BRANCH   6   7
ATOM      7  O   UNL     1       2.704   1.598  -1.239  1.00  0.00    -0.460 OA
BRANCH   7   8
ATOM      8  C   UNL     1       2.198   0.545  -1.932  1.00  0.00     0.338 C 
ATOM      9  O   UNL     1       1.032   0.622  -2.321  1.00  0.00    -0.246 OA
BRANCH   8  10
ATOM     10  C   UNL     1       2.964  -0.698  -2.279  1.00  0.00     0.060 A 
ATOM     11  C   UNL     1       4.043  -1.225  -1.564  1.00  0.00     0.016 A 
ATOM     12  C   UNL     1       2.494  -1.435  -3.381  1.00  0.00     0.016 A 
ATOM     13  C   UNL     1       4.650  -2.421  -1.923  1.00  0.00     0.010 A 
ATOM     14  C   UNL     1       3.094  -2.643  -3.751  1.00  0.00     0.010 A 
ATOM     15  C   UNL     1       4.183  -3.130  -3.022  1.00  0.00    -0.014 A 
BRANCH  15  16
ATOM     16  C   UNL     1       4.953  -4.302  -3.467  1.00  0.00     0.031 A 
ATOM     17  C   UNL     1       5.865  -4.125  -4.640  1.00  0.00     0.074 A 
ATOM     18  C   UNL     1       4.904  -5.447  -2.763  1.00  0.00     0.049 A 
ATOM     19  N   UNL     1       6.541  -5.019  -5.303  1.00  0.00    -0.248 NA
ATOM     20  C   UNL     1       6.050  -2.744  -5.127  1.00  0.00     0.031 C 
ATOM     21  C   UNL     1       4.150  -5.644  -1.521  1.00  0.00     0.029 A 
ATOM     22  N   UNL     1       5.505  -6.657  -2.982  1.00  0.00    -0.354 N 
ATOM     23  C   UNL     1       7.188  -4.321  -6.314  1.00  0.00     0.074 A 
ATOM     24  C   UNL     1       6.850  -2.925  -6.167  1.00  0.00     0.031 C 
ATOM     25  C   UNL     1       4.324  -6.906  -1.097  1.00  0.00     0.029 A 
ATOM     26  C   UNL     1       5.136  -7.623  -2.073  1.00  0.00     0.049 A 
ATOM     27  H   UNL     1       6.139  -6.821  -3.717  1.00  0.00     0.167 HD
ATOM     28  C   UNL     1       7.976  -4.824  -7.290  1.00  0.00     0.037 A 
ATOM     29  C   UNL     1       5.382  -8.947  -2.081  1.00  0.00     0.037 A 
ATOM     30  C   UNL     1       8.298  -6.221  -7.383  1.00  0.00     0.049 A 
ATOM     31  C   UNL     1       6.186  -9.496  -3.233  1.00  0.00     0.074 A 
ATOM     32  C   UNL     1       9.059  -6.871  -8.334  1.00  0.00     0.029 A 
ATOM     33  N   UNL     1       7.864  -7.185  -6.481  1.00  0.00    -0.354 N 
ATOM     34  N   UNL     1       6.757  -8.845  -4.222  1.00  0.00    -0.248 NA
ATOM     35  C   UNL     1       6.357 -10.953  -3.293  1.00  0.00     0.031 C 
ATOM     36  C   UNL     1       9.044  -8.237  -8.034  1.00  0.00     0.029 A 
ATOM     37  C   UNL     1       8.313  -8.431  -6.870  1.00  0.00     0.049 A 
ATOM     38  H   UNL     1       7.318  -7.005  -5.681  1.00  0.00     0.167 HD
ATOM     39  C   UNL     1       7.355  -9.812  -5.021  1.00  0.00     0.074 A 
ATOM     40  C   UNL     1       7.102 -11.089  -4.382  1.00  0.00     0.031 C 
ATOM     41  C   UNL     1       8.038  -9.669  -6.184  1.00  0.00     0.037 A 
BRANCH  28  42
ATOM     42  C   UNL     1       8.458  -3.886  -8.355  1.00  0.00     0.058 A 
ATOM     43  C   UNL     1       9.488  -2.960  -8.133  1.00  0.00     0.135 A 
ATOM     44  C   UNL     1       7.880  -3.930  -9.635  1.00  0.00     0.135 A 
ATOM     45  F   UNL     1      10.047  -2.848  -6.918  1.00  0.00    -0.206 F 
ATOM     46  C   UNL     1       9.929  -2.110  -9.144  1.00  0.00     0.059 A 
ATOM     47  C   UNL     1       8.319  -3.104 -10.665  1.00  0.00     0.059 A 
ATOM     48  F   UNL     1       6.875  -4.781  -9.893  1.00  0.00    -0.206 F 
ATOM     49  C   UNL     1       9.342  -2.194 -10.409  1.00  0.00     0.060 A 
BRANCH  49  50
ATOM     50  S   UNL     1       9.951  -1.111 -11.719  1.00  0.00     0.124 S 
ATOM     51  O   UNL     1       9.436   0.186 -11.290  1.00  0.00    -0.237 OA
ATOM     52  O   UNL     1      11.396  -1.283 -11.617  1.00  0.00    -0.237 OA
ATOM     53  O   UNL     1       9.341  -1.660 -12.926  1.00  0.00    -0.744 OA
ENDBRANCH  49  50
ENDBRANCH  28  42
BRANCH  29  54
ATOM     54  C   UNL     1       4.780  -9.846  -1.056  1.00  0.00     0.058 A 
ATOM     55  C   UNL     1       5.573 -10.598  -0.177  1.00  0.00     0.135 A 
ATOM     56  C   UNL     1       3.386 -10.006  -0.963  1.00  0.00     0.135 A 
ATOM     57  F   UNL     1       6.910 -10.494  -0.226  1.00  0.00    -0.206 F 
ATOM     58  C   UNL     1       5.013 -11.497   0.730  1.00  0.00     0.059 A 
ATOM     59  C   UNL     1       2.801 -10.873  -0.045  1.00  0.00     0.059 A 
ATOM     60  F   UNL     1       2.572  -9.311  -1.773  1.00  0.00    -0.206 F 
ATOM     61  C   UNL     1       3.625 -11.632   0.783  1.00  0.00     0.060 A 
BRANCH  61  62
ATOM     62  S   UNL     1       2.904 -12.808   1.949  1.00  0.00     0.124 S 
ATOM     63  O   UNL     1       3.197 -14.081   1.300  1.00  0.00    -0.237 OA
ATOM     64  O   UNL     1       3.649 -12.529   3.173  1.00  0.00    -0.237 OA
ATOM     65  O   UNL     1       1.495 -12.427   1.983  1.00  0.00    -0.744 OA
ENDBRANCH  61  62
ENDBRANCH  29  54
BRANCH  41  66
ATOM     66  C   UNL     1       8.560 -10.922  -6.821  1.00  0.00     0.058 A 
ATOM     67  C   UNL     1       7.707 -11.800  -7.504  1.00  0.00     0.135 A 
ATOM     68  C   UNL     1       9.936 -11.196  -6.820  1.00  0.00     0.135 A 
ATOM     69  F   UNL     1       6.383 -11.579  -7.523  1.00  0.00    -0.206 F 
ATOM     70  C   UNL     1       8.201 -12.919  -8.161  1.00  0.00     0.059 A 
ATOM     71  C   UNL     1      10.455 -12.294  -7.494  1.00  0.00     0.059 A 
ATOM     72  F   UNL     1      10.790 -10.375  -6.188  1.00  0.00    -0.206 F 
ATOM     73  C   UNL     1       9.578 -13.152  -8.157  1.00  0.00     0.060 A 
BRANCH  73  74
ATOM     74  S   UNL     1      10.214 -14.573  -9.069  1.00  0.00     0.124 S 
ATOM     75  O   UNL     1       9.834 -15.677  -8.194  1.00  0.00    -0.237 OA
ATOM     76  O   UNL     1       9.488 -14.484 -10.332  1.00  0.00    -0.237 OA
ATOM     77  O   UNL     1      11.646 -14.305  -9.157  1.00  0.00    -0.744 OA
ENDBRANCH  73  74
ENDBRANCH  41  66
ENDBRANCH  15  16
ENDBRANCH   8  10
ENDBRANCH   7   8
ENDBRANCH   6   7
ENDBRANCH   5   6
ENDBRANCH   4   5
ENDBRANCH   3   4
ENDBRANCH   2   3
ENDBRANCH   1   2
BRANCH   1  78
ATOM     78  C   UNL     1       3.436  -0.943   3.540  1.00  0.00     0.188 C 
BRANCH  78  79
ATOM     79  C   UNL     1       4.328  -2.018   2.888  1.00  0.00     0.188 C 
BRANCH  79  80
ATOM     80  O   UNL     1       3.921  -3.378   2.842  1.00  0.00    -0.376 OA
BRANCH  80  81
ATOM     81  C   UNL     1       2.981  -3.855   3.783  1.00  0.00     0.202 C 
BRANCH  81  82
ATOM     82  C   UNL     1       3.429  -3.952   5.247  1.00  0.00     0.261 C 
BRANCH  82  83
ATOM     83  O   UNL     1       3.897  -2.731   5.859  1.00  0.00    -0.463 OA
BRANCH  83  84
ATOM     84  C   UNL     1       5.243  -2.572   5.957  1.00  0.00     0.309 C 
ATOM     85  O   UNL     1       6.097  -3.350   5.544  1.00  0.00    -0.252 OA
BRANCH  84  86
ATOM     86  C   UNL     1       5.649  -1.424   6.801  1.00  0.00     0.112 C 
ATOM     87  C   UNL     1       5.089  -0.033   6.788  1.00  0.00     0.030 C 
ATOM     88  C   UNL     1       6.495  -0.280   6.263  1.00  0.00     0.094 C 
BRANCH  88  89
ATOM     89  C   UNL     1       6.752   0.084   4.834  1.00  0.00     0.226 C 
ATOM     90  O   UNL     1       5.874   0.656   4.194  1.00  0.00    -0.275 OA
ATOM     91  N   UNL     1       8.024  -0.095   4.323  1.00  0.00    -0.339 N 
ATOM     92  C   UNL     1       8.415   0.605   3.085  1.00  0.00     0.141 C 
ATOM     93  C   UNL     1       9.122  -0.830   4.965  1.00  0.00     0.141 C 
ATOM     94  C   UNL     1       9.590   1.576   3.358  1.00  0.00     0.139 C 
ATOM     95  C   UNL     1      10.326   0.103   5.225  1.00  0.00     0.139 C 
ATOM     96  N   UNL     1      10.671   0.819   3.990  1.00  0.00    -0.352 N 
BRANCH  96  97
ATOM     97  C   UNL     1      11.981   1.157   3.728  1.00  0.00     0.147 A 
ATOM     98  N   UNL     1      12.313   2.473   3.738  1.00  0.00    -0.237 NA
ATOM     99  C   UNL     1      12.940   0.180   3.406  1.00  0.00     0.084 A 
ATOM    100  C   UNL     1      13.597   2.817   3.458  1.00  0.00     0.126 A 
ATOM    101  C   UNL     1      14.247   0.562   3.108  1.00  0.00     0.039 A 
ATOM    102  Cl  UNL     1      12.550  -1.500   3.274  1.00  0.00    -0.080 Cl
ATOM    103  C   UNL     1      14.597   1.911   3.139  1.00  0.00     0.075 A 
BRANCH 103 104
ATOM    104  C   UNL     1      15.985   2.387   2.846  1.00  0.00     0.417 C 
ATOM    105  F   UNL     1      16.027   3.314   1.852  1.00  0.00    -0.166 F 
ATOM    106  F   UNL     1      16.568   2.973   3.928  1.00  0.00    -0.166 F 
ATOM    107  F   UNL     1      16.832   1.391   2.465  1.00  0.00    -0.166 F 
ENDBRANCH 103 104
ENDBRANCH  96  97
ENDBRANCH  88  89
ENDBRANCH  84  86
ENDBRANCH  83  84
ENDBRANCH  82  83
ENDBRANCH  81  82
ENDBRANCH  80  81
ENDBRANCH  79  80
ENDBRANCH  78  79
ENDBRANCH   1  78
TORSDOF 26
