REMARK SMILES CCCCCCNC(=O)Oc1cccc(-c2ccc([C@@H](C)C(=O)OCCOCCOCCOCCOC(=O)c3ccc(-c4c5nc(c(-c6c(F)cc(S(=O)(=O)[O-])cc6F)c6ccc([nH]6)c(-c6c(F)cc(S(=O)(=O)[O-])cc6F)c6nc(c(-c7c(F)cc(S(=O)(=O)[O-])cc7F)c7ccc4[nH]7)C=C6)C=C5)cc3)cc2O)c1
REMARK SMILES IDX 27 1 26 2 25 3 24 4 22 5 23 6 20 7 21 8 19 9 16 10 17 11
REMARK SMILES IDX 106 12 18 13 105 14 15 15 11 16 12 17 108 18 13 19 14 20
REMARK SMILES IDX 10 21 8 22 7 23 9 25 6 26 5 27 4 28 3 29 2 30 1 31 107 32
REMARK SMILES IDX 28 34 29 35 30 36 31 37 32 38 33 39 34 40 35 41 36 42 37 43
REMARK SMILES IDX 38 44 39 45 40 46 104 47 41 48 103 49 42 50 43 51 44 52
REMARK SMILES IDX 97 53 45 54 102 55 96 56 98 57 46 58 101 59 95 60 94 61
REMARK SMILES IDX 47 63 81 64 60 65 80 66 61 67 64 68 79 69 99 70 62 71 63 72
REMARK SMILES IDX 78 74 100 75 65 76 48 77 49 78 58 79 50 80 51 81 57 82 59 83
REMARK SMILES IDX 52 84 53 85 54 86 55 87 56 88 82 89 83 90 92 91 84 92 85 93
REMARK SMILES IDX 91 94 93 95 86 96 87 97 88 98 89 99 90 100 66 101 67 102
REMARK SMILES IDX 76 103 68 104 69 105 75 106 77 107 70 108 71 109 72 110
REMARK SMILES IDX 73 111 74 112
REMARK H PARENT 7 24 107 33 98 62 64 73
REMARK Flexibility Score: inf
ROOT
ATOM      1  O   UNL     1      -0.967  13.575   6.811  1.00  0.00    -0.376 OA
ENDROOT
BRANCH   1   2
ATOM      2  C   UNL     1      -1.488  13.636   8.131  1.00  0.00     0.202 C 
BRANCH   2   3
ATOM      3  C   UNL     1      -2.982  13.926   8.368  1.00  0.00     0.261 C 
BRANCH   3   4
ATOM      4  O   UNL     1      -3.929  13.113   7.642  1.00  0.00    -0.463 OA
BRANCH   4   5
ATOM      5  C   UNL     1      -4.550  13.702   6.594  1.00  0.00     0.313 C 
ATOM      6  O   UNL     1      -4.355  14.870   6.260  1.00  0.00    -0.252 OA
BRANCH   5   7
ATOM      7  C   UNL     1      -5.562  12.838   5.842  1.00  0.00     0.126 C 
ATOM      8  C   UNL     1      -6.964  13.337   6.174  1.00  0.00     0.025 C 
BRANCH   7   9
ATOM      9  C   UNL     1      -5.491  11.311   5.881  1.00  0.00    -0.030 A 
ATOM     10  C   UNL     1      -5.319   8.434   5.817  1.00  0.00     0.024 A 
ATOM     11  C   UNL     1      -5.493   9.149   7.020  1.00  0.00     0.013 A 
ATOM     12  C   UNL     1      -5.230   9.202   4.645  1.00  0.00     0.123 A 
ATOM     13  C   UNL     1      -5.584  10.556   7.055  1.00  0.00     0.005 A 
ATOM     14  C   UNL     1      -5.319  10.602   4.673  1.00  0.00     0.051 A 
BRANCH  10  15
ATOM     15  C   UNL     1      -5.313   6.951   5.821  1.00  0.00    -0.011 A 
ATOM     16  C   UNL     1      -4.337   4.792   5.251  1.00  0.00     0.133 A 
ATOM     17  C   UNL     1      -5.456   4.124   5.743  1.00  0.00     0.047 A 
ATOM     18  C   UNL     1      -4.252   6.190   5.289  1.00  0.00     0.056 A 
ATOM     19  C   UNL     1      -6.501   4.858   6.292  1.00  0.00     0.004 A 
ATOM     20  C   UNL     1      -6.431   6.255   6.324  1.00  0.00     0.009 A 
BRANCH  16  21
ATOM     21  O   UNL     1      -3.386   3.988   4.588  1.00  0.00    -0.410 OA
BRANCH  21  22
ATOM     22  C   UNL     1      -2.045   4.088   4.924  1.00  0.00     0.412 C 
ATOM     23  N   UNL     1      -1.244   3.219   4.231  1.00  0.00    -0.321 N 
ATOM     24  H   UNL     1      -0.277   3.283   4.405  1.00  0.00     0.167 HD
ATOM     25  O   UNL     1      -1.572   4.856   5.752  1.00  0.00    -0.224 OA
BRANCH  23  26
ATOM     26  C   UNL     1      -1.660   2.214   3.271  1.00  0.00     0.119 C 
BRANCH  26  27
ATOM     27  C   UNL     1      -1.058   2.451   1.885  1.00  0.00     0.021 C 
BRANCH  27  28
ATOM     28  C   UNL     1       0.470   2.340   1.813  1.00  0.00     0.002 C 
BRANCH  28  29
ATOM     29  C   UNL     1       1.055   0.973   2.187  1.00  0.00    -0.000 C 
BRANCH  29  30
ATOM     30  C   UNL     1       0.588  -0.203   1.326  1.00  0.00    -0.003 C 
ATOM     31  C   UNL     1       0.991  -0.080  -0.136  1.00  0.00     0.004 C 
ENDBRANCH  29  30
ENDBRANCH  28  29
ENDBRANCH  27  28
ENDBRANCH  26  27
ENDBRANCH  23  26
ENDBRANCH  21  22
ENDBRANCH  16  21
ENDBRANCH  10  15
BRANCH  12  32
ATOM     32  O   UNL     1      -5.079   8.649   3.399  1.00  0.00    -0.507 OA
ATOM     33  H   UNL     1      -5.013   7.720   3.303  1.00  0.00     0.293 HD
ENDBRANCH  12  32
ENDBRANCH   7   9
ENDBRANCH   5   7
ENDBRANCH   4   5
ENDBRANCH   3   4
ENDBRANCH   2   3
ENDBRANCH   1   2
BRANCH   1  34
ATOM     34  C   UNL     1      -1.526  12.689   5.850  1.00  0.00     0.188 C 
BRANCH  34  35
ATOM     35  C   UNL     1      -2.115  11.331   6.256  1.00  0.00     0.188 C 
BRANCH  35  36
ATOM     36  O   UNL     1      -2.152  11.078   7.644  1.00  0.00    -0.377 OA
BRANCH  36  37
ATOM     37  C   UNL     1      -1.164  10.198   8.153  1.00  0.00     0.188 C 
BRANCH  37  38
ATOM     38  C   UNL     1       0.262  10.363   7.596  1.00  0.00     0.188 C 
BRANCH  38  39
ATOM     39  O   UNL     1       0.343  10.293   6.175  1.00  0.00    -0.376 OA
BRANCH  39  40
ATOM     40  C   UNL     1       0.658   9.041   5.579  1.00  0.00     0.202 C 
BRANCH  40  41
ATOM     41  C   UNL     1      -0.367   7.901   5.709  1.00  0.00     0.261 C 
BRANCH  41  42
ATOM     42  O   UNL     1      -0.696   7.489   7.042  1.00  0.00    -0.460 OA
BRANCH  42  43
ATOM     43  C   UNL     1       0.310   7.058   7.835  1.00  0.00     0.338 C 
ATOM     44  O   UNL     1       1.477   6.939   7.534  1.00  0.00    -0.246 OA
BRANCH  43  45
ATOM     45  C   UNL     1      -0.210   6.986   9.222  1.00  0.00     0.060 A 
ATOM     46  C   UNL     1       0.426   7.750  10.209  1.00  0.00     0.016 A 
ATOM     47  C   UNL     1      -1.292   6.166   9.552  1.00  0.00     0.016 A 
ATOM     48  C   UNL     1       0.025   7.648  11.540  1.00  0.00     0.010 A 
ATOM     49  C   UNL     1      -1.679   6.047  10.893  1.00  0.00     0.010 A 
ATOM     50  C   UNL     1      -0.989   6.750  11.899  1.00  0.00    -0.014 A 
BRANCH  50  51
ATOM     51  C   UNL     1      -1.143   6.384  13.331  1.00  0.00     0.031 A 
ATOM     52  C   UNL     1      -0.469   5.126  13.817  1.00  0.00     0.074 A 
ATOM     53  C   UNL     1      -1.792   7.180  14.200  1.00  0.00     0.049 A 
ATOM     54  N   UNL     1      -0.434   4.610  15.018  1.00  0.00    -0.248 NA
ATOM     55  C   UNL     1       0.270   4.347  12.809  1.00  0.00     0.031 C 
ATOM     56  C   UNL     1      -2.440   8.447  13.866  1.00  0.00     0.029 A 
ATOM     57  N   UNL     1      -2.005   7.039  15.549  1.00  0.00    -0.354 N 
ATOM     58  C   UNL     1       0.328   3.451  14.910  1.00  0.00     0.074 A 
ATOM     59  C   UNL     1       0.701   3.317  13.520  1.00  0.00     0.031 C 
ATOM     60  C   UNL     1      -2.983   8.966  14.982  1.00  0.00     0.029 A 
ATOM     61  C   UNL     1      -2.745   8.057  16.103  1.00  0.00     0.049 A 
ATOM     62  H   UNL     1      -1.661   6.279  16.072  1.00  0.00     0.167 HD
ATOM     63  C   UNL     1       0.697   2.584  15.883  1.00  0.00     0.037 A 
ATOM     64  C   UNL     1      -3.190   8.226  17.365  1.00  0.00     0.037 A 
ATOM     65  C   UNL     1       0.322   2.719  17.266  1.00  0.00     0.049 A 
ATOM     66  C   UNL     1      -2.836   7.202  18.416  1.00  0.00     0.074 A 
ATOM     67  C   UNL     1       0.648   1.896  18.330  1.00  0.00     0.029 A 
ATOM     68  N   UNL     1      -0.470   3.737  17.777  1.00  0.00    -0.354 N 
ATOM     69  N   UNL     1      -2.099   6.121  18.304  1.00  0.00    -0.248 NA
ATOM     70  C   UNL     1      -3.369   7.425  19.768  1.00  0.00     0.031 C 
ATOM     71  C   UNL     1       0.007   2.385  19.473  1.00  0.00     0.029 A 
ATOM     72  C   UNL     1      -0.666   3.548  19.135  1.00  0.00     0.049 A 
ATOM     73  H   UNL     1      -0.838   4.484  17.251  1.00  0.00     0.167 HD
ATOM     74  C   UNL     1      -2.056   5.554  19.576  1.00  0.00     0.074 A 
ATOM     75  C   UNL     1      -2.828   6.420  20.443  1.00  0.00     0.031 C 
ATOM     76  C   UNL     1      -1.433   4.421  19.989  1.00  0.00     0.037 A 
BRANCH  63  77
ATOM     77  C   UNL     1       1.529   1.397  15.478  1.00  0.00     0.058 A 
ATOM     78  C   UNL     1       2.867   1.532  15.072  1.00  0.00     0.135 A 
ATOM     79  C   UNL     1       0.987   0.102  15.520  1.00  0.00     0.135 A 
ATOM     80  F   UNL     1       3.431   2.748  14.993  1.00  0.00    -0.206 F 
ATOM     81  C   UNL     1       3.629   0.429  14.698  1.00  0.00     0.059 A 
ATOM     82  C   UNL     1       1.740  -1.018  15.180  1.00  0.00     0.059 A 
ATOM     83  F   UNL     1      -0.288  -0.086  15.895  1.00  0.00    -0.206 F 
ATOM     84  C   UNL     1       3.057  -0.843  14.756  1.00  0.00     0.060 A 
BRANCH  84  85
ATOM     85  S   UNL     1       4.060  -2.263  14.273  1.00  0.00     0.124 S 
ATOM     86  O   UNL     1       4.156  -2.075  12.828  1.00  0.00    -0.237 OA
ATOM     87  O   UNL     1       5.292  -2.043  15.023  1.00  0.00    -0.237 OA
ATOM     88  O   UNL     1       3.263  -3.407  14.704  1.00  0.00    -0.744 OA
ENDBRANCH  84  85
ENDBRANCH  63  77
BRANCH  64  89
ATOM     89  C   UNL     1      -4.031   9.406  17.712  1.00  0.00     0.058 A 
ATOM     90  C   UNL     1      -3.565  10.405  18.580  1.00  0.00     0.135 A 
ATOM     91  C   UNL     1      -5.331   9.545  17.199  1.00  0.00     0.135 A 
ATOM     92  F   UNL     1      -2.336  10.312  19.110  1.00  0.00    -0.206 F 
ATOM     93  C   UNL     1      -4.360  11.489  18.941  1.00  0.00     0.059 A 
ATOM     94  C   UNL     1      -6.134  10.635  17.522  1.00  0.00     0.059 A 
ATOM     95  F   UNL     1      -5.827   8.621  16.361  1.00  0.00    -0.206 F 
ATOM     96  C   UNL     1      -5.644  11.596  18.403  1.00  0.00     0.060 A 
BRANCH  96  97
ATOM     97  S   UNL     1      -6.652  13.028  18.846  1.00  0.00     0.124 S 
ATOM     98  O   UNL     1      -6.983  12.736  20.236  1.00  0.00    -0.237 OA
ATOM     99  O   UNL     1      -5.725  14.133  18.628  1.00  0.00    -0.237 OA
ATOM    100  O   UNL     1      -7.766  12.958  17.905  1.00  0.00    -0.744 OA
ENDBRANCH  96  97
ENDBRANCH  64  89
BRANCH  76 101
ATOM    101  C   UNL     1      -1.526   4.068  21.451  1.00  0.00     0.058 A 
ATOM    102  C   UNL     1      -2.725   3.627  22.033  1.00  0.00     0.135 A 
ATOM    103  C   UNL     1      -0.386   4.129  22.270  1.00  0.00     0.135 A 
ATOM    104  F   UNL     1      -3.846   3.552  21.299  1.00  0.00    -0.206 F 
ATOM    105  C   UNL     1      -2.798   3.292  23.382  1.00  0.00     0.059 A 
ATOM    106  C   UNL     1      -0.428   3.766  23.613  1.00  0.00     0.059 A 
ATOM    107  F   UNL     1       0.791   4.529  21.763  1.00  0.00    -0.206 F 
ATOM    108  C   UNL     1      -1.643   3.364  24.164  1.00  0.00     0.060 A 
BRANCH 108 109
ATOM    109  S   UNL     1      -1.749   2.906  25.907  1.00  0.00     0.124 S 
ATOM    110  O   UNL     1      -2.483   4.037  26.465  1.00  0.00    -0.237 OA
ATOM    111  O   UNL     1      -2.476   1.641  25.854  1.00  0.00    -0.237 OA
ATOM    112  O   UNL     1      -0.352   2.802  26.317  1.00  0.00    -0.744 OA
ENDBRANCH 108 109
ENDBRANCH  76 101
ENDBRANCH  50  51
ENDBRANCH  43  45
ENDBRANCH  42  43
ENDBRANCH  41  42
ENDBRANCH  40  41
ENDBRANCH  39  40
ENDBRANCH  38  39
ENDBRANCH  37  38
ENDBRANCH  36  37
ENDBRANCH  35  36
ENDBRANCH  34  35
ENDBRANCH   1  34
TORSDOF 33
