REMARK SMILES Cc1cc(Cl)c2c(c1)C=C(C(=O)OCCOCCOCCOCCOC(=O)c1ccc(-c3c4nc(c(-c5c(F)cc(S(=O)(=O)[O-])cc5F)c5ccc([nH]5)c(-c5c(F)cc(S(=O)(=O)[O-])cc5F)c5nc(c(-c6c(F)cc(S(=O)(=O)[O-])cc6F)c6ccc3[nH]6)C=C5)C=C4)cc1)[C@@H](C(F)(F)F)O2
REMARK SMILES IDX 20 1 19 2 18 3 17 4 16 5 15 6 14 7 13 8 11 9 12 10 10 11
REMARK SMILES IDX 1 12 2 13 3 14 8 15 4 16 7 17 5 18 6 19 9 20 99 21 94 22
REMARK SMILES IDX 95 23 96 24 97 25 98 26 21 27 22 28 23 29 24 30 25 31 26 32
REMARK SMILES IDX 27 33 28 34 29 35 93 36 30 37 92 38 31 39 32 40 33 41 86 42
REMARK SMILES IDX 34 43 91 44 85 45 87 46 35 47 90 48 84 49 83 50 36 52 70 53
REMARK SMILES IDX 49 54 69 55 50 56 53 57 68 58 88 59 51 60 52 61 67 63 89 64
REMARK SMILES IDX 54 65 37 66 38 67 47 68 39 69 40 70 46 71 48 72 41 73 42 74
REMARK SMILES IDX 43 75 44 76 45 77 71 78 72 79 81 80 73 81 74 82 80 83 82 84
REMARK SMILES IDX 75 85 76 86 77 87 78 88 79 89 55 90 56 91 65 92 57 93 58 94
REMARK SMILES IDX 64 95 66 96 59 97 60 98 61 99 62 100 63 101
REMARK H PARENT 87 51 53 62
REMARK Flexibility Score: inf
ROOT
ATOM      1  C   UNL     1      -3.912   6.069  -6.559  1.00  0.00     0.188 C 
ENDROOT
BRANCH   1   2
ATOM      2  O   UNL     1      -2.905   5.097  -6.271  1.00  0.00    -0.377 OA
BRANCH   2   3
ATOM      3  C   UNL     1      -2.510   4.933  -4.920  1.00  0.00     0.188 C 
BRANCH   3   4
ATOM      4  C   UNL     1      -1.452   5.959  -4.472  1.00  0.00     0.188 C 
BRANCH   4   5
ATOM      5  O   UNL     1      -1.378   7.105  -5.300  1.00  0.00    -0.376 OA
BRANCH   5   6
ATOM      6  C   UNL     1      -0.542   7.148  -6.446  1.00  0.00     0.202 C 
BRANCH   6   7
ATOM      7  C   UNL     1      -0.205   5.947  -7.351  1.00  0.00     0.261 C 
BRANCH   7   8
ATOM      8  O   UNL     1      -0.264   4.643  -6.774  1.00  0.00    -0.460 OA
BRANCH   8   9
ATOM      9  C   UNL     1       0.778   4.240  -6.027  1.00  0.00     0.338 C 
ATOM     10  O   UNL     1       1.793   4.867  -5.783  1.00  0.00    -0.246 OA
BRANCH   9  11
ATOM     11  C   UNL     1       0.393   2.965  -5.382  1.00  0.00     0.087 C 
ATOM     12  C   UNL     1       0.824   0.014  -0.006  1.00  0.00     0.044 C 
ATOM     13  C   UNL     1       0.395   0.207  -1.430  1.00  0.00    -0.049 A 
ATOM     14  C   UNL     1      -0.146  -0.847  -2.172  1.00  0.00     0.028 A 
ATOM     15  C   UNL     1       0.606   1.439  -2.058  1.00  0.00     0.015 A 
ATOM     16  C   UNL     1      -0.503  -0.659  -3.512  1.00  0.00     0.084 A 
ATOM     17  C   UNL     1       0.295   1.614  -3.413  1.00  0.00     0.019 A 
ATOM     18  Cl  UNL     1      -1.166  -2.003  -4.372  1.00  0.00    -0.080 Cl
ATOM     19  C   UNL     1      -0.289   0.575  -4.140  1.00  0.00     0.146 A 
ATOM     20  C   UNL     1       0.651   2.857  -4.074  1.00  0.00     0.027 C 
ATOM     21  O   UNL     1      -0.655   0.701  -5.451  1.00  0.00    -0.474 OA
ATOM     22  C   UNL     1      -0.321   1.909  -6.187  1.00  0.00     0.316 C 
BRANCH  22  23
ATOM     23  C   UNL     1       0.475   1.507  -7.437  1.00  0.00     0.430 C 
ATOM     24  F   UNL     1      -0.136   0.506  -8.112  1.00  0.00    -0.167 F 
ATOM     25  F   UNL     1       0.616   2.539  -8.299  1.00  0.00    -0.167 F 
ATOM     26  F   UNL     1       1.718   1.079  -7.112  1.00  0.00    -0.167 F 
ENDBRANCH  22  23
ENDBRANCH   9  11
ENDBRANCH   8   9
ENDBRANCH   7   8
ENDBRANCH   6   7
ENDBRANCH   5   6
ENDBRANCH   4   5
ENDBRANCH   3   4
ENDBRANCH   2   3
ENDBRANCH   1   2
BRANCH   1  27
ATOM     27  C   UNL     1      -4.184   7.261  -5.610  1.00  0.00     0.188 C 
BRANCH  27  28
ATOM     28  O   UNL     1      -4.184   6.923  -4.227  1.00  0.00    -0.376 OA
BRANCH  28  29
ATOM     29  C   UNL     1      -5.434   6.867  -3.559  1.00  0.00     0.202 C 
BRANCH  29  30
ATOM     30  C   UNL     1      -6.335   5.683  -3.935  1.00  0.00     0.261 C 
BRANCH  30  31
ATOM     31  O   UNL     1      -6.700   5.596  -5.319  1.00  0.00    -0.460 OA
BRANCH  31  32
ATOM     32  C   UNL     1      -7.407   6.622  -5.841  1.00  0.00     0.338 C 
ATOM     33  O   UNL     1      -7.812   7.610  -5.252  1.00  0.00    -0.246 OA
BRANCH  32  34
ATOM     34  C   UNL     1      -7.437   6.438  -7.306  1.00  0.00     0.060 A 
ATOM     35  C   UNL     1      -6.885   7.429  -8.128  1.00  0.00     0.016 A 
ATOM     36  C   UNL     1      -7.991   5.282  -7.861  1.00  0.00     0.016 A 
ATOM     37  C   UNL     1      -6.915   7.278  -9.514  1.00  0.00     0.010 A 
ATOM     38  C   UNL     1      -8.042   5.144  -9.249  1.00  0.00     0.010 A 
ATOM     39  C   UNL     1      -7.534   6.156 -10.082  1.00  0.00    -0.014 A 
BRANCH  39  40
ATOM     40  C   UNL     1      -7.850   6.149 -11.530  1.00  0.00     0.031 A 
ATOM     41  C   UNL     1      -9.219   6.610 -11.954  1.00  0.00     0.074 A 
ATOM     42  C   UNL     1      -6.943   5.773 -12.449  1.00  0.00     0.049 A 
ATOM     43  N   UNL     1      -9.744   6.662 -13.149  1.00  0.00    -0.248 NA
ATOM     44  C   UNL     1     -10.114   7.079 -10.882  1.00  0.00     0.031 C 
ATOM     45  C   UNL     1      -5.572   5.356 -12.164  1.00  0.00     0.029 A 
ATOM     46  N   UNL     1      -7.046   5.681 -13.815  1.00  0.00    -0.354 N 
ATOM     47  C   UNL     1     -11.025   7.171 -12.974  1.00  0.00     0.074 A 
ATOM     48  C   UNL     1     -11.213   7.378 -11.556  1.00  0.00     0.031 C 
ATOM     49  C   UNL     1      -4.961   5.048 -13.322  1.00  0.00     0.029 A 
ATOM     50  C   UNL     1      -5.907   5.214 -14.426  1.00  0.00     0.049 A 
ATOM     51  H   UNL     1      -7.861   5.926 -14.311  1.00  0.00     0.167 HD
ATOM     52  C   UNL     1     -11.956   7.455 -13.914  1.00  0.00     0.037 A 
ATOM     53  C   UNL     1      -5.665   4.938 -15.724  1.00  0.00     0.037 A 
ATOM     54  C   UNL     1     -11.767   7.240 -15.323  1.00  0.00     0.049 A 
ATOM     55  C   UNL     1      -6.753   5.170 -16.743  1.00  0.00     0.074 A 
ATOM     56  C   UNL     1     -12.651   7.493 -16.356  1.00  0.00     0.029 A 
ATOM     57  N   UNL     1     -10.619   6.714 -15.897  1.00  0.00    -0.354 N 
ATOM     58  N   UNL     1      -7.958   5.661 -16.568  1.00  0.00    -0.248 NA
ATOM     59  C   UNL     1      -6.452   4.809 -18.137  1.00  0.00     0.031 C 
ATOM     60  C   UNL     1     -12.058   7.071 -17.550  1.00  0.00     0.029 A 
ATOM     61  C   UNL     1     -10.782   6.610 -17.268  1.00  0.00     0.049 A 
ATOM     62  H   UNL     1      -9.808   6.454 -15.403  1.00  0.00     0.167 HD
ATOM     63  C   UNL     1      -8.547   5.691 -17.829  1.00  0.00     0.074 A 
ATOM     64  C   UNL     1      -7.562   5.181 -18.760  1.00  0.00     0.031 C 
ATOM     65  C   UNL     1      -9.789   6.104 -18.184  1.00  0.00     0.037 A 
BRANCH  52  66
ATOM     66  C   UNL     1     -13.271   8.014 -13.447  1.00  0.00     0.058 A 
ATOM     67  C   UNL     1     -13.380   9.326 -12.959  1.00  0.00     0.135 A 
ATOM     68  C   UNL     1     -14.443   7.247 -13.534  1.00  0.00     0.135 A 
ATOM     69  F   UNL     1     -12.286  10.094 -12.832  1.00  0.00    -0.206 F 
ATOM     70  C   UNL     1     -14.604   9.852 -12.560  1.00  0.00     0.059 A 
ATOM     71  C   UNL     1     -15.682   7.763 -13.167  1.00  0.00     0.059 A 
ATOM     72  F   UNL     1     -14.392   5.984 -13.986  1.00  0.00    -0.206 F 
ATOM     73  C   UNL     1     -15.751   9.065 -12.674  1.00  0.00     0.060 A 
BRANCH  73  74
ATOM     74  S   UNL     1     -17.332   9.775 -12.174  1.00  0.00     0.124 S 
ATOM     75  O   UNL     1     -17.160   9.883 -10.728  1.00  0.00    -0.237 OA
ATOM     76  O   UNL     1     -17.349  11.037 -12.906  1.00  0.00    -0.237 OA
ATOM     77  O   UNL     1     -18.308   8.783 -12.615  1.00  0.00    -0.744 OA
ENDBRANCH  73  74
ENDBRANCH  52  66
BRANCH  53  78
ATOM     78  C   UNL     1      -4.337   4.407 -16.138  1.00  0.00     0.058 A 
ATOM     79  C   UNL     1      -3.461   5.177 -16.918  1.00  0.00     0.135 A 
ATOM     80  C   UNL     1      -3.914   3.122 -15.760  1.00  0.00     0.135 A 
ATOM     81  F   UNL     1      -3.824   6.405 -17.319  1.00  0.00    -0.206 F 
ATOM     82  C   UNL     1      -2.217   4.694 -17.312  1.00  0.00     0.059 A 
ATOM     83  C   UNL     1      -2.664   2.626 -16.120  1.00  0.00     0.059 A 
ATOM     84  F   UNL     1      -4.712   2.345 -15.012  1.00  0.00    -0.206 F 
ATOM     85  C   UNL     1      -1.825   3.419 -16.901  1.00  0.00     0.060 A 
BRANCH  85  86
ATOM     86  S   UNL     1      -0.184   2.829 -17.373  1.00  0.00     0.124 S 
ATOM     87  O   UNL     1      -0.333   2.659 -18.814  1.00  0.00    -0.237 OA
ATOM     88  O   UNL     1       0.669   3.933 -16.945  1.00  0.00    -0.237 OA
ATOM     89  O   UNL     1      -0.035   1.596 -16.605  1.00  0.00    -0.744 OA
ENDBRANCH  85  86
ENDBRANCH  53  78
BRANCH  65  90
ATOM     90  C   UNL     1     -10.162   6.046 -19.641  1.00  0.00     0.058 A 
ATOM     91  C   UNL     1     -10.421   4.828 -20.288  1.00  0.00     0.135 A 
ATOM     92  C   UNL     1     -10.351   7.230 -20.375  1.00  0.00     0.135 A 
ATOM     93  F   UNL     1     -10.254   3.667 -19.634  1.00  0.00    -0.206 F 
ATOM     94  C   UNL     1     -10.841   4.784 -21.613  1.00  0.00     0.059 A 
ATOM     95  C   UNL     1     -10.799   7.210 -21.693  1.00  0.00     0.059 A 
ATOM     96  F   UNL     1     -10.131   8.424 -19.802  1.00  0.00    -0.206 F 
ATOM     97  C   UNL     1     -11.034   5.981 -22.306  1.00  0.00     0.060 A 
BRANCH  97  98
ATOM     98  S   UNL     1     -11.626   5.906 -24.010  1.00  0.00     0.124 S 
ATOM     99  O   UNL     1     -10.465   5.354 -24.701  1.00  0.00    -0.237 OA
ATOM    100  O   UNL     1     -12.779   5.017 -23.899  1.00  0.00    -0.237 OA
ATOM    101  O   UNL     1     -11.940   7.296 -24.324  1.00  0.00    -0.744 OA
ENDBRANCH  97  98
ENDBRANCH  65  90
ENDBRANCH  39  40
ENDBRANCH  32  34
ENDBRANCH  31  32
ENDBRANCH  30  31
ENDBRANCH  29  30
ENDBRANCH  28  29
ENDBRANCH  27  28
ENDBRANCH   1  27
TORSDOF 24
