REMARK SMILES CC[C@](C)(NC(=O)CNC(=O)c1cccc(Cl)c1)C(=O)OCCOCCOCCOCCOC(=O)c1ccc(-c2c3nc(c(-c4c(F)cc(S(=O)(=O)[O-])cc4F)c4ccc([nH]4)c(-c4c(F)cc(S(=O)(=O)[O-])cc4F)c4nc(c(-c5c(F)cc(S(=O)(=O)[O-])cc5F)c5ccc2[nH]5)C=C4)C=C3)cc1
REMARK SMILES IDX 26 1 25 2 24 3 23 4 22 5 21 6 19 7 20 8 3 9 4 10 2 11 1 12
REMARK SMILES IDX 5 13 6 14 7 16 8 17 9 18 10 19 11 21 12 22 13 23 18 24 14 25
REMARK SMILES IDX 16 26 15 27 17 28 27 29 28 30 29 31 30 32 31 33 32 34 33 35
REMARK SMILES IDX 34 36 35 37 36 38 37 39 101 40 38 41 100 42 39 43 40 44
REMARK SMILES IDX 41 45 94 46 42 47 99 48 93 49 95 50 43 51 98 52 92 53 91 54
REMARK SMILES IDX 44 56 78 57 57 58 77 59 58 60 61 61 76 62 96 63 59 64 60 65
REMARK SMILES IDX 75 67 97 68 62 69 45 70 46 71 55 72 47 73 48 74 54 75 56 76
REMARK SMILES IDX 49 77 50 78 51 79 52 80 53 81 79 82 80 83 89 84 81 85 82 86
REMARK SMILES IDX 88 87 90 88 83 89 84 90 85 91 86 92 87 93 63 94 64 95 73 96
REMARK SMILES IDX 65 97 66 98 72 99 74 100 67 101 68 102 69 103 70 104 71 105
REMARK H PARENT 5 15 9 20 95 55 61 66
REMARK Flexibility Score: inf
ROOT
ATOM      1  C   UNL     1       3.989   3.734  -2.206  1.00  0.00     0.188 C 
ENDROOT
BRANCH   1   2
ATOM      2  C   UNL     1       5.056   2.600  -2.205  1.00  0.00     0.188 C 
BRANCH   2   3
ATOM      3  O   UNL     1       4.939   1.810  -3.411  1.00  0.00    -0.376 OA
BRANCH   3   4
ATOM      4  C   UNL     1       5.367   0.458  -3.390  1.00  0.00     0.202 C 
BRANCH   4   5
ATOM      5  C   UNL     1       4.513  -0.553  -4.316  1.00  0.00     0.261 C 
BRANCH   5   6
ATOM      6  O   UNL     1       3.260  -1.449  -3.789  1.00  0.00    -0.462 OA
BRANCH   6   7
ATOM      7  C   UNL     1       2.076  -1.960  -3.351  1.00  0.00     0.331 C 
ATOM      8  O   UNL     1       2.074  -3.185  -3.156  1.00  0.00    -0.249 OA
BRANCH   7   9
ATOM      9  C   UNL     1       0.679  -1.179  -2.927  1.00  0.00     0.135 C 
ATOM     10  C   UNL     1       0.553  -0.880  -1.389  1.00  0.00     0.047 C 
BRANCH   9  11
ATOM     11  C   UNL     1      -0.501  -2.193  -3.167  1.00  0.00     0.037 C 
ATOM     12  C   UNL     1      -1.925  -1.614  -3.021  1.00  0.00     0.007 C 
ENDBRANCH   9  11
BRANCH   9  13
ATOM     13  N   UNL     1       0.328   0.040  -3.639  1.00  0.00    -0.339 N 
ATOM     14  C   UNL     1       0.975   1.210  -3.442  1.00  0.00     0.240 C 
ATOM     15  H   UNL     1      -0.410   0.012  -4.290  1.00  0.00     0.164 HD
ATOM     16  O   UNL     1       0.461   2.276  -3.762  1.00  0.00    -0.273 OA
BRANCH  14  17
ATOM     17  C   UNL     1       2.407   1.042  -3.006  1.00  0.00     0.216 C 
BRANCH  17  18
ATOM     18  N   UNL     1       2.913   0.570  -1.640  1.00  0.00    -0.343 N 
ATOM     19  C   UNL     1       3.627  -0.363  -0.872  1.00  0.00     0.251 C 
ATOM     20  H   UNL     1       2.579   1.236  -0.996  1.00  0.00     0.164 HD
ATOM     21  O   UNL     1       3.796  -0.001   0.302  1.00  0.00    -0.269 OA
BRANCH  19  22
ATOM     22  C   UNL     1       4.156  -1.763  -1.155  1.00  0.00     0.041 A 
ATOM     23  C   UNL     1       5.388  -2.118  -1.750  1.00  0.00     0.014 A 
ATOM     24  C   UNL     1       3.478  -2.825  -0.540  1.00  0.00     0.034 A 
ATOM     25  C   UNL     1       5.758  -3.450  -1.999  1.00  0.00     0.002 A 
ATOM     26  C   UNL     1       3.868  -4.160  -0.735  1.00  0.00     0.041 A 
ATOM     27  C   UNL     1       4.976  -4.480  -1.511  1.00  0.00     0.020 A 
ATOM     28  Cl  UNL     1       2.973  -5.423   0.016  1.00  0.00    -0.084 Cl
ENDBRANCH  19  22
ENDBRANCH  17  18
ENDBRANCH  14  17
ENDBRANCH   9  13
ENDBRANCH   7   9
ENDBRANCH   6   7
ENDBRANCH   5   6
ENDBRANCH   4   5
ENDBRANCH   3   4
ENDBRANCH   2   3
ENDBRANCH   1   2
BRANCH   1  29
ATOM     29  O   UNL     1       3.452   4.086  -3.482  1.00  0.00    -0.377 OA
BRANCH  29  30
ATOM     30  C   UNL     1       4.360   4.159  -4.577  1.00  0.00     0.188 C 
BRANCH  30  31
ATOM     31  C   UNL     1       5.579   5.035  -4.289  1.00  0.00     0.188 C 
BRANCH  31  32
ATOM     32  O   UNL     1       5.391   6.444  -4.180  1.00  0.00    -0.376 OA
BRANCH  32  33
ATOM     33  C   UNL     1       4.071   6.949  -4.295  1.00  0.00     0.202 C 
BRANCH  33  34
ATOM     34  C   UNL     1       3.592   7.232  -5.731  1.00  0.00     0.261 C 
BRANCH  34  35
ATOM     35  O   UNL     1       3.857   6.208  -6.710  1.00  0.00    -0.460 OA
BRANCH  35  36
ATOM     36  C   UNL     1       5.119   6.156  -7.208  1.00  0.00     0.338 C 
ATOM     37  O   UNL     1       6.024   6.935  -6.984  1.00  0.00    -0.246 OA
BRANCH  36  38
ATOM     38  C   UNL     1       5.301   4.904  -7.990  1.00  0.00     0.060 A 
ATOM     39  C   UNL     1       6.460   4.138  -7.790  1.00  0.00     0.016 A 
ATOM     40  C   UNL     1       4.390   4.536  -8.983  1.00  0.00     0.016 A 
ATOM     41  C   UNL     1       6.743   3.044  -8.616  1.00  0.00     0.010 A 
ATOM     42  C   UNL     1       4.691   3.464  -9.832  1.00  0.00     0.010 A 
ATOM     43  C   UNL     1       5.891   2.744  -9.684  1.00  0.00    -0.014 A 
BRANCH  43  44
ATOM     44  C   UNL     1       6.365   1.886 -10.802  1.00  0.00     0.031 A 
ATOM     45  C   UNL     1       7.026   2.567 -11.974  1.00  0.00     0.074 A 
ATOM     46  C   UNL     1       6.192   0.552 -10.812  1.00  0.00     0.049 A 
ATOM     47  N   UNL     1       7.376   2.075 -13.133  1.00  0.00    -0.248 NA
ATOM     48  C   UNL     1       7.325   4.002 -11.816  1.00  0.00     0.031 C 
ATOM     49  C   UNL     1       5.620  -0.239  -9.726  1.00  0.00     0.029 A 
ATOM     50  N   UNL     1       6.459  -0.371 -11.796  1.00  0.00    -0.354 N 
ATOM     51  C   UNL     1       7.905   3.141 -13.852  1.00  0.00     0.074 A 
ATOM     52  C   UNL     1       7.837   4.307 -12.999  1.00  0.00     0.031 C 
ATOM     53  C   UNL     1       5.539  -1.524 -10.119  1.00  0.00     0.029 A 
ATOM     54  C   UNL     1       6.014  -1.638 -11.499  1.00  0.00     0.049 A 
ATOM     55  H   UNL     1       6.925  -0.146 -12.634  1.00  0.00     0.167 HD
ATOM     56  C   UNL     1       8.396   3.152 -15.112  1.00  0.00     0.037 A 
ATOM     57  C   UNL     1       5.951  -2.746 -12.268  1.00  0.00     0.037 A 
ATOM     58  C   UNL     1       8.480   1.992 -15.956  1.00  0.00     0.049 A 
ATOM     59  C   UNL     1       6.438  -2.693 -13.697  1.00  0.00     0.074 A 
ATOM     60  C   UNL     1       9.015   1.894 -17.229  1.00  0.00     0.029 A 
ATOM     61  N   UNL     1       8.004   0.735 -15.622  1.00  0.00    -0.354 N 
ATOM     62  N   UNL     1       6.972  -1.690 -14.351  1.00  0.00    -0.248 NA
ATOM     63  C   UNL     1       6.299  -3.921 -14.498  1.00  0.00     0.031 C 
ATOM     64  C   UNL     1       8.813   0.588 -17.686  1.00  0.00     0.029 A 
ATOM     65  C   UNL     1       8.195  -0.137 -16.680  1.00  0.00     0.049 A 
ATOM     66  H   UNL     1       7.590   0.497 -14.761  1.00  0.00     0.167 HD
ATOM     67  C   UNL     1       7.247  -2.169 -15.630  1.00  0.00     0.074 A 
ATOM     68  C   UNL     1       6.834  -3.556 -15.655  1.00  0.00     0.031 C 
ATOM     69  C   UNL     1       7.789  -1.519 -16.689  1.00  0.00     0.037 A 
BRANCH  56  70
ATOM     70  C   UNL     1       8.849   4.466 -15.678  1.00  0.00     0.058 A 
ATOM     71  C   UNL     1      10.061   5.059 -15.295  1.00  0.00     0.135 A 
ATOM     72  C   UNL     1       8.084   5.107 -16.665  1.00  0.00     0.135 A 
ATOM     73  F   UNL     1      10.818   4.497 -14.340  1.00  0.00    -0.206 F 
ATOM     74  C   UNL     1      10.497   6.249 -15.869  1.00  0.00     0.059 A 
ATOM     75  C   UNL     1       8.511   6.285 -17.268  1.00  0.00     0.059 A 
ATOM     76  F   UNL     1       6.912   4.583 -17.058  1.00  0.00    -0.206 F 
ATOM     77  C   UNL     1       9.717   6.852 -16.858  1.00  0.00     0.060 A 
BRANCH  77  78
ATOM     78  S   UNL     1      10.315   8.375 -17.621  1.00  0.00     0.124 S 
ATOM     79  O   UNL     1      10.097   9.342 -16.550  1.00  0.00    -0.237 OA
ATOM     80  O   UNL     1      11.709   8.053 -17.910  1.00  0.00    -0.237 OA
ATOM     81  O   UNL     1       9.456   8.530 -18.791  1.00  0.00    -0.744 OA
ENDBRANCH  77  78
ENDBRANCH  56  70
BRANCH  57  82
ATOM     82  C   UNL     1       5.340  -3.995 -11.735  1.00  0.00     0.058 A 
ATOM     83  C   UNL     1       6.112  -5.144 -11.508  1.00  0.00     0.135 A 
ATOM     84  C   UNL     1       3.962  -4.074 -11.482  1.00  0.00     0.135 A 
ATOM     85  F   UNL     1       7.431  -5.126 -11.752  1.00  0.00    -0.206 F 
ATOM     86  C   UNL     1       5.536  -6.333 -11.069  1.00  0.00     0.059 A 
ATOM     87  C   UNL     1       3.368  -5.243 -11.018  1.00  0.00     0.059 A 
ATOM     88  F   UNL     1       3.179  -3.002 -11.679  1.00  0.00    -0.206 F 
ATOM     89  C   UNL     1       4.162  -6.373 -10.828  1.00  0.00     0.060 A 
BRANCH  89  90
ATOM     90  S   UNL     1       3.427  -7.910 -10.229  1.00  0.00     0.124 S 
ATOM     91  O   UNL     1       3.408  -8.718 -11.443  1.00  0.00    -0.237 OA
ATOM     92  O   UNL     1       4.377  -8.324  -9.200  1.00  0.00    -0.237 OA
ATOM     93  O   UNL     1       2.122  -7.484  -9.732  1.00  0.00    -0.744 OA
ENDBRANCH  89  90
ENDBRANCH  57  82
BRANCH  69  94
ATOM     94  C   UNL     1       7.994  -2.291 -17.963  1.00  0.00     0.058 A 
ATOM     95  C   UNL     1       6.922  -2.603 -18.812  1.00  0.00     0.135 A 
ATOM     96  C   UNL     1       9.288  -2.639 -18.384  1.00  0.00     0.135 A 
ATOM     97  F   UNL     1       5.665  -2.297 -18.453  1.00  0.00    -0.206 F 
ATOM     98  C   UNL     1       7.124  -3.240 -20.033  1.00  0.00     0.059 A 
ATOM     99  C   UNL     1       9.516  -3.255 -19.611  1.00  0.00     0.059 A 
ATOM    100  F   UNL     1      10.350  -2.353 -17.614  1.00  0.00    -0.206 F 
ATOM    101  C   UNL     1       8.426  -3.556 -20.427  1.00  0.00     0.060 A 
BRANCH 101 102
ATOM    102  S   UNL     1       8.680  -4.325 -22.041  1.00  0.00     0.124 S 
ATOM    103  O   UNL     1       8.223  -5.688 -21.793  1.00  0.00    -0.237 OA
ATOM    104  O   UNL     1       7.829  -3.518 -22.911  1.00  0.00    -0.237 OA
ATOM    105  O   UNL     1      10.115  -4.175 -22.266  1.00  0.00    -0.744 OA
ENDBRANCH 101 102
ENDBRANCH  69  94
ENDBRANCH  43  44
ENDBRANCH  36  38
ENDBRANCH  35  36
ENDBRANCH  34  35
ENDBRANCH  33  34
ENDBRANCH  32  33
ENDBRANCH  31  32
ENDBRANCH  30  31
ENDBRANCH  29  30
ENDBRANCH   1  29
TORSDOF 28
