REMARK SMILES Cc1cccc(C)c1Nc1ccccc1CC(=O)OCCOCCOCCOCCOC(=O)c1ccc(-c2c3nc(c(-c4c(F)cc(S(=O)(=O)[O-])cc4F)c4ccc([nH]4)c(-c4c(F)cc(S(=O)(=O)[O-])cc4F)c4nc(c(-c5c(F)cc(S(=O)(=O)[O-])cc5F)c5ccc2[nH]5)C=C4)C=C3)cc1
REMARK SMILES IDX 25 1 24 2 23 3 22 4 21 5 20 6 19 7 17 8 18 9 16 10 15 11
REMARK SMILES IDX 10 12 11 13 12 14 14 15 13 16 9 17 8 19 1 20 2 21 3 22 4 23
REMARK SMILES IDX 6 24 5 25 7 26 26 27 27 28 28 29 29 30 30 31 31 32 32 33
REMARK SMILES IDX 33 34 34 35 35 36 99 37 36 38 98 39 37 40 38 41 39 42 92 43
REMARK SMILES IDX 40 44 97 45 91 46 93 47 41 48 96 49 90 50 89 51 42 53 76 54
REMARK SMILES IDX 55 55 75 56 56 57 59 58 74 59 94 60 57 61 58 62 73 64 95 65
REMARK SMILES IDX 60 66 43 67 44 68 53 69 45 70 46 71 52 72 54 73 47 74 48 75
REMARK SMILES IDX 49 76 50 77 51 78 77 79 78 80 87 81 79 82 80 83 86 84 88 85
REMARK SMILES IDX 81 86 82 87 83 88 84 89 85 90 61 91 62 92 71 93 63 94 64 95
REMARK SMILES IDX 70 96 72 97 65 98 66 99 67 100 68 101 69 102
REMARK H PARENT 9 18 93 52 59 63
REMARK Flexibility Score: inf
ROOT
ATOM      1  O   UNL     1      -1.826   5.628   4.266  1.00  0.00    -0.377 OA
ENDROOT
BRANCH   1   2
ATOM      2  C   UNL     1      -2.677   4.684   3.653  1.00  0.00     0.188 C 
BRANCH   2   3
ATOM      3  C   UNL     1      -3.198   3.587   4.607  1.00  0.00     0.188 C 
BRANCH   3   4
ATOM      4  O   UNL     1      -2.463   3.190   5.765  1.00  0.00    -0.376 OA
BRANCH   4   5
ATOM      5  C   UNL     1      -1.154   3.700   5.968  1.00  0.00     0.202 C 
BRANCH   5   6
ATOM      6  C   UNL     1      -0.064   3.215   4.989  1.00  0.00     0.261 C 
BRANCH   6   7
ATOM      7  O   UNL     1      -0.496   3.008   3.622  1.00  0.00    -0.463 OA
BRANCH   7   8
ATOM      8  C   UNL     1      -0.844   1.747   3.281  1.00  0.00     0.310 C 
ATOM      9  O   UNL     1      -0.630   0.776   4.008  1.00  0.00    -0.252 OA
BRANCH   8  10
ATOM     10  C   UNL     1      -1.663   1.571   2.012  1.00  0.00     0.160 C 
BRANCH  10  11
ATOM     11  C   UNL     1      -1.885   2.643   0.941  1.00  0.00    -0.013 A 
ATOM     12  C   UNL     1      -0.964   2.943  -0.081  1.00  0.00     0.042 A 
ATOM     13  C   UNL     1      -1.214   4.024  -0.958  1.00  0.00     0.026 A 
ATOM     14  C   UNL     1      -2.422   4.713  -0.936  1.00  0.00     0.002 A 
ATOM     15  C   UNL     1      -3.142   3.291   0.872  1.00  0.00     0.006 A 
ATOM     16  C   UNL     1      -3.408   4.311  -0.049  1.00  0.00     0.000 A 
BRANCH  12  17
ATOM     17  N   UNL     1       0.088   2.085  -0.447  1.00  0.00    -0.355 N 
ATOM     18  H   UNL     1       0.925   2.543  -0.689  1.00  0.00     0.167 HD
BRANCH  17  19
ATOM     19  C   UNL     1       0.145   0.673  -0.528  1.00  0.00     0.044 A 
ATOM     20  C   UNL     1       2.641   0.884  -0.047  1.00  0.00     0.046 C 
ATOM     21  C   UNL     1       1.390   0.063  -0.236  1.00  0.00    -0.027 A 
ATOM     22  C   UNL     1       1.462  -1.324  -0.042  1.00  0.00     0.005 A 
ATOM     23  C   UNL     1       0.323  -2.115  -0.143  1.00  0.00     0.001 A 
ATOM     24  C   UNL     1      -0.993  -0.156  -0.733  1.00  0.00    -0.027 A 
ATOM     25  C   UNL     1      -0.889  -1.538  -0.496  1.00  0.00     0.005 A 
ATOM     26  C   UNL     1      -2.363   0.343  -1.123  1.00  0.00     0.046 C 
ENDBRANCH  17  19
ENDBRANCH  12  17
ENDBRANCH  10  11
ENDBRANCH   8  10
ENDBRANCH   7   8
ENDBRANCH   6   7
ENDBRANCH   5   6
ENDBRANCH   4   5
ENDBRANCH   3   4
ENDBRANCH   2   3
ENDBRANCH   1   2
BRANCH   1  27
ATOM     27  C   UNL     1      -2.374   6.913   4.435  1.00  0.00     0.188 C 
BRANCH  27  28
ATOM     28  C   UNL     1      -3.695   6.937   5.216  1.00  0.00     0.188 C 
BRANCH  28  29
ATOM     29  O   UNL     1      -4.700   6.120   4.624  1.00  0.00    -0.376 OA
BRANCH  29  30
ATOM     30  C   UNL     1      -5.718   6.729   3.850  1.00  0.00     0.202 C 
BRANCH  30  31
ATOM     31  C   UNL     1      -5.355   7.334   2.482  1.00  0.00     0.261 C 
BRANCH  31  32
ATOM     32  O   UNL     1      -4.220   8.204   2.420  1.00  0.00    -0.460 OA
BRANCH  32  33
ATOM     33  C   UNL     1      -4.283   9.371   3.106  1.00  0.00     0.338 C 
ATOM     34  O   UNL     1      -5.215   9.777   3.757  1.00  0.00    -0.246 OA
BRANCH  33  35
ATOM     35  C   UNL     1      -2.919   9.964   3.092  1.00  0.00     0.060 A 
ATOM     36  C   UNL     1      -2.269  10.174   4.316  1.00  0.00     0.016 A 
ATOM     37  C   UNL     1      -2.270  10.261   1.891  1.00  0.00     0.016 A 
ATOM     38  C   UNL     1      -0.975  10.695   4.343  1.00  0.00     0.010 A 
ATOM     39  C   UNL     1      -0.989  10.823   1.921  1.00  0.00     0.010 A 
ATOM     40  C   UNL     1      -0.348  11.069   3.148  1.00  0.00    -0.014 A 
BRANCH  40  41
ATOM     41  C   UNL     1       0.860  11.928   3.201  1.00  0.00     0.031 A 
ATOM     42  C   UNL     1       0.661  13.418   3.120  1.00  0.00     0.074 A 
ATOM     43  C   UNL     1       2.093  11.413   3.350  1.00  0.00     0.049 A 
ATOM     44  N   UNL     1       1.549  14.377   3.110  1.00  0.00    -0.248 NA
ATOM     45  C   UNL     1      -0.733  13.887   3.039  1.00  0.00     0.031 C 
ATOM     46  C   UNL     1       2.406   9.992   3.489  1.00  0.00     0.029 A 
ATOM     47  N   UNL     1       3.317  12.034   3.401  1.00  0.00    -0.354 N 
ATOM     48  C   UNL     1       0.823  15.559   3.016  1.00  0.00     0.074 A 
ATOM     49  C   UNL     1      -0.574  15.197   2.941  1.00  0.00     0.031 C 
ATOM     50  C   UNL     1       3.740   9.849   3.593  1.00  0.00     0.029 A 
ATOM     51  C   UNL     1       4.376  11.163   3.495  1.00  0.00     0.049 A 
ATOM     52  H   UNL     1       3.425  13.012   3.372  1.00  0.00     0.167 HD
ATOM     53  C   UNL     1       1.281  16.832   2.999  1.00  0.00     0.037 A 
ATOM     54  C   UNL     1       5.704  11.401   3.479  1.00  0.00     0.037 A 
ATOM     55  C   UNL     1       2.675  17.183   3.064  1.00  0.00     0.049 A 
ATOM     56  C   UNL     1       6.195  12.825   3.379  1.00  0.00     0.074 A 
ATOM     57  C   UNL     1       3.244  18.444   3.065  1.00  0.00     0.029 A 
ATOM     58  N   UNL     1       3.719  16.272   3.125  1.00  0.00    -0.354 N 
ATOM     59  N   UNL     1       5.500  13.937   3.315  1.00  0.00    -0.248 NA
ATOM     60  C   UNL     1       7.651  13.028   3.354  1.00  0.00     0.031 C 
ATOM     61  C   UNL     1       4.634  18.294   3.065  1.00  0.00     0.029 A 
ATOM     62  C   UNL     1       4.931  16.941   3.133  1.00  0.00     0.049 A 
ATOM     63  H   UNL     1       3.614  15.294   3.158  1.00  0.00     0.167 HD
ATOM     64  C   UNL     1       6.433  14.970   3.273  1.00  0.00     0.074 A 
ATOM     65  C   UNL     1       7.741  14.351   3.331  1.00  0.00     0.031 C 
ATOM     66  C   UNL     1       6.226  16.310   3.199  1.00  0.00     0.037 A 
BRANCH  53  67
ATOM     67  C   UNL     1       0.267  17.935   2.870  1.00  0.00     0.058 A 
ATOM     68  C   UNL     1      -0.620  18.255   3.911  1.00  0.00     0.135 A 
ATOM     69  C   UNL     1       0.197  18.699   1.694  1.00  0.00     0.135 A 
ATOM     70  F   UNL     1      -0.614  17.542   5.049  1.00  0.00    -0.206 F 
ATOM     71  C   UNL     1      -1.555  19.277   3.782  1.00  0.00     0.059 A 
ATOM     72  C   UNL     1      -0.709  19.746   1.554  1.00  0.00     0.059 A 
ATOM     73  F   UNL     1       1.015  18.431   0.664  1.00  0.00    -0.206 F 
ATOM     74  C   UNL     1      -1.589  20.019   2.599  1.00  0.00     0.060 A 
BRANCH  74  75
ATOM     75  S   UNL     1      -2.802  21.348   2.451  1.00  0.00     0.124 S 
ATOM     76  O   UNL     1      -4.047  20.595   2.340  1.00  0.00    -0.237 OA
ATOM     77  O   UNL     1      -2.613  22.080   3.699  1.00  0.00    -0.237 OA
ATOM     78  O   UNL     1      -2.387  22.055   1.244  1.00  0.00    -0.744 OA
ENDBRANCH  74  75
ENDBRANCH  53  67
BRANCH  54  79
ATOM     79  C   UNL     1       6.668  10.268   3.540  1.00  0.00     0.058 A 
ATOM     80  C   UNL     1       7.502  10.077   4.652  1.00  0.00     0.135 A 
ATOM     81  C   UNL     1       6.783   9.356   2.478  1.00  0.00     0.135 A 
ATOM     82  F   UNL     1       7.444  10.930   5.686  1.00  0.00    -0.206 F 
ATOM     83  C   UNL     1       8.423   9.035   4.705  1.00  0.00     0.059 A 
ATOM     84  C   UNL     1       7.675   8.289   2.519  1.00  0.00     0.059 A 
ATOM     85  F   UNL     1       6.007   9.488   1.390  1.00  0.00    -0.206 F 
ATOM     86  C   UNL     1       8.499   8.142   3.634  1.00  0.00     0.060 A 
BRANCH  86  87
ATOM     87  S   UNL     1       9.663   6.765   3.734  1.00  0.00     0.124 S 
ATOM     88  O   UNL     1      10.943   7.450   3.592  1.00  0.00    -0.237 OA
ATOM     89  O   UNL     1       9.374   6.218   5.056  1.00  0.00    -0.237 OA
ATOM     90  O   UNL     1       9.275   5.915   2.613  1.00  0.00    -0.744 OA
ENDBRANCH  86  87
ENDBRANCH  54  79
BRANCH  66  91
ATOM     91  C   UNL     1       7.436  17.207   3.217  1.00  0.00     0.058 A 
ATOM     92  C   UNL     1       8.314  17.294   2.125  1.00  0.00     0.135 A 
ATOM     93  C   UNL     1       7.682  18.040   4.321  1.00  0.00     0.135 A 
ATOM     94  F   UNL     1       8.128  16.518   1.045  1.00  0.00    -0.206 F 
ATOM     95  C   UNL     1       9.407  18.155   2.138  1.00  0.00     0.059 A 
ATOM     96  C   UNL     1       8.750  18.932   4.342  1.00  0.00     0.059 A 
ATOM     97  F   UNL     1       6.867  18.009   5.388  1.00  0.00    -0.206 F 
ATOM     98  C   UNL     1       9.614  18.974   3.250  1.00  0.00     0.060 A 
BRANCH  98  99
ATOM     99  S   UNL     1      11.016  20.111   3.238  1.00  0.00     0.124 S 
ATOM    100  O   UNL     1      12.140  19.194   3.394  1.00  0.00    -0.237 OA
ATOM    101  O   UNL     1      10.892  20.744   1.929  1.00  0.00    -0.237 OA
ATOM    102  O   UNL     1      10.756  20.985   4.378  1.00  0.00    -0.744 OA
ENDBRANCH  98  99
ENDBRANCH  66  91
ENDBRANCH  40  41
ENDBRANCH  33  35
ENDBRANCH  32  33
ENDBRANCH  31  32
ENDBRANCH  30  31
ENDBRANCH  29  30
ENDBRANCH  28  29
ENDBRANCH  27  28
ENDBRANCH   1  27
TORSDOF 26
