REMARK SMILES O=C(OCCOCCOCCOCCOC(=O)c1ccn(-c2cc(-c3ccncc3)nc(-c3ccccc3F)n2)n1)c1ccc(-c2c3nc(c(-c4c(F)cc(S(=O)(=O)[O-])cc4F)c4ccc([nH]4)c(-c4c(F)cc(S(=O)(=O)[O-])cc4F)c4nc(c(-c5c(F)cc(S(=O)(=O)[O-])cc5F)c5ccc2[nH]5)C=C4)C=C3)cc1
REMARK SMILES IDX 8 1 7 2 6 3 5 4 4 5 3 6 2 7 1 8 42 9 43 10 107 11 44 12
REMARK SMILES IDX 106 13 45 14 46 15 47 16 100 17 48 18 105 19 99 20 101 21
REMARK SMILES IDX 49 22 104 23 98 24 97 25 50 27 84 28 63 29 83 30 64 31 67 32
REMARK SMILES IDX 82 33 102 34 65 35 66 36 81 38 103 39 68 40 51 41 52 42
REMARK SMILES IDX 61 43 53 44 54 45 60 46 62 47 55 48 56 49 57 50 58 51 59 52
REMARK SMILES IDX 85 53 86 54 95 55 87 56 88 57 94 58 96 59 89 60 90 61 91 62
REMARK SMILES IDX 92 63 93 64 69 65 70 66 79 67 71 68 72 69 78 70 80 71 73 72
REMARK SMILES IDX 74 73 75 74 76 75 77 76 9 77 10 78 11 79 12 80 13 81 14 82
REMARK SMILES IDX 15 83 16 84 17 85 18 86 19 87 41 88 20 89 21 90 22 91 23 92
REMARK SMILES IDX 40 93 24 94 32 95 31 96 25 97 26 98 30 99 27 100 29 101
REMARK SMILES IDX 28 102 33 103 34 104 38 105 35 106 37 107 39 108 36 109
REMARK H PARENT 101 26 67 37
REMARK Flexibility Score: inf
ROOT
ATOM      1  C   UNL     1       2.271   1.433   1.345  1.00  0.00     0.188 C 
ENDROOT
BRANCH   1   2
ATOM      2  C   UNL     1       3.048   0.118   1.562  1.00  0.00     0.188 C 
BRANCH   2   3
ATOM      3  O   UNL     1       4.422  -0.022   1.259  1.00  0.00    -0.376 OA
BRANCH   3   4
ATOM      4  C   UNL     1       5.123   0.142   0.044  1.00  0.00     0.202 C 
BRANCH   4   5
ATOM      5  C   UNL     1       4.540   0.364  -1.353  1.00  0.00     0.261 C 
BRANCH   5   6
ATOM      6  O   UNL     1       3.169   0.708  -1.437  1.00  0.00    -0.460 OA
BRANCH   6   7
ATOM      7  C   UNL     1       2.102  -0.113  -1.469  1.00  0.00     0.338 C 
ATOM      8  O   UNL     1       0.995   0.388  -1.659  1.00  0.00    -0.246 OA
BRANCH   7   9
ATOM      9  C   UNL     1       2.164  -1.564  -1.155  1.00  0.00     0.060 A 
ATOM     10  C   UNL     1       3.285  -2.387  -1.263  1.00  0.00     0.016 A 
ATOM     11  C   UNL     1       0.935  -2.128  -0.759  1.00  0.00     0.016 A 
ATOM     12  C   UNL     1       3.134  -3.755  -1.223  1.00  0.00     0.010 A 
ATOM     13  C   UNL     1       0.784  -3.495  -0.678  1.00  0.00     0.010 A 
ATOM     14  C   UNL     1       1.863  -4.287  -1.035  1.00  0.00    -0.014 A 
BRANCH  14  15
ATOM     15  C   UNL     1       1.711  -5.703  -1.282  1.00  0.00     0.031 A 
ATOM     16  C   UNL     1       2.496  -6.561  -0.363  1.00  0.00     0.074 A 
ATOM     17  C   UNL     1       0.925  -6.129  -2.290  1.00  0.00     0.049 A 
ATOM     18  N   UNL     1       3.505  -7.319  -0.646  1.00  0.00    -0.248 NA
ATOM     19  C   UNL     1       2.254  -6.399   1.079  1.00  0.00     0.031 C 
ATOM     20  C   UNL     1      -0.019  -5.353  -3.103  1.00  0.00     0.029 A 
ATOM     21  N   UNL     1       0.743  -7.392  -2.747  1.00  0.00    -0.354 N 
ATOM     22  C   UNL     1       3.864  -7.922   0.557  1.00  0.00     0.074 A 
ATOM     23  C   UNL     1       3.202  -7.181   1.596  1.00  0.00     0.031 C 
ATOM     24  C   UNL     1      -0.842  -6.198  -3.764  1.00  0.00     0.029 A 
ATOM     25  C   UNL     1      -0.386  -7.556  -3.541  1.00  0.00     0.049 A 
ATOM     26  H   UNL     1       1.359  -8.131  -2.534  1.00  0.00     0.167 HD
ATOM     27  C   UNL     1       4.465  -9.143   0.579  1.00  0.00     0.037 A 
ATOM     28  C   UNL     1      -0.937  -8.748  -3.885  1.00  0.00     0.037 A 
ATOM     29  C   UNL     1       5.122  -9.421  -0.673  1.00  0.00     0.049 A 
ATOM     30  C   UNL     1       0.140  -9.768  -3.733  1.00  0.00     0.074 A 
ATOM     31  C   UNL     1       6.145  -8.814  -1.377  1.00  0.00     0.029 A 
ATOM     32  N   UNL     1       4.480 -10.234  -1.577  1.00  0.00    -0.354 N 
ATOM     33  N   UNL     1       1.222  -9.787  -4.469  1.00  0.00    -0.248 NA
ATOM     34  C   UNL     1       0.252 -10.440  -2.446  1.00  0.00     0.031 C 
ATOM     35  C   UNL     1       5.758  -8.907  -2.745  1.00  0.00     0.029 A 
ATOM     36  C   UNL     1       4.564  -9.627  -2.805  1.00  0.00     0.049 A 
ATOM     37  H   UNL     1       4.042 -11.092  -1.379  1.00  0.00     0.167 HD
ATOM     38  C   UNL     1       2.250 -10.108  -3.591  1.00  0.00     0.074 A 
ATOM     39  C   UNL     1       1.581 -10.549  -2.369  1.00  0.00     0.031 C 
ATOM     40  C   UNL     1       3.539  -9.719  -3.825  1.00  0.00     0.037 A 
BRANCH  27  41
ATOM     41  C   UNL     1       4.115 -10.216   1.585  1.00  0.00     0.058 A 
ATOM     42  C   UNL     1       2.927 -10.221   2.352  1.00  0.00     0.135 A 
ATOM     43  C   UNL     1       4.836 -11.429   1.583  1.00  0.00     0.135 A 
ATOM     44  F   UNL     1       2.091  -9.178   2.400  1.00  0.00    -0.206 F 
ATOM     45  C   UNL     1       2.474 -11.337   3.039  1.00  0.00     0.059 A 
ATOM     46  C   UNL     1       4.371 -12.580   2.225  1.00  0.00     0.059 A 
ATOM     47  F   UNL     1       5.977 -11.544   0.886  1.00  0.00    -0.206 F 
ATOM     48  C   UNL     1       3.180 -12.524   2.941  1.00  0.00     0.060 A 
BRANCH  48  49
ATOM     49  S   UNL     1       2.446 -13.989   3.683  1.00  0.00     0.124 S 
ATOM     50  O   UNL     1       2.521 -13.663   5.103  1.00  0.00    -0.237 OA
ATOM     51  O   UNL     1       1.110 -13.983   3.097  1.00  0.00    -0.237 OA
ATOM     52  O   UNL     1       3.323 -15.066   3.235  1.00  0.00    -0.744 OA
ENDBRANCH  48  49
ENDBRANCH  27  41
BRANCH  28  53
ATOM     53  C   UNL     1      -2.388  -9.088  -3.844  1.00  0.00     0.058 A 
ATOM     54  C   UNL     1      -3.296  -8.370  -3.037  1.00  0.00     0.135 A 
ATOM     55  C   UNL     1      -2.865 -10.297  -4.380  1.00  0.00     0.135 A 
ATOM     56  F   UNL     1      -2.939  -7.228  -2.430  1.00  0.00    -0.206 F 
ATOM     57  C   UNL     1      -4.574  -8.839  -2.743  1.00  0.00     0.059 A 
ATOM     58  C   UNL     1      -4.144 -10.793  -4.094  1.00  0.00     0.059 A 
ATOM     59  F   UNL     1      -2.062 -11.054  -5.145  1.00  0.00    -0.206 F 
ATOM     60  C   UNL     1      -4.981 -10.067  -3.250  1.00  0.00     0.060 A 
BRANCH  60  61
ATOM     61  S   UNL     1      -6.579 -10.714  -2.707  1.00  0.00     0.124 S 
ATOM     62  O   UNL     1      -6.378 -10.838  -1.267  1.00  0.00    -0.237 OA
ATOM     63  O   UNL     1      -7.493  -9.655  -3.127  1.00  0.00    -0.237 OA
ATOM     64  O   UNL     1      -6.705 -11.972  -3.435  1.00  0.00    -0.744 OA
ENDBRANCH  60  61
ENDBRANCH  28  53
BRANCH  40  65
ATOM     65  C   UNL     1       3.886  -9.128  -5.171  1.00  0.00     0.058 A 
ATOM     66  C   UNL     1       4.897  -9.746  -5.920  1.00  0.00     0.135 A 
ATOM     67  C   UNL     1       3.408  -7.890  -5.640  1.00  0.00     0.135 A 
ATOM     68  F   UNL     1       5.437 -10.900  -5.496  1.00  0.00    -0.206 F 
ATOM     69  C   UNL     1       5.425  -9.164  -7.068  1.00  0.00     0.059 A 
ATOM     70  C   UNL     1       3.900  -7.301  -6.809  1.00  0.00     0.059 A 
ATOM     71  F   UNL     1       2.510  -7.188  -4.933  1.00  0.00    -0.206 F 
ATOM     72  C   UNL     1       4.924  -7.939  -7.506  1.00  0.00     0.060 A 
BRANCH  72  73
ATOM     73  S   UNL     1       5.668  -7.194  -8.973  1.00  0.00     0.124 S 
ATOM     74  O   UNL     1       7.019  -6.893  -8.505  1.00  0.00    -0.237 OA
ATOM     75  O   UNL     1       5.568  -8.270  -9.954  1.00  0.00    -0.237 OA
ATOM     76  O   UNL     1       4.829  -6.029  -9.237  1.00  0.00    -0.744 OA
ENDBRANCH  72  73
ENDBRANCH  40  65
ENDBRANCH  14  15
ENDBRANCH   7   9
ENDBRANCH   6   7
ENDBRANCH   5   6
ENDBRANCH   4   5
ENDBRANCH   3   4
ENDBRANCH   2   3
ENDBRANCH   1   2
BRANCH   1  77
ATOM     77  O   UNL     1       2.812   2.607   1.925  1.00  0.00    -0.377 OA
BRANCH  77  78
ATOM     78  C   UNL     1       4.130   2.892   1.511  1.00  0.00     0.188 C 
BRANCH  78  79
ATOM     79  C   UNL     1       5.208   2.575   2.570  1.00  0.00     0.188 C 
BRANCH  79  80
ATOM     80  O   UNL     1       4.885   1.923   3.793  1.00  0.00    -0.376 OA
BRANCH  80  81
ATOM     81  C   UNL     1       3.663   2.179   4.464  1.00  0.00     0.202 C 
BRANCH  81  82
ATOM     82  C   UNL     1       3.245   3.618   4.805  1.00  0.00     0.261 C 
BRANCH  82  83
ATOM     83  O   UNL     1       3.467   4.593   3.779  1.00  0.00    -0.458 OA
BRANCH  83  84
ATOM     84  C   UNL     1       4.602   5.349   3.900  1.00  0.00     0.358 C 
ATOM     85  O   UNL     1       5.346   5.345   4.858  1.00  0.00    -0.244 OA
BRANCH  84  86
ATOM     86  C   UNL     1       4.832   6.165   2.693  1.00  0.00     0.170 A 
ATOM     87  C   UNL     1       4.230   7.411   2.405  1.00  0.00     0.058 A 
ATOM     88  N   UNL     1       5.666   5.785   1.696  1.00  0.00    -0.159 NA
ATOM     89  C   UNL     1       4.834   7.839   1.250  1.00  0.00     0.118 A 
ATOM     90  N   UNL     1       5.659   6.823   0.829  1.00  0.00    -0.222 N 
BRANCH  90  91
ATOM     91  C   UNL     1       6.529   6.891  -0.289  1.00  0.00     0.158 A 
ATOM     92  C   UNL     1       6.375   5.999  -1.338  1.00  0.00     0.078 A 
ATOM     93  N   UNL     1       7.394   7.925  -0.307  1.00  0.00    -0.209 NA
ATOM     94  C   UNL     1       7.156   6.256  -2.454  1.00  0.00     0.077 A 
ATOM     95  C   UNL     1       8.170   8.024  -1.391  1.00  0.00     0.165 A 
ATOM     96  N   UNL     1       8.086   7.236  -2.471  1.00  0.00    -0.228 NA
BRANCH  94  97
ATOM     97  C   UNL     1       7.002   5.572  -3.750  1.00  0.00     0.003 A 
ATOM     98  C   UNL     1       5.783   5.572  -4.440  1.00  0.00     0.030 A 
ATOM     99  C   UNL     1       8.110   5.006  -4.396  1.00  0.00     0.030 A 
ATOM    100  C   UNL     1       5.729   5.023  -5.715  1.00  0.00     0.111 A 
ATOM    101  C   UNL     1       7.956   4.472  -5.666  1.00  0.00     0.111 A 
ATOM    102  N   UNL     1       6.789   4.472  -6.340  1.00  0.00    -0.265 NA
ENDBRANCH  94  97
BRANCH  95 103
ATOM    103  C   UNL     1       9.215   9.031  -1.358  1.00  0.00     0.055 A 
ATOM    104  C   UNL     1      10.275   8.936  -0.438  1.00  0.00     0.015 A 
ATOM    105  C   UNL     1       9.184  10.132  -2.216  1.00  0.00     0.134 A 
ATOM    106  C   UNL     1      11.270   9.916  -0.388  1.00  0.00     0.001 A 
ATOM    107  C   UNL     1      10.169  11.116  -2.167  1.00  0.00     0.040 A 
ATOM    108  F   UNL     1       8.177  10.283  -3.090  1.00  0.00    -0.206 F 
ATOM    109  C   UNL     1      11.215  11.008  -1.252  1.00  0.00     0.003 A 
ENDBRANCH  95 103
ENDBRANCH  90  91
ENDBRANCH  84  86
ENDBRANCH  83  84
ENDBRANCH  82  83
ENDBRANCH  81  82
ENDBRANCH  80  81
ENDBRANCH  79  80
ENDBRANCH  78  79
ENDBRANCH  77  78
ENDBRANCH   1  77
TORSDOF 26
