REMARK SMILES Cc1ccc2c(c1)C=C(C(=O)OCCOCCOCCOCCOC(=O)c1ccc(-c3c4nc(c(-c5c(F)cc(S(=O)(=O)[O-])cc5F)c5ccc([nH]5)c(-c5c(F)cc(S(=O)(=O)[O-])cc5F)c5nc(c(-c6c(F)cc(S(=O)(=O)[O-])cc6F)c6ccc3[nH]6)C=C5)C=C4)cc1)[C@@H](C(F)(F)F)O2
REMARK SMILES IDX 19 1 18 2 17 3 16 4 15 5 14 6 13 7 12 8 10 9 11 10 9 11 1 12
REMARK SMILES IDX 2 13 3 14 7 15 4 16 6 17 5 18 8 19 98 20 93 21 94 22 95 23
REMARK SMILES IDX 96 24 97 25 20 26 21 27 22 28 23 29 24 30 25 31 26 32 27 33
REMARK SMILES IDX 28 34 92 35 29 36 91 37 30 38 31 39 32 40 85 41 33 42 90 43
REMARK SMILES IDX 84 44 86 45 34 46 89 47 83 48 82 49 35 51 69 52 48 53 68 54
REMARK SMILES IDX 49 55 52 56 67 57 87 58 50 59 51 60 66 62 88 63 53 64 36 65
REMARK SMILES IDX 37 66 46 67 38 68 39 69 45 70 47 71 40 72 41 73 42 74 43 75
REMARK SMILES IDX 44 76 70 77 71 78 80 79 72 80 73 81 79 82 81 83 74 84 75 85
REMARK SMILES IDX 76 86 77 87 78 88 54 89 55 90 64 91 56 92 57 93 63 94 65 95
REMARK SMILES IDX 58 96 59 97 60 98 61 99 62 100
REMARK H PARENT 86 50 52 61
REMARK Flexibility Score: inf
ROOT
ATOM      1  C   UNL     1       0.491   1.430  10.133  1.00  0.00     0.188 C 
ENDROOT
BRANCH   1   2
ATOM      2  O   UNL     1      -0.167   0.901   8.982  1.00  0.00    -0.377 OA
BRANCH   2   3
ATOM      3  C   UNL     1       0.258   1.398   7.721  1.00  0.00     0.188 C 
BRANCH   3   4
ATOM      4  C   UNL     1      -0.568   2.617   7.272  1.00  0.00     0.188 C 
BRANCH   4   5
ATOM      5  O   UNL     1      -1.311   3.213   8.322  1.00  0.00    -0.376 OA
BRANCH   5   6
ATOM      6  C   UNL     1      -2.615   2.750   8.649  1.00  0.00     0.202 C 
BRANCH   6   7
ATOM      7  C   UNL     1      -3.071   1.279   8.571  1.00  0.00     0.261 C 
BRANCH   7   8
ATOM      8  O   UNL     1      -2.488   0.457   7.557  1.00  0.00    -0.460 OA
BRANCH   8   9
ATOM      9  C   UNL     1      -2.917   0.603   6.292  1.00  0.00     0.338 C 
ATOM     10  O   UNL     1      -3.772   1.372   5.891  1.00  0.00    -0.246 OA
BRANCH   9  11
ATOM     11  C   UNL     1      -2.023  -0.207   5.431  1.00  0.00     0.087 C 
ATOM     12  C   UNL     1       1.097  -0.002   0.116  1.00  0.00     0.044 C 
ATOM     13  C   UNL     1       0.613  -0.579   1.412  1.00  0.00    -0.050 A 
ATOM     14  C   UNL     1       0.922  -1.901   1.753  1.00  0.00     0.007 A 
ATOM     15  C   UNL     1      -0.171   0.184   2.288  1.00  0.00     0.015 A 
ATOM     16  C   UNL     1       0.467  -2.444   2.956  1.00  0.00     0.047 A 
ATOM     17  C   UNL     1      -0.662  -0.374   3.474  1.00  0.00     0.017 A 
ATOM     18  C   UNL     1      -0.323  -1.681   3.817  1.00  0.00     0.128 A 
ATOM     19  C   UNL     1      -1.562   0.386   4.323  1.00  0.00     0.027 C 
ATOM     20  O   UNL     1      -0.728  -2.298   4.964  1.00  0.00    -0.475 OA
ATOM     21  C   UNL     1      -1.613  -1.590   5.878  1.00  0.00     0.316 C 
BRANCH  21  22
ATOM     22  C   UNL     1      -2.826  -2.488   6.160  1.00  0.00     0.430 C 
ATOM     23  F   UNL     1      -2.442  -3.744   6.488  1.00  0.00    -0.167 F 
ATOM     24  F   UNL     1      -3.572  -2.022   7.186  1.00  0.00    -0.167 F 
ATOM     25  F   UNL     1      -3.636  -2.581   5.080  1.00  0.00    -0.167 F 
ENDBRANCH  21  22
ENDBRANCH   9  11
ENDBRANCH   8   9
ENDBRANCH   7   8
ENDBRANCH   6   7
ENDBRANCH   5   6
ENDBRANCH   4   5
ENDBRANCH   3   4
ENDBRANCH   2   3
ENDBRANCH   1   2
BRANCH   1  26
ATOM     26  C   UNL     1       0.888   2.923  10.176  1.00  0.00     0.188 C 
BRANCH  26  27
ATOM     27  O   UNL     1       1.644   3.347   9.042  1.00  0.00    -0.376 OA
BRANCH  27  28
ATOM     28  C   UNL     1       3.030   3.591   9.234  1.00  0.00     0.202 C 
BRANCH  28  29
ATOM     29  C   UNL     1       3.893   2.327   9.333  1.00  0.00     0.261 C 
BRANCH  29  30
ATOM     30  O   UNL     1       3.590   1.462  10.436  1.00  0.00    -0.460 OA
BRANCH  30  31
ATOM     31  C   UNL     1       3.674   1.975  11.683  1.00  0.00     0.338 C 
ATOM     32  O   UNL     1       4.034   3.097  11.993  1.00  0.00    -0.246 OA
BRANCH  31  33
ATOM     33  C   UNL     1       3.064   0.994  12.606  1.00  0.00     0.060 A 
ATOM     34  C   UNL     1       3.415  -0.355  12.527  1.00  0.00     0.016 A 
ATOM     35  C   UNL     1       2.113   1.427  13.539  1.00  0.00     0.016 A 
ATOM     36  C   UNL     1       2.840  -1.268  13.409  1.00  0.00     0.010 A 
ATOM     37  C   UNL     1       1.540   0.511  14.426  1.00  0.00     0.010 A 
ATOM     38  C   UNL     1       1.922  -0.838  14.384  1.00  0.00    -0.014 A 
BRANCH  38  39
ATOM     39  C   UNL     1       1.533  -1.781  15.460  1.00  0.00     0.031 A 
ATOM     40  C   UNL     1       0.200  -2.463  15.484  1.00  0.00     0.074 A 
ATOM     41  C   UNL     1       2.449  -2.045  16.413  1.00  0.00     0.049 A 
ATOM     42  N   UNL     1      -0.202  -3.438  16.258  1.00  0.00    -0.248 NA
ATOM     43  C   UNL     1      -0.813  -1.990  14.532  1.00  0.00     0.031 C 
ATOM     44  C   UNL     1       3.761  -1.399  16.509  1.00  0.00     0.029 A 
ATOM     45  N   UNL     1       2.437  -2.933  17.457  1.00  0.00    -0.354 N 
ATOM     46  C   UNL     1      -1.504  -3.722  15.869  1.00  0.00     0.074 A 
ATOM     47  C   UNL     1      -1.844  -2.773  14.828  1.00  0.00     0.031 C 
ATOM     48  C   UNL     1       4.447  -1.949  17.523  1.00  0.00     0.029 A 
ATOM     49  C   UNL     1       3.618  -2.967  18.160  1.00  0.00     0.049 A 
ATOM     50  H   UNL     1       1.658  -3.492  17.681  1.00  0.00     0.167 HD
ATOM     51  C   UNL     1      -2.323  -4.700  16.327  1.00  0.00     0.037 A 
ATOM     52  C   UNL     1       4.002  -3.745  19.189  1.00  0.00     0.037 A 
ATOM     53  C   UNL     1      -1.972  -5.625  17.376  1.00  0.00     0.049 A 
ATOM     54  C   UNL     1       3.061  -4.798  19.701  1.00  0.00     0.074 A 
ATOM     55  C   UNL     1      -2.714  -6.683  17.872  1.00  0.00     0.029 A 
ATOM     56  N   UNL     1      -0.790  -5.594  18.103  1.00  0.00    -0.354 N 
ATOM     57  N   UNL     1       1.873  -5.125  19.252  1.00  0.00    -0.248 NA
ATOM     58  C   UNL     1       3.507  -5.588  20.856  1.00  0.00     0.031 C 
ATOM     59  C   UNL     1      -2.006  -7.257  18.933  1.00  0.00     0.029 A 
ATOM     60  C   UNL     1      -0.800  -6.589  19.068  1.00  0.00     0.049 A 
ATOM     61  H   UNL     1      -0.053  -4.959  17.955  1.00  0.00     0.167 HD
ATOM     62  C   UNL     1       1.433  -6.165  20.062  1.00  0.00     0.074 A 
ATOM     63  C   UNL     1       2.491  -6.426  21.017  1.00  0.00     0.031 C 
ATOM     64  C   UNL     1       0.257  -6.836  20.019  1.00  0.00     0.037 A 
BRANCH  51  65
ATOM     65  C   UNL     1      -3.678  -4.843  15.688  1.00  0.00     0.058 A 
ATOM     66  C   UNL     1      -3.818  -5.345  14.384  1.00  0.00     0.135 A 
ATOM     67  C   UNL     1      -4.850  -4.561  16.408  1.00  0.00     0.135 A 
ATOM     68  F   UNL     1      -2.730  -5.628  13.649  1.00  0.00    -0.206 F 
ATOM     69  C   UNL     1      -5.069  -5.544  13.810  1.00  0.00     0.059 A 
ATOM     70  C   UNL     1      -6.114  -4.775  15.863  1.00  0.00     0.059 A 
ATOM     71  F   UNL     1      -4.776  -4.084  17.661  1.00  0.00    -0.206 F 
ATOM     72  C   UNL     1      -6.212  -5.258  14.559  1.00  0.00     0.060 A 
BRANCH  72  73
ATOM     73  S   UNL     1      -7.827  -5.534  13.799  1.00  0.00     0.124 S 
ATOM     74  O   UNL     1      -7.853  -4.485  12.784  1.00  0.00    -0.237 OA
ATOM     75  O   UNL     1      -7.704  -6.899  13.296  1.00  0.00    -0.237 OA
ATOM     76  O   UNL     1      -8.761  -5.357  14.906  1.00  0.00    -0.744 OA
ENDBRANCH  72  73
ENDBRANCH  51  65
BRANCH  52  77
ATOM     77  C   UNL     1       5.361  -3.578  19.765  1.00  0.00     0.058 A 
ATOM     78  C   UNL     1       6.353  -4.549  19.565  1.00  0.00     0.135 A 
ATOM     79  C   UNL     1       5.709  -2.424  20.485  1.00  0.00     0.135 A 
ATOM     80  F   UNL     1       6.067  -5.669  18.885  1.00  0.00    -0.206 F 
ATOM     81  C   UNL     1       7.641  -4.385  20.062  1.00  0.00     0.059 A 
ATOM     82  C   UNL     1       6.997  -2.226  20.970  1.00  0.00     0.059 A 
ATOM     83  F   UNL     1       4.800  -1.457  20.686  1.00  0.00    -0.206 F 
ATOM     84  C   UNL     1       7.955  -3.216  20.759  1.00  0.00     0.060 A 
BRANCH  84  85
ATOM     85  S   UNL     1       9.647  -2.993  21.349  1.00  0.00     0.124 S 
ATOM     86  O   UNL     1       9.721  -3.988  22.413  1.00  0.00    -0.237 OA
ATOM     87  O   UNL     1      10.427  -3.280  20.150  1.00  0.00    -0.237 OA
ATOM     88  O   UNL     1       9.670  -1.600  21.785  1.00  0.00    -0.744 OA
ENDBRANCH  84  85
ENDBRANCH  52  77
BRANCH  64  89
ATOM     89  C   UNL     1       0.029  -7.915  21.042  1.00  0.00     0.058 A 
ATOM     90  C   UNL     1      -0.269  -7.598  22.376  1.00  0.00     0.135 A 
ATOM     91  C   UNL     1      -0.002  -9.267  20.665  1.00  0.00     0.135 A 
ATOM     92  F   UNL     1      -0.239  -6.322  22.791  1.00  0.00    -0.206 F 
ATOM     93  C   UNL     1      -0.597  -8.585  23.300  1.00  0.00     0.059 A 
ATOM     94  C   UNL     1      -0.352 -10.268  21.566  1.00  0.00     0.059 A 
ATOM     95  F   UNL     1       0.272  -9.622  19.399  1.00  0.00    -0.206 F 
ATOM     96  C   UNL     1      -0.651  -9.916  22.882  1.00  0.00     0.060 A 
BRANCH  96  97
ATOM     97  S   UNL     1      -1.168 -11.170  24.073  1.00  0.00     0.124 S 
ATOM     98  O   UNL     1      -0.031 -11.198  24.987  1.00  0.00    -0.237 OA
ATOM     99  O   UNL     1      -2.399 -10.598  24.610  1.00  0.00    -0.237 OA
ATOM    100  O   UNL     1      -1.344 -12.367  23.255  1.00  0.00    -0.744 OA
ENDBRANCH  96  97
ENDBRANCH  64  89
ENDBRANCH  38  39
ENDBRANCH  31  33
ENDBRANCH  30  31
ENDBRANCH  29  30
ENDBRANCH  28  29
ENDBRANCH  27  28
ENDBRANCH  26  27
ENDBRANCH   1  26
TORSDOF 24
