REMARK SMILES Cc1cc(C)c2c(OCCCC(=O)OCCOCCOCCOCCOC(=O)c3ccc(-c4c5nc(c(-c6c(F)cc(S(=O)(=O)[O-])cc6F)c6ccc([nH]6)c(-c6c(F)cc(S(=O)(=O)[O-])cc6F)c6nc(c(-c7c(F)cc(S(=O)(=O)[O-])cc7F)c7ccc4[nH]7)C=C6)C=C5)cc3)nsc2n1
REMARK SMILES IDX 19 1 18 2 17 3 16 4 15 5 14 6 12 7 13 8 11 9 10 10 9 11 8 12
REMARK SMILES IDX 7 13 1 14 2 15 3 16 98 17 4 18 97 19 5 20 6 21 96 22 95 23
REMARK SMILES IDX 20 24 21 25 22 26 23 27 24 28 25 29 26 30 27 31 28 32 29 33
REMARK SMILES IDX 30 34 94 35 31 36 93 37 32 38 33 39 34 40 87 41 35 42 92 43
REMARK SMILES IDX 86 44 88 45 36 46 91 47 85 48 84 49 37 51 71 52 50 53 70 54
REMARK SMILES IDX 51 55 54 56 69 57 89 58 52 59 53 60 68 62 90 63 55 64 38 65
REMARK SMILES IDX 39 66 48 67 40 68 41 69 47 70 49 71 42 72 43 73 44 74 45 75
REMARK SMILES IDX 46 76 72 77 73 78 82 79 74 80 75 81 81 82 83 83 76 84 77 85
REMARK SMILES IDX 78 86 79 87 80 88 56 89 57 90 66 91 58 92 59 93 65 94 67 95
REMARK SMILES IDX 60 96 61 97 62 98 63 99 64 100
REMARK H PARENT 88 50 54 61
REMARK Flexibility Score: inf
ROOT
ATOM      1  C   UNL     1       2.057  -5.934  -0.041  1.00  0.00     0.188 C 
ENDROOT
BRANCH   1   2
ATOM      2  C   UNL     1       2.135  -5.023  -1.288  1.00  0.00     0.188 C 
BRANCH   2   3
ATOM      3  O   UNL     1       3.274  -4.192  -1.469  1.00  0.00    -0.376 OA
BRANCH   3   4
ATOM      4  C   UNL     1       3.635  -3.341  -0.400  1.00  0.00     0.202 C 
BRANCH   4   5
ATOM      5  C   UNL     1       2.514  -2.586   0.311  1.00  0.00     0.261 C 
BRANCH   5   6
ATOM      6  O   UNL     1       1.440  -3.367   0.921  1.00  0.00    -0.463 OA
BRANCH   6   7
ATOM      7  C   UNL     1       0.176  -3.106   0.518  1.00  0.00     0.305 C 
ATOM      8  O   UNL     1      -0.075  -2.328  -0.402  1.00  0.00    -0.252 OA
BRANCH   7   9
ATOM      9  C   UNL     1      -0.979  -3.766   1.284  1.00  0.00     0.126 C 
BRANCH   9  10
ATOM     10  C   UNL     1      -1.002  -5.053   2.124  1.00  0.00     0.053 C 
BRANCH  10  11
ATOM     11  C   UNL     1      -0.485  -5.195   3.570  1.00  0.00     0.232 C 
BRANCH  11  12
ATOM     12  O   UNL     1      -1.080  -4.507   4.664  1.00  0.00    -0.477 OA
BRANCH  12  13
ATOM     13  C   UNL     1      -1.230  -3.170   4.588  1.00  0.00     0.235 A 
ATOM     14  C   UNL     1       0.464   0.824   1.223  1.00  0.00     0.067 C 
ATOM     15  C   UNL     1       0.285  -0.019   2.456  1.00  0.00     0.039 A 
ATOM     16  C   UNL     1       1.271  -0.930   2.815  1.00  0.00     0.027 A 
ATOM     17  N   UNL     1      -0.918   0.026   3.046  1.00  0.00    -0.240 NA
ATOM     18  C   UNL     1       0.976  -2.056   3.611  1.00  0.00    -0.034 A 
ATOM     19  C   UNL     1      -1.170  -1.030   3.841  1.00  0.00     0.147 A 
ATOM     20  C   UNL     1       2.041  -3.099   3.827  1.00  0.00     0.045 C 
ATOM     21  C   UNL     1      -0.366  -2.151   4.054  1.00  0.00     0.078 A 
ATOM     22  S   UNL     1      -2.625  -1.190   4.708  1.00  0.00    -0.012 S 
ATOM     23  N   UNL     1      -2.394  -2.779   5.107  1.00  0.00    -0.153 NA
ENDBRANCH  12  13
ENDBRANCH  11  12
ENDBRANCH  10  11
ENDBRANCH   9  10
ENDBRANCH   7   9
ENDBRANCH   6   7
ENDBRANCH   5   6
ENDBRANCH   4   5
ENDBRANCH   3   4
ENDBRANCH   2   3
ENDBRANCH   1   2
BRANCH   1  24
ATOM     24  O   UNL     1       2.934  -5.586   1.015  1.00  0.00    -0.377 OA
BRANCH  24  25
ATOM     25  C   UNL     1       4.184  -6.269   1.044  1.00  0.00     0.188 C 
BRANCH  25  26
ATOM     26  C   UNL     1       4.952  -6.557  -0.278  1.00  0.00     0.188 C 
BRANCH  26  27
ATOM     27  O   UNL     1       4.186  -6.779  -1.449  1.00  0.00    -0.376 OA
BRANCH  27  28
ATOM     28  C   UNL     1       3.675  -7.981  -2.003  1.00  0.00     0.202 C 
BRANCH  28  29
ATOM     29  C   UNL     1       3.132  -9.162  -1.198  1.00  0.00     0.261 C 
BRANCH  29  30
ATOM     30  O   UNL     1       3.487  -9.112   0.157  1.00  0.00    -0.460 OA
BRANCH  30  31
ATOM     31  C   UNL     1       4.794  -9.401   0.321  1.00  0.00     0.338 C 
ATOM     32  O   UNL     1       5.600  -9.663  -0.546  1.00  0.00    -0.246 OA
BRANCH  31  33
ATOM     33  C   UNL     1       5.095  -9.323   1.759  1.00  0.00     0.060 A 
ATOM     34  C   UNL     1       6.434  -9.567   2.029  1.00  0.00     0.016 A 
ATOM     35  C   UNL     1       4.049  -9.675   2.625  1.00  0.00     0.016 A 
ATOM     36  C   UNL     1       6.665 -10.657   2.812  1.00  0.00     0.010 A 
ATOM     37  C   UNL     1       4.285 -10.735   3.440  1.00  0.00     0.010 A 
ATOM     38  C   UNL     1       5.549 -11.303   3.356  1.00  0.00    -0.014 A 
BRANCH  38  39
ATOM     39  C   UNL     1       5.729 -12.646   3.821  1.00  0.00     0.031 A 
ATOM     40  C   UNL     1       6.362 -12.644   5.143  1.00  0.00     0.074 A 
ATOM     41  C   UNL     1       5.310 -13.704   3.106  1.00  0.00     0.049 A 
ATOM     42  N   UNL     1       7.602 -12.876   5.405  1.00  0.00    -0.248 NA
ATOM     43  C   UNL     1       5.607 -12.011   6.237  1.00  0.00     0.031 C 
ATOM     44  C   UNL     1       4.473 -13.759   1.903  1.00  0.00     0.029 A 
ATOM     45  N   UNL     1       5.503 -15.012   3.402  1.00  0.00    -0.354 N 
ATOM     46  C   UNL     1       7.712 -12.655   6.766  1.00  0.00     0.074 A 
ATOM     47  C   UNL     1       6.562 -11.881   7.156  1.00  0.00     0.031 C 
ATOM     48  C   UNL     1       4.030 -15.028   1.728  1.00  0.00     0.029 A 
ATOM     49  C   UNL     1       4.664 -15.885   2.714  1.00  0.00     0.049 A 
ATOM     50  H   UNL     1       6.178 -15.319   4.049  1.00  0.00     0.167 HD
ATOM     51  C   UNL     1       8.570 -13.377   7.529  1.00  0.00     0.037 A 
ATOM     52  C   UNL     1       4.467 -17.178   3.083  1.00  0.00     0.037 A 
ATOM     53  C   UNL     1       9.549 -14.064   6.728  1.00  0.00     0.049 A 
ATOM     54  C   UNL     1       5.649 -17.552   3.924  1.00  0.00     0.074 A 
ATOM     55  C   UNL     1      10.559 -13.643   5.885  1.00  0.00     0.029 A 
ATOM     56  N   UNL     1       9.285 -15.369   6.381  1.00  0.00    -0.354 N 
ATOM     57  N   UNL     1       6.873 -17.604   3.460  1.00  0.00    -0.248 NA
ATOM     58  C   UNL     1       5.543 -17.336   5.363  1.00  0.00     0.031 C 
ATOM     59  C   UNL     1      10.530 -14.548   4.784  1.00  0.00     0.029 A 
ATOM     60  C   UNL     1       9.553 -15.512   5.039  1.00  0.00     0.049 A 
ATOM     61  H   UNL     1       8.962 -16.076   6.985  1.00  0.00     0.167 HD
ATOM     62  C   UNL     1       7.666 -17.038   4.454  1.00  0.00     0.074 A 
ATOM     63  C   UNL     1       6.790 -16.927   5.619  1.00  0.00     0.031 C 
ATOM     64  C   UNL     1       8.862 -16.441   4.166  1.00  0.00     0.037 A 
BRANCH  51  65
ATOM     65  C   UNL     1       8.264 -13.715   8.953  1.00  0.00     0.058 A 
ATOM     66  C   UNL     1       9.298 -14.091   9.820  1.00  0.00     0.135 A 
ATOM     67  C   UNL     1       6.946 -13.882   9.443  1.00  0.00     0.135 A 
ATOM     68  F   UNL     1      10.579 -14.006   9.429  1.00  0.00    -0.206 F 
ATOM     69  C   UNL     1       9.040 -14.611  11.087  1.00  0.00     0.059 A 
ATOM     70  C   UNL     1       6.668 -14.330  10.722  1.00  0.00     0.059 A 
ATOM     71  F   UNL     1       5.868 -13.702   8.667  1.00  0.00    -0.206 F 
ATOM     72  C   UNL     1       7.721 -14.725  11.527  1.00  0.00     0.060 A 
BRANCH  72  73
ATOM     73  S   UNL     1       7.385 -15.463  13.132  1.00  0.00     0.124 S 
ATOM     74  O   UNL     1       7.817 -16.838  12.915  1.00  0.00    -0.237 OA
ATOM     75  O   UNL     1       8.223 -14.657  14.013  1.00  0.00    -0.237 OA
ATOM     76  O   UNL     1       5.947 -15.272  13.297  1.00  0.00    -0.744 OA
ENDBRANCH  72  73
ENDBRANCH  51  65
BRANCH  52  77
ATOM     77  C   UNL     1       3.157 -17.884   3.180  1.00  0.00     0.058 A 
ATOM     78  C   UNL     1       3.092 -19.272   3.400  1.00  0.00     0.135 A 
ATOM     79  C   UNL     1       1.949 -17.175   3.347  1.00  0.00     0.135 A 
ATOM     80  F   UNL     1       4.199 -20.022   3.285  1.00  0.00    -0.206 F 
ATOM     81  C   UNL     1       1.914 -19.911   3.809  1.00  0.00     0.059 A 
ATOM     82  C   UNL     1       0.763 -17.790   3.747  1.00  0.00     0.059 A 
ATOM     83  F   UNL     1       1.903 -15.841   3.217  1.00  0.00    -0.206 F 
ATOM     84  C   UNL     1       0.758 -19.155   4.003  1.00  0.00     0.060 A 
BRANCH  84  85
ATOM     85  S   UNL     1      -0.718 -19.939   4.697  1.00  0.00     0.124 S 
ATOM     86  O   UNL     1      -1.103 -20.857   3.630  1.00  0.00    -0.237 OA
ATOM     87  O   UNL     1      -0.196 -20.555   5.911  1.00  0.00    -0.237 OA
ATOM     88  O   UNL     1      -1.629 -18.817   4.912  1.00  0.00    -0.744 OA
ENDBRANCH  84  85
ENDBRANCH  52  77
BRANCH  64  89
ATOM     89  C   UNL     1       9.411 -16.587   2.764  1.00  0.00     0.058 A 
ATOM     90  C   UNL     1       8.816 -16.030   1.616  1.00  0.00     0.135 A 
ATOM     91  C   UNL     1      10.675 -17.170   2.603  1.00  0.00     0.135 A 
ATOM     92  F   UNL     1       7.656 -15.364   1.700  1.00  0.00    -0.206 F 
ATOM     93  C   UNL     1       9.432 -16.085   0.361  1.00  0.00     0.059 A 
ATOM     94  C   UNL     1      11.322 -17.211   1.370  1.00  0.00     0.059 A 
ATOM     95  F   UNL     1      11.327 -17.661   3.669  1.00  0.00    -0.206 F 
ATOM     96  C   UNL     1      10.689 -16.678   0.249  1.00  0.00     0.060 A 
BRANCH  96  97
ATOM     97  S   UNL     1      11.515 -16.702  -1.359  1.00  0.00     0.124 S 
ATOM     98  O   UNL     1      10.669 -17.609  -2.126  1.00  0.00    -0.237 OA
ATOM     99  O   UNL     1      11.467 -15.299  -1.760  1.00  0.00    -0.237 OA
ATOM    100  O   UNL     1      12.851 -17.207  -1.049  1.00  0.00    -0.744 OA
ENDBRANCH  96  97
ENDBRANCH  64  89
ENDBRANCH  38  39
ENDBRANCH  31  33
ENDBRANCH  30  31
ENDBRANCH  29  30
ENDBRANCH  28  29
ENDBRANCH  27  28
ENDBRANCH  26  27
ENDBRANCH  25  26
ENDBRANCH  24  25
ENDBRANCH   1  24
TORSDOF 27
