REMARK SMILES CC[C@H](C)c1ccccc1Oc1cccc(F)c1C(=O)OCCOCCOCCOCCOC(=O)c1ccc(-c2c3nc(c(-c4c(F)cc(S(=O)(=O)[O-])cc4F)c4ccc([nH]4)c(-c4c(F)cc(S(=O)(=O)[O-])cc4F)c4nc(c(-c5c(F)cc(S(=O)(=O)[O-])cc5F)c5ccc2[nH]5)C=C4)C=C3)cc1
REMARK SMILES IDX 26 1 25 2 24 3 23 4 22 5 21 6 19 7 20 8 18 9 12 10 13 11
REMARK SMILES IDX 14 12 16 13 15 14 17 15 11 16 10 17 5 18 6 19 7 20 9 21 8 22
REMARK SMILES IDX 3 23 4 24 2 25 1 26 27 27 28 28 29 29 30 30 31 31 32 32
REMARK SMILES IDX 33 33 34 34 35 35 36 36 37 37 101 38 38 39 100 40 39 41
REMARK SMILES IDX 40 42 41 43 94 44 42 45 99 46 93 47 95 48 43 49 98 50 92 51
REMARK SMILES IDX 91 52 44 54 78 55 57 56 77 57 58 58 61 59 76 60 96 61 59 62
REMARK SMILES IDX 60 63 75 65 97 66 62 67 45 68 46 69 55 70 47 71 48 72 54 73
REMARK SMILES IDX 56 74 49 75 50 76 51 77 52 78 53 79 79 80 80 81 89 82 81 83
REMARK SMILES IDX 82 84 88 85 90 86 83 87 84 88 85 89 86 90 87 91 63 92 64 93
REMARK SMILES IDX 73 94 65 95 66 96 72 97 74 98 67 99 68 100 69 101 70 102
REMARK SMILES IDX 71 103
REMARK H PARENT 95 53 61 64
REMARK Flexibility Score: inf
ROOT
ATOM      1  C   UNL     1       4.317  -1.618   3.253  1.00  0.00     0.188 C 
ENDROOT
BRANCH   1   2
ATOM      2  C   UNL     1       5.105  -0.369   2.795  1.00  0.00     0.188 C 
BRANCH   2   3
ATOM      3  O   UNL     1       5.589   0.537   3.766  1.00  0.00    -0.376 OA
BRANCH   3   4
ATOM      4  C   UNL     1       4.762   1.427   4.499  1.00  0.00     0.202 C 
BRANCH   4   5
ATOM      5  C   UNL     1       3.250   1.622   4.325  1.00  0.00     0.261 C 
BRANCH   5   6
ATOM      6  O   UNL     1       2.563   0.606   3.609  1.00  0.00    -0.459 OA
BRANCH   6   7
ATOM      7  C   UNL     1       2.336   0.868   2.309  1.00  0.00     0.345 C 
ATOM      8  O   UNL     1       2.690   1.868   1.704  1.00  0.00    -0.246 OA
BRANCH   7   9
ATOM      9  C   UNL     1       1.690  -0.297   1.661  1.00  0.00     0.138 A 
ATOM     10  C   UNL     1       0.590  -1.006   2.162  1.00  0.00     0.144 A 
ATOM     11  C   UNL     1       0.093  -2.100   1.427  1.00  0.00     0.048 A 
ATOM     12  C   UNL     1       0.614  -2.437   0.179  1.00  0.00     0.007 A 
ATOM     13  C   UNL     1       2.197  -0.645   0.400  1.00  0.00     0.141 A 
ATOM     14  C   UNL     1       1.665  -1.696  -0.341  1.00  0.00     0.040 A 
ATOM     15  F   UNL     1       3.245   0.008  -0.126  1.00  0.00    -0.206 F 
BRANCH  10  16
ATOM     16  O   UNL     1      -0.137  -0.804   3.308  1.00  0.00    -0.456 OA
BRANCH  16  17
ATOM     17  C   UNL     1      -0.286   0.414   3.926  1.00  0.00     0.130 A 
ATOM     18  C   UNL     1      -0.523   1.670   3.318  1.00  0.00    -0.002 A 
ATOM     19  C   UNL     1      -0.581   2.782   4.184  1.00  0.00     0.008 A 
ATOM     20  C   UNL     1      -0.482   2.650   5.576  1.00  0.00     0.001 A 
ATOM     21  C   UNL     1      -0.250   0.285   5.329  1.00  0.00     0.047 A 
ATOM     22  C   UNL     1      -0.346   1.397   6.153  1.00  0.00     0.004 A 
BRANCH  18  23
ATOM     23  C   UNL     1      -0.654   1.860   1.805  1.00  0.00     0.019 C 
ATOM     24  C   UNL     1      -1.766   1.023   1.163  1.00  0.00     0.013 C 
BRANCH  23  25
ATOM     25  C   UNL     1      -0.602   3.301   1.254  1.00  0.00     0.005 C 
ATOM     26  C   UNL     1      -0.308   3.325  -0.246  1.00  0.00     0.004 C 
ENDBRANCH  23  25
ENDBRANCH  18  23
ENDBRANCH  16  17
ENDBRANCH  10  16
ENDBRANCH   7   9
ENDBRANCH   6   7
ENDBRANCH   5   6
ENDBRANCH   4   5
ENDBRANCH   3   4
ENDBRANCH   2   3
ENDBRANCH   1   2
BRANCH   1  27
ATOM     27  O   UNL     1       3.706  -1.558   4.522  1.00  0.00    -0.377 OA
BRANCH  27  28
ATOM     28  C   UNL     1       4.511  -1.670   5.686  1.00  0.00     0.188 C 
BRANCH  28  29
ATOM     29  C   UNL     1       6.055  -1.681   5.608  1.00  0.00     0.188 C 
BRANCH  29  30
ATOM     30  O   UNL     1       6.605  -2.175   4.399  1.00  0.00    -0.376 OA
BRANCH  30  31
ATOM     31  C   UNL     1       7.071  -3.510   4.333  1.00  0.00     0.202 C 
BRANCH  31  32
ATOM     32  C   UNL     1       6.074  -4.650   4.595  1.00  0.00     0.261 C 
BRANCH  32  33
ATOM     33  O   UNL     1       5.339  -4.581   5.822  1.00  0.00    -0.460 OA
BRANCH  33  34
ATOM     34  C   UNL     1       6.051  -4.618   6.968  1.00  0.00     0.338 C 
ATOM     35  O   UNL     1       7.261  -4.737   7.078  1.00  0.00    -0.246 OA
BRANCH  34  36
ATOM     36  C   UNL     1       5.131  -4.285   8.073  1.00  0.00     0.060 A 
ATOM     37  C   UNL     1       5.390  -3.153   8.857  1.00  0.00     0.016 A 
ATOM     38  C   UNL     1       4.008  -5.078   8.318  1.00  0.00     0.016 A 
ATOM     39  C   UNL     1       4.547  -2.834   9.919  1.00  0.00     0.010 A 
ATOM     40  C   UNL     1       3.181  -4.775   9.401  1.00  0.00     0.010 A 
ATOM     41  C   UNL     1       3.473  -3.676  10.229  1.00  0.00    -0.014 A 
BRANCH  41  42
ATOM     42  C   UNL     1       2.812  -3.555  11.548  1.00  0.00     0.031 A 
ATOM     43  C   UNL     1       3.288  -4.457  12.654  1.00  0.00     0.074 A 
ATOM     44  C   UNL     1       1.840  -2.654  11.770  1.00  0.00     0.049 A 
ATOM     45  N   UNL     1       2.838  -4.589  13.873  1.00  0.00    -0.248 NA
ATOM     46  C   UNL     1       4.428  -5.334  12.335  1.00  0.00     0.031 C 
ATOM     47  C   UNL     1       1.340  -1.689  10.794  1.00  0.00     0.029 A 
ATOM     48  N   UNL     1       1.095  -2.414  12.897  1.00  0.00    -0.354 N 
ATOM     49  C   UNL     1       3.634  -5.564  14.464  1.00  0.00     0.074 A 
ATOM     50  C   UNL     1       4.569  -6.017  13.460  1.00  0.00     0.031 C 
ATOM     51  C   UNL     1       0.358  -0.965  11.363  1.00  0.00     0.029 A 
ATOM     52  C   UNL     1       0.138  -1.442  12.728  1.00  0.00     0.049 A 
ATOM     53  H   UNL     1       1.232  -2.892  13.746  1.00  0.00     0.167 HD
ATOM     54  C   UNL     1       3.595  -6.031  15.734  1.00  0.00     0.037 A 
ATOM     55  C   UNL     1      -0.819  -1.010  13.574  1.00  0.00     0.037 A 
ATOM     56  C   UNL     1       2.651  -5.581  16.722  1.00  0.00     0.049 A 
ATOM     57  C   UNL     1      -0.908  -1.615  14.953  1.00  0.00     0.074 A 
ATOM     58  C   UNL     1       2.521  -5.990  18.037  1.00  0.00     0.029 A 
ATOM     59  N   UNL     1       1.668  -4.627  16.500  1.00  0.00    -0.354 N 
ATOM     60  N   UNL     1      -0.147  -2.530  15.507  1.00  0.00    -0.248 NA
ATOM     61  C   UNL     1      -1.987  -1.127  15.824  1.00  0.00     0.031 C 
ATOM     62  C   UNL     1       1.422  -5.327  18.593  1.00  0.00     0.029 A 
ATOM     63  C   UNL     1       0.909  -4.453  17.646  1.00  0.00     0.049 A 
ATOM     64  H   UNL     1       1.530  -4.144  15.653  1.00  0.00     0.167 HD
ATOM     65  C   UNL     1      -0.632  -2.700  16.801  1.00  0.00     0.074 A 
ATOM     66  C   UNL     1      -1.747  -1.787  16.949  1.00  0.00     0.031 C 
ATOM     67  C   UNL     1      -0.193  -3.531  17.779  1.00  0.00     0.037 A 
BRANCH  54  68
ATOM     68  C   UNL     1       4.577  -7.108  16.107  1.00  0.00     0.058 A 
ATOM     69  C   UNL     1       5.955  -6.852  16.209  1.00  0.00     0.135 A 
ATOM     70  C   UNL     1       4.134  -8.413  16.374  1.00  0.00     0.135 A 
ATOM     71  F   UNL     1       6.438  -5.628  15.942  1.00  0.00    -0.206 F 
ATOM     72  C   UNL     1       6.860  -7.859  16.530  1.00  0.00     0.059 A 
ATOM     73  C   UNL     1       5.018  -9.428  16.730  1.00  0.00     0.059 A 
ATOM     74  F   UNL     1       2.829  -8.716  16.286  1.00  0.00    -0.206 F 
ATOM     75  C   UNL     1       6.381  -9.144  16.788  1.00  0.00     0.060 A 
BRANCH  75  76
ATOM     76  S   UNL     1       7.569 -10.440  17.199  1.00  0.00     0.124 S 
ATOM     77  O   UNL     1       8.229 -10.647  15.914  1.00  0.00    -0.237 OA
ATOM     78  O   UNL     1       8.379  -9.802  18.232  1.00  0.00    -0.237 OA
ATOM     79  O   UNL     1       6.728 -11.541  17.656  1.00  0.00    -0.744 OA
ENDBRANCH  75  76
ENDBRANCH  54  68
BRANCH  55  80
ATOM     80  C   UNL     1      -1.773   0.048  13.143  1.00  0.00     0.058 A 
ATOM     81  C   UNL     1      -1.756   1.321  13.732  1.00  0.00     0.135 A 
ATOM     82  C   UNL     1      -2.725  -0.193  12.140  1.00  0.00     0.135 A 
ATOM     83  F   UNL     1      -0.875   1.598  14.705  1.00  0.00    -0.206 F 
ATOM     84  C   UNL     1      -2.654   2.313  13.352  1.00  0.00     0.059 A 
ATOM     85  C   UNL     1      -3.615   0.792  11.722  1.00  0.00     0.059 A 
ATOM     86  F   UNL     1      -2.782  -1.392  11.539  1.00  0.00    -0.206 F 
ATOM     87  C   UNL     1      -3.576   2.041  12.340  1.00  0.00     0.060 A 
BRANCH  87  88
ATOM     88  S   UNL     1      -4.699   3.356  11.819  1.00  0.00     0.124 S 
ATOM     89  O   UNL     1      -5.579   3.468  12.976  1.00  0.00    -0.237 OA
ATOM     90  O   UNL     1      -3.780   4.470  11.602  1.00  0.00    -0.237 OA
ATOM     91  O   UNL     1      -5.312   2.814  10.610  1.00  0.00    -0.744 OA
ENDBRANCH  87  88
ENDBRANCH  55  80
BRANCH  67  92
ATOM     92  C   UNL     1      -0.883  -3.463  19.116  1.00  0.00     0.058 A 
ATOM     93  C   UNL     1      -2.188  -3.945  19.306  1.00  0.00     0.135 A 
ATOM     94  C   UNL     1      -0.202  -2.962  20.239  1.00  0.00     0.135 A 
ATOM     95  F   UNL     1      -2.887  -4.430  18.268  1.00  0.00    -0.206 F 
ATOM     96  C   UNL     1      -2.803  -3.907  20.554  1.00  0.00     0.059 A 
ATOM     97  C   UNL     1      -0.785  -2.946  21.503  1.00  0.00     0.059 A 
ATOM     98  F   UNL     1       1.053  -2.500  20.119  1.00  0.00    -0.206 F 
ATOM     99  C   UNL     1      -2.091  -3.410  21.648  1.00  0.00     0.060 A 
BRANCH  99 100
ATOM    100  S   UNL     1      -2.889  -3.401  23.267  1.00  0.00     0.124 S 
ATOM    101  O   UNL     1      -3.874  -2.337  23.104  1.00  0.00    -0.237 OA
ATOM    102  O   UNL     1      -3.426  -4.755  23.357  1.00  0.00    -0.237 OA
ATOM    103  O   UNL     1      -1.793  -3.105  24.185  1.00  0.00    -0.744 OA
ENDBRANCH  99 100
ENDBRANCH  67  92
ENDBRANCH  41  42
ENDBRANCH  34  36
ENDBRANCH  33  34
ENDBRANCH  32  33
ENDBRANCH  31  32
ENDBRANCH  30  31
ENDBRANCH  29  30
ENDBRANCH  28  29
ENDBRANCH  27  28
ENDBRANCH   1  27
TORSDOF 27
