REMARK SMILES CC(C)CCc1cc2c(cc1Cl)C=C(C(=O)OCCOCCOCCOCCOC(=O)c1ccc(-c3c4nc(c(-c5c(F)cc(S(=O)(=O)[O-])cc5F)c5ccc([nH]5)c(-c5c(F)cc(S(=O)(=O)[O-])cc5F)c5nc(c(-c6c(F)cc(S(=O)(=O)[O-])cc6F)c6ccc3[nH]6)C=C5)C=C4)cc1)[C@@H](C(F)(F)F)O2
REMARK SMILES IDX 23 1 22 2 21 3 20 4 19 5 18 6 17 7 15 8 16 9 14 10 6 11 7 12
REMARK SMILES IDX 11 13 8 14 10 15 12 16 9 17 103 18 13 19 98 20 5 21 4 22
REMARK SMILES IDX 2 23 1 24 3 25 99 26 100 27 101 28 102 29 24 30 25 31 26 32
REMARK SMILES IDX 27 33 28 34 29 35 30 36 31 37 32 38 33 39 97 40 34 41 96 42
REMARK SMILES IDX 35 43 36 44 37 45 90 46 38 47 95 48 89 49 91 50 39 51 94 52
REMARK SMILES IDX 88 53 87 54 40 56 74 57 53 58 73 59 54 60 57 61 72 62 92 63
REMARK SMILES IDX 55 64 56 65 71 67 93 68 58 69 41 70 42 71 51 72 43 73 44 74
REMARK SMILES IDX 50 75 52 76 45 77 46 78 47 79 48 80 49 81 75 82 76 83 85 84
REMARK SMILES IDX 77 85 78 86 84 87 86 88 79 89 80 90 81 91 82 92 83 93 59 94
REMARK SMILES IDX 60 95 69 96 61 97 62 98 68 99 70 100 63 101 64 102 65 103
REMARK SMILES IDX 66 104 67 105
REMARK H PARENT 91 55 57 66
REMARK Flexibility Score: inf
ROOT
ATOM      1  O   UNL     1       1.532   8.414  -5.407  1.00  0.00    -0.377 OA
ENDROOT
BRANCH   1   2
ATOM      2  C   UNL     1       1.840   7.069  -5.720  1.00  0.00     0.188 C 
BRANCH   2   3
ATOM      3  C   UNL     1       1.674   6.715  -7.208  1.00  0.00     0.188 C 
BRANCH   3   4
ATOM      4  O   UNL     1       1.509   7.851  -8.052  1.00  0.00    -0.376 OA
BRANCH   4   5
ATOM      5  C   UNL     1       0.197   8.108  -8.541  1.00  0.00     0.202 C 
BRANCH   5   6
ATOM      6  C   UNL     1      -0.827   8.619  -7.515  1.00  0.00     0.261 C 
BRANCH   6   7
ATOM      7  O   UNL     1      -1.046   7.741  -6.399  1.00  0.00    -0.460 OA
BRANCH   7   8
ATOM      8  C   UNL     1      -1.593   6.542  -6.671  1.00  0.00     0.338 C 
ATOM      9  O   UNL     1      -1.993   6.148  -7.753  1.00  0.00    -0.246 OA
BRANCH   8  10
ATOM     10  C   UNL     1      -1.451   5.686  -5.476  1.00  0.00     0.087 C 
ATOM     11  C   UNL     1      -1.103   1.716  -2.399  1.00  0.00    -0.026 A 
ATOM     12  C   UNL     1      -1.303   3.108  -2.218  1.00  0.00     0.052 A 
ATOM     13  C   UNL     1      -0.778   1.279  -3.694  1.00  0.00     0.045 A 
ATOM     14  C   UNL     1      -1.244   4.010  -3.285  1.00  0.00     0.128 A 
ATOM     15  C   UNL     1      -0.668   2.194  -4.750  1.00  0.00     0.032 A 
ATOM     16  Cl  UNL     1      -0.573  -0.370  -4.157  1.00  0.00    -0.084 Cl
ATOM     17  C   UNL     1      -0.948   3.546  -4.558  1.00  0.00     0.019 A 
ATOM     18  O   UNL     1      -1.512   5.319  -3.002  1.00  0.00    -0.475 OA
ATOM     19  C   UNL     1      -1.027   4.436  -5.698  1.00  0.00     0.027 C 
ATOM     20  C   UNL     1      -1.745   6.245  -4.107  1.00  0.00     0.316 C 
BRANCH  11  21
ATOM     21  C   UNL     1      -1.416   0.852  -1.189  1.00  0.00     0.037 C 
BRANCH  21  22
ATOM     22  C   UNL     1      -0.823  -0.551  -1.009  1.00  0.00     0.008 C 
BRANCH  22  23
ATOM     23  C   UNL     1       0.714  -0.610  -0.958  1.00  0.00    -0.017 C 
ATOM     24  C   UNL     1       1.251  -0.096   0.378  1.00  0.00     0.007 C 
ATOM     25  C   UNL     1       1.187  -2.048  -1.189  1.00  0.00     0.007 C 
ENDBRANCH  22  23
ENDBRANCH  21  22
ENDBRANCH  11  21
BRANCH  20  26
ATOM     26  C   UNL     1      -3.180   6.781  -4.007  1.00  0.00     0.430 C 
ATOM     27  F   UNL     1      -3.443   7.251  -2.766  1.00  0.00    -0.167 F 
ATOM     28  F   UNL     1      -3.399   7.796  -4.873  1.00  0.00    -0.167 F 
ATOM     29  F   UNL     1      -4.089   5.814  -4.277  1.00  0.00    -0.167 F 
ENDBRANCH  20  26
ENDBRANCH   8  10
ENDBRANCH   7   8
ENDBRANCH   6   7
ENDBRANCH   5   6
ENDBRANCH   4   5
ENDBRANCH   3   4
ENDBRANCH   2   3
ENDBRANCH   1   2
BRANCH   1  30
ATOM     30  C   UNL     1       2.462   9.431  -5.780  1.00  0.00     0.188 C 
BRANCH  30  31
ATOM     31  C   UNL     1       3.678   9.152  -6.695  1.00  0.00     0.188 C 
BRANCH  31  32
ATOM     32  O   UNL     1       4.340   7.915  -6.441  1.00  0.00    -0.376 OA
BRANCH  32  33
ATOM     33  C   UNL     1       5.620   7.995  -5.829  1.00  0.00     0.202 C 
BRANCH  33  34
ATOM     34  C   UNL     1       5.566   8.262  -4.321  1.00  0.00     0.261 C 
BRANCH  34  35
ATOM     35  O   UNL     1       5.000   9.528  -3.949  1.00  0.00    -0.460 OA
BRANCH  35  36
ATOM     36  C   UNL     1       5.596  10.645  -4.425  1.00  0.00     0.338 C 
ATOM     37  O   UNL     1       6.611  10.708  -5.094  1.00  0.00    -0.246 OA
BRANCH  36  38
ATOM     38  C   UNL     1       4.680  11.777  -4.166  1.00  0.00     0.060 A 
ATOM     39  C   UNL     1       4.140  11.970  -2.893  1.00  0.00     0.016 A 
ATOM     40  C   UNL     1       4.332  12.627  -5.224  1.00  0.00     0.016 A 
ATOM     41  C   UNL     1       3.281  13.045  -2.667  1.00  0.00     0.010 A 
ATOM     42  C   UNL     1       3.465  13.699  -4.997  1.00  0.00     0.010 A 
ATOM     43  C   UNL     1       2.960  13.932  -3.709  1.00  0.00    -0.014 A 
BRANCH  43  44
ATOM     44  C   UNL     1       2.293  15.216  -3.388  1.00  0.00     0.031 A 
ATOM     45  C   UNL     1       0.829  15.439  -3.602  1.00  0.00     0.074 A 
ATOM     46  C   UNL     1       3.064  16.194  -2.875  1.00  0.00     0.049 A 
ATOM     47  N   UNL     1       0.104  16.473  -3.260  1.00  0.00    -0.248 NA
ATOM     48  C   UNL     1       0.082  14.378  -4.291  1.00  0.00     0.031 C 
ATOM     49  C   UNL     1       4.509  16.089  -2.655  1.00  0.00     0.029 A 
ATOM     50  N   UNL     1       2.750  17.453  -2.434  1.00  0.00    -0.354 N 
ATOM     51  C   UNL     1      -1.192  16.182  -3.664  1.00  0.00     0.074 A 
ATOM     52  C   UNL     1      -1.143  14.891  -4.322  1.00  0.00     0.031 C 
ATOM     53  C   UNL     1       4.951  17.223  -2.094  1.00  0.00     0.029 A 
ATOM     54  C   UNL     1       3.828  18.140  -1.931  1.00  0.00     0.049 A 
ATOM     55  H   UNL     1       1.841  17.828  -2.475  1.00  0.00     0.167 HD
ATOM     56  C   UNL     1      -2.314  16.921  -3.482  1.00  0.00     0.037 A 
ATOM     57  C   UNL     1       3.905  19.368  -1.385  1.00  0.00     0.037 A 
ATOM     58  C   UNL     1      -2.340  18.215  -2.843  1.00  0.00     0.049 A 
ATOM     59  C   UNL     1       2.653  20.179  -1.227  1.00  0.00     0.074 A 
ATOM     60  C   UNL     1      -3.434  19.024  -2.583  1.00  0.00     0.029 A 
ATOM     61  N   UNL     1      -1.225  18.897  -2.376  1.00  0.00    -0.354 N 
ATOM     62  N   UNL     1       1.422  19.858  -1.545  1.00  0.00    -0.248 NA
ATOM     63  C   UNL     1       2.794  21.513  -0.629  1.00  0.00     0.031 C 
ATOM     64  C   UNL     1      -2.976  20.212  -2.004  1.00  0.00     0.029 A 
ATOM     65  C   UNL     1      -1.602  20.125  -1.855  1.00  0.00     0.049 A 
ATOM     66  H   UNL     1      -0.301  18.559  -2.410  1.00  0.00     0.167 HD
ATOM     67  C   UNL     1       0.637  20.939  -1.163  1.00  0.00     0.074 A 
ATOM     68  C   UNL     1       1.532  21.921  -0.585  1.00  0.00     0.031 C 
ATOM     69  C   UNL     1      -0.704  21.098  -1.280  1.00  0.00     0.037 A 
BRANCH  56  70
ATOM     70  C   UNL     1      -3.621  16.351  -3.963  1.00  0.00     0.058 A 
ATOM     71  C   UNL     1      -4.240  15.284  -3.295  1.00  0.00     0.135 A 
ATOM     72  C   UNL     1      -4.306  16.931  -5.044  1.00  0.00     0.135 A 
ATOM     73  F   UNL     1      -3.627  14.688  -2.259  1.00  0.00    -0.206 F 
ATOM     74  C   UNL     1      -5.484  14.801  -3.688  1.00  0.00     0.059 A 
ATOM     75  C   UNL     1      -5.563  16.480  -5.441  1.00  0.00     0.059 A 
ATOM     76  F   UNL     1      -3.763  17.959  -5.715  1.00  0.00    -0.206 F 
ATOM     77  C   UNL     1      -6.140  15.408  -4.761  1.00  0.00     0.060 A 
BRANCH  77  78
ATOM     78  S   UNL     1      -7.761  14.778  -5.246  1.00  0.00     0.124 S 
ATOM     79  O   UNL     1      -7.410  13.485  -5.825  1.00  0.00    -0.237 OA
ATOM     80  O   UNL     1      -8.470  14.730  -3.971  1.00  0.00    -0.237 OA
ATOM     81  O   UNL     1      -8.246  15.777  -6.193  1.00  0.00    -0.744 OA
ENDBRANCH  77  78
ENDBRANCH  56  70
BRANCH  57  82
ATOM     82  C   UNL     1       5.217  19.866  -0.901  1.00  0.00     0.058 A 
ATOM     83  C   UNL     1       5.489  19.951   0.471  1.00  0.00     0.135 A 
ATOM     84  C   UNL     1       6.243  20.203  -1.797  1.00  0.00     0.135 A 
ATOM     85  F   UNL     1       4.539  19.637   1.365  1.00  0.00    -0.206 F 
ATOM     86  C   UNL     1       6.733  20.357   0.941  1.00  0.00     0.059 A 
ATOM     87  C   UNL     1       7.502  20.590  -1.352  1.00  0.00     0.059 A 
ATOM     88  F   UNL     1       6.036  20.116  -3.121  1.00  0.00    -0.206 F 
ATOM     89  C   UNL     1       7.736  20.668   0.020  1.00  0.00     0.060 A 
BRANCH  89  90
ATOM     90  S   UNL     1       9.366  21.129   0.644  1.00  0.00     0.124 S 
ATOM     91  O   UNL     1       9.104  22.453   1.198  1.00  0.00    -0.237 OA
ATOM     92  O   UNL     1       9.631  20.071   1.614  1.00  0.00    -0.237 OA
ATOM     93  O   UNL     1      10.204  21.099  -0.550  1.00  0.00    -0.744 OA
ENDBRANCH  89  90
ENDBRANCH  57  82
BRANCH  69  94
ATOM     94  C   UNL     1      -1.302  22.375  -0.758  1.00  0.00     0.058 A 
ATOM     95  C   UNL     1      -1.161  23.587  -1.449  1.00  0.00     0.135 A 
ATOM     96  C   UNL     1      -2.095  22.368   0.402  1.00  0.00     0.135 A 
ATOM     97  F   UNL     1      -0.405  23.650  -2.556  1.00  0.00    -0.206 F 
ATOM     98  C   UNL     1      -1.784  24.750  -1.008  1.00  0.00     0.059 A 
ATOM     99  C   UNL     1      -2.746  23.514   0.848  1.00  0.00     0.059 A 
ATOM    100  F   UNL     1      -2.264  21.232   1.098  1.00  0.00    -0.206 F 
ATOM    101  C   UNL     1      -2.583  24.701   0.136  1.00  0.00     0.060 A 
BRANCH 101 102
ATOM    102  S   UNL     1      -3.439  26.204   0.656  1.00  0.00     0.124 S 
ATOM    103  O   UNL     1      -2.333  27.018   1.151  1.00  0.00    -0.237 OA
ATOM    104  O   UNL     1      -4.051  26.658  -0.589  1.00  0.00    -0.237 OA
ATOM    105  O   UNL     1      -4.374  25.730   1.671  1.00  0.00    -0.744 OA
ENDBRANCH 101 102
ENDBRANCH  69  94
ENDBRANCH  43  44
ENDBRANCH  36  38
ENDBRANCH  35  36
ENDBRANCH  34  35
ENDBRANCH  33  34
ENDBRANCH  32  33
ENDBRANCH  31  32
ENDBRANCH  30  31
ENDBRANCH   1  30
TORSDOF 27
