REMARK SMILES NS(=O)(=O)c1ccc(-n2nc(C(F)(F)F)cc2-c2ccc(CC(=O)OCCOCCOCCOCCOC(=O)c3ccc(-c4c5nc(c(-c6c(F)cc(S(=O)(=O)[O-])cc6F)c6ccc([nH]6)c(-c6c(F)cc(S(=O)(=O)[O-])cc6F)c6nc(c(-c7c(F)cc(S(=O)(=O)[O-])cc7F)c7ccc4[nH]7)C=C6)C=C5)cc3)cc2)cc1
REMARK SMILES IDX 30 1 29 2 28 3 27 4 26 5 25 6 23 7 24 8 22 9 21 10 18 11
REMARK SMILES IDX 19 12 107 13 20 14 106 15 17 16 9 17 10 18 11 19 16 20 8 21
REMARK SMILES IDX 5 22 6 23 109 24 7 25 108 26 2 27 3 28 4 29 1 30 12 33 13 34
REMARK SMILES IDX 14 35 15 36 31 37 32 38 33 39 34 40 35 41 36 42 37 43 38 44
REMARK SMILES IDX 39 45 40 46 41 47 105 48 42 49 104 50 43 51 44 52 45 53
REMARK SMILES IDX 98 54 46 55 103 56 97 57 99 58 47 59 102 60 96 61 95 62
REMARK SMILES IDX 48 64 82 65 61 66 81 67 62 68 65 69 80 70 100 71 63 72 64 73
REMARK SMILES IDX 79 75 101 76 66 77 49 78 50 79 59 80 51 81 52 82 58 83 60 84
REMARK SMILES IDX 53 85 54 86 55 87 56 88 57 89 83 90 84 91 93 92 85 93 86 94
REMARK SMILES IDX 92 95 94 96 87 97 88 98 89 99 90 100 91 101 67 102 68 103
REMARK SMILES IDX 77 104 69 105 70 106 76 107 78 108 71 109 72 110 73 111
REMARK SMILES IDX 74 112 75 113
REMARK H PARENT 1 31 1 32 99 63 65 74
REMARK Flexibility Score: inf
ROOT
ATOM      1  C   UNL     1       5.158  -1.613   1.414  1.00  0.00     0.188 C 
ENDROOT
BRANCH   1   2
ATOM      2  C   UNL     1       6.601  -1.815   0.932  1.00  0.00     0.188 C 
BRANCH   2   3
ATOM      3  O   UNL     1       6.695  -2.446  -0.328  1.00  0.00    -0.376 OA
BRANCH   3   4
ATOM      4  C   UNL     1       6.560  -3.857  -0.383  1.00  0.00     0.202 C 
BRANCH   4   5
ATOM      5  C   UNL     1       5.515  -4.584   0.491  1.00  0.00     0.261 C 
BRANCH   5   6
ATOM      6  O   UNL     1       5.562  -4.359   1.923  1.00  0.00    -0.463 OA
BRANCH   6   7
ATOM      7  C   UNL     1       6.695  -4.645   2.591  1.00  0.00     0.310 C 
ATOM      8  O   UNL     1       7.645  -5.232   2.078  1.00  0.00    -0.252 OA
BRANCH   7   9
ATOM      9  C   UNL     1       6.732  -4.180   4.039  1.00  0.00     0.158 C 
BRANCH   9  10
ATOM     10  C   UNL     1       5.710  -3.219   4.650  1.00  0.00    -0.037 A 
ATOM     11  C   UNL     1       4.029  -1.498   6.251  1.00  0.00     0.000 A 
ATOM     12  C   UNL     1       5.174  -1.007   5.613  1.00  0.00     0.010 A 
ATOM     13  C   UNL     1       3.714  -2.851   6.030  1.00  0.00     0.010 A 
ATOM     14  C   UNL     1       6.001  -1.853   4.831  1.00  0.00     0.005 A 
ATOM     15  C   UNL     1       4.529  -3.694   5.236  1.00  0.00     0.005 A 
BRANCH  11  16
ATOM     16  C   UNL     1       3.302  -0.709   7.283  1.00  0.00     0.075 A 
ATOM     17  N   UNL     1       2.880   0.636   7.262  1.00  0.00    -0.233 N 
ATOM     18  N   UNL     1       2.555   1.073   8.504  1.00  0.00    -0.163 NA
ATOM     19  C   UNL     1       2.514  -0.012   9.284  1.00  0.00     0.167 A 
ATOM     20  C   UNL     1       3.018  -1.131   8.580  1.00  0.00     0.064 A 
BRANCH  17  21
ATOM     21  C   UNL     1       2.680   1.550   6.188  1.00  0.00     0.065 A 
ATOM     22  C   UNL     1       2.254   3.405   4.087  1.00  0.00     0.082 A 
ATOM     23  C   UNL     1       2.126   2.037   3.920  1.00  0.00     0.024 A 
ATOM     24  C   UNL     1       2.483   3.869   5.372  1.00  0.00     0.024 A 
ATOM     25  C   UNL     1       2.401   1.094   4.918  1.00  0.00     0.030 A 
ATOM     26  C   UNL     1       2.647   2.944   6.424  1.00  0.00     0.030 A 
BRANCH  22  27
ATOM     27  S   UNL     1       2.031   4.534   2.720  1.00  0.00     0.238 S 
ATOM     28  O   UNL     1       3.363   4.849   2.225  1.00  0.00    -0.207 OA
ATOM     29  O   UNL     1       1.065   5.527   3.062  1.00  0.00    -0.207 OA
BRANCH  27  30
ATOM     30  N   UNL     1       1.326   3.657   1.471  1.00  0.00    -0.225 NA
ATOM     31  H   UNL     1       1.181   4.267   0.667  1.00  0.00     0.137 HD
ATOM     32  H   UNL     1       0.429   3.285   1.782  1.00  0.00     0.137 HD
ENDBRANCH  27  30
ENDBRANCH  22  27
ENDBRANCH  17  21
BRANCH  19  33
ATOM     33  C   UNL     1       2.034   0.030  10.713  1.00  0.00     0.435 C 
ATOM     34  F   UNL     1       2.074   1.269  11.264  1.00  0.00    -0.164 F 
ATOM     35  F   UNL     1       0.759  -0.426  10.825  1.00  0.00    -0.164 F 
ATOM     36  F   UNL     1       2.796  -0.773  11.510  1.00  0.00    -0.164 F 
ENDBRANCH  19  33
ENDBRANCH  11  16
ENDBRANCH   9  10
ENDBRANCH   7   9
ENDBRANCH   6   7
ENDBRANCH   5   6
ENDBRANCH   4   5
ENDBRANCH   3   4
ENDBRANCH   2   3
ENDBRANCH   1   2
BRANCH   1  37
ATOM     37  O   UNL     1       4.087  -1.758   0.489  1.00  0.00    -0.377 OA
BRANCH  37  38
ATOM     38  C   UNL     1       4.174  -1.238  -0.834  1.00  0.00     0.188 C 
BRANCH  38  39
ATOM     39  C   UNL     1       4.626   0.206  -1.087  1.00  0.00     0.188 C 
BRANCH  39  40
ATOM     40  O   UNL     1       5.586   0.664  -0.167  1.00  0.00    -0.376 OA
BRANCH  40  41
ATOM     41  C   UNL     1       5.085   1.457   0.883  1.00  0.00     0.202 C 
BRANCH  41  42
ATOM     42  C   UNL     1       3.635   1.361   1.385  1.00  0.00     0.261 C 
BRANCH  42  43
ATOM     43  O   UNL     1       2.717   0.243   1.299  1.00  0.00    -0.460 OA
BRANCH  43  44
ATOM     44  C   UNL     1       1.614   0.395   0.498  1.00  0.00     0.338 C 
ATOM     45  O   UNL     1       1.657   0.720  -0.681  1.00  0.00    -0.246 OA
BRANCH  44  46
ATOM     46  C   UNL     1       0.327   0.473   1.262  1.00  0.00     0.060 A 
ATOM     47  C   UNL     1      -0.601   1.400   0.771  1.00  0.00     0.016 A 
ATOM     48  C   UNL     1       0.175  -0.014   2.562  1.00  0.00     0.016 A 
ATOM     49  C   UNL     1      -1.438   2.077   1.656  1.00  0.00     0.010 A 
ATOM     50  C   UNL     1      -0.657   0.684   3.455  1.00  0.00     0.010 A 
ATOM     51  C   UNL     1      -1.374   1.812   3.030  1.00  0.00    -0.014 A 
BRANCH  51  52
ATOM     52  C   UNL     1      -2.324   2.529   3.903  1.00  0.00     0.031 A 
ATOM     53  C   UNL     1      -3.657   1.926   3.782  1.00  0.00     0.074 A 
ATOM     54  C   UNL     1      -2.156   3.549   4.776  1.00  0.00     0.049 A 
ATOM     55  N   UNL     1      -4.666   2.394   3.128  1.00  0.00    -0.248 NA
ATOM     56  C   UNL     1      -3.801   0.541   4.247  1.00  0.00     0.031 C 
ATOM     57  C   UNL     1      -0.905   4.131   5.210  1.00  0.00     0.029 A 
ATOM     58  N   UNL     1      -3.069   4.254   5.524  1.00  0.00    -0.354 N 
ATOM     59  C   UNL     1      -5.656   1.449   3.320  1.00  0.00     0.074 A 
ATOM     60  C   UNL     1      -5.003   0.243   3.762  1.00  0.00     0.031 C 
ATOM     61  C   UNL     1      -1.086   4.950   6.266  1.00  0.00     0.029 A 
ATOM     62  C   UNL     1      -2.506   5.040   6.536  1.00  0.00     0.049 A 
ATOM     63  H   UNL     1      -4.039   4.210   5.362  1.00  0.00     0.167 HD
ATOM     64  C   UNL     1      -6.957   1.810   3.446  1.00  0.00     0.037 A 
ATOM     65  C   UNL     1      -3.128   5.704   7.547  1.00  0.00     0.037 A 
ATOM     66  C   UNL     1      -7.218   3.124   2.922  1.00  0.00     0.049 A 
ATOM     67  C   UNL     1      -4.538   5.898   7.139  1.00  0.00     0.074 A 
ATOM     68  C   UNL     1      -7.009   3.737   1.702  1.00  0.00     0.029 A 
ATOM     69  N   UNL     1      -7.459   4.136   3.819  1.00  0.00    -0.354 N 
ATOM     70  N   UNL     1      -4.930   6.722   6.207  1.00  0.00    -0.248 NA
ATOM     71  C   UNL     1      -5.500   4.872   7.508  1.00  0.00     0.031 C 
ATOM     72  C   UNL     1      -6.724   5.099   1.999  1.00  0.00     0.029 A 
ATOM     73  C   UNL     1      -6.807   5.262   3.382  1.00  0.00     0.049 A 
ATOM     74  H   UNL     1      -8.007   4.066   4.634  1.00  0.00     0.167 HD
ATOM     75  C   UNL     1      -5.976   6.066   5.579  1.00  0.00     0.074 A 
ATOM     76  C   UNL     1      -6.358   4.997   6.493  1.00  0.00     0.031 C 
ATOM     77  C   UNL     1      -6.242   6.271   4.257  1.00  0.00     0.037 A 
BRANCH  64  78
ATOM     78  C   UNL     1      -7.866   1.088   4.396  1.00  0.00     0.058 A 
ATOM     79  C   UNL     1      -9.256   1.186   4.247  1.00  0.00     0.135 A 
ATOM     80  C   UNL     1      -7.411   0.470   5.587  1.00  0.00     0.135 A 
ATOM     81  F   UNL     1      -9.782   1.810   3.182  1.00  0.00    -0.206 F 
ATOM     82  C   UNL     1     -10.134   0.705   5.217  1.00  0.00     0.059 A 
ATOM     83  C   UNL     1      -8.263  -0.087   6.524  1.00  0.00     0.059 A 
ATOM     84  F   UNL     1      -6.119   0.463   5.942  1.00  0.00    -0.206 F 
ATOM     85  C   UNL     1      -9.625   0.070   6.350  1.00  0.00     0.060 A 
BRANCH  85  86
ATOM     86  S   UNL     1     -10.742  -0.482   7.645  1.00  0.00     0.124 S 
ATOM     87  O   UNL     1     -11.110   0.786   8.262  1.00  0.00    -0.237 OA
ATOM     88  O   UNL     1     -11.787  -1.153   6.879  1.00  0.00    -0.237 OA
ATOM     89  O   UNL     1      -9.905  -1.363   8.454  1.00  0.00    -0.744 OA
ENDBRANCH  85  86
ENDBRANCH  64  78
BRANCH  65  90
ATOM     90  C   UNL     1      -2.650   5.978   8.936  1.00  0.00     0.058 A 
ATOM     91  C   UNL     1      -3.342   6.852   9.798  1.00  0.00     0.135 A 
ATOM     92  C   UNL     1      -1.662   5.178   9.549  1.00  0.00     0.135 A 
ATOM     93  F   UNL     1      -4.312   7.646   9.319  1.00  0.00    -0.206 F 
ATOM     94  C   UNL     1      -3.114   6.886  11.181  1.00  0.00     0.059 A 
ATOM     95  C   UNL     1      -1.406   5.204  10.921  1.00  0.00     0.059 A 
ATOM     96  F   UNL     1      -0.972   4.269   8.844  1.00  0.00    -0.206 F 
ATOM     97  C   UNL     1      -2.158   6.038  11.738  1.00  0.00     0.060 A 
BRANCH  97  98
ATOM     98  S   UNL     1      -2.002   5.928  13.538  1.00  0.00     0.124 S 
ATOM     99  O   UNL     1      -1.412   7.219  13.872  1.00  0.00    -0.237 OA
ATOM    100  O   UNL     1      -3.387   5.734  13.957  1.00  0.00    -0.237 OA
ATOM    101  O   UNL     1      -1.130   4.773  13.735  1.00  0.00    -0.744 OA
ENDBRANCH  97  98
ENDBRANCH  65  90
BRANCH  77 102
ATOM    102  C   UNL     1      -5.707   7.516   3.596  1.00  0.00     0.058 A 
ATOM    103  C   UNL     1      -4.345   7.811   3.413  1.00  0.00     0.135 A 
ATOM    104  C   UNL     1      -6.636   8.370   2.978  1.00  0.00     0.135 A 
ATOM    105  F   UNL     1      -3.392   6.997   3.893  1.00  0.00    -0.206 F 
ATOM    106  C   UNL     1      -3.929   8.918   2.666  1.00  0.00     0.059 A 
ATOM    107  C   UNL     1      -6.244   9.458   2.204  1.00  0.00     0.059 A 
ATOM    108  F   UNL     1      -7.952   8.114   3.075  1.00  0.00    -0.206 F 
ATOM    109  C   UNL     1      -4.887   9.730   2.057  1.00  0.00     0.060 A 
BRANCH 109 110
ATOM    110  S   UNL     1      -4.353  11.088   0.989  1.00  0.00     0.124 S 
ATOM    111  O   UNL     1      -3.884  12.075   1.955  1.00  0.00    -0.237 OA
ATOM    112  O   UNL     1      -3.320  10.461   0.168  1.00  0.00    -0.237 OA
ATOM    113  O   UNL     1      -5.569  11.452   0.266  1.00  0.00    -0.744 OA
ENDBRANCH 109 110
ENDBRANCH  77 102
ENDBRANCH  51  52
ENDBRANCH  44  46
ENDBRANCH  43  44
ENDBRANCH  42  43
ENDBRANCH  41  42
ENDBRANCH  40  41
ENDBRANCH  39  40
ENDBRANCH  38  39
ENDBRANCH  37  38
ENDBRANCH   1  37
TORSDOF 29
