REMARK SMILES Cc1cccc(CNC(=O)N[C@@H](CC2=c3ccccc3=NC2)C(=O)OCCOCCOCCOCCOC(=O)c2ccc(-c3c4nc(c(-c5c(F)cc(S(=O)(=O)[O-])cc5F)c5ccc([nH]5)c(-c5c(F)cc(S(=O)(=O)[O-])cc5F)c5nc(c(-c6c(F)cc(S(=O)(=O)[O-])cc6F)c6ccc3[nH]6)C=C5)C=C4)cc2)c1
REMARK SMILES IDX 31 1 30 2 29 3 28 4 27 5 26 6 25 7 23 8 24 9 12 10 11 11
REMARK SMILES IDX 8 12 9 13 10 15 7 17 6 18 1 19 2 20 3 21 106 22 4 23 5 24
REMARK SMILES IDX 13 25 14 26 15 27 22 28 16 29 20 30 21 31 17 32 19 33 18 34
REMARK SMILES IDX 32 35 33 36 34 37 35 38 36 39 37 40 38 41 39 42 40 43 41 44
REMARK SMILES IDX 105 45 42 46 104 47 43 48 44 49 45 50 98 51 46 52 103 53
REMARK SMILES IDX 97 54 99 55 47 56 102 57 96 58 95 59 48 61 82 62 61 63 81 64
REMARK SMILES IDX 62 65 65 66 80 67 100 68 63 69 64 70 79 72 101 73 66 74
REMARK SMILES IDX 49 75 50 76 59 77 51 78 52 79 58 80 60 81 53 82 54 83 55 84
REMARK SMILES IDX 56 85 57 86 83 87 84 88 93 89 85 90 86 91 92 92 94 93 87 94
REMARK SMILES IDX 88 95 89 96 90 97 91 98 67 99 68 100 77 101 69 102 70 103
REMARK SMILES IDX 76 104 78 105 71 106 72 107 73 108 74 109 75 110
REMARK H PARENT 8 14 11 16 99 60 65 71
REMARK Flexibility Score: inf
ROOT
ATOM      1  O   UNL     1      -5.428   0.738  -1.734  1.00  0.00    -0.377 OA
ENDROOT
BRANCH   1   2
ATOM      2  C   UNL     1      -4.067   0.477  -1.371  1.00  0.00     0.188 C 
BRANCH   2   3
ATOM      3  C   UNL     1      -3.567   0.690   0.091  1.00  0.00     0.188 C 
BRANCH   3   4
ATOM      4  O   UNL     1      -2.911  -0.415   0.726  1.00  0.00    -0.376 OA
BRANCH   4   5
ATOM      5  C   UNL     1      -2.913  -0.393   2.161  1.00  0.00     0.202 C 
BRANCH   5   6
ATOM      6  C   UNL     1      -2.096   0.550   3.039  1.00  0.00     0.261 C 
BRANCH   6   7
ATOM      7  O   UNL     1      -2.470   1.891   2.835  1.00  0.00    -0.462 OA
BRANCH   7   8
ATOM      8  C   UNL     1      -1.802   2.593   1.919  1.00  0.00     0.329 C 
ATOM      9  O   UNL     1      -0.656   2.330   1.600  1.00  0.00    -0.250 OA
BRANCH   8  10
ATOM     10  C   UNL     1      -2.715   3.694   1.300  1.00  0.00     0.198 C 
BRANCH  10  11
ATOM     11  N   UNL     1      -3.362   3.615  -0.022  1.00  0.00    -0.324 N 
ATOM     12  N   UNL     1      -1.853   3.116  -1.777  1.00  0.00    -0.334 N 
ATOM     13  C   UNL     1      -3.010   3.583  -1.304  1.00  0.00     0.315 C 
ATOM     14  H   UNL     1      -1.891   2.902  -2.737  1.00  0.00     0.165 HD
ATOM     15  O   UNL     1      -3.875   3.906  -2.123  1.00  0.00    -0.249 OA
ATOM     16  H   UNL     1      -4.341   3.574   0.071  1.00  0.00     0.166 HD
BRANCH  12  17
ATOM     17  C   UNL     1      -0.557   2.853  -1.197  1.00  0.00     0.153 C 
BRANCH  17  18
ATOM     18  C   UNL     1      -0.072   1.417  -1.080  1.00  0.00    -0.028 A 
ATOM     19  C   UNL     1       3.083  -0.239   0.287  1.00  0.00     0.044 C 
ATOM     20  C   UNL     1       1.683  -0.065  -0.209  1.00  0.00    -0.051 A 
ATOM     21  C   UNL     1       0.855  -1.174  -0.377  1.00  0.00     0.003 A 
ATOM     22  C   UNL     1       1.200   1.215  -0.527  1.00  0.00     0.009 A 
ATOM     23  C   UNL     1      -0.382  -1.009  -0.979  1.00  0.00     0.001 A 
ATOM     24  C   UNL     1      -0.794   0.267  -1.395  1.00  0.00     0.005 A 
ENDBRANCH  17  18
ENDBRANCH  12  17
ENDBRANCH  10  11
BRANCH  10  25
ATOM     25  C   UNL     1      -3.839   4.057   2.297  1.00  0.00     0.070 C 
BRANCH  25  26
ATOM     26  C   UNL     1      -4.644   2.995   3.056  1.00  0.00    -0.037 C 
ATOM     27  C   UNL     1      -5.346   1.821   2.889  1.00  0.00     0.001 A 
ATOM     28  C   UNL     1      -4.885   3.593   4.454  1.00  0.00     0.174 C 
ATOM     29  C   UNL     1      -6.527   1.120   1.570  1.00  0.00     0.010 A 
ATOM     30  C   UNL     1      -5.965   1.621   4.705  1.00  0.00     0.065 A 
ATOM     31  N   UNL     1      -5.667   2.722   5.313  1.00  0.00    -0.280 NA
ATOM     32  C   UNL     1      -7.841   0.116   1.938  1.00  0.00     0.001 A 
ATOM     33  C   UNL     1      -7.425   0.328   5.063  1.00  0.00     0.028 A 
ATOM     34  C   UNL     1      -8.273  -0.320   3.818  1.00  0.00     0.002 A 
ENDBRANCH  25  26
ENDBRANCH  10  25
ENDBRANCH   8  10
ENDBRANCH   7   8
ENDBRANCH   6   7
ENDBRANCH   5   6
ENDBRANCH   4   5
ENDBRANCH   3   4
ENDBRANCH   2   3
ENDBRANCH   1   2
BRANCH   1  35
ATOM     35  C   UNL     1      -6.382   0.041  -0.967  1.00  0.00     0.188 C 
BRANCH  35  36
ATOM     36  C   UNL     1      -6.612  -1.398  -1.243  1.00  0.00     0.188 C 
BRANCH  36  37
ATOM     37  O   UNL     1      -5.365  -2.020  -0.966  1.00  0.00    -0.376 OA
BRANCH  37  38
ATOM     38  C   UNL     1      -4.799  -2.867  -1.923  1.00  0.00     0.202 C 
BRANCH  38  39
ATOM     39  C   UNL     1      -5.820  -3.744  -2.582  1.00  0.00     0.261 C 
BRANCH  39  40
ATOM     40  O   UNL     1      -6.442  -4.766  -1.742  1.00  0.00    -0.460 OA
BRANCH  40  41
ATOM     41  C   UNL     1      -7.043  -4.868  -0.527  1.00  0.00     0.338 C 
ATOM     42  O   UNL     1      -7.852  -5.784  -0.369  1.00  0.00    -0.246 OA
BRANCH  41  43
ATOM     43  C   UNL     1      -6.785  -3.993   0.658  1.00  0.00     0.060 A 
ATOM     44  C   UNL     1      -7.845  -3.580   1.448  1.00  0.00     0.016 A 
ATOM     45  C   UNL     1      -5.546  -3.568   1.087  1.00  0.00     0.016 A 
ATOM     46  C   UNL     1      -7.691  -2.534   2.399  1.00  0.00     0.010 A 
ATOM     47  C   UNL     1      -5.436  -2.411   1.922  1.00  0.00     0.010 A 
ATOM     48  C   UNL     1      -6.514  -1.730   2.533  1.00  0.00    -0.014 A 
BRANCH  48  49
ATOM     49  C   UNL     1      -6.317  -0.038   3.327  1.00  0.00     0.031 A 
ATOM     50  C   UNL     1      -5.144  -0.736   4.492  1.00  0.00     0.074 A 
ATOM     51  C   UNL     1      -7.385   1.477   3.352  1.00  0.00     0.049 A 
ATOM     52  N   UNL     1      -4.381  -0.070   5.285  1.00  0.00    -0.248 NA
ATOM     53  C   UNL     1      -4.849  -2.193   4.700  1.00  0.00     0.031 C 
ATOM     54  C   UNL     1      -7.287   3.176   3.125  1.00  0.00     0.029 A 
ATOM     55  N   UNL     1      -8.846   1.762   3.170  1.00  0.00    -0.354 N 
ATOM     56  C   UNL     1      -3.458  -0.886   5.921  1.00  0.00     0.074 A 
ATOM     57  C   UNL     1      -3.735  -2.206   5.450  1.00  0.00     0.031 C 
ATOM     58  C   UNL     1      -8.291   3.866   3.668  1.00  0.00     0.029 A 
ATOM     59  C   UNL     1      -9.274   2.885   3.868  1.00  0.00     0.049 A 
ATOM     60  H   UNL     1      -9.441   1.210   2.613  1.00  0.00     0.167 HD
ATOM     61  C   UNL     1      -2.531  -0.254   6.696  1.00  0.00     0.037 A 
ATOM     62  C   UNL     1     -10.242   2.740   4.780  1.00  0.00     0.037 A 
ATOM     63  C   UNL     1      -3.130   1.024   7.131  1.00  0.00     0.049 A 
ATOM     64  C   UNL     1      -9.380   2.709   6.151  1.00  0.00     0.074 A 
ATOM     65  C   UNL     1      -2.862   2.351   6.878  1.00  0.00     0.029 A 
ATOM     66  N   UNL     1      -4.414   0.998   7.713  1.00  0.00    -0.354 N 
ATOM     67  N   UNL     1      -8.063   2.575   6.316  1.00  0.00    -0.248 NA
ATOM     68  C   UNL     1      -9.968   3.104   7.428  1.00  0.00     0.031 C 
ATOM     69  C   UNL     1      -3.999   3.109   7.317  1.00  0.00     0.029 A 
ATOM     70  C   UNL     1      -5.047   2.241   7.677  1.00  0.00     0.049 A 
ATOM     71  H   UNL     1      -4.820   0.191   8.102  1.00  0.00     0.167 HD
ATOM     72  C   UNL     1      -7.638   2.690   7.652  1.00  0.00     0.074 A 
ATOM     73  C   UNL     1      -8.900   3.145   8.254  1.00  0.00     0.031 C 
ATOM     74  C   UNL     1      -6.400   2.425   8.292  1.00  0.00     0.037 A 
BRANCH  61  75
ATOM     75  C   UNL     1      -1.052  -0.641   6.904  1.00  0.00     0.058 A 
ATOM     76  C   UNL     1      -0.177   0.275   7.542  1.00  0.00     0.135 A 
ATOM     77  C   UNL     1      -0.385  -1.782   6.390  1.00  0.00     0.135 A 
ATOM     78  F   UNL     1      -0.637   1.404   8.095  1.00  0.00    -0.206 F 
ATOM     79  C   UNL     1       1.213   0.106   7.635  1.00  0.00     0.059 A 
ATOM     80  C   UNL     1       1.014  -1.990   6.500  1.00  0.00     0.059 A 
ATOM     81  F   UNL     1      -1.054  -2.740   5.732  1.00  0.00    -0.206 F 
ATOM     82  C   UNL     1       1.809  -1.029   7.114  1.00  0.00     0.060 A 
BRANCH  82  83
ATOM     83  S   UNL     1       3.605  -1.211   7.289  1.00  0.00     0.124 S 
ATOM     84  O   UNL     1       4.110  -0.120   6.460  1.00  0.00    -0.237 OA
ATOM     85  O   UNL     1       3.797  -1.048   8.727  1.00  0.00    -0.237 OA
ATOM     86  O   UNL     1       3.868  -2.553   6.778  1.00  0.00    -0.744 OA
ENDBRANCH  82  83
ENDBRANCH  61  75
BRANCH  62  87
ATOM     87  C   UNL     1     -11.252   1.832   3.903  1.00  0.00     0.058 A 
ATOM     88  C   UNL     1     -11.526   2.357   2.561  1.00  0.00     0.135 A 
ATOM     89  C   UNL     1     -11.356   0.434   3.959  1.00  0.00     0.135 A 
ATOM     90  F   UNL     1     -11.444   3.685   2.347  1.00  0.00    -0.206 F 
ATOM     91  C   UNL     1     -11.542   1.565   1.382  1.00  0.00     0.059 A 
ATOM     92  C   UNL     1     -11.447  -0.381   2.778  1.00  0.00     0.059 A 
ATOM     93  F   UNL     1     -11.187  -0.196   5.130  1.00  0.00    -0.206 F 
ATOM     94  C   UNL     1     -11.452   0.186   1.495  1.00  0.00     0.060 A 
BRANCH  94  95
ATOM     95  S   UNL     1     -11.055  -0.812  -0.004  1.00  0.00     0.124 S 
ATOM     96  O   UNL     1     -12.359  -0.978  -0.630  1.00  0.00    -0.237 OA
ATOM     97  O   UNL     1     -10.112   0.043  -0.724  1.00  0.00    -0.237 OA
ATOM     98  O   UNL     1     -10.460  -2.020   0.555  1.00  0.00    -0.744 OA
ENDBRANCH  94  95
ENDBRANCH  62  87
BRANCH  74  99
ATOM     99  C   UNL     1      -6.279   2.253   9.810  1.00  0.00     0.058 A 
ATOM    100  C   UNL     1      -7.334   1.808  10.607  1.00  0.00     0.135 A 
ATOM    101  C   UNL     1      -5.014   2.330  10.476  1.00  0.00     0.135 A 
ATOM    102  F   UNL     1      -8.511   1.441  10.083  1.00  0.00    -0.206 F 
ATOM    103  C   UNL     1      -7.208   1.673  11.983  1.00  0.00     0.059 A 
ATOM    104  C   UNL     1      -4.838   2.049  11.816  1.00  0.00     0.059 A 
ATOM    105  F   UNL     1      -3.872   2.664   9.861  1.00  0.00    -0.206 F 
ATOM    106  C   UNL     1      -5.961   1.816  12.578  1.00  0.00     0.060 A 
BRANCH 106 107
ATOM    107  S   UNL     1      -5.803   1.746  14.356  1.00  0.00     0.124 S 
ATOM    108  O   UNL     1      -6.023   3.146  14.707  1.00  0.00    -0.237 OA
ATOM    109  O   UNL     1      -6.869   0.823  14.734  1.00  0.00    -0.237 OA
ATOM    110  O   UNL     1      -4.447   1.246  14.555  1.00  0.00    -0.744 OA
ENDBRANCH 106 107
ENDBRANCH  74  99
ENDBRANCH  48  49
ENDBRANCH  41  43
ENDBRANCH  40  41
ENDBRANCH  39  40
ENDBRANCH  38  39
ENDBRANCH  37  38
ENDBRANCH  36  37
ENDBRANCH  35  36
ENDBRANCH   1  35
TORSDOF 28
