REMARK SMILES Cc1cc(Cl)c2c(c1)C=C(C(=O)OCCOCCOCCOCCOC(=O)c1ccc(-c3c4nc(c(-c5c(F)cc(S(=O)(=O)[O-])cc5F)c5ccc([nH]5)c(-c5c(F)cc(S(=O)(=O)[O-])cc5F)c5nc(c(-c6c(F)cc(S(=O)(=O)[O-])cc6F)c6ccc3[nH]6)C=C5)C=C4)cc1)[C@@H](C(F)(F)F)O2
REMARK SMILES IDX 20 1 19 2 18 3 17 4 16 5 15 6 14 7 13 8 11 9 12 10 10 11
REMARK SMILES IDX 1 12 2 13 3 14 8 15 4 16 7 17 5 18 6 19 9 20 99 21 94 22
REMARK SMILES IDX 95 23 96 24 97 25 98 26 21 27 22 28 23 29 24 30 25 31 26 32
REMARK SMILES IDX 27 33 28 34 29 35 93 36 30 37 92 38 31 39 32 40 33 41 86 42
REMARK SMILES IDX 34 43 91 44 85 45 87 46 35 47 90 48 84 49 83 50 36 52 70 53
REMARK SMILES IDX 49 54 69 55 50 56 53 57 68 58 88 59 51 60 52 61 67 63 89 64
REMARK SMILES IDX 54 65 37 66 38 67 47 68 39 69 40 70 46 71 48 72 41 73 42 74
REMARK SMILES IDX 43 75 44 76 45 77 71 78 72 79 81 80 73 81 74 82 80 83 82 84
REMARK SMILES IDX 75 85 76 86 77 87 78 88 79 89 55 90 56 91 65 92 57 93 58 94
REMARK SMILES IDX 64 95 66 96 59 97 60 98 61 99 62 100 63 101
REMARK H PARENT 87 51 53 62
REMARK Flexibility Score: inf
ROOT
ATOM      1  C   UNL     1       3.890   9.430   1.968  1.00  0.00     0.188 C 
ENDROOT
BRANCH   1   2
ATOM      2  O   UNL     1       2.909   8.488   1.529  1.00  0.00    -0.377 OA
BRANCH   2   3
ATOM      3  C   UNL     1       3.355   7.211   1.103  1.00  0.00     0.188 C 
BRANCH   3   4
ATOM      4  C   UNL     1       3.859   7.205  -0.352  1.00  0.00     0.188 C 
BRANCH   4   5
ATOM      5  O   UNL     1       4.154   8.504  -0.841  1.00  0.00    -0.376 OA
BRANCH   5   6
ATOM      6  C   UNL     1       3.188   9.212  -1.603  1.00  0.00     0.202 C 
BRANCH   6   7
ATOM      7  C   UNL     1       1.721   9.352  -1.154  1.00  0.00     0.261 C 
BRANCH   7   8
ATOM      8  O   UNL     1       1.115   8.204  -0.551  1.00  0.00    -0.460 OA
BRANCH   8   9
ATOM      9  C   UNL     1       0.775   7.175  -1.345  1.00  0.00     0.338 C 
ATOM     10  O   UNL     1       0.914   7.103  -2.553  1.00  0.00    -0.246 OA
BRANCH   9  11
ATOM     11  C   UNL     1       0.377   6.050  -0.468  1.00  0.00     0.087 C 
ATOM     12  C   UNL     1       1.065  -0.038   0.138  1.00  0.00     0.044 C 
ATOM     13  C   UNL     1       0.587   1.331   0.520  1.00  0.00    -0.049 A 
ATOM     14  C   UNL     1      -0.328   1.514   1.562  1.00  0.00     0.028 A 
ATOM     15  C   UNL     1       1.016   2.447  -0.208  1.00  0.00     0.015 A 
ATOM     16  C   UNL     1      -0.781   2.796   1.887  1.00  0.00     0.084 A 
ATOM     17  C   UNL     1       0.527   3.728   0.087  1.00  0.00     0.019 A 
ATOM     18  Cl  UNL     1      -1.913   2.952   3.184  1.00  0.00    -0.080 Cl
ATOM     19  C   UNL     1      -0.352   3.912   1.156  1.00  0.00     0.146 A 
ATOM     20  C   UNL     1       0.891   4.849  -0.761  1.00  0.00     0.027 C 
ATOM     21  O   UNL     1      -0.827   5.141   1.522  1.00  0.00    -0.474 OA
ATOM     22  C   UNL     1      -0.497   6.316   0.732  1.00  0.00     0.316 C 
BRANCH  22  23
ATOM     23  C   UNL     1      -1.808   7.016   0.344  1.00  0.00     0.430 C 
ATOM     24  F   UNL     1      -2.611   7.189   1.419  1.00  0.00    -0.167 F 
ATOM     25  F   UNL     1      -1.589   8.238  -0.190  1.00  0.00    -0.167 F 
ATOM     26  F   UNL     1      -2.498   6.292  -0.569  1.00  0.00    -0.167 F 
ENDBRANCH  22  23
ENDBRANCH   9  11
ENDBRANCH   8   9
ENDBRANCH   7   8
ENDBRANCH   6   7
ENDBRANCH   5   6
ENDBRANCH   4   5
ENDBRANCH   3   4
ENDBRANCH   2   3
ENDBRANCH   1   2
BRANCH   1  27
ATOM     27  C   UNL     1       5.378   9.320   1.553  1.00  0.00     0.188 C 
BRANCH  27  28
ATOM     28  O   UNL     1       5.899   7.995   1.583  1.00  0.00    -0.376 OA
BRANCH  28  29
ATOM     29  C   UNL     1       6.801   7.672   2.629  1.00  0.00     0.202 C 
BRANCH  29  30
ATOM     30  C   UNL     1       6.158   7.511   4.012  1.00  0.00     0.261 C 
BRANCH  30  31
ATOM     31  O   UNL     1       5.495   8.675   4.525  1.00  0.00    -0.460 OA
BRANCH  31  32
ATOM     32  C   UNL     1       6.239   9.787   4.713  1.00  0.00     0.338 C 
ATOM     33  O   UNL     1       7.436   9.913   4.526  1.00  0.00    -0.246 OA
BRANCH  32  34
ATOM     34  C   UNL     1       5.303  10.890   5.007  1.00  0.00     0.060 A 
ATOM     35  C   UNL     1       5.271  12.006   4.161  1.00  0.00     0.016 A 
ATOM     36  C   UNL     1       4.434  10.800   6.098  1.00  0.00     0.016 A 
ATOM     37  C   UNL     1       4.375  13.045   4.418  1.00  0.00     0.010 A 
ATOM     38  C   UNL     1       3.552  11.848   6.363  1.00  0.00     0.010 A 
ATOM     39  C   UNL     1       3.534  12.986   5.538  1.00  0.00    -0.014 A 
BRANCH  39  40
ATOM     40  C   UNL     1       2.756  14.180   5.943  1.00  0.00     0.031 A 
ATOM     41  C   UNL     1       3.333  15.088   6.994  1.00  0.00     0.074 A 
ATOM     42  C   UNL     1       1.570  14.464   5.374  1.00  0.00     0.049 A 
ATOM     43  N   UNL     1       2.836  16.181   7.508  1.00  0.00    -0.248 NA
ATOM     44  C   UNL     1       4.651  14.711   7.535  1.00  0.00     0.031 C 
ATOM     45  C   UNL     1       0.925  13.677   4.325  1.00  0.00     0.029 A 
ATOM     46  N   UNL     1       0.697  15.499   5.602  1.00  0.00    -0.354 N 
ATOM     47  C   UNL     1       3.782  16.631   8.421  1.00  0.00     0.074 A 
ATOM     48  C   UNL     1       4.862  15.670   8.425  1.00  0.00     0.031 C 
ATOM     49  C   UNL     1      -0.242  14.260   3.997  1.00  0.00     0.029 A 
ATOM     50  C   UNL     1      -0.440  15.445   4.831  1.00  0.00     0.049 A 
ATOM     51  H   UNL     1       0.869  16.213   6.258  1.00  0.00     0.167 HD
ATOM     52  C   UNL     1       3.759  17.755   9.175  1.00  0.00     0.037 A 
ATOM     53  C   UNL     1      -1.518  16.256   4.808  1.00  0.00     0.037 A 
ATOM     54  C   UNL     1       2.676  18.701   9.176  1.00  0.00     0.049 A 
ATOM     55  C   UNL     1      -1.560  17.455   5.723  1.00  0.00     0.074 A 
ATOM     56  C   UNL     1       2.558  19.869   9.908  1.00  0.00     0.029 A 
ATOM     57  N   UNL     1       1.523  18.587   8.414  1.00  0.00    -0.354 N 
ATOM     58  N   UNL     1      -0.650  17.881   6.566  1.00  0.00    -0.248 NA
ATOM     59  C   UNL     1      -2.773  18.286   5.683  1.00  0.00     0.031 C 
ATOM     60  C   UNL     1       1.313  20.435   9.627  1.00  0.00     0.029 A 
ATOM     61  C   UNL     1       0.678  19.652   8.675  1.00  0.00     0.049 A 
ATOM     62  H   UNL     1       1.333  17.856   7.782  1.00  0.00     0.167 HD
ATOM     63  C   UNL     1      -1.165  19.044   7.131  1.00  0.00     0.074 A 
ATOM     64  C   UNL     1      -2.465  19.258   6.532  1.00  0.00     0.031 C 
ATOM     65  C   UNL     1      -0.608  19.863   8.057  1.00  0.00     0.037 A 
BRANCH  52  66
ATOM     66  C   UNL     1       4.940  18.023  10.065  1.00  0.00     0.058 A 
ATOM     67  C   UNL     1       6.179  18.418   9.537  1.00  0.00     0.135 A 
ATOM     68  C   UNL     1       4.816  17.943  11.461  1.00  0.00     0.135 A 
ATOM     69  F   UNL     1       6.357  18.490   8.208  1.00  0.00    -0.206 F 
ATOM     70  C   UNL     1       7.259  18.713  10.362  1.00  0.00     0.059 A 
ATOM     71  C   UNL     1       5.876  18.259  12.306  1.00  0.00     0.059 A 
ATOM     72  F   UNL     1       3.655  17.564  12.016  1.00  0.00    -0.206 F 
ATOM     73  C   UNL     1       7.096  18.636  11.746  1.00  0.00     0.060 A 
BRANCH  73  74
ATOM     74  S   UNL     1       8.502  19.047  12.799  1.00  0.00     0.124 S 
ATOM     75  O   UNL     1       9.406  17.933  12.528  1.00  0.00    -0.237 OA
ATOM     76  O   UNL     1       8.917  20.342  12.270  1.00  0.00    -0.237 OA
ATOM     77  O   UNL     1       7.928  19.074  14.141  1.00  0.00    -0.744 OA
ENDBRANCH  73  74
ENDBRANCH  52  66
BRANCH  53  78
ATOM     78  C   UNL     1      -2.643  15.974   3.874  1.00  0.00     0.058 A 
ATOM     79  C   UNL     1      -2.904  16.817   2.784  1.00  0.00     0.135 A 
ATOM     80  C   UNL     1      -3.474  14.856   4.048  1.00  0.00     0.135 A 
ATOM     81  F   UNL     1      -2.147  17.906   2.582  1.00  0.00    -0.206 F 
ATOM     82  C   UNL     1      -3.952  16.568   1.903  1.00  0.00     0.059 A 
ATOM     83  C   UNL     1      -4.513  14.572   3.166  1.00  0.00     0.059 A 
ATOM     84  F   UNL     1      -3.264  14.014   5.072  1.00  0.00    -0.206 F 
ATOM     85  C   UNL     1      -4.748  15.438   2.100  1.00  0.00     0.060 A 
BRANCH  85  86
ATOM     86  S   UNL     1      -6.073  15.102   0.919  1.00  0.00     0.124 S 
ATOM     87  O   UNL     1      -7.007  16.185   1.207  1.00  0.00    -0.237 OA
ATOM     88  O   UNL     1      -5.370  15.188  -0.357  1.00  0.00    -0.237 OA
ATOM     89  O   UNL     1      -6.524  13.764   1.290  1.00  0.00    -0.744 OA
ENDBRANCH  85  86
ENDBRANCH  53  78
BRANCH  65  90
ATOM     90  C   UNL     1      -1.369  21.094   8.468  1.00  0.00     0.058 A 
ATOM     91  C   UNL     1      -2.489  21.021   9.309  1.00  0.00     0.135 A 
ATOM     92  C   UNL     1      -0.900  22.369   8.108  1.00  0.00     0.135 A 
ATOM     93  F   UNL     1      -2.981  19.828   9.680  1.00  0.00    -0.206 F 
ATOM     94  C   UNL     1      -3.119  22.170   9.779  1.00  0.00     0.059 A 
ATOM     95  C   UNL     1      -1.498  23.530   8.587  1.00  0.00     0.059 A 
ATOM     96  F   UNL     1       0.175  22.494   7.313  1.00  0.00    -0.206 F 
ATOM     97  C   UNL     1      -2.609  23.420   9.421  1.00  0.00     0.060 A 
BRANCH  97  98
ATOM     98  S   UNL     1      -3.394  24.898  10.100  1.00  0.00     0.124 S 
ATOM     99  O   UNL     1      -4.673  24.903   9.396  1.00  0.00    -0.237 OA
ATOM    100  O   UNL     1      -3.456  24.590  11.525  1.00  0.00    -0.237 OA
ATOM    101  O   UNL     1      -2.474  25.972   9.736  1.00  0.00    -0.744 OA
ENDBRANCH  97  98
ENDBRANCH  65  90
ENDBRANCH  39  40
ENDBRANCH  32  34
ENDBRANCH  31  32
ENDBRANCH  30  31
ENDBRANCH  29  30
ENDBRANCH  28  29
ENDBRANCH  27  28
ENDBRANCH   1  27
TORSDOF 24
