REMARK SMILES O=C(OCCOCCOCCOCCOC(=O)c1cc2c(c(S(=O)(=O)Nc3cc(C(F)(F)F)ccc3-n3cccn3)c1)CCC2)c1ccc(-c2c3nc(c(-c4c(F)cc(S(=O)(=O)[O-])cc4F)c4ccc([nH]4)c(-c4c(F)cc(S(=O)(=O)[O-])cc4F)c4nc(c(-c5c(F)cc(S(=O)(=O)[O-])cc5F)c5ccc2[nH]5)C=C4)C=C3)cc1
REMARK SMILES IDX 10 1 9 2 8 3 7 4 6 5 5 6 4 7 3 8 2 9 1 10 46 11 47 12 111 13
REMARK SMILES IDX 48 14 110 15 49 16 50 17 51 18 104 19 52 20 109 21 103 22
REMARK SMILES IDX 105 23 53 24 108 25 102 26 101 27 54 29 88 30 67 31 87 32
REMARK SMILES IDX 68 33 71 34 86 35 106 36 69 37 70 38 85 40 107 41 72 42
REMARK SMILES IDX 55 43 56 44 65 45 57 46 58 47 64 48 66 49 59 50 60 51 61 52
REMARK SMILES IDX 62 53 63 54 89 55 90 56 99 57 91 58 92 59 98 60 100 61 93 62
REMARK SMILES IDX 94 63 95 64 96 65 97 66 73 67 74 68 83 69 75 70 76 71 82 72
REMARK SMILES IDX 84 73 77 74 78 75 79 76 80 77 81 78 11 79 12 80 13 81 14 82
REMARK SMILES IDX 15 83 16 84 17 85 18 86 19 87 42 88 20 89 22 90 21 91 45 92
REMARK SMILES IDX 43 93 44 94 23 95 24 96 25 97 26 98 27 100 28 101 36 102
REMARK SMILES IDX 29 103 35 104 34 105 37 106 38 107 41 108 39 109 40 110
REMARK SMILES IDX 30 111 31 112 32 113 33 114
REMARK H PARENT 105 28 71 39 26 99
REMARK Flexibility Score: inf
ROOT
ATOM      1  C   UNL     1       4.120  -1.613  -2.791  1.00  0.00     0.188 C 
ENDROOT
BRANCH   1   2
ATOM      2  O   UNL     1       2.808  -1.135  -2.970  1.00  0.00    -0.377 OA
BRANCH   2   3
ATOM      3  C   UNL     1       2.301  -0.456  -1.837  1.00  0.00     0.188 C 
BRANCH   3   4
ATOM      4  C   UNL     1       3.082   0.777  -1.339  1.00  0.00     0.188 C 
BRANCH   4   5
ATOM      5  O   UNL     1       4.408   0.791  -0.828  1.00  0.00    -0.376 OA
BRANCH   5   6
ATOM      6  C   UNL     1       5.131  -0.162  -0.074  1.00  0.00     0.202 C 
BRANCH   6   7
ATOM      7  C   UNL     1       4.561  -1.005   1.065  1.00  0.00     0.261 C 
BRANCH   7   8
ATOM      8  O   UNL     1       3.184  -1.322   0.947  1.00  0.00    -0.460 OA
BRANCH   8   9
ATOM      9  C   UNL     1       2.131  -0.567   1.313  1.00  0.00     0.338 C 
ATOM     10  O   UNL     1       1.004  -1.019   1.108  1.00  0.00    -0.246 OA
BRANCH   9  11
ATOM     11  C   UNL     1       2.237   0.795   1.901  1.00  0.00     0.060 A 
ATOM     12  C   UNL     1       3.406   1.453   2.295  1.00  0.00     0.016 A 
ATOM     13  C   UNL     1       1.002   1.437   2.097  1.00  0.00     0.016 A 
ATOM     14  C   UNL     1       3.335   2.559   3.108  1.00  0.00     0.010 A 
ATOM     15  C   UNL     1       0.921   2.573   2.867  1.00  0.00     0.010 A 
ATOM     16  C   UNL     1       2.084   3.050   3.452  1.00  0.00    -0.014 A 
BRANCH  16  17
ATOM     17  C   UNL     1       2.039   4.159   4.375  1.00  0.00     0.031 A 
ATOM     18  C   UNL     1       2.624   5.390   3.799  1.00  0.00     0.074 A 
ATOM     19  C   UNL     1       1.451   4.011   5.577  1.00  0.00     0.049 A 
ATOM     20  N   UNL     1       3.715   5.983   4.153  1.00  0.00    -0.248 NA
ATOM     21  C   UNL     1       2.067   5.885   2.526  1.00  0.00     0.031 C 
ATOM     22  C   UNL     1       0.700   2.849   6.063  1.00  0.00     0.029 A 
ATOM     23  N   UNL     1       1.295   4.910   6.582  1.00  0.00    -0.354 N 
ATOM     24  C   UNL     1       3.789   7.111   3.342  1.00  0.00     0.074 A 
ATOM     25  C   UNL     1       2.929   6.856   2.221  1.00  0.00     0.031 C 
ATOM     26  C   UNL     1      -0.033   3.208   7.139  1.00  0.00     0.029 A 
ATOM     27  C   UNL     1       0.290   4.577   7.491  1.00  0.00     0.049 A 
ATOM     28  H   UNL     1       1.842   5.725   6.663  1.00  0.00     0.167 HD
ATOM     29  C   UNL     1       4.244   8.284   3.863  1.00  0.00     0.037 A 
ATOM     30  C   UNL     1      -0.285   5.422   8.387  1.00  0.00     0.037 A 
ATOM     31  C   UNL     1       5.077   8.036   5.019  1.00  0.00     0.049 A 
ATOM     32  C   UNL     1       0.659   6.561   8.567  1.00  0.00     0.074 A 
ATOM     33  C   UNL     1       6.203   7.269   5.255  1.00  0.00     0.029 A 
ATOM     34  N   UNL     1       4.545   8.310   6.256  1.00  0.00    -0.354 N 
ATOM     35  N   UNL     1       1.836   6.437   9.121  1.00  0.00    -0.248 NA
ATOM     36  C   UNL     1       0.510   7.705   7.678  1.00  0.00     0.031 C 
ATOM     37  C   UNL     1       6.018   6.729   6.562  1.00  0.00     0.029 A 
ATOM     38  C   UNL     1       4.842   7.264   7.088  1.00  0.00     0.049 A 
ATOM     39  H   UNL     1       4.039   9.119   6.501  1.00  0.00     0.167 HD
ATOM     40  C   UNL     1       2.685   7.195   8.326  1.00  0.00     0.074 A 
ATOM     41  C   UNL     1       1.798   8.009   7.494  1.00  0.00     0.031 C 
ATOM     42  C   UNL     1       4.007   6.874   8.202  1.00  0.00     0.037 A 
BRANCH  29  43
ATOM     43  C   UNL     1       3.540   9.611   3.637  1.00  0.00     0.058 A 
ATOM     44  C   UNL     1       4.092  10.771   4.217  1.00  0.00     0.135 A 
ATOM     45  C   UNL     1       2.216   9.751   3.157  1.00  0.00     0.135 A 
ATOM     46  F   UNL     1       5.345  10.763   4.700  1.00  0.00    -0.206 F 
ATOM     47  C   UNL     1       3.352  11.938   4.407  1.00  0.00     0.059 A 
ATOM     48  C   UNL     1       1.478  10.919   3.292  1.00  0.00     0.059 A 
ATOM     49  F   UNL     1       1.524   8.749   2.608  1.00  0.00    -0.206 F 
ATOM     50  C   UNL     1       2.038  11.994   3.955  1.00  0.00     0.060 A 
BRANCH  50  51
ATOM     51  S   UNL     1       1.052  13.465   4.265  1.00  0.00     0.124 S 
ATOM     52  O   UNL     1       0.889  13.403   5.713  1.00  0.00    -0.237 OA
ATOM     53  O   UNL     1       1.925  14.519   3.760  1.00  0.00    -0.237 OA
ATOM     54  O   UNL     1      -0.156  13.229   3.480  1.00  0.00    -0.744 OA
ENDBRANCH  50  51
ENDBRANCH  29  43
BRANCH  30  55
ATOM     55  C   UNL     1      -1.724   5.500   8.773  1.00  0.00     0.058 A 
ATOM     56  C   UNL     1      -2.151   6.330   9.827  1.00  0.00     0.135 A 
ATOM     57  C   UNL     1      -2.744   4.982   7.948  1.00  0.00     0.135 A 
ATOM     58  F   UNL     1      -1.252   6.883  10.655  1.00  0.00    -0.206 F 
ATOM     59  C   UNL     1      -3.497   6.669  10.017  1.00  0.00     0.059 A 
ATOM     60  C   UNL     1      -4.091   5.295   8.126  1.00  0.00     0.059 A 
ATOM     61  F   UNL     1      -2.460   4.225   6.879  1.00  0.00    -0.206 F 
ATOM     62  C   UNL     1      -4.460   6.162   9.145  1.00  0.00     0.060 A 
BRANCH  62  63
ATOM     63  S   UNL     1      -6.172   6.733   9.266  1.00  0.00     0.124 S 
ATOM     64  O   UNL     1      -6.608   6.120  10.516  1.00  0.00    -0.237 OA
ATOM     65  O   UNL     1      -6.016   8.183   9.288  1.00  0.00    -0.237 OA
ATOM     66  O   UNL     1      -6.796   6.195   8.059  1.00  0.00    -0.744 OA
ENDBRANCH  62  63
ENDBRANCH  30  55
BRANCH  42  67
ATOM     67  C   UNL     1       4.602   5.899   9.186  1.00  0.00     0.058 A 
ATOM     68  C   UNL     1       4.211   4.556   9.334  1.00  0.00     0.135 A 
ATOM     69  C   UNL     1       5.715   6.326   9.925  1.00  0.00     0.135 A 
ATOM     70  F   UNL     1       3.231   4.036   8.581  1.00  0.00    -0.206 F 
ATOM     71  C   UNL     1       4.863   3.696  10.221  1.00  0.00     0.059 A 
ATOM     72  C   UNL     1       6.401   5.479  10.787  1.00  0.00     0.059 A 
ATOM     73  F   UNL     1       6.181   7.578   9.778  1.00  0.00    -0.206 F 
ATOM     74  C   UNL     1       5.957   4.170  10.947  1.00  0.00     0.060 A 
BRANCH  74  75
ATOM     75  S   UNL     1       6.825   3.055  12.072  1.00  0.00     0.124 S 
ATOM     76  O   UNL     1       5.843   2.864  13.134  1.00  0.00    -0.237 OA
ATOM     77  O   UNL     1       7.084   1.892  11.228  1.00  0.00    -0.237 OA
ATOM     78  O   UNL     1       8.015   3.813  12.453  1.00  0.00    -0.744 OA
ENDBRANCH  74  75
ENDBRANCH  42  67
ENDBRANCH  16  17
ENDBRANCH   9  11
ENDBRANCH   8   9
ENDBRANCH   7   8
ENDBRANCH   6   7
ENDBRANCH   5   6
ENDBRANCH   4   5
ENDBRANCH   3   4
ENDBRANCH   2   3
ENDBRANCH   1   2
BRANCH   1  79
ATOM     79  C   UNL     1       5.202  -0.723  -3.440  1.00  0.00     0.188 C 
BRANCH  79  80
ATOM     80  O   UNL     1       4.872   0.435  -4.195  1.00  0.00    -0.376 OA
BRANCH  80  81
ATOM     81  C   UNL     1       3.678   0.498  -4.954  1.00  0.00     0.202 C 
BRANCH  81  82
ATOM     82  C   UNL     1       3.384  -0.578  -6.009  1.00  0.00     0.261 C 
BRANCH  82  83
ATOM     83  O   UNL     1       3.680  -1.932  -5.646  1.00  0.00    -0.460 OA
BRANCH  83  84
ATOM     84  C   UNL     1       4.898  -2.423  -6.013  1.00  0.00     0.338 C 
ATOM     85  O   UNL     1       5.777  -1.866  -6.616  1.00  0.00    -0.246 OA
BRANCH  84  86
ATOM     86  C   UNL     1       5.003  -3.788  -5.437  1.00  0.00     0.061 A 
ATOM     87  C   UNL     1       4.066  -4.723  -5.851  1.00  0.00     0.019 A 
ATOM     88  C   UNL     1       5.984  -4.114  -4.464  1.00  0.00     0.038 A 
ATOM     89  C   UNL     1       4.140  -5.976  -5.288  1.00  0.00    -0.043 A 
ATOM     90  C   UNL     1       6.004  -5.381  -3.833  1.00  0.00     0.092 A 
ATOM     91  C   UNL     1       5.042  -6.293  -4.243  1.00  0.00    -0.024 A 
ATOM     92  C   UNL     1       3.332  -7.169  -5.700  1.00  0.00     0.036 C 
ATOM     93  C   UNL     1       4.706  -7.676  -3.790  1.00  0.00     0.037 C 
ATOM     94  C   UNL     1       4.229  -8.263  -5.125  1.00  0.00     0.010 C 
BRANCH  90  95
ATOM     95  S   UNL     1       7.074  -5.604  -2.417  1.00  0.00     0.262 S 
ATOM     96  O   UNL     1       7.886  -4.407  -2.306  1.00  0.00    -0.201 OA
ATOM     97  O   UNL     1       6.216  -5.978  -1.310  1.00  0.00    -0.201 OA
BRANCH  95  98
ATOM     98  N   UNL     1       8.210  -6.882  -2.532  1.00  0.00    -0.277 N 
ATOM     99  H   UNL     1       8.987  -6.873  -1.927  1.00  0.00     0.180 HD
BRANCH  98 100
ATOM    100  C   UNL     1       8.085  -7.962  -3.466  1.00  0.00     0.075 A 
ATOM    101  C   UNL     1       7.651  -9.210  -2.983  1.00  0.00     0.042 A 
ATOM    102  C   UNL     1       8.258  -7.783  -4.843  1.00  0.00     0.089 A 
ATOM    103  C   UNL     1       7.251 -10.226  -3.875  1.00  0.00     0.058 A 
ATOM    104  C   UNL     1       7.892  -8.798  -5.737  1.00  0.00     0.031 A 
ATOM    105  C   UNL     1       7.394 -10.012  -5.254  1.00  0.00     0.015 A 
BRANCH 102 106
ATOM    106  N   UNL     1       8.763  -6.571  -5.358  1.00  0.00    -0.239 N 
ATOM    107  C   UNL     1       9.764  -5.789  -4.832  1.00  0.00     0.115 A 
ATOM    108  N   UNL     1       8.174  -5.979  -6.424  1.00  0.00    -0.177 NA
ATOM    109  C   UNL     1       9.682  -4.570  -5.458  1.00  0.00     0.042 A 
ATOM    110  C   UNL     1       8.650  -4.730  -6.396  1.00  0.00     0.135 A 
ENDBRANCH 102 106
BRANCH 103 111
ATOM    111  C   UNL     1       6.566 -11.470  -3.352  1.00  0.00     0.416 C 
ATOM    112  F   UNL     1       7.436 -12.375  -2.832  1.00  0.00    -0.166 F 
ATOM    113  F   UNL     1       5.673 -11.190  -2.362  1.00  0.00    -0.166 F 
ATOM    114  F   UNL     1       5.855 -12.133  -4.308  1.00  0.00    -0.166 F 
ENDBRANCH 103 111
ENDBRANCH  98 100
ENDBRANCH  95  98
ENDBRANCH  90  95
ENDBRANCH  84  86
ENDBRANCH  83  84
ENDBRANCH  82  83
ENDBRANCH  81  82
ENDBRANCH  80  81
ENDBRANCH  79  80
ENDBRANCH   1  79
TORSDOF 28
