REMARK SMILES O=C(CCN1C(=O)[C@@H]2[C@@H](C1=O)[C@H]1c3ccccc3[C@]2(Br)c2ccccc21)OCCOCCOCCOCCOC(=O)c1ccc(-c2c3nc(c(-c4c(F)cc(S(=O)(=O)[O-])cc4F)c4ccc([nH]4)c(-c4c(F)cc(S(=O)(=O)[O-])cc4F)c4nc(c(-c5c(F)cc(S(=O)(=O)[O-])cc5F)c5ccc2[nH]5)C=C4)C=C3)cc1
REMARK SMILES IDX 34 1 33 2 32 3 31 4 30 5 29 6 28 7 27 8 2 9 1 10 3 11 4 12
REMARK SMILES IDX 5 13 6 14 10 15 7 16 8 17 9 18 11 19 19 20 12 21 21 22 20 23
REMARK SMILES IDX 18 24 26 25 13 26 22 27 17 28 25 29 14 30 23 31 16 32 24 33
REMARK SMILES IDX 15 34 35 35 36 36 37 37 38 38 39 39 40 40 41 41 42 42 43 43
REMARK SMILES IDX 107 44 44 45 106 46 45 47 46 48 47 49 100 50 48 51 105 52
REMARK SMILES IDX 99 53 101 54 49 55 104 56 98 57 97 58 50 60 84 61 63 62
REMARK SMILES IDX 83 63 64 64 67 65 82 66 102 67 65 68 66 69 81 71 103 72
REMARK SMILES IDX 68 73 51 74 52 75 61 76 53 77 54 78 60 79 62 80 55 81 56 82
REMARK SMILES IDX 57 83 58 84 59 85 85 86 86 87 95 88 87 89 88 90 94 91 96 92
REMARK SMILES IDX 89 93 90 94 91 95 92 96 93 97 69 98 70 99 79 100 71 101
REMARK SMILES IDX 72 102 78 103 80 104 73 105 74 106 75 107 76 108 77 109
REMARK H PARENT 101 59 67 70
REMARK Flexibility Score: inf
ROOT
ATOM      1  C   UNL     1       3.875   2.910  -2.649  1.00  0.00     0.188 C 
ENDROOT
BRANCH   1   2
ATOM      2  O   UNL     1       2.527   3.196  -2.334  1.00  0.00    -0.377 OA
BRANCH   2   3
ATOM      3  C   UNL     1       1.908   2.467  -1.288  1.00  0.00     0.188 C 
BRANCH   3   4
ATOM      4  C   UNL     1       2.627   2.443   0.069  1.00  0.00     0.188 C 
BRANCH   4   5
ATOM      5  O   UNL     1       4.000   2.070   0.088  1.00  0.00    -0.376 OA
BRANCH   5   6
ATOM      6  C   UNL     1       4.425   0.767  -0.268  1.00  0.00     0.202 C 
BRANCH   6   7
ATOM      7  C   UNL     1       3.424  -0.179  -0.900  1.00  0.00     0.261 C 
BRANCH   7   8
ATOM      8  O   UNL     1       2.241  -0.500  -0.132  1.00  0.00    -0.463 OA
BRANCH   8   9
ATOM      9  C   UNL     1       2.082  -1.015   1.105  1.00  0.00     0.307 C 
ATOM     10  O   UNL     1       0.990  -1.486   1.428  1.00  0.00    -0.252 OA
BRANCH   9  11
ATOM     11  C   UNL     1       3.159  -0.868   2.150  1.00  0.00     0.144 C 
BRANCH  11  12
ATOM     12  C   UNL     1       4.062  -2.084   2.379  1.00  0.00     0.140 C 
BRANCH  12  13
ATOM     13  N   UNL     1       5.064  -2.305   1.346  1.00  0.00    -0.281 N 
ATOM     14  C   UNL     1       6.441  -2.393   1.541  1.00  0.00     0.235 C 
ATOM     15  C   UNL     1       4.710  -2.707   0.084  1.00  0.00     0.234 C 
ATOM     16  O   UNL     1       7.033  -2.390   2.604  1.00  0.00    -0.274 OA
ATOM     17  C   UNL     1       7.034  -2.236   0.167  1.00  0.00     0.118 C 
ATOM     18  C   UNL     1       5.960  -2.895  -0.682  1.00  0.00     0.105 C 
ATOM     19  O   UNL     1       3.599  -3.038  -0.290  1.00  0.00    -0.274 OA
ATOM     20  C   UNL     1       8.376  -2.613  -0.532  1.00  0.00     0.088 C 
ATOM     21  C   UNL     1       6.272  -2.553  -2.165  1.00  0.00     0.063 C 
ATOM     22  C   UNL     1       8.445  -1.434  -1.552  1.00  0.00    -0.022 A 
ATOM     23  Br  UNL     1       9.835  -2.665   0.712  1.00  0.00    -0.074 Br
ATOM     24  C   UNL     1       8.254  -3.872  -1.462  1.00  0.00    -0.022 A 
ATOM     25  C   UNL     1       7.249  -1.358  -2.358  1.00  0.00    -0.035 A 
ATOM     26  C   UNL     1       7.173  -3.764  -2.423  1.00  0.00    -0.035 A 
ATOM     27  C   UNL     1       9.493  -0.540  -1.758  1.00  0.00     0.006 A 
ATOM     28  C   UNL     1       8.998  -5.040  -1.461  1.00  0.00     0.006 A 
ATOM     29  C   UNL     1       7.134  -0.376  -3.336  1.00  0.00     0.005 A 
ATOM     30  C   UNL     1       6.878  -4.747  -3.354  1.00  0.00     0.005 A 
ATOM     31  C   UNL     1       9.360   0.437  -2.745  1.00  0.00     0.000 A 
ATOM     32  C   UNL     1       8.677  -6.051  -2.385  1.00  0.00     0.000 A 
ATOM     33  C   UNL     1       8.194   0.522  -3.518  1.00  0.00     0.000 A 
ATOM     34  C   UNL     1       7.642  -5.902  -3.325  1.00  0.00     0.000 A 
ENDBRANCH  12  13
ENDBRANCH  11  12
ENDBRANCH   9  11
ENDBRANCH   8   9
ENDBRANCH   7   8
ENDBRANCH   6   7
ENDBRANCH   5   6
ENDBRANCH   4   5
ENDBRANCH   3   4
ENDBRANCH   2   3
ENDBRANCH   1   2
BRANCH   1  35
ATOM     35  C   UNL     1       4.940   3.862  -2.060  1.00  0.00     0.188 C 
BRANCH  35  36
ATOM     36  O   UNL     1       4.572   5.056  -1.382  1.00  0.00    -0.376 OA
BRANCH  36  37
ATOM     37  C   UNL     1       3.390   5.748  -1.750  1.00  0.00     0.202 C 
BRANCH  37  38
ATOM     38  C   UNL     1       3.276   6.300  -3.178  1.00  0.00     0.261 C 
BRANCH  38  39
ATOM     39  O   UNL     1       3.446   5.333  -4.230  1.00  0.00    -0.460 OA
BRANCH  39  40
ATOM     40  C   UNL     1       4.621   5.382  -4.906  1.00  0.00     0.338 C 
ATOM     41  O   UNL     1       5.528   6.183  -4.736  1.00  0.00    -0.246 OA
BRANCH  40  42
ATOM     42  C   UNL     1       4.760   4.177  -5.763  1.00  0.00     0.060 A 
ATOM     43  C   UNL     1       3.728   3.733  -6.596  1.00  0.00     0.016 A 
ATOM     44  C   UNL     1       5.958   3.451  -5.690  1.00  0.00     0.016 A 
ATOM     45  C   UNL     1       3.918   2.591  -7.390  1.00  0.00     0.010 A 
ATOM     46  C   UNL     1       6.136   2.300  -6.464  1.00  0.00     0.010 A 
ATOM     47  C   UNL     1       5.129   1.878  -7.344  1.00  0.00    -0.014 A 
BRANCH  47  48
ATOM     48  C   UNL     1       5.450   0.860  -8.378  1.00  0.00     0.031 A 
ATOM     49  C   UNL     1       5.250  -0.613  -8.168  1.00  0.00     0.074 A 
ATOM     50  C   UNL     1       5.972   1.310  -9.536  1.00  0.00     0.049 A 
ATOM     51  N   UNL     1       5.470  -1.595  -9.005  1.00  0.00    -0.248 NA
ATOM     52  C   UNL     1       4.744  -1.043  -6.857  1.00  0.00     0.031 C 
ATOM     53  C   UNL     1       6.234   2.719  -9.844  1.00  0.00     0.029 A 
ATOM     54  N   UNL     1       6.376   0.643 -10.663  1.00  0.00    -0.354 N 
ATOM     55  C   UNL     1       5.097  -2.759  -8.344  1.00  0.00     0.074 A 
ATOM     56  C   UNL     1       4.685  -2.363  -7.011  1.00  0.00     0.031 C 
ATOM     57  C   UNL     1       6.740   2.812 -11.082  1.00  0.00     0.029 A 
ATOM     58  C   UNL     1       6.852   1.473 -11.650  1.00  0.00     0.049 A 
ATOM     59  H   UNL     1       6.329  -0.336 -10.758  1.00  0.00     0.167 HD
ATOM     60  C   UNL     1       5.076  -4.030  -8.819  1.00  0.00     0.037 A 
ATOM     61  C   UNL     1       7.319   1.192 -12.881  1.00  0.00     0.037 A 
ATOM     62  C   UNL     1       5.505  -4.418 -10.144  1.00  0.00     0.049 A 
ATOM     63  C   UNL     1       7.333  -0.233 -13.355  1.00  0.00     0.074 A 
ATOM     64  C   UNL     1       5.509  -5.683 -10.712  1.00  0.00     0.029 A 
ATOM     65  N   UNL     1       6.004  -3.555 -11.110  1.00  0.00    -0.354 N 
ATOM     66  N   UNL     1       6.931  -1.314 -12.731  1.00  0.00    -0.248 NA
ATOM     67  C   UNL     1       7.850  -0.473 -14.709  1.00  0.00     0.031 C 
ATOM     68  C   UNL     1       6.041  -5.591 -12.002  1.00  0.00     0.029 A 
ATOM     69  C   UNL     1       6.326  -4.261 -12.260  1.00  0.00     0.049 A 
ATOM     70  H   UNL     1       6.114  -2.583 -10.995  1.00  0.00     0.167 HD
ATOM     71  C   UNL     1       7.109  -2.357 -13.633  1.00  0.00     0.074 A 
ATOM     72  C   UNL     1       7.644  -1.775 -14.847  1.00  0.00     0.031 C 
ATOM     73  C   UNL     1       6.849  -3.678 -13.470  1.00  0.00     0.037 A 
BRANCH  60  74
ATOM     74  C   UNL     1       4.533  -5.118  -7.931  1.00  0.00     0.058 A 
ATOM     75  C   UNL     1       3.153  -5.237  -7.703  1.00  0.00     0.135 A 
ATOM     76  C   UNL     1       5.368  -6.129  -7.429  1.00  0.00     0.135 A 
ATOM     77  F   UNL     1       2.310  -4.293  -8.150  1.00  0.00    -0.206 F 
ATOM     78  C   UNL     1       2.619  -6.324  -7.017  1.00  0.00     0.059 A 
ATOM     79  C   UNL     1       4.854  -7.237  -6.759  1.00  0.00     0.059 A 
ATOM     80  F   UNL     1       6.696  -6.066  -7.618  1.00  0.00    -0.206 F 
ATOM     81  C   UNL     1       3.477  -7.326  -6.560  1.00  0.00     0.060 A 
BRANCH  81  82
ATOM     82  S   UNL     1       2.759  -8.759  -5.728  1.00  0.00     0.124 S 
ATOM     83  O   UNL     1       2.270  -8.159  -4.491  1.00  0.00    -0.237 OA
ATOM     84  O   UNL     1       1.735  -9.186  -6.676  1.00  0.00    -0.237 OA
ATOM     85  O   UNL     1       3.892  -9.667  -5.577  1.00  0.00    -0.744 OA
ENDBRANCH  81  82
ENDBRANCH  60  74
BRANCH  61  86
ATOM     86  C   UNL     1       7.766   2.291 -13.775  1.00  0.00     0.058 A 
ATOM     87  C   UNL     1       7.027   2.627 -14.918  1.00  0.00     0.135 A 
ATOM     88  C   UNL     1       8.941   3.012 -13.515  1.00  0.00     0.135 A 
ATOM     89  F   UNL     1       5.896   1.964 -15.204  1.00  0.00    -0.206 F 
ATOM     90  C   UNL     1       7.456   3.615 -15.796  1.00  0.00     0.059 A 
ATOM     91  C   UNL     1       9.375   4.024 -14.363  1.00  0.00     0.059 A 
ATOM     92  F   UNL     1       9.669   2.743 -12.420  1.00  0.00    -0.206 F 
ATOM     93  C   UNL     1       8.635   4.305 -15.511  1.00  0.00     0.060 A 
BRANCH  93  94
ATOM     94  S   UNL     1       9.181   5.587 -16.658  1.00  0.00     0.124 S 
ATOM     95  O   UNL     1       9.636   4.790 -17.792  1.00  0.00    -0.237 OA
ATOM     96  O   UNL     1       7.957   6.354 -16.865  1.00  0.00    -0.237 OA
ATOM     97  O   UNL     1      10.228   6.279 -15.913  1.00  0.00    -0.744 OA
ENDBRANCH  93  94
ENDBRANCH  61  86
BRANCH  73  98
ATOM     98  C   UNL     1       7.099  -4.578 -14.650  1.00  0.00     0.058 A 
ATOM     99  C   UNL     1       8.398  -4.880 -15.089  1.00  0.00     0.135 A 
ATOM    100  C   UNL     1       6.024  -5.151 -15.348  1.00  0.00     0.135 A 
ATOM    101  F   UNL     1       9.463  -4.354 -14.463  1.00  0.00    -0.206 F 
ATOM    102  C   UNL     1       8.621  -5.684 -16.203  1.00  0.00     0.059 A 
ATOM    103  C   UNL     1       6.224  -5.983 -16.446  1.00  0.00     0.059 A 
ATOM    104  F   UNL     1       4.761  -4.905 -14.965  1.00  0.00    -0.206 F 
ATOM    105  C   UNL     1       7.527  -6.229 -16.877  1.00  0.00     0.060 A 
BRANCH 105 106
ATOM    106  S   UNL     1       7.832  -7.270 -18.320  1.00  0.00     0.124 S 
ATOM    107  O   UNL     1       8.251  -6.284 -19.311  1.00  0.00    -0.237 OA
ATOM    108  O   UNL     1       8.877  -8.169 -17.840  1.00  0.00    -0.237 OA
ATOM    109  O   UNL     1       6.537  -7.898 -18.567  1.00  0.00    -0.744 OA
ENDBRANCH 105 106
ENDBRANCH  73  98
ENDBRANCH  47  48
ENDBRANCH  40  42
ENDBRANCH  39  40
ENDBRANCH  38  39
ENDBRANCH  37  38
ENDBRANCH  36  37
ENDBRANCH  35  36
ENDBRANCH   1  35
TORSDOF 25
