REMARK SMILES O=C(OCCOCCOCCOCCOC(=O)[C@H]1Cc2c([nH]c3ccccc23)[C@H](c2c[nH]c3ccccc23)[NH2+]1)c1ccc(-c2c3nc(c(-c4c(F)cc(S(=O)(=O)[O-])cc4F)c4ccc([nH]4)c(-c4c(F)cc(S(=O)(=O)[O-])cc4F)c4nc(c(-c5c(F)cc(S(=O)(=O)[O-])cc5F)c5ccc2[nH]5)C=C4)C=C3)cc1
REMARK SMILES IDX 8 1 7 2 6 3 5 4 4 5 3 6 2 7 1 8 40 9 41 10 105 11 42 12
REMARK SMILES IDX 104 13 43 14 44 15 45 16 98 17 46 18 103 19 97 20 99 21
REMARK SMILES IDX 47 22 102 23 96 24 95 25 48 27 82 28 61 29 81 30 62 31 65 32
REMARK SMILES IDX 80 33 100 34 63 35 64 36 79 38 101 39 66 40 49 41 50 42
REMARK SMILES IDX 59 43 51 44 52 45 58 46 60 47 53 48 54 49 55 50 56 51 57 52
REMARK SMILES IDX 83 53 84 54 93 55 85 56 86 57 92 58 94 59 87 60 88 61 89 62
REMARK SMILES IDX 90 63 91 64 67 65 68 66 77 67 69 68 70 69 76 70 78 71 71 72
REMARK SMILES IDX 72 73 73 74 74 75 75 76 9 77 10 78 11 79 12 80 13 81 14 82
REMARK SMILES IDX 15 83 16 84 17 85 18 86 19 87 39 88 20 89 29 90 21 93 28 94
REMARK SMILES IDX 22 95 23 96 27 97 24 99 26 100 25 101 30 102 31 103 38 104
REMARK SMILES IDX 32 105 33 106 37 107 34 109 36 110 35 111
REMARK H PARENT 99 26 65 37 39 91 39 92 22 98 32 108
REMARK Flexibility Score: inf
ROOT
ATOM      1  C   UNL     1       1.874   1.251   2.152  1.00  0.00     0.188 C 
ENDROOT
BRANCH   1   2
ATOM      2  C   UNL     1       2.213   0.916   0.710  1.00  0.00     0.188 C 
BRANCH   2   3
ATOM      3  O   UNL     1       3.527   0.383   0.640  1.00  0.00    -0.376 OA
BRANCH   3   4
ATOM      4  C   UNL     1       4.402   0.873  -0.369  1.00  0.00     0.202 C 
BRANCH   4   5
ATOM      5  C   UNL     1       4.025   0.477  -1.788  1.00  0.00     0.261 C 
BRANCH   5   6
ATOM      6  O   UNL     1       2.682  -0.010  -1.942  1.00  0.00    -0.460 OA
BRANCH   6   7
ATOM      7  C   UNL     1       2.133  -1.209  -1.636  1.00  0.00     0.338 C 
ATOM      8  O   UNL     1       0.936  -1.370  -1.879  1.00  0.00    -0.246 OA
BRANCH   7   9
ATOM      9  C   UNL     1       2.865  -2.355  -1.019  1.00  0.00     0.060 A 
ATOM     10  C   UNL     1       3.970  -2.252  -0.181  1.00  0.00     0.016 A 
ATOM     11  C   UNL     1       2.336  -3.639  -1.226  1.00  0.00     0.016 A 
ATOM     12  C   UNL     1       4.573  -3.343   0.398  1.00  0.00     0.010 A 
ATOM     13  C   UNL     1       2.926  -4.763  -0.639  1.00  0.00     0.010 A 
ATOM     14  C   UNL     1       4.064  -4.604   0.157  1.00  0.00    -0.014 A 
BRANCH  14  15
ATOM     15  C   UNL     1       4.930  -5.710   0.566  1.00  0.00     0.031 A 
ATOM     16  C   UNL     1       5.759  -6.337  -0.508  1.00  0.00     0.074 A 
ATOM     17  C   UNL     1       5.132  -5.942   1.875  1.00  0.00     0.049 A 
ATOM     18  N   UNL     1       6.552  -7.365  -0.442  1.00  0.00    -0.248 NA
ATOM     19  C   UNL     1       5.704  -5.701  -1.840  1.00  0.00     0.031 C 
ATOM     20  C   UNL     1       4.525  -5.179   2.974  1.00  0.00     0.029 A 
ATOM     21  N   UNL     1       5.935  -6.847   2.505  1.00  0.00    -0.354 N 
ATOM     22  C   UNL     1       7.044  -7.533  -1.729  1.00  0.00     0.074 A 
ATOM     23  C   UNL     1       6.480  -6.495  -2.557  1.00  0.00     0.031 C 
ATOM     24  C   UNL     1       4.979  -5.656   4.143  1.00  0.00     0.029 A 
ATOM     25  C   UNL     1       5.830  -6.807   3.875  1.00  0.00     0.049 A 
ATOM     26  H   UNL     1       6.530  -7.468   2.026  1.00  0.00     0.167 HD
ATOM     27  C   UNL     1       7.881  -8.497  -2.165  1.00  0.00     0.037 A 
ATOM     28  C   UNL     1       6.324  -7.661   4.789  1.00  0.00     0.037 A 
ATOM     29  C   UNL     1       8.407  -9.501  -1.284  1.00  0.00     0.049 A 
ATOM     30  C   UNL     1       7.135  -8.815   4.262  1.00  0.00     0.074 A 
ATOM     31  C   UNL     1       9.179 -10.603  -1.584  1.00  0.00     0.029 A 
ATOM     32  N   UNL     1       8.200  -9.508   0.092  1.00  0.00    -0.354 N 
ATOM     33  N   UNL     1       7.500  -9.065   3.023  1.00  0.00    -0.248 NA
ATOM     34  C   UNL     1       7.582  -9.812   5.237  1.00  0.00     0.031 C 
ATOM     35  C   UNL     1       9.394 -11.307  -0.394  1.00  0.00     0.029 A 
ATOM     36  C   UNL     1       8.811 -10.608   0.657  1.00  0.00     0.049 A 
ATOM     37  H   UNL     1       7.692  -8.827   0.590  1.00  0.00     0.167 HD
ATOM     38  C   UNL     1       8.237 -10.239   3.070  1.00  0.00     0.074 A 
ATOM     39  C   UNL     1       8.280 -10.636   4.467  1.00  0.00     0.031 C 
ATOM     40  C   UNL     1       8.824 -10.935   2.063  1.00  0.00     0.037 A 
BRANCH  27  41
ATOM     41  C   UNL     1       8.154  -8.551  -3.639  1.00  0.00     0.058 A 
ATOM     42  C   UNL     1       8.947  -7.596  -4.295  1.00  0.00     0.135 A 
ATOM     43  C   UNL     1       7.552  -9.550  -4.421  1.00  0.00     0.135 A 
ATOM     44  F   UNL     1       9.503  -6.588  -3.604  1.00  0.00    -0.206 F 
ATOM     45  C   UNL     1       9.120  -7.621  -5.676  1.00  0.00     0.059 A 
ATOM     46  C   UNL     1       7.732  -9.609  -5.799  1.00  0.00     0.059 A 
ATOM     47  F   UNL     1       6.756 -10.468  -3.849  1.00  0.00    -0.206 F 
ATOM     48  C   UNL     1       8.509  -8.633  -6.419  1.00  0.00     0.060 A 
BRANCH  48  49
ATOM     49  S   UNL     1       8.751  -8.654  -8.207  1.00  0.00     0.124 S 
ATOM     50  O   UNL     1       7.954  -7.508  -8.626  1.00  0.00    -0.237 OA
ATOM     51  O   UNL     1      10.195  -8.504  -8.328  1.00  0.00    -0.237 OA
ATOM     52  O   UNL     1       8.224  -9.962  -8.605  1.00  0.00    -0.744 OA
ENDBRANCH  48  49
ENDBRANCH  27  41
BRANCH  28  53
ATOM     53  C   UNL     1       5.992  -7.514   6.233  1.00  0.00     0.058 A 
ATOM     54  C   UNL     1       6.985  -7.287   7.196  1.00  0.00     0.135 A 
ATOM     55  C   UNL     1       4.664  -7.615   6.687  1.00  0.00     0.135 A 
ATOM     56  F   UNL     1       8.270  -7.184   6.821  1.00  0.00    -0.206 F 
ATOM     57  C   UNL     1       6.683  -7.192   8.552  1.00  0.00     0.059 A 
ATOM     58  C   UNL     1       4.332  -7.492   8.034  1.00  0.00     0.059 A 
ATOM     59  F   UNL     1       3.666  -7.822   5.814  1.00  0.00    -0.206 F 
ATOM     60  C   UNL     1       5.352  -7.298   8.962  1.00  0.00     0.060 A 
BRANCH  60  61
ATOM     61  S   UNL     1       4.970  -7.168  10.722  1.00  0.00     0.124 S 
ATOM     62  O   UNL     1       5.504  -8.425  11.233  1.00  0.00    -0.237 OA
ATOM     63  O   UNL     1       5.697  -5.962  11.105  1.00  0.00    -0.237 OA
ATOM     64  O   UNL     1       3.515  -7.047  10.743  1.00  0.00    -0.744 OA
ENDBRANCH  60  61
ENDBRANCH  28  53
BRANCH  40  65
ATOM     65  C   UNL     1       9.591 -12.161   2.454  1.00  0.00     0.058 A 
ATOM     66  C   UNL     1       8.943 -13.339   2.850  1.00  0.00     0.135 A 
ATOM     67  C   UNL     1      10.991 -12.169   2.356  1.00  0.00     0.135 A 
ATOM     68  F   UNL     1       7.605 -13.372   2.963  1.00  0.00    -0.206 F 
ATOM     69  C   UNL     1       9.662 -14.485   3.157  1.00  0.00     0.059 A 
ATOM     70  C   UNL     1      11.727 -13.314   2.624  1.00  0.00     0.059 A 
ATOM     71  F   UNL     1      11.650 -11.066   1.967  1.00  0.00    -0.206 F 
ATOM     72  C   UNL     1      11.054 -14.463   3.035  1.00  0.00     0.060 A 
BRANCH  72  73
ATOM     73  S   UNL     1      11.972 -15.972   3.392  1.00  0.00     0.124 S 
ATOM     74  O   UNL     1      11.885 -16.030   4.847  1.00  0.00    -0.237 OA
ATOM     75  O   UNL     1      11.205 -16.982   2.669  1.00  0.00    -0.237 OA
ATOM     76  O   UNL     1      13.300 -15.697   2.852  1.00  0.00    -0.744 OA
ENDBRANCH  72  73
ENDBRANCH  40  65
ENDBRANCH  14  15
ENDBRANCH   7   9
ENDBRANCH   6   7
ENDBRANCH   5   6
ENDBRANCH   4   5
ENDBRANCH   3   4
ENDBRANCH   2   3
ENDBRANCH   1   2
BRANCH   1  77
ATOM     77  O   UNL     1       2.809   2.136   2.753  1.00  0.00    -0.377 OA
BRANCH  77  78
ATOM     78  C   UNL     1       4.180   1.745   2.727  1.00  0.00     0.188 C 
BRANCH  78  79
ATOM     79  C   UNL     1       4.661   0.448   3.352  1.00  0.00     0.188 C 
BRANCH  79  80
ATOM     80  O   UNL     1       3.586  -0.315   3.839  1.00  0.00    -0.376 OA
BRANCH  80  81
ATOM     81  C   UNL     1       3.319  -0.168   5.221  1.00  0.00     0.202 C 
BRANCH  81  82
ATOM     82  C   UNL     1       2.885   1.185   5.861  1.00  0.00     0.261 C 
BRANCH  82  83
ATOM     83  O   UNL     1       3.244   2.475   5.311  1.00  0.00    -0.459 OA
BRANCH  83  84
ATOM     84  C   UNL     1       4.468   2.993   5.577  1.00  0.00     0.365 C 
ATOM     85  O   UNL     1       5.331   2.364   6.184  1.00  0.00    -0.245 OA
BRANCH  84  86
ATOM     86  C   UNL     1       4.710   4.443   5.042  1.00  0.00     0.298 C 
ATOM     87  C   UNL     1       4.944   4.589   3.528  1.00  0.00     0.115 C 
ATOM     88  N   UNL     1       3.668   5.428   5.489  1.00  0.00    -0.323 N 
ATOM     89  C   UNL     1       5.155   5.995   3.145  1.00  0.00    -0.006 A 
ATOM     90  C   UNL     1       4.171   6.821   5.374  1.00  0.00     0.264 C 
ATOM     91  H   UNL     1       3.426   5.239   6.461  1.00  0.00     0.347 HD
ATOM     92  H   UNL     1       2.848   5.328   4.890  1.00  0.00     0.347 HD
ATOM     93  C   UNL     1       4.778   7.014   3.989  1.00  0.00     0.083 A 
ATOM     94  C   UNL     1       5.640   6.527   1.931  1.00  0.00     0.003 A 
ATOM     95  N   UNL     1       5.023   8.184   3.309  1.00  0.00    -0.353 N 
ATOM     96  C   UNL     1       5.556   7.913   2.054  1.00  0.00     0.046 A 
ATOM     97  C   UNL     1       6.119   5.957   0.734  1.00  0.00     0.010 A 
ATOM     98  H   UNL     1       4.845   9.086   3.662  1.00  0.00     0.166 HD
ATOM     99  C   UNL     1       5.955   8.764   1.012  1.00  0.00     0.026 A 
ATOM    100  C   UNL     1       6.515   6.793  -0.312  1.00  0.00     0.001 A 
ATOM    101  C   UNL     1       6.436   8.176  -0.170  1.00  0.00     0.002 A 
BRANCH  90 102
ATOM    102  C   UNL     1       5.148   7.162   6.498  1.00  0.00     0.041 A 
ATOM    103  C   UNL     1       5.738   8.411   6.637  1.00  0.00     0.093 A 
ATOM    104  C   UNL     1       5.698   6.355   7.581  1.00  0.00     0.009 A 
ATOM    105  N   UNL     1       6.681   8.352   7.622  1.00  0.00    -0.361 N 
ATOM    106  C   UNL     1       6.724   7.097   8.171  1.00  0.00     0.046 A 
ATOM    107  C   UNL     1       5.497   5.049   8.095  1.00  0.00     0.011 A 
ATOM    108  H   UNL     1       7.251   9.105   7.900  1.00  0.00     0.166 HD
ATOM    109  C   UNL     1       7.596   6.572   9.136  1.00  0.00     0.026 A 
ATOM    110  C   UNL     1       6.386   4.488   9.018  1.00  0.00     0.001 A 
ATOM    111  C   UNL     1       7.434   5.239   9.520  1.00  0.00     0.002 A 
ENDBRANCH  90 102
ENDBRANCH  84  86
ENDBRANCH  83  84
ENDBRANCH  82  83
ENDBRANCH  81  82
ENDBRANCH  80  81
ENDBRANCH  79  80
ENDBRANCH  78  79
ENDBRANCH  77  78
ENDBRANCH   1  77
TORSDOF 24
