REMARK SMILES Cc1c(C[N@H+]2CC[C@@H](C(=O)OCCOCCOCCOCCOC(=O)c3ccc(-c4c5nc(c(-c6c(F)cc(S(=O)(=O)[O-])cc6F)c6ccc([nH]6)c(-c6c(F)cc(S(=O)(=O)[O-])cc6F)c6nc(c(-c7c(F)cc(S(=O)(=O)[O-])cc7F)c7ccc4[nH]7)C=C6)C=C5)cc3)[C@@H]2C)cccc1[N+](=O)[O-]
REMARK SMILES IDX 17 1 16 2 15 3 14 4 13 5 12 6 11 7 9 8 10 9 8 10 5 11 6 12
REMARK SMILES IDX 92 13 7 15 93 16 4 17 3 18 1 19 2 20 97 21 94 22 96 23 95 24
REMARK SMILES IDX 98 25 99 26 100 27 18 28 19 29 20 30 21 31 22 32 23 33 24 34
REMARK SMILES IDX 25 35 26 36 27 37 91 38 28 39 90 40 29 41 30 42 31 43 84 44
REMARK SMILES IDX 32 45 89 46 83 47 85 48 33 49 88 50 82 51 81 52 34 54 68 55
REMARK SMILES IDX 47 56 67 57 48 58 51 59 66 60 86 61 49 62 50 63 65 65 87 66
REMARK SMILES IDX 52 67 35 68 36 69 45 70 37 71 38 72 44 73 46 74 39 75 40 76
REMARK SMILES IDX 41 77 42 78 43 79 69 80 70 81 79 82 71 83 72 84 78 85 80 86
REMARK SMILES IDX 73 87 74 88 75 89 76 90 77 91 53 92 54 93 63 94 55 95 56 96
REMARK SMILES IDX 62 97 64 98 57 99 58 100 59 101 60 102 61 103
REMARK H PARENT 5 14 85 53 51 64
REMARK Flexibility Score: inf
ROOT
ATOM      1  O   UNL     1      -3.223  -5.552  -0.591  1.00  0.00    -0.377 OA
ENDROOT
BRANCH   1   2
ATOM      2  C   UNL     1      -2.766  -5.319   0.746  1.00  0.00     0.188 C 
BRANCH   2   3
ATOM      3  C   UNL     1      -3.758  -5.119   1.957  1.00  0.00     0.188 C 
BRANCH   3   4
ATOM      4  O   UNL     1      -4.517  -3.935   2.215  1.00  0.00    -0.376 OA
BRANCH   4   5
ATOM      5  C   UNL     1      -3.766  -2.750   2.198  1.00  0.00     0.202 C 
BRANCH   5   6
ATOM      6  C   UNL     1      -3.489  -1.865   3.373  1.00  0.00     0.261 C 
BRANCH   6   7
ATOM      7  O   UNL     1      -2.121  -1.947   3.748  1.00  0.00    -0.463 OA
BRANCH   7   8
ATOM      8  C   UNL     1      -1.746  -3.071   4.349  1.00  0.00     0.315 C 
ATOM      9  O   UNL     1      -2.489  -3.874   4.888  1.00  0.00    -0.252 OA
BRANCH   8  10
ATOM     10  C   UNL     1      -0.296  -3.287   4.061  1.00  0.00     0.162 C 
ATOM     11  N   UNL     1       1.237  -2.796   2.277  1.00  0.00    -0.328 N 
ATOM     12  C   UNL     1       1.821  -2.438   3.562  1.00  0.00     0.263 C 
ATOM     13  C   UNL     1      -0.026  -3.487   2.546  1.00  0.00     0.195 C 
ATOM     14  H   UNL     1       1.809  -3.474   1.774  1.00  0.00     0.348 HD
ATOM     15  C   UNL     1       0.620  -2.136   4.429  1.00  0.00     0.083 C 
ATOM     16  C   UNL     1       0.071  -5.002   2.311  1.00  0.00     0.076 C 
BRANCH  11  17
ATOM     17  C   UNL     1       1.419  -1.866   1.137  1.00  0.00     0.299 C 
BRANCH  17  18
ATOM     18  C   UNL     1       0.745  -0.475   0.860  1.00  0.00     0.016 A 
ATOM     19  C   UNL     1       3.170   0.524  -0.290  1.00  0.00     0.052 C 
ATOM     20  C   UNL     1       1.686   0.742  -0.096  1.00  0.00     0.036 A 
ATOM     21  C   UNL     1       0.931   2.295  -0.667  1.00  0.00     0.272 A 
ATOM     22  C   UNL     1      -0.978  -0.116   1.261  1.00  0.00     0.010 A 
ATOM     23  C   UNL     1      -0.793   2.705  -0.197  1.00  0.00     0.086 A 
ATOM     24  C   UNL     1      -1.764   1.494   0.764  1.00  0.00     0.008 A 
BRANCH  21  25
ATOM     25  N   UNL     1       1.710   3.309  -1.384  1.00  0.00     0.062 N 
ATOM     26  O   UNL     1       1.123   4.354  -1.686  1.00  0.00    -0.258 OA
ATOM     27  O   UNL     1       2.909   3.089  -1.586  1.00  0.00    -0.258 OA
ENDBRANCH  21  25
ENDBRANCH  17  18
ENDBRANCH  11  17
ENDBRANCH   8  10
ENDBRANCH   7   8
ENDBRANCH   6   7
ENDBRANCH   5   6
ENDBRANCH   4   5
ENDBRANCH   3   4
ENDBRANCH   2   3
ENDBRANCH   1   2
BRANCH   1  28
ATOM     28  C   UNL     1      -3.332  -4.346  -1.338  1.00  0.00     0.188 C 
BRANCH  28  29
ATOM     29  C   UNL     1      -4.471  -4.288  -2.281  1.00  0.00     0.188 C 
BRANCH  29  30
ATOM     30  O   UNL     1      -5.559  -4.515  -1.394  1.00  0.00    -0.376 OA
BRANCH  30  31
ATOM     31  C   UNL     1      -5.994  -5.828  -1.170  1.00  0.00     0.202 C 
BRANCH  31  32
ATOM     32  C   UNL     1      -6.531  -6.306  -2.488  1.00  0.00     0.261 C 
BRANCH  32  33
ATOM     33  O   UNL     1      -7.694  -5.477  -2.866  1.00  0.00    -0.460 OA
BRANCH  33  34
ATOM     34  C   UNL     1      -7.618  -4.227  -3.447  1.00  0.00     0.338 C 
ATOM     35  O   UNL     1      -7.860  -4.081  -4.641  1.00  0.00    -0.246 OA
BRANCH  34  36
ATOM     36  C   UNL     1      -7.437  -2.998  -2.562  1.00  0.00     0.060 A 
ATOM     37  C   UNL     1      -6.891  -1.821  -3.105  1.00  0.00     0.016 A 
ATOM     38  C   UNL     1      -7.557  -3.054  -1.177  1.00  0.00     0.016 A 
ATOM     39  C   UNL     1      -6.206  -0.884  -2.289  1.00  0.00     0.010 A 
ATOM     40  C   UNL     1      -6.737  -2.216  -0.393  1.00  0.00     0.010 A 
ATOM     41  C   UNL     1      -5.995  -1.149  -0.933  1.00  0.00    -0.014 A 
BRANCH  41  42
ATOM     42  C   UNL     1      -5.031  -0.350  -0.074  1.00  0.00     0.031 A 
ATOM     43  C   UNL     1      -5.602   0.029   1.394  1.00  0.00     0.074 A 
ATOM     44  C   UNL     1      -3.677  -0.499  -0.315  1.00  0.00     0.049 A 
ATOM     45  N   UNL     1      -5.012   0.457   2.485  1.00  0.00    -0.248 NA
ATOM     46  C   UNL     1      -7.047  -0.138   1.662  1.00  0.00     0.031 C 
ATOM     47  C   UNL     1      -2.808  -1.683  -0.298  1.00  0.00     0.029 A 
ATOM     48  N   UNL     1      -2.894   0.197  -1.240  1.00  0.00    -0.354 N 
ATOM     49  C   UNL     1      -5.888   0.257   3.608  1.00  0.00     0.074 A 
ATOM     50  C   UNL     1      -7.151  -0.056   2.993  1.00  0.00     0.031 C 
ATOM     51  C   UNL     1      -1.581  -1.558  -0.818  1.00  0.00     0.029 A 
ATOM     52  C   UNL     1      -1.478  -0.176  -1.129  1.00  0.00     0.049 A 
ATOM     53  H   UNL     1      -3.247   0.854  -1.884  1.00  0.00     0.167 HD
ATOM     54  C   UNL     1      -5.485   0.228   4.943  1.00  0.00     0.037 A 
ATOM     55  C   UNL     1      -0.430   0.668  -0.673  1.00  0.00     0.037 A 
ATOM     56  C   UNL     1      -4.048   0.543   5.111  1.00  0.00     0.049 A 
ATOM     57  C   UNL     1       0.216   1.584   1.203  1.00  0.00     0.074 A 
ATOM     58  C   UNL     1      -3.014  -0.096   5.784  1.00  0.00     0.029 A 
ATOM     59  N   UNL     1      -3.456   1.621   4.468  1.00  0.00    -0.354 N 
ATOM     60  N   UNL     1      -0.219   1.389   2.538  1.00  0.00    -0.248 NA
ATOM     61  C   UNL     1       1.085   2.910   1.560  1.00  0.00     0.031 C 
ATOM     62  C   UNL     1      -1.804   0.592   5.532  1.00  0.00     0.029 A 
ATOM     63  C   UNL     1      -2.091   1.670   4.723  1.00  0.00     0.049 A 
ATOM     64  H   UNL     1      -3.940   2.268   3.905  1.00  0.00     0.167 HD
ATOM     65  C   UNL     1      -0.423   2.583   3.224  1.00  0.00     0.074 A 
ATOM     66  C   UNL     1       0.379   3.512   2.509  1.00  0.00     0.031 C 
ATOM     67  C   UNL     1      -1.294   2.796   4.271  1.00  0.00     0.037 A 
BRANCH  54  68
ATOM     68  C   UNL     1      -6.259  -0.295   6.259  1.00  0.00     0.058 A 
ATOM     69  C   UNL     1      -5.614  -0.224   7.537  1.00  0.00     0.135 A 
ATOM     70  C   UNL     1      -7.518  -0.938   6.358  1.00  0.00     0.135 A 
ATOM     71  F   UNL     1      -4.498   0.493   7.720  1.00  0.00    -0.206 F 
ATOM     72  C   UNL     1      -6.075  -0.826   8.722  1.00  0.00     0.059 A 
ATOM     73  C   UNL     1      -8.048  -1.480   7.570  1.00  0.00     0.059 A 
ATOM     74  F   UNL     1      -8.321  -1.073   5.298  1.00  0.00    -0.206 F 
ATOM     75  C   UNL     1      -7.303  -1.450   8.743  1.00  0.00     0.060 A 
BRANCH  75  76
ATOM     76  S   UNL     1      -7.914  -2.085  10.331  1.00  0.00     0.124 S 
ATOM     77  O   UNL     1      -7.049  -3.238  10.563  1.00  0.00    -0.237 OA
ATOM     78  O   UNL     1      -7.700  -0.952  11.227  1.00  0.00    -0.237 OA
ATOM     79  O   UNL     1      -9.314  -2.400  10.060  1.00  0.00    -0.744 OA
ENDBRANCH  75  76
ENDBRANCH  54  68
BRANCH  55  80
ATOM     80  C   UNL     1      -0.416   1.206  -2.370  1.00  0.00     0.058 A 
ATOM     81  C   UNL     1       0.184   0.257  -3.245  1.00  0.00     0.135 A 
ATOM     82  C   UNL     1      -1.585   1.850  -2.931  1.00  0.00     0.135 A 
ATOM     83  F   UNL     1       1.357  -0.303  -2.914  1.00  0.00    -0.206 F 
ATOM     84  C   UNL     1      -0.531  -0.320  -4.308  1.00  0.00     0.059 A 
ATOM     85  C   UNL     1      -2.314   1.274  -3.987  1.00  0.00     0.059 A 
ATOM     86  F   UNL     1      -2.244   2.809  -2.262  1.00  0.00    -0.206 F 
ATOM     87  C   UNL     1      -1.832   0.108  -4.573  1.00  0.00     0.060 A 
BRANCH  87  88
ATOM     88  S   UNL     1      -3.018  -1.107  -5.256  1.00  0.00     0.124 S 
ATOM     89  O   UNL     1      -2.798  -0.985  -6.689  1.00  0.00    -0.237 OA
ATOM     90  O   UNL     1      -2.573  -2.353  -4.634  1.00  0.00    -0.237 OA
ATOM     91  O   UNL     1      -4.297  -0.614  -4.758  1.00  0.00    -0.744 OA
ENDBRANCH  87  88
ENDBRANCH  55  80
BRANCH  67  92
ATOM     92  C   UNL     1      -1.480   4.145   4.981  1.00  0.00     0.058 A 
ATOM     93  C   UNL     1      -0.553   5.194   4.894  1.00  0.00     0.135 A 
ATOM     94  C   UNL     1      -2.565   4.422   5.854  1.00  0.00     0.135 A 
ATOM     95  F   UNL     1       0.708   4.989   4.495  1.00  0.00    -0.206 F 
ATOM     96  C   UNL     1      -0.793   6.474   5.366  1.00  0.00     0.059 A 
ATOM     97  C   UNL     1      -2.753   5.662   6.477  1.00  0.00     0.059 A 
ATOM     98  F   UNL     1      -3.460   3.485   6.197  1.00  0.00    -0.206 F 
ATOM     99  C   UNL     1      -1.881   6.698   6.186  1.00  0.00     0.060 A 
BRANCH  99 100
ATOM    100  S   UNL     1      -1.960   8.286   7.022  1.00  0.00     0.124 S 
ATOM    101  O   UNL     1      -0.580   8.456   7.473  1.00  0.00    -0.237 OA
ATOM    102  O   UNL     1      -2.380   9.170   5.941  1.00  0.00    -0.237 OA
ATOM    103  O   UNL     1      -2.936   8.068   8.082  1.00  0.00    -0.744 OA
ENDBRANCH  99 100
ENDBRANCH  67  92
ENDBRANCH  41  42
ENDBRANCH  34  36
ENDBRANCH  33  34
ENDBRANCH  32  33
ENDBRANCH  31  32
ENDBRANCH  30  31
ENDBRANCH  29  30
ENDBRANCH  28  29
ENDBRANCH   1  28
TORSDOF 26
