REMARK SMILES Cc1cnn(C2(C(=O)OCCOCCOCCOCCOC(=O)c3ccc(-c4c5nc(c(-c6c(F)cc(S(=O)(=O)[O-])cc6F)c6ccc([nH]6)c(-c6c(F)cc(S(=O)(=O)[O-])cc6F)c6nc(c(-c7c(F)cc(S(=O)(=O)[O-])cc7F)c7ccc4[nH]7)C=C6)C=C5)cc3)CCN(C(=O)c3cc4ccccc4[nH]3)CC2)c1
REMARK SMILES IDX 16 1 15 2 14 3 13 4 12 5 11 6 10 7 9 8 7 9 8 10 6 11 90 12
REMARK SMILES IDX 105 13 91 14 104 15 92 16 93 17 94 18 5 19 1 20 2 21 3 22
REMARK SMILES IDX 106 23 4 24 95 25 96 26 103 27 97 28 102 29 98 31 101 32
REMARK SMILES IDX 99 33 100 34 17 35 18 36 19 37 20 38 21 39 22 40 23 41 24 42
REMARK SMILES IDX 25 43 89 44 26 45 88 46 27 47 28 48 29 49 82 50 30 51 87 52
REMARK SMILES IDX 81 53 83 54 31 55 86 56 80 57 79 58 32 60 66 61 45 62 65 63
REMARK SMILES IDX 46 64 49 65 64 66 84 67 47 68 48 69 63 71 85 72 50 73 33 74
REMARK SMILES IDX 34 75 43 76 35 77 36 78 42 79 44 80 37 81 38 82 39 83 40 84
REMARK SMILES IDX 41 85 67 86 68 87 77 88 69 89 70 90 76 91 78 92 71 93 72 94
REMARK SMILES IDX 73 95 74 96 75 97 51 98 52 99 61 100 53 101 54 102 60 103
REMARK SMILES IDX 62 104 55 105 56 106 57 107 58 108 59 109
REMARK H PARENT 103 30 83 59 49 70
REMARK Flexibility Score: inf
ROOT
ATOM      1  C   UNL     1      -4.677   1.369   7.145  1.00  0.00     0.188 C 
ENDROOT
BRANCH   1   2
ATOM      2  O   UNL     1      -3.392   1.562   6.578  1.00  0.00    -0.377 OA
BRANCH   2   3
ATOM      3  C   UNL     1      -3.135   0.809   5.411  1.00  0.00     0.188 C 
BRANCH   3   4
ATOM      4  C   UNL     1      -2.357  -0.498   5.633  1.00  0.00     0.188 C 
BRANCH   4   5
ATOM      5  O   UNL     1      -2.100  -0.956   6.954  1.00  0.00    -0.376 OA
BRANCH   5   6
ATOM      6  C   UNL     1      -1.704  -0.027   7.949  1.00  0.00     0.202 C 
BRANCH   6   7
ATOM      7  C   UNL     1      -0.670   1.086   7.670  1.00  0.00     0.261 C 
BRANCH   7   8
ATOM      8  O   UNL     1      -0.675   1.699   6.364  1.00  0.00    -0.461 OA
BRANCH   8   9
ATOM      9  C   UNL     1       0.321   1.331   5.514  1.00  0.00     0.334 C 
ATOM     10  O   UNL     1       1.241   0.589   5.857  1.00  0.00    -0.249 OA
BRANCH   9  11
ATOM     11  C   UNL     1       0.295   2.069   4.138  1.00  0.00     0.163 C 
ATOM     12  C   UNL     1      -0.971   2.899   3.792  1.00  0.00     0.064 C 
ATOM     13  C   UNL     1       1.501   3.009   4.341  1.00  0.00     0.064 C 
ATOM     14  C   UNL     1      -0.753   4.015   2.780  1.00  0.00     0.123 C 
ATOM     15  C   UNL     1       1.648   4.118   3.327  1.00  0.00     0.123 C 
ATOM     16  N   UNL     1       0.391   4.827   3.127  1.00  0.00    -0.337 N 
ATOM     17  C   UNL     1       0.227   6.205   3.261  1.00  0.00     0.270 C 
ATOM     18  O   UNL     1      -0.874   6.740   3.327  1.00  0.00    -0.267 OA
BRANCH  11  19
ATOM     19  N   UNL     1       0.479   1.058   3.075  1.00  0.00    -0.255 N 
ATOM     20  C   UNL     1       1.021  -0.275  -0.288  1.00  0.00     0.048 C 
ATOM     21  C   UNL     1       0.726   0.033   1.126  1.00  0.00    -0.013 A 
ATOM     22  C   UNL     1       0.197  -0.819   2.107  1.00  0.00     0.138 A 
ATOM     23  C   UNL     1       0.879   1.239   1.777  1.00  0.00     0.113 A 
ATOM     24  N   UNL     1      -0.012  -0.187   3.258  1.00  0.00    -0.180 NA
ENDBRANCH  11  19
BRANCH  17  25
ATOM     25  C   UNL     1       1.441   6.966   3.382  1.00  0.00     0.105 A 
ATOM     26  C   UNL     1       2.552   7.000   2.560  1.00  0.00     0.042 A 
ATOM     27  N   UNL     1       1.690   7.807   4.437  1.00  0.00    -0.351 N 
ATOM     28  C   UNL     1       3.565   7.724   3.235  1.00  0.00     0.000 A 
ATOM     29  C   UNL     1       3.009   8.198   4.422  1.00  0.00     0.046 A 
ATOM     30  H   UNL     1       1.024   8.088   5.105  1.00  0.00     0.167 HD
ATOM     31  C   UNL     1       4.916   7.995   2.956  1.00  0.00     0.010 A 
ATOM     32  C   UNL     1       3.743   8.929   5.359  1.00  0.00     0.026 A 
ATOM     33  C   UNL     1       5.663   8.732   3.878  1.00  0.00     0.001 A 
ATOM     34  C   UNL     1       5.084   9.187   5.062  1.00  0.00     0.002 A 
ENDBRANCH  17  25
ENDBRANCH   9  11
ENDBRANCH   8   9
ENDBRANCH   7   8
ENDBRANCH   6   7
ENDBRANCH   5   6
ENDBRANCH   4   5
ENDBRANCH   3   4
ENDBRANCH   2   3
ENDBRANCH   1   2
BRANCH   1  35
ATOM     35  C   UNL     1      -5.280  -0.061   7.138  1.00  0.00     0.188 C 
BRANCH  35  36
ATOM     36  O   UNL     1      -5.036  -0.838   5.968  1.00  0.00    -0.376 OA
BRANCH  36  37
ATOM     37  C   UNL     1      -5.967  -1.024   4.910  1.00  0.00     0.202 C 
BRANCH  37  38
ATOM     38  C   UNL     1      -6.417   0.174   4.066  1.00  0.00     0.261 C 
BRANCH  38  39
ATOM     39  O   UNL     1      -6.609   1.343   4.829  1.00  0.00    -0.460 OA
BRANCH  39  40
ATOM     40  C   UNL     1      -7.579   1.237   5.748  1.00  0.00     0.338 C 
ATOM     41  O   UNL     1      -8.272   0.244   5.978  1.00  0.00    -0.246 OA
BRANCH  40  42
ATOM     42  C   UNL     1      -7.720   2.525   6.434  1.00  0.00     0.060 A 
ATOM     43  C   UNL     1      -8.775   2.541   7.338  1.00  0.00     0.016 A 
ATOM     44  C   UNL     1      -7.309   3.653   5.704  1.00  0.00     0.016 A 
ATOM     45  C   UNL     1      -9.728   3.486   7.103  1.00  0.00     0.010 A 
ATOM     46  C   UNL     1      -8.263   4.591   5.462  1.00  0.00     0.010 A 
ATOM     47  C   UNL     1      -9.499   4.396   6.065  1.00  0.00    -0.014 A 
BRANCH  47  48
ATOM     48  C   UNL     1     -10.604   5.205   5.645  1.00  0.00     0.031 A 
ATOM     49  C   UNL     1     -10.840   6.290   6.604  1.00  0.00     0.074 A 
ATOM     50  C   UNL     1     -11.249   4.966   4.493  1.00  0.00     0.049 A 
ATOM     51  N   UNL     1     -11.786   6.353   7.477  1.00  0.00    -0.248 NA
ATOM     52  C   UNL     1      -9.742   7.246   6.825  1.00  0.00     0.031 C 
ATOM     53  C   UNL     1     -10.908   4.040   3.411  1.00  0.00     0.029 A 
ATOM     54  N   UNL     1     -12.332   5.623   4.011  1.00  0.00    -0.354 N 
ATOM     55  C   UNL     1     -11.532   7.514   8.188  1.00  0.00     0.074 A 
ATOM     56  C   UNL     1     -10.157   7.849   7.938  1.00  0.00     0.031 C 
ATOM     57  C   UNL     1     -11.624   4.369   2.310  1.00  0.00     0.029 A 
ATOM     58  C   UNL     1     -12.539   5.444   2.647  1.00  0.00     0.049 A 
ATOM     59  H   UNL     1     -12.918   6.178   4.575  1.00  0.00     0.167 HD
ATOM     60  C   UNL     1     -12.552   8.264   8.678  1.00  0.00     0.037 A 
ATOM     61  C   UNL     1     -13.308   6.271   1.893  1.00  0.00     0.037 A 
ATOM     62  C   UNL     1     -13.779   7.504   8.713  1.00  0.00     0.049 A 
ATOM     63  C   UNL     1     -14.246   6.949   2.848  1.00  0.00     0.074 A 
ATOM     64  C   UNL     1     -14.164   6.342   9.355  1.00  0.00     0.029 A 
ATOM     65  N   UNL     1     -14.671   7.679   7.678  1.00  0.00    -0.354 N 
ATOM     66  N   UNL     1     -15.164   6.304   3.527  1.00  0.00    -0.248 NA
ATOM     67  C   UNL     1     -13.817   8.210   3.445  1.00  0.00     0.031 C 
ATOM     68  C   UNL     1     -14.960   5.638   8.407  1.00  0.00     0.029 A 
ATOM     69  C   UNL     1     -15.086   6.435   7.267  1.00  0.00     0.049 A 
ATOM     70  H   UNL     1     -14.960   8.541   7.300  1.00  0.00     0.167 HD
ATOM     71  C   UNL     1     -15.122   6.847   4.807  1.00  0.00     0.074 A 
ATOM     72  C   UNL     1     -14.312   8.058   4.679  1.00  0.00     0.031 C 
ATOM     73  C   UNL     1     -15.482   6.119   5.909  1.00  0.00     0.037 A 
BRANCH  60  74
ATOM     74  C   UNL     1     -12.507   9.766   8.756  1.00  0.00     0.058 A 
ATOM     75  C   UNL     1     -13.541  10.441   9.429  1.00  0.00     0.135 A 
ATOM     76  C   UNL     1     -11.642  10.582   7.989  1.00  0.00     0.135 A 
ATOM     77  F   UNL     1     -14.422   9.764  10.182  1.00  0.00    -0.206 F 
ATOM     78  C   UNL     1     -13.743  11.813   9.291  1.00  0.00     0.059 A 
ATOM     79  C   UNL     1     -11.789  11.957   7.888  1.00  0.00     0.059 A 
ATOM     80  F   UNL     1     -10.669  10.088   7.215  1.00  0.00    -0.206 F 
ATOM     81  C   UNL     1     -12.869  12.558   8.505  1.00  0.00     0.060 A 
BRANCH  81  82
ATOM     82  S   UNL     1     -13.189  14.305   8.234  1.00  0.00     0.124 S 
ATOM     83  O   UNL     1     -14.399  14.255   7.423  1.00  0.00    -0.237 OA
ATOM     84  O   UNL     1     -13.349  14.796   9.598  1.00  0.00    -0.237 OA
ATOM     85  O   UNL     1     -11.986  14.765   7.546  1.00  0.00    -0.744 OA
ENDBRANCH  81  82
ENDBRANCH  60  74
BRANCH  61  86
ATOM     86  C   UNL     1     -12.952   6.816   0.550  1.00  0.00     0.058 A 
ATOM     87  C   UNL     1     -13.865   7.591  -0.189  1.00  0.00     0.135 A 
ATOM     88  C   UNL     1     -11.625   6.810   0.068  1.00  0.00     0.135 A 
ATOM     89  F   UNL     1     -15.147   7.672   0.199  1.00  0.00    -0.206 F 
ATOM     90  C   UNL     1     -13.473   8.355  -1.298  1.00  0.00     0.059 A 
ATOM     91  C   UNL     1     -11.216   7.548  -1.040  1.00  0.00     0.059 A 
ATOM     92  F   UNL     1     -10.646   6.159   0.712  1.00  0.00    -0.206 F 
ATOM     93  C   UNL     1     -12.138   8.344  -1.702  1.00  0.00     0.060 A 
BRANCH  93  94
ATOM     94  S   UNL     1     -11.575   9.472  -2.998  1.00  0.00     0.124 S 
ATOM     95  O   UNL     1     -12.176   8.886  -4.191  1.00  0.00    -0.237 OA
ATOM     96  O   UNL     1     -12.133  10.747  -2.561  1.00  0.00    -0.237 OA
ATOM     97  O   UNL     1     -10.119   9.375  -2.922  1.00  0.00    -0.744 OA
ENDBRANCH  93  94
ENDBRANCH  61  86
BRANCH  73  98
ATOM     98  C   UNL     1     -16.136   4.773   5.700  1.00  0.00     0.058 A 
ATOM     99  C   UNL     1     -15.504   3.671   5.093  1.00  0.00     0.135 A 
ATOM    100  C   UNL     1     -17.380   4.535   6.302  1.00  0.00     0.135 A 
ATOM    101  F   UNL     1     -14.264   3.780   4.597  1.00  0.00    -0.206 F 
ATOM    102  C   UNL     1     -16.097   2.408   5.046  1.00  0.00     0.059 A 
ATOM    103  C   UNL     1     -17.977   3.276   6.298  1.00  0.00     0.059 A 
ATOM    104  F   UNL     1     -18.006   5.523   6.962  1.00  0.00    -0.206 F 
ATOM    105  C   UNL     1     -17.337   2.219   5.654  1.00  0.00     0.060 A 
BRANCH 105 106
ATOM    106  S   UNL     1     -18.077   0.571   5.656  1.00  0.00     0.124 S 
ATOM    107  O   UNL     1     -18.477   0.415   4.262  1.00  0.00    -0.237 OA
ATOM    108  O   UNL     1     -16.970  -0.274   6.096  1.00  0.00    -0.237 OA
ATOM    109  O   UNL     1     -19.175   0.691   6.611  1.00  0.00    -0.744 OA
ENDBRANCH 105 106
ENDBRANCH  73  98
ENDBRANCH  47  48
ENDBRANCH  40  42
ENDBRANCH  39  40
ENDBRANCH  38  39
ENDBRANCH  37  38
ENDBRANCH  36  37
ENDBRANCH  35  36
ENDBRANCH   1  35
TORSDOF 25
