REMARK SMILES CCc1cc2c(C)cc(=O)oc2cc1O[C@H](C)C(=O)OCCOCCOCCOCCOC(=O)c1ccc(-c2c3nc(c(-c4c(F)cc(S(=O)(=O)[O-])cc4F)c4ccc([nH]4)c(-c4c(F)cc(S(=O)(=O)[O-])cc4F)c4nc(c(-c5c(F)cc(S(=O)(=O)[O-])cc5F)c5ccc2[nH]5)C=C4)C=C3)cc1
REMARK SMILES IDX 26 1 25 2 24 3 23 4 22 5 21 6 20 7 18 8 19 9 16 10 17 11
REMARK SMILES IDX 15 12 14 13 3 14 4 15 5 16 13 17 6 18 12 19 7 20 8 21 11 22
REMARK SMILES IDX 9 23 10 24 2 25 1 26 27 27 28 28 29 29 30 30 31 31 32 32
REMARK SMILES IDX 33 33 34 34 35 35 36 36 100 37 37 38 99 39 38 40 39 41 40 42
REMARK SMILES IDX 93 43 41 44 98 45 92 46 94 47 42 48 97 49 91 50 90 51 43 53
REMARK SMILES IDX 77 54 56 55 76 56 57 57 60 58 75 59 95 60 58 61 59 62 74 64
REMARK SMILES IDX 96 65 61 66 44 67 45 68 54 69 46 70 47 71 53 72 55 73 48 74
REMARK SMILES IDX 49 75 50 76 51 77 52 78 78 79 79 80 88 81 80 82 81 83 87 84
REMARK SMILES IDX 89 85 82 86 83 87 84 88 85 89 86 90 62 91 63 92 72 93 64 94
REMARK SMILES IDX 65 95 71 96 73 97 66 98 67 99 68 100 69 101 70 102
REMARK H PARENT 94 52 60 63
REMARK Flexibility Score: inf
ROOT
ATOM      1  O   UNL     1       4.596   2.480  -1.211  1.00  0.00    -0.377 OA
ENDROOT
BRANCH   1   2
ATOM      2  C   UNL     1       4.749   1.079  -1.127  1.00  0.00     0.188 C 
BRANCH   2   3
ATOM      3  C   UNL     1       5.797   0.458  -2.063  1.00  0.00     0.188 C 
BRANCH   3   4
ATOM      4  O   UNL     1       6.798   1.262  -2.667  1.00  0.00    -0.376 OA
BRANCH   4   5
ATOM      5  C   UNL     1       6.444   2.487  -3.298  1.00  0.00     0.202 C 
BRANCH   5   6
ATOM      6  C   UNL     1       5.237   2.567  -4.246  1.00  0.00     0.261 C 
BRANCH   6   7
ATOM      7  O   UNL     1       3.992   2.064  -3.719  1.00  0.00    -0.461 OA
BRANCH   7   8
ATOM      8  C   UNL     1       3.451   0.970  -4.308  1.00  0.00     0.347 C 
ATOM      9  O   UNL     1       4.007   0.329  -5.196  1.00  0.00    -0.248 OA
BRANCH   8  10
ATOM     10  C   UNL     1       2.021   0.615  -3.805  1.00  0.00     0.279 C 
ATOM     11  C   UNL     1       1.641   0.600  -2.328  1.00  0.00     0.066 C 
BRANCH  10  12
ATOM     12  O   UNL     1       0.937   1.203  -4.507  1.00  0.00    -0.479 OA
BRANCH  12  13
ATOM     13  C   UNL     1       0.978   2.530  -4.793  1.00  0.00     0.127 A 
ATOM     14  C   UNL     1       0.428   2.920  -6.019  1.00  0.00    -0.005 A 
ATOM     15  C   UNL     1       0.434   4.298  -6.341  1.00  0.00     0.019 A 
ATOM     16  C   UNL     1       1.015   5.257  -5.497  1.00  0.00     0.021 A 
ATOM     17  C   UNL     1       1.501   3.483  -3.919  1.00  0.00     0.094 A 
ATOM     18  C   UNL     1       1.085   6.692  -5.793  1.00  0.00    -0.033 A 
ATOM     19  C   UNL     1       1.562   4.814  -4.303  1.00  0.00     0.142 A 
ATOM     20  C   UNL     1       0.307   7.261  -6.940  1.00  0.00     0.045 C 
ATOM     21  C   UNL     1       1.852   7.469  -5.012  1.00  0.00     0.098 A 
ATOM     22  O   UNL     1       2.267   5.669  -3.440  1.00  0.00    -0.423 OA
ATOM     23  C   UNL     1       2.602   6.942  -3.862  1.00  0.00     0.336 A 
ATOM     24  O   UNL     1       3.458   7.606  -3.292  1.00  0.00    -0.246 OA
BRANCH  14  25
ATOM     25  C   UNL     1      -0.172   1.966  -7.040  1.00  0.00     0.036 C 
ATOM     26  C   UNL     1      -0.071   0.453  -6.838  1.00  0.00     0.009 C 
ENDBRANCH  14  25
ENDBRANCH  12  13
ENDBRANCH  10  12
ENDBRANCH   8  10
ENDBRANCH   7   8
ENDBRANCH   6   7
ENDBRANCH   5   6
ENDBRANCH   4   5
ENDBRANCH   3   4
ENDBRANCH   2   3
ENDBRANCH   1   2
BRANCH   1  27
ATOM     27  C   UNL     1       5.264   3.259  -0.225  1.00  0.00     0.188 C 
BRANCH  27  28
ATOM     28  C   UNL     1       6.632   2.755   0.280  1.00  0.00     0.188 C 
BRANCH  28  29
ATOM     29  O   UNL     1       6.654   1.380   0.643  1.00  0.00    -0.376 OA
BRANCH  29  30
ATOM     30  C   UNL     1       6.441   1.012   1.997  1.00  0.00     0.202 C 
BRANCH  30  31
ATOM     31  C   UNL     1       5.105   1.375   2.670  1.00  0.00     0.261 C 
BRANCH  31  32
ATOM     32  O   UNL     1       4.747   2.763   2.692  1.00  0.00    -0.460 OA
BRANCH  32  33
ATOM     33  C   UNL     1       5.609   3.628   3.263  1.00  0.00     0.338 C 
ATOM     34  O   UNL     1       6.653   3.351   3.833  1.00  0.00    -0.246 OA
BRANCH  33  35
ATOM     35  C   UNL     1       5.178   4.995   2.907  1.00  0.00     0.060 A 
ATOM     36  C   UNL     1       6.052   5.817   2.184  1.00  0.00     0.016 A 
ATOM     37  C   UNL     1       3.918   5.463   3.286  1.00  0.00     0.016 A 
ATOM     38  C   UNL     1       5.685   7.125   1.874  1.00  0.00     0.010 A 
ATOM     39  C   UNL     1       3.562   6.783   2.997  1.00  0.00     0.010 A 
ATOM     40  C   UNL     1       4.460   7.630   2.324  1.00  0.00    -0.014 A 
BRANCH  40  41
ATOM     41  C   UNL     1       4.206   9.091   2.277  1.00  0.00     0.031 A 
ATOM     42  C   UNL     1       4.439   9.893   3.528  1.00  0.00     0.074 A 
ATOM     43  C   UNL     1       3.803   9.700   1.149  1.00  0.00     0.049 A 
ATOM     44  N   UNL     1       4.230  11.164   3.751  1.00  0.00    -0.248 NA
ATOM     45  C   UNL     1       4.977   9.159   4.686  1.00  0.00     0.031 C 
ATOM     46  C   UNL     1       3.599   9.041  -0.138  1.00  0.00     0.029 A 
ATOM     47  N   UNL     1       3.484  11.014   0.911  1.00  0.00    -0.354 N 
ATOM     48  C   UNL     1       4.601  11.380   5.072  1.00  0.00     0.074 A 
ATOM     49  C   UNL     1       5.017  10.104   5.612  1.00  0.00     0.031 C 
ATOM     50  C   UNL     1       3.173   9.954  -1.028  1.00  0.00     0.029 A 
ATOM     51  C   UNL     1       3.038  11.249  -0.368  1.00  0.00     0.049 A 
ATOM     52  H   UNL     1       3.568  11.721   1.591  1.00  0.00     0.167 HD
ATOM     53  C   UNL     1       4.602  12.541   5.769  1.00  0.00     0.037 A 
ATOM     54  C   UNL     1       2.552  12.371  -0.935  1.00  0.00     0.037 A 
ATOM     55  C   UNL     1       4.184  13.805   5.223  1.00  0.00     0.049 A 
ATOM     56  C   UNL     1       2.487  13.635  -0.119  1.00  0.00     0.074 A 
ATOM     57  C   UNL     1       4.159  15.042   5.842  1.00  0.00     0.029 A 
ATOM     58  N   UNL     1       3.708  13.995   3.933  1.00  0.00    -0.354 N 
ATOM     59  N   UNL     1       2.854  13.833   1.125  1.00  0.00    -0.248 NA
ATOM     60  C   UNL     1       1.948  14.830  -0.782  1.00  0.00     0.031 C 
ATOM     61  C   UNL     1       3.611  15.967   4.949  1.00  0.00     0.029 A 
ATOM     62  C   UNL     1       3.359  15.322   3.748  1.00  0.00     0.049 A 
ATOM     63  H   UNL     1       3.631  13.290   3.250  1.00  0.00     0.167 HD
ATOM     64  C   UNL     1       2.623  15.180   1.382  1.00  0.00     0.074 A 
ATOM     65  C   UNL     1       2.091  15.751   0.162  1.00  0.00     0.031 C 
ATOM     66  C   UNL     1       2.838  15.881   2.523  1.00  0.00     0.037 A 
BRANCH  53  67
ATOM     67  C   UNL     1       5.034  12.489   7.209  1.00  0.00     0.058 A 
ATOM     68  C   UNL     1       6.367  12.250   7.578  1.00  0.00     0.135 A 
ATOM     69  C   UNL     1       4.102  12.712   8.236  1.00  0.00     0.135 A 
ATOM     70  F   UNL     1       7.297  12.008   6.640  1.00  0.00    -0.206 F 
ATOM     71  C   UNL     1       6.756  12.209   8.913  1.00  0.00     0.059 A 
ATOM     72  C   UNL     1       4.474  12.708   9.576  1.00  0.00     0.059 A 
ATOM     73  F   UNL     1       2.812  12.939   7.941  1.00  0.00    -0.206 F 
ATOM     74  C   UNL     1       5.802  12.442   9.906  1.00  0.00     0.060 A 
BRANCH  74  75
ATOM     75  S   UNL     1       6.326  12.396  11.632  1.00  0.00     0.124 S 
ATOM     76  O   UNL     1       6.582  10.972  11.821  1.00  0.00    -0.237 OA
ATOM     77  O   UNL     1       7.505  13.256  11.622  1.00  0.00    -0.237 OA
ATOM     78  O   UNL     1       5.173  12.926  12.353  1.00  0.00    -0.744 OA
ENDBRANCH  74  75
ENDBRANCH  53  67
BRANCH  54  79
ATOM     79  C   UNL     1       2.072  12.343  -2.345  1.00  0.00     0.058 A 
ATOM     80  C   UNL     1       2.744  13.040  -3.360  1.00  0.00     0.135 A 
ATOM     81  C   UNL     1       0.928  11.612  -2.706  1.00  0.00     0.135 A 
ATOM     82  F   UNL     1       3.832  13.769  -3.066  1.00  0.00    -0.206 F 
ATOM     83  C   UNL     1       2.299  13.019  -4.679  1.00  0.00     0.059 A 
ATOM     84  C   UNL     1       0.480  11.553  -4.022  1.00  0.00     0.059 A 
ATOM     85  F   UNL     1       0.247  10.924  -1.777  1.00  0.00    -0.206 F 
ATOM     86  C   UNL     1       1.169  12.266  -5.001  1.00  0.00     0.060 A 
BRANCH  86  87
ATOM     87  S   UNL     1       0.638  12.184  -6.725  1.00  0.00     0.124 S 
ATOM     88  O   UNL     1       0.089  13.518  -6.931  1.00  0.00    -0.237 OA
ATOM     89  O   UNL     1       1.889  11.890  -7.416  1.00  0.00    -0.237 OA
ATOM     90  O   UNL     1      -0.332  11.092  -6.724  1.00  0.00    -0.744 OA
ENDBRANCH  86  87
ENDBRANCH  54  79
BRANCH  66  91
ATOM     91  C   UNL     1       2.546  17.358   2.503  1.00  0.00     0.058 A 
ATOM     92  C   UNL     1       1.235  17.857   2.461  1.00  0.00     0.135 A 
ATOM     93  C   UNL     1       3.597  18.287   2.592  1.00  0.00     0.135 A 
ATOM     94  F   UNL     1       0.194  17.015   2.368  1.00  0.00    -0.206 F 
ATOM     95  C   UNL     1       0.977  19.224   2.487  1.00  0.00     0.059 A 
ATOM     96  C   UNL     1       3.360  19.656   2.653  1.00  0.00     0.059 A 
ATOM     97  F   UNL     1       4.870  17.865   2.646  1.00  0.00    -0.206 F 
ATOM     98  C   UNL     1       2.046  20.116   2.589  1.00  0.00     0.060 A 
BRANCH  98  99
ATOM     99  S   UNL     1       1.693  21.885   2.664  1.00  0.00     0.124 S 
ATOM    100  O   UNL     1       1.264  22.158   1.296  1.00  0.00    -0.237 OA
ATOM    101  O   UNL     1       0.648  21.950   3.681  1.00  0.00    -0.237 OA
ATOM    102  O   UNL     1       2.973  22.472   3.049  1.00  0.00    -0.744 OA
ENDBRANCH  98  99
ENDBRANCH  66  91
ENDBRANCH  40  41
ENDBRANCH  33  35
ENDBRANCH  32  33
ENDBRANCH  31  32
ENDBRANCH  30  31
ENDBRANCH  29  30
ENDBRANCH  28  29
ENDBRANCH  27  28
ENDBRANCH   1  27
TORSDOF 26
