REMARK SMILES CNC(=O)c1cccc(-c2cnc(O)c(C(=O)OCCOCCOCCOCCOC(=O)c3ccc(-c4c5nc(c(-c6c(F)cc(S(=O)(=O)[O-])cc6F)c6ccc([nH]6)c(-c6c(F)cc(S(=O)(=O)[O-])cc6F)c6nc(c(-c7c(F)cc(S(=O)(=O)[O-])cc7F)c7ccc4[nH]7)C=C6)C=C5)cc3)c2)c1
REMARK SMILES IDX 25 1 24 2 23 3 22 4 21 5 20 6 19 7 18 8 16 9 17 10 15 11
REMARK SMILES IDX 10 12 11 13 99 14 12 15 13 16 9 17 5 18 6 19 100 20 7 21
REMARK SMILES IDX 8 22 3 23 1 24 2 25 4 27 14 28 26 30 27 31 28 32 29 33 30 34
REMARK SMILES IDX 31 35 32 36 33 37 34 38 98 39 35 40 97 41 36 42 37 43 38 44
REMARK SMILES IDX 91 45 39 46 96 47 90 48 92 49 40 50 95 51 89 52 88 53 41 55
REMARK SMILES IDX 75 56 54 57 74 58 55 59 58 60 73 61 93 62 56 63 57 64 72 66
REMARK SMILES IDX 94 67 59 68 42 69 43 70 52 71 44 72 45 73 51 74 53 75 46 76
REMARK SMILES IDX 47 77 48 78 49 79 50 80 76 81 77 82 86 83 78 84 79 85 85 86
REMARK SMILES IDX 87 87 80 88 81 89 82 90 83 91 84 92 60 93 61 94 70 95 62 96
REMARK SMILES IDX 63 97 69 98 71 99 64 100 65 101 66 102 67 103 68 104
REMARK H PARENT 2 26 14 29 92 54 58 65
REMARK Flexibility Score: inf
ROOT
ATOM      1  C   UNL     1      -8.149  -2.694  -2.320  1.00  0.00     0.188 C 
ENDROOT
BRANCH   1   2
ATOM      2  O   UNL     1      -6.733  -2.757  -2.136  1.00  0.00    -0.377 OA
BRANCH   2   3
ATOM      3  C   UNL     1      -6.023  -3.765  -2.837  1.00  0.00     0.188 C 
BRANCH   3   4
ATOM      4  C   UNL     1      -6.071  -5.130  -2.126  1.00  0.00     0.188 C 
BRANCH   4   5
ATOM      5  O   UNL     1      -7.061  -5.202  -1.115  1.00  0.00    -0.376 OA
BRANCH   5   6
ATOM      6  C   UNL     1      -6.777  -4.850   0.229  1.00  0.00     0.202 C 
BRANCH   6   7
ATOM      7  C   UNL     1      -5.877  -3.674   0.654  1.00  0.00     0.261 C 
BRANCH   7   8
ATOM      8  O   UNL     1      -4.747  -3.357  -0.161  1.00  0.00    -0.459 OA
BRANCH   8   9
ATOM      9  C   UNL     1      -3.712  -4.211  -0.205  1.00  0.00     0.343 C 
ATOM     10  O   UNL     1      -3.588  -5.271   0.389  1.00  0.00    -0.246 OA
BRANCH   9  11
ATOM     11  C   UNL     1      -2.837  -3.797  -1.316  1.00  0.00     0.122 A 
ATOM     12  C   UNL     1      -1.854  -2.075  -2.723  1.00  0.00     0.001 A 
ATOM     13  C   UNL     1      -1.371  -3.120  -3.511  1.00  0.00     0.124 A 
ATOM     14  C   UNL     1      -2.638  -2.447  -1.622  1.00  0.00     0.031 A 
ATOM     15  N   UNL     1      -1.570  -4.439  -3.258  1.00  0.00    -0.221 NA
ATOM     16  C   UNL     1      -2.276  -4.751  -2.153  1.00  0.00     0.225 A 
BRANCH  12  17
ATOM     17  C   UNL     1      -1.460  -0.675  -2.939  1.00  0.00    -0.016 A 
ATOM     18  C   UNL     1      -0.525   1.371  -1.982  1.00  0.00     0.040 A 
ATOM     19  C   UNL     1      -0.467   1.954  -3.246  1.00  0.00     0.014 A 
ATOM     20  C   UNL     1      -1.068   0.095  -1.831  1.00  0.00     0.022 A 
ATOM     21  C   UNL     1      -0.896   1.229  -4.359  1.00  0.00     0.001 A 
ATOM     22  C   UNL     1      -1.373  -0.081  -4.208  1.00  0.00     0.009 A 
BRANCH  18  23
ATOM     23  C   UNL     1      -0.029   2.115  -0.802  1.00  0.00     0.251 C 
ATOM     24  C   UNL     1       1.313   0.155   0.134  1.00  0.00     0.143 C 
ATOM     25  N   UNL     1       0.704   1.468   0.165  1.00  0.00    -0.355 N 
ATOM     26  H   UNL     1       0.834   1.972   1.001  1.00  0.00     0.163 HD
ATOM     27  O   UNL     1      -0.263   3.315  -0.699  1.00  0.00    -0.269 OA
ENDBRANCH  18  23
ENDBRANCH  12  17
BRANCH  16  28
ATOM     28  O   UNL     1      -2.439  -6.095  -1.964  1.00  0.00    -0.493 OA
ATOM     29  H   UNL     1      -2.041  -6.703  -2.556  1.00  0.00     0.295 HD
ENDBRANCH  16  28
ENDBRANCH   9  11
ENDBRANCH   8   9
ENDBRANCH   7   8
ENDBRANCH   6   7
ENDBRANCH   5   6
ENDBRANCH   4   5
ENDBRANCH   3   4
ENDBRANCH   2   3
ENDBRANCH   1   2
BRANCH   1  30
ATOM     30  C   UNL     1      -8.969  -3.930  -2.768  1.00  0.00     0.188 C 
BRANCH  30  31
ATOM     31  O   UNL     1      -8.356  -4.710  -3.789  1.00  0.00    -0.376 OA
BRANCH  31  32
ATOM     32  C   UNL     1      -8.882  -4.621  -5.103  1.00  0.00     0.202 C 
BRANCH  32  33
ATOM     33  C   UNL     1      -8.591  -3.304  -5.834  1.00  0.00     0.261 C 
BRANCH  33  34
ATOM     34  O   UNL     1      -9.126  -2.128  -5.209  1.00  0.00    -0.460 OA
BRANCH  34  35
ATOM     35  C   UNL     1     -10.470  -2.071  -5.075  1.00  0.00     0.338 C 
ATOM     36  O   UNL     1     -11.282  -2.884  -5.476  1.00  0.00    -0.246 OA
BRANCH  35  37
ATOM     37  C   UNL     1     -10.788  -0.944  -4.176  1.00  0.00     0.060 A 
ATOM     38  C   UNL     1     -11.518  -1.200  -3.010  1.00  0.00     0.016 A 
ATOM     39  C   UNL     1     -10.369   0.354  -4.482  1.00  0.00     0.016 A 
ATOM     40  C   UNL     1     -11.866  -0.148  -2.164  1.00  0.00     0.010 A 
ATOM     41  C   UNL     1     -10.733   1.409  -3.642  1.00  0.00     0.010 A 
ATOM     42  C   UNL     1     -11.513   1.167  -2.497  1.00  0.00    -0.014 A 
BRANCH  42  43
ATOM     43  C   UNL     1     -12.105   2.291  -1.734  1.00  0.00     0.031 A 
ATOM     44  C   UNL     1     -13.312   2.990  -2.298  1.00  0.00     0.074 A 
ATOM     45  C   UNL     1     -11.609   2.652  -0.537  1.00  0.00     0.049 A 
ATOM     46  N   UNL     1     -14.013   3.973  -1.796  1.00  0.00    -0.248 NA
ATOM     47  C   UNL     1     -13.795   2.515  -3.605  1.00  0.00     0.031 C 
ATOM     48  C   UNL     1     -10.459   2.034   0.122  1.00  0.00     0.029 A 
ATOM     49  N   UNL     1     -12.014   3.629   0.338  1.00  0.00    -0.354 N 
ATOM     50  C   UNL     1     -15.019   4.232  -2.720  1.00  0.00     0.074 A 
ATOM     51  C   UNL     1     -14.815   3.329  -3.831  1.00  0.00     0.031 C 
ATOM     52  C   UNL     1     -10.250   2.650   1.300  1.00  0.00     0.029 A 
ATOM     53  C   UNL     1     -11.233   3.719   1.465  1.00  0.00     0.049 A 
ATOM     54  H   UNL     1     -12.791   4.210   0.173  1.00  0.00     0.167 HD
ATOM     55  C   UNL     1     -16.028   5.132  -2.643  1.00  0.00     0.037 A 
ATOM     56  C   UNL     1     -11.299   4.576   2.504  1.00  0.00     0.037 A 
ATOM     57  C   UNL     1     -16.221   6.035  -1.537  1.00  0.00     0.049 A 
ATOM     58  C   UNL     1     -12.397   5.609   2.538  1.00  0.00     0.074 A 
ATOM     59  C   UNL     1     -17.223   6.972  -1.356  1.00  0.00     0.029 A 
ATOM     60  N   UNL     1     -15.389   6.123  -0.430  1.00  0.00    -0.354 N 
ATOM     61  N   UNL     1     -13.363   5.819   1.675  1.00  0.00    -0.248 NA
ATOM     62  C   UNL     1     -12.418   6.515   3.695  1.00  0.00     0.031 C 
ATOM     63  C   UNL     1     -16.965   7.665  -0.167  1.00  0.00     0.029 A 
ATOM     64  C   UNL     1     -15.838   7.118   0.424  1.00  0.00     0.049 A 
ATOM     65  H   UNL     1     -14.596   5.560  -0.274  1.00  0.00     0.167 HD
ATOM     66  C   UNL     1     -14.119   6.866   2.195  1.00  0.00     0.074 A 
ATOM     67  C   UNL     1     -13.511   7.227   3.460  1.00  0.00     0.031 C 
ATOM     68  C   UNL     1     -15.216   7.475   1.675  1.00  0.00     0.037 A 
BRANCH  55  69
ATOM     69  C   UNL     1     -16.987   5.202  -3.800  1.00  0.00     0.058 A 
ATOM     70  C   UNL     1     -17.912   4.178  -4.060  1.00  0.00     0.135 A 
ATOM     71  C   UNL     1     -17.003   6.325  -4.644  1.00  0.00     0.135 A 
ATOM     72  F   UNL     1     -17.928   3.071  -3.300  1.00  0.00    -0.206 F 
ATOM     73  C   UNL     1     -18.801   4.253  -5.128  1.00  0.00     0.059 A 
ATOM     74  C   UNL     1     -17.902   6.435  -5.700  1.00  0.00     0.059 A 
ATOM     75  F   UNL     1     -16.137   7.332  -4.445  1.00  0.00    -0.206 F 
ATOM     76  C   UNL     1     -18.789   5.387  -5.942  1.00  0.00     0.060 A 
BRANCH  76  77
ATOM     77  S   UNL     1     -19.956   5.474  -7.317  1.00  0.00     0.124 S 
ATOM     78  O   UNL     1     -19.398   4.487  -8.236  1.00  0.00    -0.237 OA
ATOM     79  O   UNL     1     -21.216   5.105  -6.679  1.00  0.00    -0.237 OA
ATOM     80  O   UNL     1     -19.862   6.863  -7.757  1.00  0.00    -0.744 OA
ENDBRANCH  76  77
ENDBRANCH  55  69
BRANCH  56  81
ATOM     81  C   UNL     1     -10.293   4.500   3.598  1.00  0.00     0.058 A 
ATOM     82  C   UNL     1     -10.653   4.096   4.893  1.00  0.00     0.135 A 
ATOM     83  C   UNL     1      -8.949   4.837   3.372  1.00  0.00     0.135 A 
ATOM     84  F   UNL     1     -11.928   3.776   5.165  1.00  0.00    -0.206 F 
ATOM     85  C   UNL     1      -9.723   4.044   5.926  1.00  0.00     0.059 A 
ATOM     86  C   UNL     1      -7.995   4.765   4.381  1.00  0.00     0.059 A 
ATOM     87  F   UNL     1      -8.550   5.222   2.149  1.00  0.00    -0.206 F 
ATOM     88  C   UNL     1      -8.394   4.376   5.659  1.00  0.00     0.060 A 
BRANCH  88  89
ATOM     89  S   UNL     1      -7.185   4.248   6.994  1.00  0.00     0.124 S 
ATOM     90  O   UNL     1      -7.546   5.388   7.829  1.00  0.00    -0.237 OA
ATOM     91  O   UNL     1      -7.480   2.930   7.548  1.00  0.00    -0.237 OA
ATOM     92  O   UNL     1      -5.905   4.353   6.300  1.00  0.00    -0.744 OA
ENDBRANCH  88  89
ENDBRANCH  56  81
BRANCH  68  93
ATOM     93  C   UNL     1     -15.840   8.579   2.489  1.00  0.00     0.058 A 
ATOM     94  C   UNL     1     -15.202   9.816   2.671  1.00  0.00     0.135 A 
ATOM     95  C   UNL     1     -17.099   8.400   3.087  1.00  0.00     0.135 A 
ATOM     96  F   UNL     1     -13.997  10.042   2.123  1.00  0.00    -0.206 F 
ATOM     97  C   UNL     1     -15.764  10.817   3.457  1.00  0.00     0.059 A 
ATOM     98  C   UNL     1     -17.696   9.400   3.848  1.00  0.00     0.059 A 
ATOM     99  F   UNL     1     -17.764   7.244   2.932  1.00  0.00    -0.206 F 
ATOM    100  C   UNL     1     -17.010  10.597   4.047  1.00  0.00     0.060 A 
BRANCH 100 101
ATOM    101  S   UNL     1     -17.723  11.897   5.077  1.00  0.00     0.124 S 
ATOM    102  O   UNL     1     -16.903  11.801   6.280  1.00  0.00    -0.237 OA
ATOM    103  O   UNL     1     -17.517  13.091   4.262  1.00  0.00    -0.237 OA
ATOM    104  O   UNL     1     -19.114  11.484   5.231  1.00  0.00    -0.744 OA
ENDBRANCH 100 101
ENDBRANCH  68  93
ENDBRANCH  42  43
ENDBRANCH  35  37
ENDBRANCH  34  35
ENDBRANCH  33  34
ENDBRANCH  32  33
ENDBRANCH  31  32
ENDBRANCH  30  31
ENDBRANCH   1  30
TORSDOF 26
