REMARK SMILES CC1(C)S[C@H](c2ccc(Cl)cc2Cl)[NH2+][C@H]1C(=O)OCCOCCOCCOCCOC(=O)c1ccc(-c2c3nc(c(-c4c(F)cc(S(=O)(=O)[O-])cc4F)c4ccc([nH]4)c(-c4c(F)cc(S(=O)(=O)[O-])cc4F)c4nc(c(-c5c(F)cc(S(=O)(=O)[O-])cc5F)c5ccc2[nH]5)C=C4)C=C3)cc1
REMARK SMILES IDX 25 1 24 2 23 3 22 4 21 5 20 6 19 7 18 8 16 9 17 10 15 11
REMARK SMILES IDX 1 12 2 13 3 14 4 15 5 16 14 17 6 20 7 21 12 22 8 23 11 24
REMARK SMILES IDX 13 25 9 26 10 27 26 28 27 29 28 30 29 31 30 32 31 33 32 34
REMARK SMILES IDX 33 35 34 36 98 37 35 38 97 39 36 40 37 41 38 42 91 43 39 44
REMARK SMILES IDX 96 45 90 46 92 47 40 48 95 49 89 50 88 51 41 53 75 54 54 55
REMARK SMILES IDX 74 56 55 57 58 58 73 59 93 60 56 61 57 62 72 64 94 65 59 66
REMARK SMILES IDX 42 67 43 68 52 69 44 70 45 71 51 72 53 73 46 74 47 75 48 76
REMARK SMILES IDX 49 77 50 78 76 79 77 80 86 81 78 82 79 83 85 84 87 85 80 86
REMARK SMILES IDX 81 87 82 88 83 89 84 90 60 91 61 92 70 93 62 94 63 95 69 96
REMARK SMILES IDX 71 97 64 98 65 99 66 100 67 101 68 102
REMARK H PARENT 14 18 14 19 92 52 58 63
REMARK Flexibility Score: inf
ROOT
ATOM      1  C   UNL     1       4.253   3.593   1.511  1.00  0.00     0.188 C 
ENDROOT
BRANCH   1   2
ATOM      2  O   UNL     1       2.922   3.271   1.165  1.00  0.00    -0.377 OA
BRANCH   2   3
ATOM      3  C   UNL     1       2.696   2.719  -0.111  1.00  0.00     0.188 C 
BRANCH   3   4
ATOM      4  C   UNL     1       2.255   3.705  -1.202  1.00  0.00     0.188 C 
BRANCH   4   5
ATOM      5  O   UNL     1       1.671   4.962  -0.877  1.00  0.00    -0.376 OA
BRANCH   5   6
ATOM      6  C   UNL     1       1.364   5.300   0.465  1.00  0.00     0.202 C 
BRANCH   6   7
ATOM      7  C   UNL     1       0.205   4.564   1.178  1.00  0.00     0.261 C 
BRANCH   7   8
ATOM      8  O   UNL     1       0.084   3.132   1.020  1.00  0.00    -0.459 OA
BRANCH   8   9
ATOM      9  C   UNL     1      -0.537   2.734  -0.117  1.00  0.00     0.366 C 
ATOM     10  O   UNL     1      -0.928   3.519  -0.978  1.00  0.00    -0.245 OA
BRANCH   9  11
ATOM     11  C   UNL     1      -0.810   1.211  -0.227  1.00  0.00     0.310 C 
ATOM     12  C   UNL     1       0.783   0.186   1.620  1.00  0.00     0.030 C 
ATOM     13  C   UNL     1       0.154   0.082   0.225  1.00  0.00     0.079 C 
ATOM     14  C   UNL     1       1.174  -0.319  -0.864  1.00  0.00     0.030 C 
ATOM     15  S   UNL     1      -0.994  -1.375   0.339  1.00  0.00    -0.081 SA
ATOM     16  C   UNL     1      -2.521  -0.399   0.041  1.00  0.00     0.276 C 
ATOM     17  N   UNL     1      -2.138   0.958   0.392  1.00  0.00    -0.319 N 
ATOM     18  H   UNL     1      -2.075   1.052   1.406  1.00  0.00     0.348 HD
ATOM     19  H   UNL     1      -2.829   1.629   0.057  1.00  0.00     0.348 HD
BRANCH  16  20
ATOM     20  C   UNL     1      -3.098  -0.638  -1.361  1.00  0.00     0.039 A 
ATOM     21  C   UNL     1      -3.322  -1.990  -1.727  1.00  0.00     0.014 A 
ATOM     22  C   UNL     1      -3.496   0.337  -2.302  1.00  0.00     0.052 A 
ATOM     23  C   UNL     1      -3.836  -2.351  -2.975  1.00  0.00     0.021 A 
ATOM     24  C   UNL     1      -3.966  -0.031  -3.574  1.00  0.00     0.041 A 
ATOM     25  Cl  UNL     1      -3.552   2.039  -2.010  1.00  0.00    -0.084 Cl
ATOM     26  C   UNL     1      -4.135  -1.367  -3.903  1.00  0.00     0.042 A 
ATOM     27  Cl  UNL     1      -4.761  -1.798  -5.446  1.00  0.00    -0.084 Cl
ENDBRANCH  16  20
ENDBRANCH   9  11
ENDBRANCH   8   9
ENDBRANCH   7   8
ENDBRANCH   6   7
ENDBRANCH   5   6
ENDBRANCH   4   5
ENDBRANCH   3   4
ENDBRANCH   2   3
ENDBRANCH   1   2
BRANCH   1  28
ATOM     28  C   UNL     1       5.156   4.172   0.412  1.00  0.00     0.188 C 
BRANCH  28  29
ATOM     29  O   UNL     1       5.142   3.419  -0.797  1.00  0.00    -0.376 OA
BRANCH  29  30
ATOM     30  C   UNL     1       6.196   2.506  -1.052  1.00  0.00     0.202 C 
BRANCH  30  31
ATOM     31  C   UNL     1       6.233   1.205  -0.232  1.00  0.00     0.261 C 
BRANCH  31  32
ATOM     32  O   UNL     1       6.245   1.336   1.195  1.00  0.00    -0.460 OA
BRANCH  32  33
ATOM     33  C   UNL     1       7.283   2.005   1.752  1.00  0.00     0.338 C 
ATOM     34  O   UNL     1       8.227   2.493   1.172  1.00  0.00    -0.246 OA
BRANCH  33  35
ATOM     35  C   UNL     1       6.961   2.216   3.183  1.00  0.00     0.060 A 
ATOM     36  C   UNL     1       6.857   3.528   3.663  1.00  0.00     0.016 A 
ATOM     37  C   UNL     1       6.734   1.132   4.035  1.00  0.00     0.016 A 
ATOM     38  C   UNL     1       6.559   3.759   5.006  1.00  0.00     0.010 A 
ATOM     39  C   UNL     1       6.466   1.364   5.387  1.00  0.00     0.010 A 
ATOM     40  C   UNL     1       6.412   2.679   5.885  1.00  0.00    -0.014 A 
BRANCH  40  41
ATOM     41  C   UNL     1       6.432   2.923   7.348  1.00  0.00     0.031 A 
ATOM     42  C   UNL     1       7.750   2.793   8.064  1.00  0.00     0.074 A 
ATOM     43  C   UNL     1       5.325   3.282   8.021  1.00  0.00     0.049 A 
ATOM     44  N   UNL     1       8.025   2.932   9.334  1.00  0.00    -0.248 NA
ATOM     45  C   UNL     1       8.917   2.458   7.229  1.00  0.00     0.031 C 
ATOM     46  C   UNL     1       4.002   3.480   7.431  1.00  0.00     0.029 A 
ATOM     47  N   UNL     1       5.140   3.537   9.357  1.00  0.00    -0.354 N 
ATOM     48  C   UNL     1       9.390   2.700   9.451  1.00  0.00     0.074 A 
ATOM     49  C   UNL     1       9.882   2.377   8.130  1.00  0.00     0.031 C 
ATOM     50  C   UNL     1       3.137   3.814   8.406  1.00  0.00     0.029 A 
ATOM     51  C   UNL     1       3.837   3.824   9.690  1.00  0.00     0.049 A 
ATOM     52  H   UNL     1       5.872   3.517  10.015  1.00  0.00     0.167 HD
ATOM     53  C   UNL     1      10.167   2.760  10.558  1.00  0.00     0.037 A 
ATOM     54  C   UNL     1       3.275   4.046  10.896  1.00  0.00     0.037 A 
ATOM     55  C   UNL     1       9.668   3.072  11.872  1.00  0.00     0.049 A 
ATOM     56  C   UNL     1       4.147   4.034  12.128  1.00  0.00     0.074 A 
ATOM     57  C   UNL     1      10.372   3.168  13.059  1.00  0.00     0.029 A 
ATOM     58  N   UNL     1       8.337   3.326  12.174  1.00  0.00    -0.354 N 
ATOM     59  N   UNL     1       5.442   3.839  12.224  1.00  0.00    -0.248 NA
ATOM     60  C   UNL     1       3.483   4.279  13.416  1.00  0.00     0.031 C 
ATOM     61  C   UNL     1       9.459   3.419  14.088  1.00  0.00     0.029 A 
ATOM     62  C   UNL     1       8.195   3.550  13.533  1.00  0.00     0.049 A 
ATOM     63  H   UNL     1       7.603   3.344  11.519  1.00  0.00     0.167 HD
ATOM     64  C   UNL     1       5.750   3.972  13.575  1.00  0.00     0.074 A 
ATOM     65  C   UNL     1       4.509   4.275  14.256  1.00  0.00     0.031 C 
ATOM     66  C   UNL     1       6.952   3.857  14.197  1.00  0.00     0.037 A 
BRANCH  53  67
ATOM     67  C   UNL     1      11.630   2.449  10.400  1.00  0.00     0.058 A 
ATOM     68  C   UNL     1      12.504   3.313   9.719  1.00  0.00     0.135 A 
ATOM     69  C   UNL     1      12.171   1.280  10.960  1.00  0.00     0.135 A 
ATOM     70  F   UNL     1      12.037   4.433   9.144  1.00  0.00    -0.206 F 
ATOM     71  C   UNL     1      13.856   3.016   9.577  1.00  0.00     0.059 A 
ATOM     72  C   UNL     1      13.526   0.979  10.857  1.00  0.00     0.059 A 
ATOM     73  F   UNL     1      11.380   0.416  11.614  1.00  0.00    -0.206 F 
ATOM     74  C   UNL     1      14.358   1.847  10.152  1.00  0.00     0.060 A 
BRANCH  74  75
ATOM     75  S   UNL     1      16.115   1.481   9.966  1.00  0.00     0.124 S 
ATOM     76  O   UNL     1      16.195   1.149   8.546  1.00  0.00    -0.237 OA
ATOM     77  O   UNL     1      16.737   2.742  10.357  1.00  0.00    -0.237 OA
ATOM     78  O   UNL     1      16.331   0.367  10.883  1.00  0.00    -0.744 OA
ENDBRANCH  74  75
ENDBRANCH  53  67
BRANCH  54  79
ATOM     79  C   UNL     1       1.810   4.288  11.006  1.00  0.00     0.058 A 
ATOM     80  C   UNL     1       1.304   5.535  11.404  1.00  0.00     0.135 A 
ATOM     81  C   UNL     1       0.884   3.270  10.725  1.00  0.00     0.135 A 
ATOM     82  F   UNL     1       2.146   6.537  11.699  1.00  0.00    -0.206 F 
ATOM     83  C   UNL     1      -0.063   5.760  11.536  1.00  0.00     0.059 A 
ATOM     84  C   UNL     1      -0.488   3.480  10.820  1.00  0.00     0.059 A 
ATOM     85  F   UNL     1       1.312   2.060  10.333  1.00  0.00    -0.206 F 
ATOM     86  C   UNL     1      -0.952   4.727  11.236  1.00  0.00     0.060 A 
BRANCH  86  87
ATOM     87  S   UNL     1      -2.726   5.046  11.361  1.00  0.00     0.124 S 
ATOM     88  O   UNL     1      -2.908   5.137  12.804  1.00  0.00    -0.237 OA
ATOM     89  O   UNL     1      -2.862   6.295  10.618  1.00  0.00    -0.237 OA
ATOM     90  O   UNL     1      -3.323   3.877  10.721  1.00  0.00    -0.744 OA
ENDBRANCH  86  87
ENDBRANCH  54  79
BRANCH  66  91
ATOM     91  C   UNL     1       6.996   4.106  15.682  1.00  0.00     0.058 A 
ATOM     92  C   UNL     1       6.429   3.213  16.605  1.00  0.00     0.135 A 
ATOM     93  C   UNL     1       7.660   5.236  16.191  1.00  0.00     0.135 A 
ATOM     94  F   UNL     1       5.781   2.118  16.175  1.00  0.00    -0.206 F 
ATOM     95  C   UNL     1       6.489   3.447  17.975  1.00  0.00     0.059 A 
ATOM     96  C   UNL     1       7.761   5.472  17.558  1.00  0.00     0.059 A 
ATOM     97  F   UNL     1       8.234   6.117  15.356  1.00  0.00    -0.206 F 
ATOM     98  C   UNL     1       7.158   4.580  18.442  1.00  0.00     0.060 A 
BRANCH  98  99
ATOM     99  S   UNL     1       7.244   4.862  20.223  1.00  0.00     0.124 S 
ATOM    100  O   UNL     1       5.871   5.250  20.526  1.00  0.00    -0.237 OA
ATOM    101  O   UNL     1       7.660   3.556  20.726  1.00  0.00    -0.237 OA
ATOM    102  O   UNL     1       8.239   5.923  20.353  1.00  0.00    -0.744 OA
ENDBRANCH  98  99
ENDBRANCH  66  91
ENDBRANCH  40  41
ENDBRANCH  33  35
ENDBRANCH  32  33
ENDBRANCH  31  32
ENDBRANCH  30  31
ENDBRANCH  29  30
ENDBRANCH  28  29
ENDBRANCH   1  28
TORSDOF 24
