REMARK SMILES O=C(OCCOCCOCCOCCOC(=O)[C@@H]1CCCN(C(=O)/C=C/c2cccc(F)c2)C1)c1ccc(-c2c3nc(c(-c4c(F)cc(S(=O)(=O)[O-])cc4F)c4ccc([nH]4)c(-c4c(F)cc(S(=O)(=O)[O-])cc4F)c4nc(c(-c5c(F)cc(S(=O)(=O)[O-])cc5F)c5ccc2[nH]5)C=C4)C=C3)cc1
REMARK SMILES IDX 9 1 8 2 7 3 6 4 5 5 4 6 3 7 2 8 1 9 35 10 36 11 100 12 37 13
REMARK SMILES IDX 99 14 38 15 39 16 40 17 93 18 41 19 98 20 92 21 94 22 42 23
REMARK SMILES IDX 97 24 91 25 90 26 43 28 77 29 56 30 76 31 57 32 60 33 75 34
REMARK SMILES IDX 95 35 58 36 59 37 74 39 96 40 61 41 44 42 45 43 54 44 46 45
REMARK SMILES IDX 47 46 53 47 55 48 48 49 49 50 50 51 51 52 52 53 78 54 79 55
REMARK SMILES IDX 88 56 80 57 81 58 87 59 89 60 82 61 83 62 84 63 85 64 86 65
REMARK SMILES IDX 62 66 63 67 72 68 64 69 65 70 71 71 73 72 66 73 67 74 68 75
REMARK SMILES IDX 69 76 70 77 10 78 11 79 12 80 13 81 14 82 15 83 16 84 17 85
REMARK SMILES IDX 18 86 19 87 34 88 20 89 22 90 21 91 23 92 24 93 25 94 26 95
REMARK SMILES IDX 27 96 28 97 33 98 29 99 31 100 30 101 32 102
REMARK H PARENT 94 27 60 38
REMARK Flexibility Score: inf
ROOT
ATOM      1  O   UNL     1       2.647  -3.271   1.585  1.00  0.00    -0.377 OA
ENDROOT
BRANCH   1   2
ATOM      2  C   UNL     1       2.059  -2.433   0.611  1.00  0.00     0.188 C 
BRANCH   2   3
ATOM      3  C   UNL     1       2.631  -1.028   0.650  1.00  0.00     0.188 C 
BRANCH   3   4
ATOM      4  O   UNL     1       3.985  -1.003   0.209  1.00  0.00    -0.376 OA
BRANCH   4   5
ATOM      5  C   UNL     1       4.738   0.151   0.552  1.00  0.00     0.202 C 
BRANCH   5   6
ATOM      6  C   UNL     1       4.333   1.461  -0.141  1.00  0.00     0.261 C 
BRANCH   6   7
ATOM      7  O   UNL     1       2.902   1.677  -0.215  1.00  0.00    -0.460 OA
BRANCH   7   8
ATOM      8  C   UNL     1       2.126   1.559  -1.333  1.00  0.00     0.338 C 
ATOM      9  O   UNL     1       0.957   1.941  -1.328  1.00  0.00    -0.246 OA
BRANCH   8  10
ATOM     10  C   UNL     1       2.680   0.927  -2.554  1.00  0.00     0.060 A 
ATOM     11  C   UNL     1       3.437  -0.229  -2.476  1.00  0.00     0.016 A 
ATOM     12  C   UNL     1       2.426   1.449  -3.816  1.00  0.00     0.016 A 
ATOM     13  C   UNL     1       4.229  -0.662  -3.499  1.00  0.00     0.010 A 
ATOM     14  C   UNL     1       3.064   0.885  -4.928  1.00  0.00     0.010 A 
ATOM     15  C   UNL     1       4.027  -0.125  -4.750  1.00  0.00    -0.014 A 
BRANCH  15  16
ATOM     16  C   UNL     1       4.968  -0.538  -5.796  1.00  0.00     0.031 A 
ATOM     17  C   UNL     1       5.865   0.524  -6.339  1.00  0.00     0.074 A 
ATOM     18  C   UNL     1       5.120  -1.842  -6.099  1.00  0.00     0.049 A 
ATOM     19  N   UNL     1       6.587   0.515  -7.418  1.00  0.00    -0.248 NA
ATOM     20  C   UNL     1       5.944   1.783  -5.569  1.00  0.00     0.031 C 
ATOM     21  C   UNL     1       4.433  -2.962  -5.435  1.00  0.00     0.029 A 
ATOM     22  N   UNL     1       5.930  -2.458  -7.009  1.00  0.00    -0.354 N 
ATOM     23  C   UNL     1       7.127   1.790  -7.509  1.00  0.00     0.074 A 
ATOM     24  C   UNL     1       6.674   2.545  -6.367  1.00  0.00     0.031 C 
ATOM     25  C   UNL     1       4.887  -4.121  -5.932  1.00  0.00     0.029 A 
ATOM     26  C   UNL     1       5.776  -3.826  -7.042  1.00  0.00     0.049 A 
ATOM     27  H   UNL     1       6.563  -1.972  -7.586  1.00  0.00     0.167 HD
ATOM     28  C   UNL     1       7.912   2.266  -8.497  1.00  0.00     0.037 A 
ATOM     29  C   UNL     1       6.243  -4.719  -7.932  1.00  0.00     0.037 A 
ATOM     30  C   UNL     1       8.354   1.425  -9.575  1.00  0.00     0.049 A 
ATOM     31  C   UNL     1       7.039  -4.158  -9.077  1.00  0.00     0.074 A 
ATOM     32  C   UNL     1       9.072   1.760 -10.703  1.00  0.00     0.029 A 
ATOM     33  N   UNL     1       8.120   0.053  -9.629  1.00  0.00    -0.354 N 
ATOM     34  N   UNL     1       7.409  -2.912  -9.282  1.00  0.00    -0.248 NA
ATOM     35  C   UNL     1       7.442  -5.091 -10.131  1.00  0.00     0.031 C 
ATOM     36  C   UNL     1       9.241   0.593 -11.457  1.00  0.00     0.029 A 
ATOM     37  C   UNL     1       8.672  -0.478 -10.775  1.00  0.00     0.049 A 
ATOM     38  H   UNL     1       7.632  -0.463  -8.947  1.00  0.00     0.167 HD
ATOM     39  C   UNL     1       8.090  -2.907 -10.488  1.00  0.00     0.074 A 
ATOM     40  C   UNL     1       8.098  -4.283 -10.955  1.00  0.00     0.031 C 
ATOM     41  C   UNL     1       8.648  -1.870 -11.161  1.00  0.00     0.037 A 
BRANCH  28  42
ATOM     42  C   UNL     1       8.237   3.731  -8.482  1.00  0.00     0.058 A 
ATOM     43  C   UNL     1       7.616   4.593  -9.400  1.00  0.00     0.135 A 
ATOM     44  C   UNL     1       9.114   4.300  -7.545  1.00  0.00     0.135 A 
ATOM     45  F   UNL     1       6.740   4.111 -10.296  1.00  0.00    -0.206 F 
ATOM     46  C   UNL     1       7.864   5.962  -9.400  1.00  0.00     0.059 A 
ATOM     47  C   UNL     1       9.358   5.671  -7.510  1.00  0.00     0.059 A 
ATOM     48  F   UNL     1       9.693   3.530  -6.609  1.00  0.00    -0.206 F 
ATOM     49  C   UNL     1       8.737   6.493  -8.451  1.00  0.00     0.060 A 
BRANCH  49  50
ATOM     50  S   UNL     1       9.012   8.277  -8.439  1.00  0.00     0.124 S 
ATOM     51  O   UNL     1       9.776   8.471  -9.666  1.00  0.00    -0.237 OA
ATOM     52  O   UNL     1       7.649   8.799  -8.448  1.00  0.00    -0.237 OA
ATOM     53  O   UNL     1       9.749   8.498  -7.197  1.00  0.00    -0.744 OA
ENDBRANCH  49  50
ENDBRANCH  28  42
BRANCH  29  54
ATOM     54  C   UNL     1       5.885  -6.161  -7.818  1.00  0.00     0.058 A 
ATOM     55  C   UNL     1       4.549  -6.595  -7.904  1.00  0.00     0.135 A 
ATOM     56  C   UNL     1       6.861  -7.137  -7.566  1.00  0.00     0.135 A 
ATOM     57  F   UNL     1       3.567  -5.711  -8.140  1.00  0.00    -0.206 F 
ATOM     58  C   UNL     1       4.191  -7.925  -7.707  1.00  0.00     0.059 A 
ATOM     59  C   UNL     1       6.531  -8.482  -7.396  1.00  0.00     0.059 A 
ATOM     60  F   UNL     1       8.153  -6.784  -7.486  1.00  0.00    -0.206 F 
ATOM     61  C   UNL     1       5.191  -8.863  -7.450  1.00  0.00     0.060 A 
BRANCH  61  62
ATOM     62  S   UNL     1       4.697 -10.585  -7.208  1.00  0.00     0.124 S 
ATOM     63  O   UNL     1       4.002 -10.512  -5.921  1.00  0.00    -0.237 OA
ATOM     64  O   UNL     1       3.868 -10.836  -8.365  1.00  0.00    -0.237 OA
ATOM     65  O   UNL     1       5.979 -11.299  -7.180  1.00  0.00    -0.744 OA
ENDBRANCH  61  62
ENDBRANCH  29  54
BRANCH  41  66
ATOM     66  C   UNL     1       9.331  -2.200 -12.449  1.00  0.00     0.058 A 
ATOM     67  C   UNL     1      10.731  -2.157 -12.528  1.00  0.00     0.135 A 
ATOM     68  C   UNL     1       8.598  -2.433 -13.621  1.00  0.00     0.135 A 
ATOM     69  F   UNL     1      11.466  -1.929 -11.428  1.00  0.00    -0.206 F 
ATOM     70  C   UNL     1      11.384  -2.301 -13.742  1.00  0.00     0.059 A 
ATOM     71  C   UNL     1       9.233  -2.607 -14.842  1.00  0.00     0.059 A 
ATOM     72  F   UNL     1       7.257  -2.492 -13.579  1.00  0.00    -0.206 F 
ATOM     73  C   UNL     1      10.625  -2.515 -14.894  1.00  0.00     0.060 A 
BRANCH  73  74
ATOM     74  S   UNL     1      11.491  -2.673 -16.467  1.00  0.00     0.124 S 
ATOM     75  O   UNL     1      11.940  -1.304 -16.696  1.00  0.00    -0.237 OA
ATOM     76  O   UNL     1      12.536  -3.640 -16.146  1.00  0.00    -0.237 OA
ATOM     77  O   UNL     1      10.456  -3.156 -17.375  1.00  0.00    -0.744 OA
ENDBRANCH  73  74
ENDBRANCH  41  66
ENDBRANCH  15  16
ENDBRANCH   8  10
ENDBRANCH   7   8
ENDBRANCH   6   7
ENDBRANCH   5   6
ENDBRANCH   4   5
ENDBRANCH   3   4
ENDBRANCH   2   3
ENDBRANCH   1   2
BRANCH   1  78
ATOM     78  C   UNL     1       4.063  -3.280   1.586  1.00  0.00     0.188 C 
BRANCH  78  79
ATOM     79  C   UNL     1       4.857  -3.929   0.454  1.00  0.00     0.188 C 
BRANCH  79  80
ATOM     80  O   UNL     1       4.284  -4.947  -0.342  1.00  0.00    -0.376 OA
BRANCH  80  81
ATOM     81  C   UNL     1       3.221  -5.741   0.155  1.00  0.00     0.202 C 
BRANCH  81  82
ATOM     82  C   UNL     1       3.489  -6.621   1.386  1.00  0.00     0.261 C 
BRANCH  82  83
ATOM     83  O   UNL     1       3.525  -5.925   2.660  1.00  0.00    -0.463 OA
BRANCH  83  84
ATOM     84  C   UNL     1       4.722  -5.830   3.311  1.00  0.00     0.310 C 
ATOM     85  O   UNL     1       5.782  -6.264   2.871  1.00  0.00    -0.252 OA
BRANCH  84  86
ATOM     86  C   UNL     1       4.643  -5.074   4.656  1.00  0.00     0.119 C 
ATOM     87  C   UNL     1       3.306  -5.251   5.385  1.00  0.00     0.019 C 
ATOM     88  C   UNL     1       5.194  -3.609   4.662  1.00  0.00     0.135 C 
ATOM     89  C   UNL     1       2.371  -4.055   5.253  1.00  0.00     0.022 C 
ATOM     90  N   UNL     1       4.183  -2.519   4.778  1.00  0.00    -0.338 N 
ATOM     91  C   UNL     1       3.087  -2.792   5.685  1.00  0.00     0.120 C 
BRANCH  90  92
ATOM     92  C   UNL     1       4.468  -1.248   4.293  1.00  0.00     0.246 C 
ATOM     93  O   UNL     1       5.583  -0.951   3.858  1.00  0.00    -0.270 OA
BRANCH  92  94
ATOM     94  C   UNL     1       3.426  -0.153   4.282  1.00  0.00     0.072 C 
ATOM     95  C   UNL     1       2.130  -0.283   3.934  1.00  0.00     0.014 C 
BRANCH  95  96
ATOM     96  C   UNL     1       1.201   0.847   3.700  1.00  0.00    -0.023 A 
ATOM     97  C   UNL     1       0.511   0.961   2.477  1.00  0.00     0.008 A 
ATOM     98  C   UNL     1       0.938   1.802   4.682  1.00  0.00     0.047 A 
ATOM     99  C   UNL     1      -0.367   2.019   2.214  1.00  0.00     0.004 A 
ATOM    100  C   UNL     1       0.026   2.832   4.430  1.00  0.00     0.123 A 
ATOM    101  C   UNL     1      -0.619   2.956   3.204  1.00  0.00     0.039 A 
ATOM    102  F   UNL     1      -0.243   3.718   5.398  1.00  0.00    -0.207 F 
ENDBRANCH  95  96
ENDBRANCH  92  94
ENDBRANCH  90  92
ENDBRANCH  84  86
ENDBRANCH  83  84
ENDBRANCH  82  83
ENDBRANCH  81  82
ENDBRANCH  80  81
ENDBRANCH  79  80
ENDBRANCH  78  79
ENDBRANCH   1  78
TORSDOF 26
