REMARK SMILES C[C@@H]([NH3+])CCC(=O)N[C@H]1C=C[C@@H](C(=O)OCCOCCOCCOCCOC(=O)c2ccc(-c3c4nc(c(-c5c(F)cc(S(=O)(=O)[O-])cc5F)c5ccc([nH]5)c(-c5c(F)cc(S(=O)(=O)[O-])cc5F)c5nc(c(-c6c(F)cc(S(=O)(=O)[O-])cc6F)c6ccc3[nH]6)C=C5)C=C4)cc2)C1
REMARK SMILES IDX 20 1 19 2 18 3 17 4 16 5 15 6 13 7 14 8 12 9 9 10 10 11
REMARK SMILES IDX 96 12 11 13 8 14 6 15 7 16 5 18 4 19 2 20 1 21 3 22 21 26
REMARK SMILES IDX 22 27 23 28 24 29 25 30 26 31 27 32 28 33 29 34 30 35 31 36
REMARK SMILES IDX 95 37 32 38 94 39 33 40 34 41 35 42 88 43 36 44 93 45 87 46
REMARK SMILES IDX 89 47 37 48 92 49 86 50 85 51 38 53 72 54 51 55 71 56 52 57
REMARK SMILES IDX 55 58 70 59 90 60 53 61 54 62 69 64 91 65 56 66 39 67 40 68
REMARK SMILES IDX 49 69 41 70 42 71 48 72 50 73 43 74 44 75 45 76 46 77 47 78
REMARK SMILES IDX 73 79 74 80 83 81 75 82 76 83 82 84 84 85 77 86 78 87 79 88
REMARK SMILES IDX 80 89 81 90 57 91 58 92 67 93 59 94 60 95 66 96 68 97 61 98
REMARK SMILES IDX 62 99 63 100 64 101 65 102
REMARK H PARENT 8 17 3 23 3 24 3 25 89 52 55 63
REMARK Flexibility Score: inf
ROOT
ATOM      1  C   UNL     1       0.272  -4.291   0.300  1.00  0.00     0.188 C 
ENDROOT
BRANCH   1   2
ATOM      2  C   UNL     1       0.789  -4.396   1.742  1.00  0.00     0.188 C 
BRANCH   2   3
ATOM      3  O   UNL     1      -0.100  -4.153   2.831  1.00  0.00    -0.376 OA
BRANCH   3   4
ATOM      4  C   UNL     1      -1.046  -3.099   2.728  1.00  0.00     0.202 C 
BRANCH   4   5
ATOM      5  C   UNL     1      -0.532  -1.686   2.427  1.00  0.00     0.261 C 
BRANCH   5   6
ATOM      6  O   UNL     1       0.442  -1.516   1.351  1.00  0.00    -0.463 OA
BRANCH   6   7
ATOM      7  C   UNL     1       1.509  -0.731   1.663  1.00  0.00     0.312 C 
ATOM      8  O   UNL     1       1.828  -0.474   2.825  1.00  0.00    -0.252 OA
BRANCH   7   9
ATOM      9  C   UNL     1       2.284  -0.076   0.492  1.00  0.00     0.124 C 
ATOM     10  C   UNL     1       1.883   1.057  -1.696  1.00  0.00     0.106 C 
ATOM     11  C   UNL     1       1.747   2.007  -0.569  1.00  0.00    -0.006 C 
ATOM     12  C   UNL     1       2.071  -0.344  -1.021  1.00  0.00     0.048 C 
ATOM     13  C   UNL     1       2.048   1.416   0.596  1.00  0.00    -0.014 C 
BRANCH  10  14
ATOM     14  N   UNL     1       1.049   1.334  -2.885  1.00  0.00    -0.350 N 
ATOM     15  C   UNL     1      -0.174   1.526  -3.427  1.00  0.00     0.220 C 
ATOM     16  O   UNL     1      -0.115   1.810  -4.637  1.00  0.00    -0.275 OA
ATOM     17  H   UNL     1       1.682   1.420  -3.634  1.00  0.00     0.164 HD
BRANCH  15  18
ATOM     18  C   UNL     1      -1.562   1.514  -2.799  1.00  0.00     0.106 C 
BRANCH  18  19
ATOM     19  C   UNL     1      -2.055   0.176  -2.283  1.00  0.00     0.074 C 
BRANCH  19  20
ATOM     20  C   UNL     1      -1.245  -0.217  -1.080  1.00  0.00     0.178 C 
ATOM     21  C   UNL     1      -1.453   0.692   0.123  1.00  0.00     0.075 C 
BRANCH  20  22
ATOM     22  N   UNL     1      -1.463  -1.618  -0.817  1.00  0.00    -0.355 N 
ATOM     23  H   UNL     1      -2.449  -1.775  -0.607  1.00  0.00     0.344 HD
ATOM     24  H   UNL     1      -0.896  -1.906  -0.020  1.00  0.00     0.344 HD
ATOM     25  H   UNL     1      -1.198  -2.163  -1.637  1.00  0.00     0.344 HD
ENDBRANCH  20  22
ENDBRANCH  19  20
ENDBRANCH  18  19
ENDBRANCH  15  18
ENDBRANCH  10  14
ENDBRANCH   7   9
ENDBRANCH   6   7
ENDBRANCH   5   6
ENDBRANCH   4   5
ENDBRANCH   3   4
ENDBRANCH   2   3
ENDBRANCH   1   2
BRANCH   1  26
ATOM     26  O   UNL     1      -1.124  -4.108   0.287  1.00  0.00    -0.377 OA
BRANCH  26  27
ATOM     27  C   UNL     1      -1.941  -4.904  -0.543  1.00  0.00     0.188 C 
BRANCH  27  28
ATOM     28  C   UNL     1      -1.861  -6.396  -0.223  1.00  0.00     0.188 C 
BRANCH  28  29
ATOM     29  O   UNL     1      -0.543  -6.916  -0.365  1.00  0.00    -0.376 OA
BRANCH  29  30
ATOM     30  C   UNL     1      -0.181  -7.460  -1.631  1.00  0.00     0.202 C 
BRANCH  30  31
ATOM     31  C   UNL     1      -0.131  -6.513  -2.847  1.00  0.00     0.261 C 
BRANCH  31  32
ATOM     32  O   UNL     1      -1.369  -5.929  -3.295  1.00  0.00    -0.460 OA
BRANCH  32  33
ATOM     33  C   UNL     1      -2.431  -6.729  -3.499  1.00  0.00     0.338 C 
ATOM     34  O   UNL     1      -2.463  -7.948  -3.411  1.00  0.00    -0.246 OA
BRANCH  33  35
ATOM     35  C   UNL     1      -3.621  -5.881  -3.691  1.00  0.00     0.060 A 
ATOM     36  C   UNL     1      -4.644  -5.915  -2.734  1.00  0.00     0.016 A 
ATOM     37  C   UNL     1      -3.755  -5.102  -4.842  1.00  0.00     0.016 A 
ATOM     38  C   UNL     1      -5.827  -5.209  -2.950  1.00  0.00     0.010 A 
ATOM     39  C   UNL     1      -4.949  -4.410  -5.066  1.00  0.00     0.010 A 
ATOM     40  C   UNL     1      -6.006  -4.495  -4.142  1.00  0.00    -0.014 A 
BRANCH  40  41
ATOM     41  C   UNL     1      -7.361  -4.014  -4.513  1.00  0.00     0.031 A 
ATOM     42  C   UNL     1      -8.178  -4.851  -5.463  1.00  0.00     0.074 A 
ATOM     43  C   UNL     1      -7.866  -2.876  -4.004  1.00  0.00     0.049 A 
ATOM     44  N   UNL     1      -9.357  -4.614  -5.976  1.00  0.00    -0.248 NA
ATOM     45  C   UNL     1      -7.583  -6.128  -5.893  1.00  0.00     0.031 C 
ATOM     46  C   UNL     1      -7.195  -2.012  -3.034  1.00  0.00     0.029 A 
ATOM     47  N   UNL     1      -9.064  -2.249  -4.240  1.00  0.00    -0.354 N 
ATOM     48  C   UNL     1      -9.635  -5.698  -6.803  1.00  0.00     0.074 A 
ATOM     49  C   UNL     1      -8.497  -6.586  -6.736  1.00  0.00     0.031 C 
ATOM     50  C   UNL     1      -7.988  -0.960  -2.766  1.00  0.00     0.029 A 
ATOM     51  C   UNL     1      -9.204  -1.054  -3.573  1.00  0.00     0.049 A 
ATOM     52  H   UNL     1      -9.758  -2.619  -4.832  1.00  0.00     0.167 HD
ATOM     53  C   UNL     1     -10.741  -5.929  -7.548  1.00  0.00     0.037 A 
ATOM     54  C   UNL     1     -10.189  -0.135  -3.631  1.00  0.00     0.037 A 
ATOM     55  C   UNL     1     -11.876  -5.045  -7.598  1.00  0.00     0.049 A 
ATOM     56  C   UNL     1     -11.377  -0.383  -4.529  1.00  0.00     0.074 A 
ATOM     57  C   UNL     1     -13.061  -5.209  -8.294  1.00  0.00     0.029 A 
ATOM     58  N   UNL     1     -11.964  -3.829  -6.938  1.00  0.00    -0.354 N 
ATOM     59  N   UNL     1     -11.643  -1.427  -5.280  1.00  0.00    -0.248 NA
ATOM     60  C   UNL     1     -12.399   0.672  -4.590  1.00  0.00     0.031 C 
ATOM     61  C   UNL     1     -13.837  -4.061  -8.109  1.00  0.00     0.029 A 
ATOM     62  C   UNL     1     -13.167  -3.213  -7.241  1.00  0.00     0.049 A 
ATOM     63  H   UNL     1     -11.274  -3.458  -6.342  1.00  0.00     0.167 HD
ATOM     64  C   UNL     1     -12.879  -1.169  -5.869  1.00  0.00     0.074 A 
ATOM     65  C   UNL     1     -13.310   0.124  -5.381  1.00  0.00     0.031 C 
ATOM     66  C   UNL     1     -13.592  -1.933  -6.733  1.00  0.00     0.037 A 
BRANCH  53  67
ATOM     67  C   UNL     1     -10.770  -7.165  -8.405  1.00  0.00     0.058 A 
ATOM     68  C   UNL     1     -10.903  -8.451  -7.858  1.00  0.00     0.135 A 
ATOM     69  C   UNL     1     -10.726  -7.051  -9.805  1.00  0.00     0.135 A 
ATOM     70  F   UNL     1     -10.929  -8.621  -6.527  1.00  0.00    -0.206 F 
ATOM     71  C   UNL     1     -10.979  -9.581  -8.668  1.00  0.00     0.059 A 
ATOM     72  C   UNL     1     -10.829  -8.164 -10.634  1.00  0.00     0.059 A 
ATOM     73  F   UNL     1     -10.592  -5.846 -10.380  1.00  0.00    -0.206 F 
ATOM     74  C   UNL     1     -10.947  -9.426 -10.055  1.00  0.00     0.060 A 
BRANCH  74  75
ATOM     75  S   UNL     1     -11.080 -10.898 -11.091  1.00  0.00     0.124 S 
ATOM     76  O   UNL     1      -9.791 -11.540 -10.853  1.00  0.00    -0.237 OA
ATOM     77  O   UNL     1     -12.240 -11.575 -10.521  1.00  0.00    -0.237 OA
ATOM     78  O   UNL     1     -11.271 -10.356 -12.433  1.00  0.00    -0.744 OA
ENDBRANCH  74  75
ENDBRANCH  53  67
BRANCH  54  79
ATOM     79  C   UNL     1     -10.099   1.121  -2.833  1.00  0.00     0.058 A 
ATOM     80  C   UNL     1     -11.009   1.389  -1.799  1.00  0.00     0.135 A 
ATOM     81  C   UNL     1      -9.128   2.095  -3.114  1.00  0.00     0.135 A 
ATOM     82  F   UNL     1     -11.966   0.498  -1.500  1.00  0.00    -0.206 F 
ATOM     83  C   UNL     1     -10.978   2.587  -1.091  1.00  0.00     0.059 A 
ATOM     84  C   UNL     1      -9.056   3.287  -2.398  1.00  0.00     0.059 A 
ATOM     85  F   UNL     1      -8.228   1.889  -4.088  1.00  0.00    -0.206 F 
ATOM     86  C   UNL     1      -9.996   3.530  -1.398  1.00  0.00     0.060 A 
BRANCH  86  87
ATOM     87  S   UNL     1      -9.951   5.071  -0.457  1.00  0.00     0.124 S 
ATOM     88  O   UNL     1     -11.133   5.760  -0.963  1.00  0.00    -0.237 OA
ATOM     89  O   UNL     1     -10.031   4.591   0.919  1.00  0.00    -0.237 OA
ATOM     90  O   UNL     1      -8.669   5.658  -0.835  1.00  0.00    -0.744 OA
ENDBRANCH  86  87
ENDBRANCH  54  79
BRANCH  66  91
ATOM     91  C   UNL     1     -14.940  -1.423  -7.172  1.00  0.00     0.058 A 
ATOM     92  C   UNL     1     -15.075  -0.331  -8.043  1.00  0.00     0.135 A 
ATOM     93  C   UNL     1     -16.113  -2.079  -6.760  1.00  0.00     0.135 A 
ATOM     94  F   UNL     1     -13.989   0.336  -8.465  1.00  0.00    -0.206 F 
ATOM     95  C   UNL     1     -16.325   0.108  -8.470  1.00  0.00     0.059 A 
ATOM     96  C   UNL     1     -17.370  -1.679  -7.201  1.00  0.00     0.059 A 
ATOM     97  F   UNL     1     -16.042  -3.137  -5.936  1.00  0.00    -0.206 F 
ATOM     98  C   UNL     1     -17.467  -0.576  -8.047  1.00  0.00     0.060 A 
BRANCH  98  99
ATOM     99  S   UNL     1     -19.078  -0.018  -8.639  1.00  0.00     0.124 S 
ATOM    100  O   UNL     1     -19.250   1.227  -7.898  1.00  0.00    -0.237 OA
ATOM    101  O   UNL     1     -18.851   0.124 -10.074  1.00  0.00    -0.237 OA
ATOM    102  O   UNL     1     -19.977  -1.104  -8.257  1.00  0.00    -0.744 OA
ENDBRANCH  98  99
ENDBRANCH  66  91
ENDBRANCH  40  41
ENDBRANCH  33  35
ENDBRANCH  32  33
ENDBRANCH  31  32
ENDBRANCH  30  31
ENDBRANCH  29  30
ENDBRANCH  28  29
ENDBRANCH  27  28
ENDBRANCH  26  27
ENDBRANCH   1  26
TORSDOF 28
