REMARK SMILES O=C(OCCOCCOCCOCCOC(=O)c1ccc(-c2c3nc(c(-c4c(F)cc(S(=O)(=O)[O-])cc4F)c4ccc([nH]4)c(-c4c(F)cc(S(=O)(=O)[O-])cc4F)c4nc(c(-c5c(F)cc(S(=O)(=O)[O-])cc5F)c5ccc2[nH]5)C=C4)C=C3)cc1)C1=Cc2c(ccc(Cl)c2Cl)O[C@H]1C(F)(F)F
REMARK SMILES IDX 10 1 9 2 8 3 7 4 6 5 5 6 4 7 3 8 2 9 1 10 84 11 85 12 95 13
REMARK SMILES IDX 86 14 94 15 87 16 92 17 88 18 90 19 93 20 89 21 91 22 96 23
REMARK SMILES IDX 97 24 98 25 99 26 11 27 12 28 13 29 14 30 15 31 16 32 17 33
REMARK SMILES IDX 18 34 19 35 83 36 20 37 82 38 21 39 22 40 23 41 76 42 24 43
REMARK SMILES IDX 81 44 75 45 77 46 25 47 80 48 74 49 73 50 26 52 60 53 39 54
REMARK SMILES IDX 59 55 40 56 43 57 58 58 78 59 41 60 42 61 57 63 79 64 44 65
REMARK SMILES IDX 27 66 28 67 37 68 29 69 30 70 36 71 38 72 31 73 32 74 33 75
REMARK SMILES IDX 34 76 35 77 61 78 62 79 71 80 63 81 64 82 70 83 72 84 65 85
REMARK SMILES IDX 66 86 67 87 68 88 69 89 45 90 46 91 55 92 47 93 48 94 54 95
REMARK SMILES IDX 56 96 49 97 50 98 51 99 52 100 53 101
REMARK H PARENT 77 51 43 62
REMARK Flexibility Score: inf
ROOT
ATOM      1  C   UNL     1       3.120  -4.137   0.140  1.00  0.00     0.188 C 
ENDROOT
BRANCH   1   2
ATOM      2  O   UNL     1       1.922  -4.243  -0.627  1.00  0.00    -0.377 OA
BRANCH   2   3
ATOM      3  C   UNL     1       0.910  -3.269  -0.413  1.00  0.00     0.188 C 
BRANCH   3   4
ATOM      4  C   UNL     1       1.272  -1.851  -0.856  1.00  0.00     0.188 C 
BRANCH   4   5
ATOM      5  O   UNL     1       2.476  -1.390  -0.259  1.00  0.00    -0.376 OA
BRANCH   5   6
ATOM      6  C   UNL     1       2.363  -1.079   1.125  1.00  0.00     0.202 C 
BRANCH   6   7
ATOM      7  C   UNL     1       2.059   0.402   1.351  1.00  0.00     0.261 C 
BRANCH   7   8
ATOM      8  O   UNL     1       1.796   1.130   0.124  1.00  0.00    -0.460 OA
BRANCH   8   9
ATOM      9  C   UNL     1       2.652   1.661  -0.784  1.00  0.00     0.338 C 
ATOM     10  O   UNL     1       2.195   2.305  -1.726  1.00  0.00    -0.246 OA
BRANCH   9  11
ATOM     11  C   UNL     1       4.124   1.612  -0.619  1.00  0.00     0.087 C 
ATOM     12  C   UNL     1       4.750   0.751   0.174  1.00  0.00     0.029 C 
ATOM     13  C   UNL     1       4.977   2.321  -1.657  1.00  0.00     0.316 C 
ATOM     14  C   UNL     1       6.140   0.859   0.512  1.00  0.00     0.037 A 
ATOM     15  O   UNL     1       6.433   2.285  -1.418  1.00  0.00    -0.475 OA
ATOM     16  C   UNL     1       6.938   1.573  -0.366  1.00  0.00     0.129 A 
ATOM     17  C   UNL     1       6.670   0.241   1.666  1.00  0.00     0.070 A 
ATOM     18  C   UNL     1       8.314   1.566  -0.160  1.00  0.00     0.049 A 
ATOM     19  C   UNL     1       8.047   0.226   1.855  1.00  0.00     0.060 A 
ATOM     20  Cl  UNL     1       5.611  -0.428   2.876  1.00  0.00    -0.082 Cl
ATOM     21  C   UNL     1       8.867   0.873   0.929  1.00  0.00     0.026 A 
ATOM     22  Cl  UNL     1       8.789  -0.597   3.180  1.00  0.00    -0.083 Cl
BRANCH  13  23
ATOM     23  C   UNL     1       4.690   1.693  -3.057  1.00  0.00     0.430 C 
ATOM     24  F   UNL     1       4.133   0.458  -2.970  1.00  0.00    -0.167 F 
ATOM     25  F   UNL     1       3.860   2.462  -3.799  1.00  0.00    -0.167 F 
ATOM     26  F   UNL     1       5.824   1.544  -3.788  1.00  0.00    -0.167 F 
ENDBRANCH  13  23
ENDBRANCH   9  11
ENDBRANCH   8   9
ENDBRANCH   7   8
ENDBRANCH   6   7
ENDBRANCH   5   6
ENDBRANCH   4   5
ENDBRANCH   3   4
ENDBRANCH   2   3
ENDBRANCH   1   2
BRANCH   1  27
ATOM     27  C   UNL     1       4.362  -3.733  -0.688  1.00  0.00     0.188 C 
BRANCH  27  28
ATOM     28  O   UNL     1       4.690  -4.439  -1.888  1.00  0.00    -0.376 OA
BRANCH  28  29
ATOM     29  C   UNL     1       3.618  -4.967  -2.655  1.00  0.00     0.202 C 
BRANCH  29  30
ATOM     30  C   UNL     1       3.276  -6.425  -2.282  1.00  0.00     0.261 C 
BRANCH  30  31
ATOM     31  O   UNL     1       3.615  -6.792  -0.928  1.00  0.00    -0.460 OA
BRANCH  31  32
ATOM     32  C   UNL     1       4.931  -7.034  -0.703  1.00  0.00     0.338 C 
ATOM     33  O   UNL     1       5.795  -7.186  -1.558  1.00  0.00    -0.246 OA
BRANCH  32  34
ATOM     34  C   UNL     1       5.238  -6.950   0.753  1.00  0.00     0.060 A 
ATOM     35  C   UNL     1       6.443  -6.345   1.134  1.00  0.00     0.016 A 
ATOM     36  C   UNL     1       4.385  -7.461   1.739  1.00  0.00     0.016 A 
ATOM     37  C   UNL     1       6.837  -6.324   2.477  1.00  0.00     0.010 A 
ATOM     38  C   UNL     1       4.780  -7.440   3.089  1.00  0.00     0.010 A 
ATOM     39  C   UNL     1       6.037  -6.924   3.460  1.00  0.00    -0.014 A 
BRANCH  39  40
ATOM     40  C   UNL     1       6.638  -7.237   4.790  1.00  0.00     0.031 A 
ATOM     41  C   UNL     1       7.159  -8.639   5.019  1.00  0.00     0.074 A 
ATOM     42  C   UNL     1       6.809  -6.306   5.749  1.00  0.00     0.049 A 
ATOM     43  N   UNL     1       7.749  -9.150   6.069  1.00  0.00    -0.248 NA
ATOM     44  C   UNL     1       6.989  -9.588   3.907  1.00  0.00     0.031 C 
ATOM     45  C   UNL     1       6.396  -4.907   5.658  1.00  0.00     0.029 A 
ATOM     46  N   UNL     1       7.385  -6.402   6.996  1.00  0.00    -0.354 N 
ATOM     47  C   UNL     1       8.033 -10.472   5.738  1.00  0.00     0.074 A 
ATOM     48  C   UNL     1       7.499 -10.700   4.414  1.00  0.00     0.031 C 
ATOM     49  C   UNL     1       6.725  -4.278   6.802  1.00  0.00     0.029 A 
ATOM     50  C   UNL     1       7.354  -5.231   7.718  1.00  0.00     0.049 A 
ATOM     51  H   UNL     1       7.784  -7.234   7.340  1.00  0.00     0.167 HD
ATOM     52  C   UNL     1       8.697 -11.410   6.455  1.00  0.00     0.037 A 
ATOM     53  C   UNL     1       7.771  -4.961   8.975  1.00  0.00     0.037 A 
ATOM     54  C   UNL     1       9.226 -11.197   7.777  1.00  0.00     0.049 A 
ATOM     55  C   UNL     1       8.441  -6.045   9.789  1.00  0.00     0.074 A 
ATOM     56  C   UNL     1       9.899 -12.094   8.588  1.00  0.00     0.029 A 
ATOM     57  N   UNL     1       9.140 -10.007   8.483  1.00  0.00    -0.354 N 
ATOM     58  N   UNL     1       8.710  -7.286   9.454  1.00  0.00    -0.248 NA
ATOM     59  C   UNL     1       8.873  -5.689  11.149  1.00  0.00     0.031 C 
ATOM     60  C   UNL     1      10.178 -11.461   9.804  1.00  0.00     0.029 A 
ATOM     61  C   UNL     1       9.733 -10.151   9.727  1.00  0.00     0.049 A 
ATOM     62  H   UNL     1       8.720  -9.181   8.149  1.00  0.00     0.167 HD
ATOM     63  C   UNL     1       9.368  -7.844  10.549  1.00  0.00     0.074 A 
ATOM     64  C   UNL     1       9.473  -6.802  11.547  1.00  0.00     0.031 C 
ATOM     65  C   UNL     1       9.842  -9.105  10.713  1.00  0.00     0.037 A 
BRANCH  52  66
ATOM     66  C   UNL     1       8.881 -12.764   5.823  1.00  0.00     0.058 A 
ATOM     67  C   UNL     1       9.751 -12.958   4.737  1.00  0.00     0.135 A 
ATOM     68  C   UNL     1       8.206 -13.887   6.329  1.00  0.00     0.135 A 
ATOM     69  F   UNL     1      10.405 -11.916   4.200  1.00  0.00    -0.206 F 
ATOM     70  C   UNL     1       9.926 -14.212   4.160  1.00  0.00     0.059 A 
ATOM     71  C   UNL     1       8.390 -15.156   5.787  1.00  0.00     0.059 A 
ATOM     72  F   UNL     1       7.360 -13.759   7.362  1.00  0.00    -0.206 F 
ATOM     73  C   UNL     1       9.244 -15.306   4.695  1.00  0.00     0.060 A 
BRANCH  73  74
ATOM     74  S   UNL     1       9.496 -16.928   3.944  1.00  0.00     0.124 S 
ATOM     75  O   UNL     1       8.807 -16.769   2.667  1.00  0.00    -0.237 OA
ATOM     76  O   UNL     1      10.951 -17.014   3.873  1.00  0.00    -0.237 OA
ATOM     77  O   UNL     1       8.862 -17.843   4.888  1.00  0.00    -0.744 OA
ENDBRANCH  73  74
ENDBRANCH  52  66
BRANCH  53  78
ATOM     78  C   UNL     1       7.550  -3.610   9.569  1.00  0.00     0.058 A 
ATOM     79  C   UNL     1       8.622  -2.766   9.903  1.00  0.00     0.135 A 
ATOM     80  C   UNL     1       6.254  -3.155   9.860  1.00  0.00     0.135 A 
ATOM     81  F   UNL     1       9.883  -3.158   9.667  1.00  0.00    -0.206 F 
ATOM     82  C   UNL     1       8.420  -1.535  10.524  1.00  0.00     0.059 A 
ATOM     83  C   UNL     1       6.024  -1.916  10.451  1.00  0.00     0.059 A 
ATOM     84  F   UNL     1       5.191  -3.917   9.561  1.00  0.00    -0.206 F 
ATOM     85  C   UNL     1       7.115  -1.118  10.793  1.00  0.00     0.060 A 
BRANCH  85  86
ATOM     86  S   UNL     1       6.857   0.493  11.568  1.00  0.00     0.124 S 
ATOM     87  O   UNL     1       7.305   0.240  12.933  1.00  0.00    -0.237 OA
ATOM     88  O   UNL     1       7.713   1.360  10.764  1.00  0.00    -0.237 OA
ATOM     89  O   UNL     1       5.424   0.718  11.406  1.00  0.00    -0.744 OA
ENDBRANCH  85  86
ENDBRANCH  53  78
BRANCH  65  90
ATOM     90  C   UNL     1      10.558  -9.424  12.002  1.00  0.00     0.058 A 
ATOM     91  C   UNL     1       9.880  -9.508  13.229  1.00  0.00     0.135 A 
ATOM     92  C   UNL     1      11.939  -9.685  12.003  1.00  0.00     0.135 A 
ATOM     93  F   UNL     1       8.560  -9.271  13.289  1.00  0.00    -0.206 F 
ATOM     94  C   UNL     1      10.550  -9.799  14.414  1.00  0.00     0.059 A 
ATOM     95  C   UNL     1      12.624 -10.010  13.170  1.00  0.00     0.059 A 
ATOM     96  F   UNL     1      12.637  -9.636  10.857  1.00  0.00    -0.206 F 
ATOM     97  C   UNL     1      11.924 -10.046  14.375  1.00  0.00     0.060 A 
BRANCH  97  98
ATOM     98  S   UNL     1      12.780 -10.427  15.918  1.00  0.00     0.124 S 
ATOM     99  O   UNL     1      12.797  -9.124  16.575  1.00  0.00    -0.237 OA
ATOM    100  O   UNL     1      11.906 -11.429  16.521  1.00  0.00    -0.237 OA
ATOM    101  O   UNL     1      14.079 -10.923  15.474  1.00  0.00    -0.744 OA
ENDBRANCH  97  98
ENDBRANCH  65  90
ENDBRANCH  39  40
ENDBRANCH  32  34
ENDBRANCH  31  32
ENDBRANCH  30  31
ENDBRANCH  29  30
ENDBRANCH  28  29
ENDBRANCH  27  28
ENDBRANCH   1  27
TORSDOF 24
