REMARK SMILES O=C(OCCOCCOCCOCCOC(=O)c1coc(-c2csc(-c3ccc(Cl)cn3)n2)c1)c1ccc(-c2c3nc(c(-c4c(F)cc(S(=O)(=O)[O-])cc4F)c4ccc([nH]4)c(-c4c(F)cc(S(=O)(=O)[O-])cc4F)c4nc(c(-c5c(F)cc(S(=O)(=O)[O-])cc5F)c5ccc2[nH]5)C=C4)C=C3)cc1
REMARK SMILES IDX 8 1 7 2 6 3 5 4 4 5 3 6 2 7 1 8 35 9 36 10 100 11 37 12
REMARK SMILES IDX 99 13 38 14 39 15 40 16 93 17 41 18 98 19 92 20 94 21 42 22
REMARK SMILES IDX 97 23 91 24 90 25 43 27 77 28 56 29 76 30 57 31 60 32 75 33
REMARK SMILES IDX 95 34 58 35 59 36 74 38 96 39 61 40 44 41 45 42 54 43 46 44
REMARK SMILES IDX 47 45 53 46 55 47 48 48 49 49 50 50 51 51 52 52 78 53 79 54
REMARK SMILES IDX 88 55 80 56 81 57 87 58 89 59 82 60 83 61 84 62 85 63 86 64
REMARK SMILES IDX 62 65 63 66 72 67 64 68 65 69 71 70 73 71 66 72 67 73 68 74
REMARK SMILES IDX 69 75 70 76 9 77 10 78 11 79 12 80 13 81 14 82 15 83 16 84
REMARK SMILES IDX 17 85 18 86 19 87 34 88 20 89 21 90 22 91 23 92 33 93 24 94
REMARK SMILES IDX 25 95 26 96 27 97 32 98 28 99 31 100 29 101 30 102
REMARK H PARENT 94 26 60 37
REMARK Flexibility Score: inf
ROOT
ATOM      1  C   UNL     1       1.933   2.842   0.014  1.00  0.00     0.188 C 
ENDROOT
BRANCH   1   2
ATOM      2  C   UNL     1       2.336   1.570  -0.731  1.00  0.00     0.188 C 
BRANCH   2   3
ATOM      3  O   UNL     1       3.660   1.174  -0.355  1.00  0.00    -0.376 OA
BRANCH   3   4
ATOM      4  C   UNL     1       4.425   0.570  -1.398  1.00  0.00     0.202 C 
BRANCH   4   5
ATOM      5  C   UNL     1       4.221  -0.942  -1.523  1.00  0.00     0.261 C 
BRANCH   5   6
ATOM      6  O   UNL     1       2.854  -1.318  -1.288  1.00  0.00    -0.460 OA
BRANCH   6   7
ATOM      7  C   UNL     1       2.296  -1.726  -0.119  1.00  0.00     0.338 C 
ATOM      8  O   UNL     1       1.100  -2.015  -0.113  1.00  0.00    -0.246 OA
BRANCH   7   9
ATOM      9  C   UNL     1       3.063  -1.893   1.155  1.00  0.00     0.060 A 
ATOM     10  C   UNL     1       4.204  -1.171   1.507  1.00  0.00     0.016 A 
ATOM     11  C   UNL     1       2.565  -2.822   2.086  1.00  0.00     0.016 A 
ATOM     12  C   UNL     1       4.910  -1.451   2.668  1.00  0.00     0.010 A 
ATOM     13  C   UNL     1       3.238  -3.072   3.288  1.00  0.00     0.010 A 
ATOM     14  C   UNL     1       4.445  -2.418   3.555  1.00  0.00    -0.014 A 
BRANCH  14  15
ATOM     15  C   UNL     1       5.344  -2.818   4.656  1.00  0.00     0.031 A 
ATOM     16  C   UNL     1       6.090  -4.114   4.521  1.00  0.00     0.074 A 
ATOM     17  C   UNL     1       5.619  -1.946   5.643  1.00  0.00     0.049 A 
ATOM     18  N   UNL     1       6.952  -4.661   5.334  1.00  0.00    -0.248 NA
ATOM     19  C   UNL     1       5.848  -4.890   3.291  1.00  0.00     0.031 C 
ATOM     20  C   UNL     1       5.026  -0.612   5.777  1.00  0.00     0.029 A 
ATOM     21  N   UNL     1       6.496  -2.025   6.691  1.00  0.00    -0.354 N 
ATOM     22  C   UNL     1       7.346  -5.845   4.722  1.00  0.00     0.074 A 
ATOM     23  C   UNL     1       6.618  -5.950   3.478  1.00  0.00     0.031 C 
ATOM     24  C   UNL     1       5.578   0.011   6.832  1.00  0.00     0.029 A 
ATOM     25  C   UNL     1       6.517  -0.899   7.480  1.00  0.00     0.049 A 
ATOM     26  H   UNL     1       7.059  -2.814   6.864  1.00  0.00     0.167 HD
ATOM     27  C   UNL     1       8.240  -6.759   5.162  1.00  0.00     0.037 A 
ATOM     28  C   UNL     1       7.200  -0.650   8.613  1.00  0.00     0.037 A 
ATOM     29  C   UNL     1       8.942  -6.633   6.409  1.00  0.00     0.049 A 
ATOM     30  C   UNL     1       8.122  -1.723   9.129  1.00  0.00     0.074 A 
ATOM     31  C   UNL     1       9.783  -7.537   7.028  1.00  0.00     0.029 A 
ATOM     32  N   UNL     1       8.886  -5.509   7.225  1.00  0.00    -0.354 N 
ATOM     33  N   UNL     1       8.410  -2.888   8.593  1.00  0.00    -0.248 NA
ATOM     34  C   UNL     1       8.801  -1.462  10.403  1.00  0.00     0.031 C 
ATOM     35  C   UNL     1      10.216  -6.969   8.233  1.00  0.00     0.029 A 
ATOM     36  C   UNL     1       9.676  -5.696   8.343  1.00  0.00     0.049 A 
ATOM     37  H   UNL     1       8.360  -4.699   7.034  1.00  0.00     0.167 HD
ATOM     38  C   UNL     1       9.304  -3.498   9.464  1.00  0.00     0.074 A 
ATOM     39  C   UNL     1       9.533  -2.559  10.545  1.00  0.00     0.031 C 
ATOM     40  C   UNL     1       9.875  -4.726   9.392  1.00  0.00     0.037 A 
BRANCH  27  41
ATOM     41  C   UNL     1       8.445  -7.980   4.312  1.00  0.00     0.058 A 
ATOM     42  C   UNL     1       9.165  -7.928   3.107  1.00  0.00     0.135 A 
ATOM     43  C   UNL     1       7.876  -9.208   4.683  1.00  0.00     0.135 A 
ATOM     44  F   UNL     1       9.699  -6.770   2.688  1.00  0.00    -0.206 F 
ATOM     45  C   UNL     1       9.290  -9.046   2.287  1.00  0.00     0.059 A 
ATOM     46  C   UNL     1       8.006 -10.344   3.888  1.00  0.00     0.059 A 
ATOM     47  F   UNL     1       7.165  -9.308   5.816  1.00  0.00    -0.206 F 
ATOM     48  C   UNL     1       8.701 -10.248   2.683  1.00  0.00     0.060 A 
BRANCH  48  49
ATOM     49  S   UNL     1       8.845 -11.682   1.595  1.00  0.00     0.124 S 
ATOM     50  O   UNL     1       7.922 -11.327   0.521  1.00  0.00    -0.237 OA
ATOM     51  O   UNL     1      10.261 -11.667   1.244  1.00  0.00    -0.237 OA
ATOM     52  O   UNL     1       8.425 -12.794   2.442  1.00  0.00    -0.744 OA
ENDBRANCH  48  49
ENDBRANCH  27  41
BRANCH  28  53
ATOM     53  C   UNL     1       6.989   0.621   9.362  1.00  0.00     0.058 A 
ATOM     54  C   UNL     1       8.014   1.563   9.526  1.00  0.00     0.135 A 
ATOM     55  C   UNL     1       5.745   0.908   9.949  1.00  0.00     0.135 A 
ATOM     56  F   UNL     1       9.224   1.338   8.992  1.00  0.00    -0.206 F 
ATOM     57  C   UNL     1       7.823   2.731  10.263  1.00  0.00     0.059 A 
ATOM     58  C   UNL     1       5.521   2.080  10.664  1.00  0.00     0.059 A 
ATOM     59  F   UNL     1       4.723   0.048   9.817  1.00  0.00    -0.206 F 
ATOM     60  C   UNL     1       6.572   2.978  10.832  1.00  0.00     0.060 A 
BRANCH  60  61
ATOM     61  S   UNL     1       6.320   4.500  11.772  1.00  0.00     0.124 S 
ATOM     62  O   UNL     1       6.979   4.177  13.032  1.00  0.00    -0.237 OA
ATOM     63  O   UNL     1       6.986   5.495  10.939  1.00  0.00    -0.237 OA
ATOM     64  O   UNL     1       4.866   4.617  11.832  1.00  0.00    -0.744 OA
ENDBRANCH  60  61
ENDBRANCH  28  53
BRANCH  40  65
ATOM     65  C   UNL     1      10.808  -5.102  10.504  1.00  0.00     0.058 A 
ATOM     66  C   UNL     1      10.326  -5.465  11.770  1.00  0.00     0.135 A 
ATOM     67  C   UNL     1      12.193  -5.144  10.284  1.00  0.00     0.135 A 
ATOM     68  F   UNL     1       9.008  -5.434  12.025  1.00  0.00    -0.206 F 
ATOM     69  C   UNL     1      11.190  -5.833  12.793  1.00  0.00     0.059 A 
ATOM     70  C   UNL     1      13.074  -5.533  11.286  1.00  0.00     0.059 A 
ATOM     71  F   UNL     1      12.699  -4.817   9.084  1.00  0.00    -0.206 F 
ATOM     72  C   UNL     1      12.563  -5.863  12.541  1.00  0.00     0.060 A 
BRANCH  72  73
ATOM     73  S   UNL     1      13.677  -6.371  13.867  1.00  0.00     0.124 S 
ATOM     74  O   UNL     1      13.727  -5.163  14.684  1.00  0.00    -0.237 OA
ATOM     75  O   UNL     1      12.970  -7.505  14.454  1.00  0.00    -0.237 OA
ATOM     76  O   UNL     1      14.910  -6.706  13.162  1.00  0.00    -0.744 OA
ENDBRANCH  72  73
ENDBRANCH  40  65
ENDBRANCH  14  15
ENDBRANCH   7   9
ENDBRANCH   6   7
ENDBRANCH   5   6
ENDBRANCH   4   5
ENDBRANCH   3   4
ENDBRANCH   2   3
ENDBRANCH   1   2
BRANCH   1  77
ATOM     77  O   UNL     1       2.624   4.020  -0.408  1.00  0.00    -0.377 OA
BRANCH  77  78
ATOM     78  C   UNL     1       4.047   3.946  -0.412  1.00  0.00     0.188 C 
BRANCH  78  79
ATOM     79  C   UNL     1       4.768   3.685   0.925  1.00  0.00     0.188 C 
BRANCH  79  80
ATOM     80  O   UNL     1       3.901   3.579   2.046  1.00  0.00    -0.376 OA
BRANCH  80  81
ATOM     81  C   UNL     1       3.971   4.647   2.985  1.00  0.00     0.202 C 
BRANCH  81  82
ATOM     82  C   UNL     1       3.186   5.899   2.565  1.00  0.00     0.261 C 
BRANCH  82  83
ATOM     83  O   UNL     1       3.617   6.510   1.334  1.00  0.00    -0.460 OA
BRANCH  83  84
ATOM     84  C   UNL     1       4.878   7.011   1.272  1.00  0.00     0.341 C 
ATOM     85  O   UNL     1       5.636   7.123   2.227  1.00  0.00    -0.246 OA
BRANCH  84  86
ATOM     86  C   UNL     1       5.295   7.210  -0.105  1.00  0.00     0.098 A 
ATOM     87  C   UNL     1       4.473   7.513  -1.173  1.00  0.00     0.211 A 
ATOM     88  C   UNL     1       6.580   6.974  -0.681  1.00  0.00     0.068 A 
ATOM     89  O   UNL     1       5.126   7.336  -2.352  1.00  0.00    -0.462 OA
ATOM     90  C   UNL     1       6.417   7.006  -2.056  1.00  0.00     0.154 A 
BRANCH  90  91
ATOM     91  C   UNL     1       7.482   6.696  -3.056  1.00  0.00     0.117 A 
ATOM     92  C   UNL     1       8.666   7.399  -3.068  1.00  0.00     0.099 A 
ATOM     93  N   UNL     1       7.369   5.696  -4.016  1.00  0.00    -0.231 NA
ATOM     94  S   UNL     1       9.709   6.760  -4.256  1.00  0.00    -0.120 S 
ATOM     95  C   UNL     1       8.529   5.552  -4.642  1.00  0.00     0.142 A 
BRANCH  95  96
ATOM     96  C   UNL     1       8.872   4.525  -5.646  1.00  0.00     0.099 A 
ATOM     97  C   UNL     1       7.925   4.018  -6.532  1.00  0.00     0.033 A 
ATOM     98  N   UNL     1      10.175   4.127  -5.674  1.00  0.00    -0.252 NA
ATOM     99  C   UNL     1       8.336   3.107  -7.513  1.00  0.00     0.024 A 
ATOM    100  C   UNL     1      10.539   3.227  -6.619  1.00  0.00     0.132 A 
ATOM    101  C   UNL     1       9.668   2.709  -7.561  1.00  0.00     0.059 A 
ATOM    102  Cl  UNL     1      10.219   1.620  -8.767  1.00  0.00    -0.083 Cl
ENDBRANCH  95  96
ENDBRANCH  90  91
ENDBRANCH  84  86
ENDBRANCH  83  84
ENDBRANCH  82  83
ENDBRANCH  81  82
ENDBRANCH  80  81
ENDBRANCH  79  80
ENDBRANCH  78  79
ENDBRANCH  77  78
ENDBRANCH   1  77
TORSDOF 25
