REMARK SMILES O=C1C[C@H](c2cn[nH]c2C(=O)OCCOCCOCCOCCOC(=O)c2ccc(-c3c4nc(c(-c5c(F)cc(S(=O)(=O)[O-])cc5F)c5ccc([nH]5)c(-c5c(F)cc(S(=O)(=O)[O-])cc5F)c5nc(c(-c6c(F)cc(S(=O)(=O)[O-])cc6F)c6ccc3[nH]6)C=C5)C=C4)cc2)c2c(-c3cccs3)n[nH]c2N1
REMARK SMILES IDX 19 1 18 2 17 3 16 4 15 5 14 6 13 7 12 8 10 9 11 10 9 11 5 12
REMARK SMILES IDX 6 13 7 14 8 15 4 17 1 18 2 19 3 20 103 21 102 22 93 24
REMARK SMILES IDX 101 25 94 26 100 27 95 29 96 30 99 31 97 32 98 33 20 34
REMARK SMILES IDX 21 35 22 36 23 37 24 38 25 39 26 40 27 41 28 42 92 43 29 44
REMARK SMILES IDX 91 45 30 46 31 47 32 48 85 49 33 50 90 51 84 52 86 53 34 54
REMARK SMILES IDX 89 55 83 56 82 57 35 59 69 60 48 61 68 62 49 63 52 64 67 65
REMARK SMILES IDX 87 66 50 67 51 68 66 70 88 71 53 72 36 73 37 74 46 75 38 76
REMARK SMILES IDX 39 77 45 78 47 79 40 80 41 81 42 82 43 83 44 84 70 85 71 86
REMARK SMILES IDX 80 87 72 88 73 89 79 90 81 91 74 92 75 93 76 94 77 95 78 96
REMARK SMILES IDX 54 97 55 98 64 99 56 100 57 101 63 102 65 103 58 104 59 105
REMARK SMILES IDX 60 106 61 107 62 108
REMARK H PARENT 8 16 103 23 101 28 86 58 52 69
REMARK Flexibility Score: inf
ROOT
ATOM      1  C   UNL     1       3.577  -3.118  -2.378  1.00  0.00     0.188 C 
ENDROOT
BRANCH   1   2
ATOM      2  O   UNL     1       3.022  -1.931  -2.893  1.00  0.00    -0.377 OA
BRANCH   2   3
ATOM      3  C   UNL     1       3.946  -0.907  -3.198  1.00  0.00     0.188 C 
BRANCH   3   4
ATOM      4  C   UNL     1       5.096  -1.210  -4.189  1.00  0.00     0.188 C 
BRANCH   4   5
ATOM      5  O   UNL     1       5.839  -2.403  -4.054  1.00  0.00    -0.376 OA
BRANCH   5   6
ATOM      6  C   UNL     1       6.792  -2.656  -3.042  1.00  0.00     0.202 C 
BRANCH   6   7
ATOM      7  C   UNL     1       7.305  -1.615  -2.046  1.00  0.00     0.261 C 
BRANCH   7   8
ATOM      8  O   UNL     1       6.443  -0.507  -1.793  1.00  0.00    -0.459 OA
BRANCH   8   9
ATOM      9  C   UNL     1       6.833   0.680  -2.315  1.00  0.00     0.356 C 
ATOM     10  O   UNL     1       7.843   0.833  -3.003  1.00  0.00    -0.244 OA
BRANCH   9  11
ATOM     11  C   UNL     1       5.825   1.700  -2.171  1.00  0.00     0.147 A 
ATOM     12  C   UNL     1       4.833   2.077  -1.256  1.00  0.00     0.013 A 
ATOM     13  C   UNL     1       4.279   3.251  -1.858  1.00  0.00     0.140 A 
ATOM     14  N   UNL     1       4.811   3.550  -3.038  1.00  0.00    -0.183 NA
ATOM     15  N   UNL     1       5.740   2.610  -3.197  1.00  0.00    -0.271 N 
ATOM     16  H   UNL     1       6.323   2.571  -3.990  1.00  0.00     0.190 HD
BRANCH  12  17
ATOM     17  C   UNL     1       4.374   1.605   0.123  1.00  0.00     0.069 C 
ATOM     18  O   UNL     1       1.083  -0.191  -0.018  1.00  0.00    -0.275 OA
ATOM     19  C   UNL     1       2.272   0.019   0.225  1.00  0.00     0.226 C 
ATOM     20  C   UNL     1       2.834   1.438   0.224  1.00  0.00     0.114 C 
ATOM     21  N   UNL     1       3.080  -1.014   0.624  1.00  0.00    -0.311 N 
ATOM     22  C   UNL     1       4.403  -0.780   0.864  1.00  0.00     0.132 A 
ATOM     23  H   UNL     1       2.709  -1.919   0.737  1.00  0.00     0.171 HD
ATOM     24  C   UNL     1       5.054   0.410   0.682  1.00  0.00     0.031 A 
ATOM     25  N   UNL     1       5.332  -1.684   1.275  1.00  0.00    -0.262 N 
ATOM     26  C   UNL     1       6.394   0.143   1.060  1.00  0.00     0.108 A 
ATOM     27  N   UNL     1       6.576  -1.160   1.340  1.00  0.00    -0.173 NA
ATOM     28  H   UNL     1       5.121  -2.618   1.500  1.00  0.00     0.192 HD
BRANCH  26  29
ATOM     29  C   UNL     1       7.524   1.121   0.960  1.00  0.00     0.055 A 
ATOM     30  C   UNL     1       8.721   0.844   0.334  1.00  0.00     0.022 A 
ATOM     31  S   UNL     1       7.439   2.742   1.485  1.00  0.00    -0.142 S 
ATOM     32  C   UNL     1       9.502   2.023   0.143  1.00  0.00     0.012 A 
ATOM     33  C   UNL     1       8.947   3.115   0.772  1.00  0.00     0.065 A 
ENDBRANCH  26  29
ENDBRANCH  12  17
ENDBRANCH   9  11
ENDBRANCH   8   9
ENDBRANCH   7   8
ENDBRANCH   6   7
ENDBRANCH   5   6
ENDBRANCH   4   5
ENDBRANCH   3   4
ENDBRANCH   2   3
ENDBRANCH   1   2
BRANCH   1  34
ATOM     34  C   UNL     1       3.613  -4.273  -3.394  1.00  0.00     0.188 C 
BRANCH  34  35
ATOM     35  O   UNL     1       3.320  -4.108  -4.779  1.00  0.00    -0.376 OA
BRANCH  35  36
ATOM     36  C   UNL     1       2.452  -3.124  -5.327  1.00  0.00     0.202 C 
BRANCH  36  37
ATOM     37  C   UNL     1       1.002  -2.921  -4.891  1.00  0.00     0.261 C 
BRANCH  37  38
ATOM     38  O   UNL     1       0.787  -3.135  -3.519  1.00  0.00    -0.460 OA
BRANCH  38  39
ATOM     39  C   UNL     1       0.694  -4.436  -3.202  1.00  0.00     0.338 C 
ATOM     40  O   UNL     1       0.746  -5.388  -3.963  1.00  0.00    -0.246 OA
BRANCH  39  41
ATOM     41  C   UNL     1       0.449  -4.538  -1.752  1.00  0.00     0.060 A 
ATOM     42  C   UNL     1       0.099  -5.830  -1.375  1.00  0.00     0.016 A 
ATOM     43  C   UNL     1      -0.060  -3.394  -1.119  1.00  0.00     0.016 A 
ATOM     44  C   UNL     1      -1.122  -5.961  -0.778  1.00  0.00     0.010 A 
ATOM     45  C   UNL     1      -1.281  -3.524  -0.523  1.00  0.00     0.010 A 
ATOM     46  C   UNL     1      -1.844  -4.795  -0.500  1.00  0.00    -0.014 A 
BRANCH  46  47
ATOM     47  C   UNL     1      -3.225  -4.951  -0.130  1.00  0.00     0.031 A 
ATOM     48  C   UNL     1      -3.339  -5.416   1.262  1.00  0.00     0.074 A 
ATOM     49  C   UNL     1      -4.228  -4.632  -0.966  1.00  0.00     0.049 A 
ATOM     50  N   UNL     1      -3.645  -6.599   1.676  1.00  0.00    -0.248 NA
ATOM     51  C   UNL     1      -2.764  -4.541   2.299  1.00  0.00     0.031 C 
ATOM     52  C   UNL     1      -4.173  -3.919  -2.246  1.00  0.00     0.029 A 
ATOM     53  N   UNL     1      -5.559  -4.800  -0.768  1.00  0.00    -0.354 N 
ATOM     54  C   UNL     1      -3.544  -6.527   3.059  1.00  0.00     0.074 A 
ATOM     55  C   UNL     1      -2.754  -5.362   3.347  1.00  0.00     0.031 C 
ATOM     56  C   UNL     1      -5.419  -3.504  -2.576  1.00  0.00     0.029 A 
ATOM     57  C   UNL     1      -6.362  -4.036  -1.609  1.00  0.00     0.049 A 
ATOM     58  H   UNL     1      -5.925  -5.410  -0.088  1.00  0.00     0.167 HD
ATOM     59  C   UNL     1      -4.367  -7.252   3.860  1.00  0.00     0.037 A 
ATOM     60  C   UNL     1      -7.681  -3.793  -1.392  1.00  0.00     0.037 A 
ATOM     61  C   UNL     1      -4.984  -8.329   3.127  1.00  0.00     0.049 A 
ATOM     62  C   UNL     1      -8.156  -4.845  -0.441  1.00  0.00     0.074 A 
ATOM     63  C   UNL     1      -4.501  -9.438   2.461  1.00  0.00     0.029 A 
ATOM     64  N   UNL     1      -6.261  -8.128   2.656  1.00  0.00    -0.354 N 
ATOM     65  N   UNL     1      -8.201  -6.119  -0.738  1.00  0.00    -0.248 NA
ATOM     66  C   UNL     1      -8.071  -4.546   0.984  1.00  0.00     0.031 C 
ATOM     67  C   UNL     1      -5.321  -9.561   1.303  1.00  0.00     0.029 A 
ATOM     68  C   UNL     1      -6.302  -8.569   1.357  1.00  0.00     0.049 A 
ATOM     69  H   UNL     1      -7.012  -7.738   3.160  1.00  0.00     0.167 HD
ATOM     70  C   UNL     1      -7.752  -6.777   0.403  1.00  0.00     0.074 A 
ATOM     71  C   UNL     1      -7.733  -5.754   1.447  1.00  0.00     0.031 C 
ATOM     72  C   UNL     1      -7.162  -8.007   0.335  1.00  0.00     0.037 A 
BRANCH  59  73
ATOM     73  C   UNL     1      -4.899  -6.745   5.177  1.00  0.00     0.058 A 
ATOM     74  C   UNL     1      -5.626  -7.626   5.999  1.00  0.00     0.135 A 
ATOM     75  C   UNL     1      -4.959  -5.380   5.544  1.00  0.00     0.135 A 
ATOM     76  F   UNL     1      -5.640  -8.944   5.745  1.00  0.00    -0.206 F 
ATOM     77  C   UNL     1      -6.416  -7.174   7.056  1.00  0.00     0.059 A 
ATOM     78  C   UNL     1      -5.691  -4.917   6.627  1.00  0.00     0.059 A 
ATOM     79  F   UNL     1      -4.397  -4.405   4.821  1.00  0.00    -0.206 F 
ATOM     80  C   UNL     1      -6.454  -5.814   7.349  1.00  0.00     0.060 A 
BRANCH  80  81
ATOM     81  S   UNL     1      -7.559  -5.210   8.631  1.00  0.00     0.124 S 
ATOM     82  O   UNL     1      -8.863  -5.455   8.028  1.00  0.00    -0.237 OA
ATOM     83  O   UNL     1      -7.203  -6.064   9.760  1.00  0.00    -0.237 OA
ATOM     84  O   UNL     1      -7.179  -3.808   8.770  1.00  0.00    -0.744 OA
ENDBRANCH  80  81
ENDBRANCH  59  73
BRANCH  60  85
ATOM     85  C   UNL     1      -8.391  -2.500  -1.593  1.00  0.00     0.058 A 
ATOM     86  C   UNL     1      -9.794  -2.421  -1.623  1.00  0.00     0.135 A 
ATOM     87  C   UNL     1      -7.706  -1.269  -1.502  1.00  0.00     0.135 A 
ATOM     88  F   UNL     1     -10.529  -3.542  -1.672  1.00  0.00    -0.206 F 
ATOM     89  C   UNL     1     -10.477  -1.198  -1.549  1.00  0.00     0.059 A 
ATOM     90  C   UNL     1      -8.362  -0.041  -1.435  1.00  0.00     0.059 A 
ATOM     91  F   UNL     1      -6.370  -1.229  -1.389  1.00  0.00    -0.206 F 
ATOM     92  C   UNL     1      -9.750  -0.012  -1.441  1.00  0.00     0.060 A 
BRANCH  92  93
ATOM     93  S   UNL     1     -10.621   1.558  -1.207  1.00  0.00     0.124 S 
ATOM     94  O   UNL     1     -11.281   1.732  -2.496  1.00  0.00    -0.237 OA
ATOM     95  O   UNL     1     -11.495   1.261  -0.078  1.00  0.00    -0.237 OA
ATOM     96  O   UNL     1      -9.545   2.506  -0.926  1.00  0.00    -0.744 OA
ENDBRANCH  92  93
ENDBRANCH  60  85
BRANCH  72  97
ATOM     97  C   UNL     1      -7.216  -8.763  -0.970  1.00  0.00     0.058 A 
ATOM     98  C   UNL     1      -6.548  -8.368  -2.144  1.00  0.00     0.135 A 
ATOM     99  C   UNL     1      -7.795 -10.040  -0.963  1.00  0.00     0.135 A 
ATOM    100  F   UNL     1      -5.887  -7.203  -2.198  1.00  0.00    -0.206 F 
ATOM    101  C   UNL     1      -6.476  -9.200  -3.265  1.00  0.00     0.059 A 
ATOM    102  C   UNL     1      -7.711 -10.897  -2.056  1.00  0.00     0.059 A 
ATOM    103  F   UNL     1      -8.392 -10.499   0.150  1.00  0.00    -0.206 F 
ATOM    104  C   UNL     1      -7.056 -10.469  -3.208  1.00  0.00     0.060 A 
BRANCH 104 105
ATOM    105  S   UNL     1      -6.880 -11.589  -4.615  1.00  0.00     0.124 S 
ATOM    106  O   UNL     1      -7.753 -10.973  -5.609  1.00  0.00    -0.237 OA
ATOM    107  O   UNL     1      -5.449 -11.524  -4.898  1.00  0.00    -0.237 OA
ATOM    108  O   UNL     1      -7.343 -12.872  -4.090  1.00  0.00    -0.744 OA
ENDBRANCH 104 105
ENDBRANCH  72  97
ENDBRANCH  46  47
ENDBRANCH  39  41
ENDBRANCH  38  39
ENDBRANCH  37  38
ENDBRANCH  36  37
ENDBRANCH  35  36
ENDBRANCH  34  35
ENDBRANCH   1  34
TORSDOF 25
