REMARK SMILES O=C(CCCCCN1C(=O)/C(=C2\C(=O)Nc3ccccc32)SC1=S)OCCOCCOCCOCCOC(=O)c1ccc(-c2c3nc(c(-c4c(F)cc(S(=O)(=O)[O-])cc4F)c4ccc([nH]4)c(-c4c(F)cc(S(=O)(=O)[O-])cc4F)c4nc(c(-c5c(F)cc(S(=O)(=O)[O-])cc5F)c5ccc2[nH]5)C=C4)C=C3)cc1
REMARK SMILES IDX 30 1 29 2 28 3 27 4 26 5 25 6 2 7 1 8 3 9 4 10 5 11 6 12
REMARK SMILES IDX 7 13 8 14 9 15 23 16 10 17 11 18 22 19 24 20 12 21 13 22
REMARK SMILES IDX 21 23 14 24 15 25 16 26 20 27 17 29 19 30 18 31 31 32 32 33
REMARK SMILES IDX 33 34 34 35 35 36 36 37 37 38 38 39 39 40 40 41 41 42 105 43
REMARK SMILES IDX 42 44 104 45 43 46 44 47 45 48 98 49 46 50 103 51 97 52
REMARK SMILES IDX 99 53 47 54 102 55 96 56 95 57 48 59 82 60 61 61 81 62 62 63
REMARK SMILES IDX 65 64 80 65 100 66 63 67 64 68 79 70 101 71 66 72 49 73
REMARK SMILES IDX 50 74 59 75 51 76 52 77 58 78 60 79 53 80 54 81 55 82 56 83
REMARK SMILES IDX 57 84 83 85 84 86 93 87 85 88 86 89 92 90 94 91 87 92 88 93
REMARK SMILES IDX 89 94 90 95 91 96 67 97 68 98 77 99 69 100 70 101 76 102
REMARK SMILES IDX 78 103 71 104 72 105 73 106 74 107 75 108
REMARK H PARENT 15 28 99 58 65 69
REMARK Flexibility Score: inf
ROOT
ATOM      1  C   UNL     1       2.246   2.863   0.349  1.00  0.00     0.188 C 
ENDROOT
BRANCH   1   2
ATOM      2  C   UNL     1       2.435   1.390   0.690  1.00  0.00     0.188 C 
BRANCH   2   3
ATOM      3  O   UNL     1       3.532   0.744   0.049  1.00  0.00    -0.376 OA
BRANCH   3   4
ATOM      4  C   UNL     1       3.695   0.935  -1.341  1.00  0.00     0.202 C 
BRANCH   4   5
ATOM      5  C   UNL     1       3.613  -0.377  -2.093  1.00  0.00     0.261 C 
BRANCH   5   6
ATOM      6  O   UNL     1       2.522  -1.252  -1.733  1.00  0.00    -0.463 OA
BRANCH   6   7
ATOM      7  C   UNL     1       2.089  -1.699  -0.543  1.00  0.00     0.305 C 
ATOM      8  O   UNL     1       0.878  -1.905  -0.411  1.00  0.00    -0.252 OA
BRANCH   7   9
ATOM      9  C   UNL     1       2.994  -1.970   0.648  1.00  0.00     0.123 C 
BRANCH   9  10
ATOM     10  C   UNL     1       4.161  -2.934   0.540  1.00  0.00     0.012 C 
BRANCH  10  11
ATOM     11  C   UNL     1       5.463  -2.416  -0.053  1.00  0.00     0.002 C 
BRANCH  11  12
ATOM     12  C   UNL     1       6.069  -1.128   0.547  1.00  0.00     0.022 C 
BRANCH  12  13
ATOM     13  C   UNL     1       7.182  -1.312   1.597  1.00  0.00     0.127 C 
BRANCH  13  14
ATOM     14  N   UNL     1       8.109  -2.359   1.197  1.00  0.00    -0.293 N 
ATOM     15  C   UNL     1       8.819  -2.187   0.013  1.00  0.00     0.267 C 
ATOM     16  C   UNL     1       8.223  -3.589   1.800  1.00  0.00     0.148 C 
ATOM     17  O   UNL     1       9.207  -1.123  -0.431  1.00  0.00    -0.268 OA
ATOM     18  C   UNL     1       9.006  -3.538  -0.585  1.00  0.00     0.093 C 
ATOM     19  S   UNL     1       9.142  -4.647   0.742  1.00  0.00    -0.053 SA
ATOM     20  S   UNL     1       7.569  -4.118   3.239  1.00  0.00    -0.052 S 
ATOM     21  C   UNL     1       8.773  -3.849  -1.869  1.00  0.00     0.069 C 
ATOM     22  C   UNL     1       8.646  -2.853  -3.005  1.00  0.00     0.257 C 
ATOM     23  C   UNL     1       8.531  -5.180  -2.467  1.00  0.00     0.012 A 
ATOM     24  O   UNL     1       8.630  -1.647  -2.964  1.00  0.00    -0.269 OA
ATOM     25  N   UNL     1       8.515  -3.626  -4.149  1.00  0.00    -0.321 N 
ATOM     26  C   UNL     1       8.423  -4.977  -3.846  1.00  0.00     0.049 A 
ATOM     27  C   UNL     1       8.258  -6.435  -1.947  1.00  0.00     0.011 A 
ATOM     28  H   UNL     1       8.489  -3.261  -5.063  1.00  0.00     0.170 HD
ATOM     29  C   UNL     1       8.156  -5.997  -4.739  1.00  0.00     0.027 A 
ATOM     30  C   UNL     1       7.960  -7.482  -2.826  1.00  0.00     0.001 A 
ATOM     31  C   UNL     1       7.930  -7.269  -4.212  1.00  0.00     0.002 A 
ENDBRANCH  13  14
ENDBRANCH  12  13
ENDBRANCH  11  12
ENDBRANCH  10  11
ENDBRANCH   9  10
ENDBRANCH   7   9
ENDBRANCH   6   7
ENDBRANCH   5   6
ENDBRANCH   4   5
ENDBRANCH   3   4
ENDBRANCH   2   3
ENDBRANCH   1   2
BRANCH   1  32
ATOM     32  O   UNL     1       3.281   3.757   0.732  1.00  0.00    -0.377 OA
BRANCH  32  33
ATOM     33  C   UNL     1       4.634   3.339   0.754  1.00  0.00     0.188 C 
BRANCH  33  34
ATOM     34  C   UNL     1       5.358   3.721   2.051  1.00  0.00     0.188 C 
BRANCH  34  35
ATOM     35  O   UNL     1       4.660   3.502   3.272  1.00  0.00    -0.376 OA
BRANCH  35  36
ATOM     36  C   UNL     1       3.401   4.154   3.447  1.00  0.00     0.202 C 
BRANCH  36  37
ATOM     37  C   UNL     1       3.291   5.677   3.200  1.00  0.00     0.261 C 
BRANCH  37  38
ATOM     38  O   UNL     1       3.466   6.098   1.830  1.00  0.00    -0.460 OA
BRANCH  38  39
ATOM     39  C   UNL     1       4.589   6.795   1.525  1.00  0.00     0.338 C 
ATOM     40  O   UNL     1       5.436   7.190   2.309  1.00  0.00    -0.246 OA
BRANCH  39  41
ATOM     41  C   UNL     1       4.765   6.838   0.050  1.00  0.00     0.060 A 
ATOM     42  C   UNL     1       3.784   7.387  -0.775  1.00  0.00     0.016 A 
ATOM     43  C   UNL     1       5.952   6.345  -0.513  1.00  0.00     0.016 A 
ATOM     44  C   UNL     1       3.999   7.453  -2.159  1.00  0.00     0.010 A 
ATOM     45  C   UNL     1       6.153   6.382  -1.900  1.00  0.00     0.010 A 
ATOM     46  C   UNL     1       5.186   6.959  -2.735  1.00  0.00    -0.014 A 
BRANCH  46  47
ATOM     47  C   UNL     1       5.491   7.244  -4.165  1.00  0.00     0.031 A 
ATOM     48  C   UNL     1       5.275   6.239  -5.259  1.00  0.00     0.074 A 
ATOM     49  C   UNL     1       5.957   8.470  -4.471  1.00  0.00     0.049 A 
ATOM     50  N   UNL     1       5.385   6.400  -6.555  1.00  0.00    -0.248 NA
ATOM     51  C   UNL     1       4.891   4.882  -4.852  1.00  0.00     0.031 C 
ATOM     52  C   UNL     1       6.222   9.527  -3.493  1.00  0.00     0.029 A 
ATOM     53  N   UNL     1       6.268   9.043  -5.678  1.00  0.00    -0.354 N 
ATOM     54  C   UNL     1       5.046   5.180  -7.128  1.00  0.00     0.074 A 
ATOM     55  C   UNL     1       4.785   4.270  -6.027  1.00  0.00     0.031 C 
ATOM     56  C   UNL     1       6.612  10.633  -4.142  1.00  0.00     0.029 A 
ATOM     57  C   UNL     1       6.654  10.358  -5.575  1.00  0.00     0.049 A 
ATOM     58  H   UNL     1       6.220   8.559  -6.534  1.00  0.00     0.167 HD
ATOM     59  C   UNL     1       4.942   4.859  -8.443  1.00  0.00     0.037 A 
ATOM     60  C   UNL     1       6.989  11.253  -6.525  1.00  0.00     0.037 A 
ATOM     61  C   UNL     1       5.250   5.759  -9.532  1.00  0.00     0.049 A 
ATOM     62  C   UNL     1       6.940  10.849  -7.971  1.00  0.00     0.074 A 
ATOM     63  C   UNL     1       5.171   5.522 -10.896  1.00  0.00     0.029 A 
ATOM     64  N   UNL     1       5.711   7.062  -9.389  1.00  0.00    -0.354 N 
ATOM     65  N   UNL     1       6.565   9.708  -8.498  1.00  0.00    -0.248 NA
ATOM     66  C   UNL     1       7.355  11.860  -8.953  1.00  0.00     0.031 C 
ATOM     67  C   UNL     1       5.635   6.657 -11.572  1.00  0.00     0.029 A 
ATOM     68  C   UNL     1       5.946   7.628 -10.635  1.00  0.00     0.049 A 
ATOM     69  H   UNL     1       5.851   7.518  -8.528  1.00  0.00     0.167 HD
ATOM     70  C   UNL     1       6.677   9.870  -9.874  1.00  0.00     0.074 A 
ATOM     71  C   UNL     1       7.136  11.226 -10.098  1.00  0.00     0.031 C 
ATOM     72  C   UNL     1       6.421   8.973 -10.860  1.00  0.00     0.037 A 
BRANCH  59  73
ATOM     73  C   UNL     1       4.466   3.468  -8.789  1.00  0.00     0.058 A 
ATOM     74  C   UNL     1       3.144   3.066  -8.538  1.00  0.00     0.135 A 
ATOM     75  C   UNL     1       5.313   2.547  -9.429  1.00  0.00     0.135 A 
ATOM     76  F   UNL     1       2.286   3.901  -7.931  1.00  0.00    -0.206 F 
ATOM     77  C   UNL     1       2.691   1.792  -8.870  1.00  0.00     0.059 A 
ATOM     78  C   UNL     1       4.874   1.277  -9.797  1.00  0.00     0.059 A 
ATOM     79  F   UNL     1       6.584   2.877  -9.708  1.00  0.00    -0.206 F 
ATOM     80  C   UNL     1       3.566   0.902  -9.495  1.00  0.00     0.060 A 
BRANCH  80  81
ATOM     81  S   UNL     1       2.971  -0.758  -9.883  1.00  0.00     0.124 S 
ATOM     82  O   UNL     1       2.810  -1.327  -8.548  1.00  0.00    -0.237 OA
ATOM     83  O   UNL     1       1.736  -0.485 -10.610  1.00  0.00    -0.237 OA
ATOM     84  O   UNL     1       4.051  -1.333 -10.678  1.00  0.00    -0.744 OA
ENDBRANCH  80  81
ENDBRANCH  59  73
BRANCH  60  85
ATOM     85  C   UNL     1       7.343  12.640  -6.125  1.00  0.00     0.058 A 
ATOM     86  C   UNL     1       6.479  13.709  -6.403  1.00  0.00     0.135 A 
ATOM     87  C   UNL     1       8.520  12.917  -5.412  1.00  0.00     0.135 A 
ATOM     88  F   UNL     1       5.346  13.494  -7.090  1.00  0.00    -0.206 F 
ATOM     89  C   UNL     1       6.766  15.003  -5.987  1.00  0.00     0.059 A 
ATOM     90  C   UNL     1       8.815  14.198  -4.960  1.00  0.00     0.059 A 
ATOM     91  F   UNL     1       9.373  11.925  -5.110  1.00  0.00    -0.206 F 
ATOM     92  C   UNL     1       7.932  15.236  -5.254  1.00  0.00     0.060 A 
BRANCH  92  93
ATOM     93  S   UNL     1       8.251  16.908  -4.655  1.00  0.00     0.124 S 
ATOM     94  O   UNL     1       8.491  17.628  -5.900  1.00  0.00    -0.237 OA
ATOM     95  O   UNL     1       7.004  17.224  -3.965  1.00  0.00    -0.237 OA
ATOM     96  O   UNL     1       9.414  16.741  -3.789  1.00  0.00    -0.744 OA
ENDBRANCH  92  93
ENDBRANCH  60  85
BRANCH  72  97
ATOM     97  C   UNL     1       6.626   9.431 -12.283  1.00  0.00     0.058 A 
ATOM     98  C   UNL     1       7.907   9.684 -12.801  1.00  0.00     0.135 A 
ATOM     99  C   UNL     1       5.532   9.593 -13.150  1.00  0.00     0.135 A 
ATOM    100  F   UNL     1       8.990   9.554 -12.018  1.00  0.00    -0.206 F 
ATOM    101  C   UNL     1       8.094  10.112 -14.112  1.00  0.00     0.059 A 
ATOM    102  C   UNL     1       5.698   9.987 -14.476  1.00  0.00     0.059 A 
ATOM    103  F   UNL     1       4.284   9.357 -12.716  1.00  0.00    -0.206 F 
ATOM    104  C   UNL     1       6.982  10.259 -14.944  1.00  0.00     0.060 A 
BRANCH 104 105
ATOM    105  S   UNL     1       7.244  10.800 -16.646  1.00  0.00     0.124 S 
ATOM    106  O   UNL     1       7.666  12.184 -16.456  1.00  0.00    -0.237 OA
ATOM    107  O   UNL     1       8.280   9.880 -17.108  1.00  0.00    -0.237 OA
ATOM    108  O   UNL     1       5.935  10.624 -17.267  1.00  0.00    -0.744 OA
ENDBRANCH 104 105
ENDBRANCH  72  97
ENDBRANCH  46  47
ENDBRANCH  39  41
ENDBRANCH  38  39
ENDBRANCH  37  38
ENDBRANCH  36  37
ENDBRANCH  35  36
ENDBRANCH  34  35
ENDBRANCH  33  34
ENDBRANCH  32  33
ENDBRANCH   1  32
TORSDOF 28
