REMARK SMILES CC[C@@](C)(NC(=O)N(C)[C@@H](C)C(C)C)C(=O)OCCOCCOCCOCCOC(=O)c1ccc(-c2c3nc(c(-c4c(F)cc(S(=O)(=O)[O-])cc4F)c4ccc([nH]4)c(-c4c(F)cc(S(=O)(=O)[O-])cc4F)c4nc(c(-c5c(F)cc(S(=O)(=O)[O-])cc5F)c5ccc2[nH]5)C=C4)C=C3)cc1
REMARK SMILES IDX 22 1 21 2 20 3 19 4 18 5 17 6 15 7 16 8 3 9 4 10 2 11 1 12
REMARK SMILES IDX 5 13 6 14 7 16 8 17 9 18 10 19 11 20 12 21 13 22 14 23 23 24
REMARK SMILES IDX 24 25 25 26 26 27 27 28 28 29 29 30 30 31 31 32 32 33 33 34
REMARK SMILES IDX 97 35 34 36 96 37 35 38 36 39 37 40 90 41 38 42 95 43 89 44
REMARK SMILES IDX 91 45 39 46 94 47 88 48 87 49 40 51 74 52 53 53 73 54 54 55
REMARK SMILES IDX 57 56 72 57 92 58 55 59 56 60 71 62 93 63 58 64 41 65 42 66
REMARK SMILES IDX 51 67 43 68 44 69 50 70 52 71 45 72 46 73 47 74 48 75 49 76
REMARK SMILES IDX 75 77 76 78 85 79 77 80 78 81 84 82 86 83 79 84 80 85 81 86
REMARK SMILES IDX 82 87 83 88 59 89 60 90 69 91 61 92 62 93 68 94 70 95 63 96
REMARK SMILES IDX 64 97 65 98 66 99 67 100
REMARK H PARENT 5 15 91 50 57 61
REMARK Flexibility Score: inf
ROOT
ATOM      1  C   UNL     1       3.607  -1.074   2.046  1.00  0.00     0.188 C 
ENDROOT
BRANCH   1   2
ATOM      2  C   UNL     1       4.315  -1.019   0.689  1.00  0.00     0.188 C 
BRANCH   2   3
ATOM      3  O   UNL     1       4.774   0.239   0.200  1.00  0.00    -0.376 OA
BRANCH   3   4
ATOM      4  C   UNL     1       5.418   1.150   1.084  1.00  0.00     0.202 C 
BRANCH   4   5
ATOM      5  C   UNL     1       4.672   2.482   0.988  1.00  0.00     0.261 C 
BRANCH   5   6
ATOM      6  O   UNL     1       3.440   2.359   1.719  1.00  0.00    -0.462 OA
BRANCH   6   7
ATOM      7  C   UNL     1       2.330   1.970   1.066  1.00  0.00     0.331 C 
ATOM      8  O   UNL     1       2.249   1.910  -0.155  1.00  0.00    -0.249 OA
BRANCH   7   9
ATOM      9  C   UNL     1       1.147   1.679   2.049  1.00  0.00     0.136 C 
ATOM     10  C   UNL     1       0.173   2.851   1.745  1.00  0.00     0.047 C 
BRANCH   9  11
ATOM     11  C   UNL     1       0.399   0.346   1.689  1.00  0.00     0.037 C 
ATOM     12  C   UNL     1       0.239   0.013   0.199  1.00  0.00     0.007 C 
ENDBRANCH   9  11
BRANCH   9  13
ATOM     13  N   UNL     1       1.401   1.766   3.562  1.00  0.00    -0.322 N 
ATOM     14  C   UNL     1       2.121   1.011   4.464  1.00  0.00     0.318 C 
ATOM     15  H   UNL     1       0.949   2.533   3.982  1.00  0.00     0.166 HD
ATOM     16  O   UNL     1       1.444   0.240   5.147  1.00  0.00    -0.249 OA
BRANCH  14  17
ATOM     17  N   UNL     1       3.433   1.399   4.793  1.00  0.00    -0.325 N 
ATOM     18  C   UNL     1       3.947   2.664   4.290  1.00  0.00     0.149 C 
BRANCH  17  19
ATOM     19  C   UNL     1       4.136   1.001   6.117  1.00  0.00     0.086 C 
ATOM     20  C   UNL     1       3.311   1.781   7.167  1.00  0.00     0.031 C 
BRANCH  19  21
ATOM     21  C   UNL     1       5.021  -0.442   6.202  1.00  0.00     0.005 C 
ATOM     22  C   UNL     1       6.513  -0.153   5.881  1.00  0.00     0.009 C 
ATOM     23  C   UNL     1       5.230  -1.671   7.226  1.00  0.00     0.009 C 
ENDBRANCH  19  21
ENDBRANCH  17  19
ENDBRANCH  14  17
ENDBRANCH   9  13
ENDBRANCH   7   9
ENDBRANCH   6   7
ENDBRANCH   5   6
ENDBRANCH   4   5
ENDBRANCH   3   4
ENDBRANCH   2   3
ENDBRANCH   1   2
BRANCH   1  24
ATOM     24  O   UNL     1       4.482  -1.083   3.158  1.00  0.00    -0.377 OA
BRANCH  24  25
ATOM     25  C   UNL     1       5.081  -2.330   3.480  1.00  0.00     0.188 C 
BRANCH  25  26
ATOM     26  C   UNL     1       4.175  -3.370   4.208  1.00  0.00     0.188 C 
BRANCH  26  27
ATOM     27  O   UNL     1       3.744  -3.130   5.572  1.00  0.00    -0.376 OA
BRANCH  27  28
ATOM     28  C   UNL     1       2.492  -2.430   5.762  1.00  0.00     0.202 C 
BRANCH  28  29
ATOM     29  C   UNL     1       2.099  -1.970   7.275  1.00  0.00     0.261 C 
BRANCH  29  30
ATOM     30  O   UNL     1       2.862  -0.843   7.907  1.00  0.00    -0.460 OA
BRANCH  30  31
ATOM     31  C   UNL     1       3.024  -0.698   9.276  1.00  0.00     0.338 C 
ATOM     32  O   UNL     1       2.457  -1.406  10.096  1.00  0.00    -0.246 OA
BRANCH  31  33
ATOM     33  C   UNL     1       3.951   0.470   9.738  1.00  0.00     0.060 A 
ATOM     34  C   UNL     1       5.237   0.726   9.227  1.00  0.00     0.016 A 
ATOM     35  C   UNL     1       3.546   1.378  10.722  1.00  0.00     0.016 A 
ATOM     36  C   UNL     1       6.073   1.798   9.584  1.00  0.00     0.010 A 
ATOM     37  C   UNL     1       4.387   2.465  11.122  1.00  0.00     0.010 A 
ATOM     38  C   UNL     1       5.663   2.680  10.560  1.00  0.00    -0.014 A 
BRANCH  38  39
ATOM     39  C   UNL     1       6.676   3.590  11.171  1.00  0.00     0.031 A 
ATOM     40  C   UNL     1       7.306   3.108  12.452  1.00  0.00     0.074 A 
ATOM     41  C   UNL     1       7.103   4.742  10.612  1.00  0.00     0.049 A 
ATOM     42  N   UNL     1       7.986   3.763  13.352  1.00  0.00    -0.248 NA
ATOM     43  C   UNL     1       7.119   1.679  12.758  1.00  0.00     0.031 C 
ATOM     44  C   UNL     1       6.736   5.241   9.286  1.00  0.00     0.029 A 
ATOM     45  N   UNL     1       7.938   5.722  11.107  1.00  0.00    -0.354 N 
ATOM     46  C   UNL     1       8.223   2.848  14.375  1.00  0.00     0.074 A 
ATOM     47  C   UNL     1       7.645   1.589  13.968  1.00  0.00     0.031 C 
ATOM     48  C   UNL     1       7.299   6.450   9.096  1.00  0.00     0.029 A 
ATOM     49  C   UNL     1       8.021   6.841  10.305  1.00  0.00     0.049 A 
ATOM     50  H   UNL     1       8.429   5.631  11.956  1.00  0.00     0.167 HD
ATOM     51  C   UNL     1       8.841   3.058  15.561  1.00  0.00     0.037 A 
ATOM     52  C   UNL     1       8.570   8.053  10.547  1.00  0.00     0.037 A 
ATOM     53  C   UNL     1       9.437   4.316  15.920  1.00  0.00     0.049 A 
ATOM     54  C   UNL     1       9.220   8.290  11.893  1.00  0.00     0.074 A 
ATOM     55  C   UNL     1      10.064   4.674  17.099  1.00  0.00     0.029 A 
ATOM     56  N   UNL     1       9.492   5.424  15.083  1.00  0.00    -0.354 N 
ATOM     57  N   UNL     1       9.338   7.465  12.909  1.00  0.00    -0.248 NA
ATOM     58  C   UNL     1       9.802   9.619  12.134  1.00  0.00     0.031 C 
ATOM     59  C   UNL     1      10.466   6.010  16.987  1.00  0.00     0.029 A 
ATOM     60  C   UNL     1      10.142   6.466  15.717  1.00  0.00     0.049 A 
ATOM     61  H   UNL     1       9.121   5.461  14.171  1.00  0.00     0.167 HD
ATOM     62  C   UNL     1      10.039   8.159  13.892  1.00  0.00     0.074 A 
ATOM     63  C   UNL     1      10.320   9.472  13.346  1.00  0.00     0.031 C 
ATOM     64  C   UNL     1      10.421   7.753  15.130  1.00  0.00     0.037 A 
BRANCH  51  65
ATOM     65  C   UNL     1       8.817   1.935  16.564  1.00  0.00     0.058 A 
ATOM     66  C   UNL     1       9.539   0.744  16.384  1.00  0.00     0.135 A 
ATOM     67  C   UNL     1       8.024   2.045  17.720  1.00  0.00     0.135 A 
ATOM     68  F   UNL     1      10.288   0.567  15.284  1.00  0.00    -0.206 F 
ATOM     69  C   UNL     1       9.449  -0.308  17.293  1.00  0.00     0.059 A 
ATOM     70  C   UNL     1       7.946   1.020  18.658  1.00  0.00     0.059 A 
ATOM     71  F   UNL     1       7.303   3.155  17.941  1.00  0.00    -0.206 F 
ATOM     72  C   UNL     1       8.648  -0.160  18.427  1.00  0.00     0.060 A 
BRANCH  72  73
ATOM     73  S   UNL     1       8.541  -1.532  19.597  1.00  0.00     0.124 S 
ATOM     74  O   UNL     1       7.716  -2.483  18.858  1.00  0.00    -0.237 OA
ATOM     75  O   UNL     1       9.941  -1.907  19.767  1.00  0.00    -0.237 OA
ATOM     76  O   UNL     1       7.910  -0.932  20.768  1.00  0.00    -0.744 OA
ENDBRANCH  72  73
ENDBRANCH  51  65
BRANCH  52  77
ATOM     77  C   UNL     1       8.504   9.148   9.529  1.00  0.00     0.058 A 
ATOM     78  C   UNL     1       9.663   9.634   8.901  1.00  0.00     0.135 A 
ATOM     79  C   UNL     1       7.283   9.740   9.163  1.00  0.00     0.135 A 
ATOM     80  F   UNL     1      10.862   9.130   9.228  1.00  0.00    -0.206 F 
ATOM     81  C   UNL     1       9.616  10.655   7.951  1.00  0.00     0.059 A 
ATOM     82  C   UNL     1       7.206  10.744   8.197  1.00  0.00     0.059 A 
ATOM     83  F   UNL     1       6.139   9.329   9.733  1.00  0.00    -0.206 F 
ATOM     84  C   UNL     1       8.380  11.197   7.597  1.00  0.00     0.060 A 
BRANCH  84  85
ATOM     85  S   UNL     1       8.321  12.458   6.302  1.00  0.00     0.124 S 
ATOM     86  O   UNL     1       8.897  13.612   6.984  1.00  0.00    -0.237 OA
ATOM     87  O   UNL     1       9.144  11.859   5.255  1.00  0.00    -0.237 OA
ATOM     88  O   UNL     1       6.898  12.554   5.990  1.00  0.00    -0.744 OA
ENDBRANCH  84  85
ENDBRANCH  52  77
BRANCH  64  89
ATOM     89  C   UNL     1      11.249   8.711  15.940  1.00  0.00     0.058 A 
ATOM     90  C   UNL     1      10.700   9.857  16.534  1.00  0.00     0.135 A 
ATOM     91  C   UNL     1      12.612   8.447  16.155  1.00  0.00     0.135 A 
ATOM     92  F   UNL     1       9.402  10.153  16.360  1.00  0.00    -0.206 F 
ATOM     93  C   UNL     1      11.484  10.732  17.279  1.00  0.00     0.059 A 
ATOM     94  C   UNL     1      13.407   9.291  16.920  1.00  0.00     0.059 A 
ATOM     95  F   UNL     1      13.181   7.352  15.624  1.00  0.00    -0.206 F 
ATOM     96  C   UNL     1      12.838  10.442  17.462  1.00  0.00     0.060 A 
BRANCH  96  97
ATOM     97  S   UNL     1      13.845  11.586  18.428  1.00  0.00     0.124 S 
ATOM     98  O   UNL     1      14.028  12.683  17.486  1.00  0.00    -0.237 OA
ATOM     99  O   UNL     1      12.991  11.867  19.575  1.00  0.00    -0.237 OA
ATOM    100  O   UNL     1      15.049  10.807  18.727  1.00  0.00    -0.744 OA
ENDBRANCH  96  97
ENDBRANCH  64  89
ENDBRANCH  38  39
ENDBRANCH  31  33
ENDBRANCH  30  31
ENDBRANCH  29  30
ENDBRANCH  28  29
ENDBRANCH  27  28
ENDBRANCH  26  27
ENDBRANCH  25  26
ENDBRANCH  24  25
ENDBRANCH   1  24
TORSDOF 28
