REMARK SMILES CCc1ccc(N2C(=O)/C(=C/c3cc(Cl)c(OCC(=O)OCCOCCOCCOCCOC(=O)c4ccc(-c5c6nc(c(-c7c(F)cc(S(=O)(=O)[O-])cc7F)c7ccc([nH]7)c(-c7c(F)cc(S(=O)(=O)[O-])cc7F)c7nc(c(-c8c(F)cc(S(=O)(=O)[O-])cc8F)c8ccc5[nH]8)C=C7)C=C6)cc4)c(Cl)c3)C(=O)NC2=S)cc1
REMARK SMILES IDX 26 1 25 2 24 3 23 4 22 5 21 6 19 7 20 8 18 9 17 10 16 11
REMARK SMILES IDX 12 12 13 13 104 14 14 15 102 16 15 17 103 18 11 19 7 20 8 21
REMARK SMILES IDX 108 22 9 23 10 24 107 25 109 26 105 27 106 29 6 30 3 31 4 32
REMARK SMILES IDX 111 33 5 34 110 35 2 36 1 37 27 38 28 39 29 40 30 41 31 42
REMARK SMILES IDX 32 43 33 44 34 45 35 46 36 47 37 48 101 49 38 50 100 51
REMARK SMILES IDX 39 52 40 53 41 54 94 55 42 56 99 57 93 58 95 59 43 60 98 61
REMARK SMILES IDX 92 62 91 63 44 65 78 66 57 67 77 68 58 69 61 70 76 71 96 72
REMARK SMILES IDX 59 73 60 74 75 76 97 77 62 78 45 79 46 80 55 81 47 82 48 83
REMARK SMILES IDX 54 84 56 85 49 86 50 87 51 88 52 89 53 90 79 91 80 92 89 93
REMARK SMILES IDX 81 94 82 95 88 96 90 97 83 98 84 99 85 100 86 101 87 102
REMARK SMILES IDX 63 103 64 104 73 105 65 106 66 107 72 108 74 109 67 110
REMARK SMILES IDX 68 111 69 112 70 113 71 114
REMARK H PARENT 107 28 95 64 61 75
REMARK Flexibility Score: inf
ROOT
ATOM      1  C   UNL     1      -0.494   8.736  -9.470  1.00  0.00     0.188 C 
ENDROOT
BRANCH   1   2
ATOM      2  C   UNL     1       0.403   8.313 -10.662  1.00  0.00     0.188 C 
BRANCH   2   3
ATOM      3  O   UNL     1       1.353   9.210 -11.188  1.00  0.00    -0.376 OA
BRANCH   3   4
ATOM      4  C   UNL     1       0.996  10.541 -11.488  1.00  0.00     0.202 C 
BRANCH   4   5
ATOM      5  C   UNL     1      -0.420  10.960 -11.944  1.00  0.00     0.261 C 
BRANCH   5   6
ATOM      6  O   UNL     1      -1.525  10.078 -11.643  1.00  0.00    -0.461 OA
BRANCH   6   7
ATOM      7  C   UNL     1      -1.927   9.174 -12.577  1.00  0.00     0.344 C 
ATOM      8  O   UNL     1      -1.489   9.143 -13.720  1.00  0.00    -0.248 OA
BRANCH   7   9
ATOM      9  C   UNL     1      -3.033   8.196 -12.046  1.00  0.00     0.352 C 
BRANCH   9  10
ATOM     10  O   UNL     1      -3.099   7.553 -10.783  1.00  0.00    -0.479 OA
BRANCH  10  11
ATOM     11  C   UNL     1      -2.635   6.327 -10.368  1.00  0.00     0.157 A 
ATOM     12  C   UNL     1      -1.351   4.173  -8.874  1.00  0.00    -0.021 A 
ATOM     13  C   UNL     1      -2.403   4.931  -8.335  1.00  0.00     0.032 A 
ATOM     14  C   UNL     1      -1.067   4.408 -10.223  1.00  0.00     0.032 A 
ATOM     15  C   UNL     1      -3.013   5.986  -9.051  1.00  0.00     0.085 A 
ATOM     16  C   UNL     1      -1.718   5.453 -10.970  1.00  0.00     0.085 A 
ATOM     17  Cl  UNL     1      -4.194   6.920  -8.185  1.00  0.00    -0.080 Cl
ATOM     18  Cl  UNL     1      -1.282   5.579 -12.635  1.00  0.00    -0.080 Cl
BRANCH  12  19
ATOM     19  C   UNL     1      -0.688   3.219  -7.927  1.00  0.00     0.028 C 
ATOM     20  N   UNL     1       1.732   2.762  -5.420  1.00  0.00    -0.253 N 
ATOM     21  C   UNL     1       0.726   2.238  -6.250  1.00  0.00     0.270 C 
ATOM     22  C   UNL     1       2.866   3.406  -5.923  1.00  0.00     0.187 C 
ATOM     23  O   UNL     1      -0.038   1.319  -5.957  1.00  0.00    -0.268 OA
ATOM     24  C   UNL     1       0.592   2.922  -7.575  1.00  0.00     0.106 C 
ATOM     25  N   UNL     1       2.864   3.623  -7.288  1.00  0.00    -0.298 N 
ATOM     26  S   UNL     1       4.261   3.826  -5.082  1.00  0.00    -0.040 S 
ATOM     27  C   UNL     1       1.857   3.356  -8.195  1.00  0.00     0.263 C 
ATOM     28  H   UNL     1       3.684   4.018  -7.662  1.00  0.00     0.172 HD
ATOM     29  O   UNL     1       1.990   3.512  -9.401  1.00  0.00    -0.269 OA
BRANCH  20  30
ATOM     30  C   UNL     1       1.619   2.454  -4.030  1.00  0.00     0.052 A 
ATOM     31  C   UNL     1       0.984   1.710  -1.384  1.00  0.00    -0.048 A 
ATOM     32  C   UNL     1       1.514   0.778  -2.285  1.00  0.00     0.006 A 
ATOM     33  C   UNL     1       0.840   3.042  -1.811  1.00  0.00     0.006 A 
ATOM     34  C   UNL     1       1.822   1.144  -3.596  1.00  0.00     0.027 A 
ATOM     35  C   UNL     1       1.163   3.418  -3.122  1.00  0.00     0.027 A 
BRANCH  31  36
ATOM     36  C   UNL     1       0.492   1.328  -0.003  1.00  0.00     0.032 C 
ATOM     37  C   UNL     1       0.828  -0.082   0.471  1.00  0.00     0.009 C 
ENDBRANCH  31  36
ENDBRANCH  20  30
ENDBRANCH  12  19
ENDBRANCH  10  11
ENDBRANCH   9  10
ENDBRANCH   7   9
ENDBRANCH   6   7
ENDBRANCH   5   6
ENDBRANCH   4   5
ENDBRANCH   3   4
ENDBRANCH   2   3
ENDBRANCH   1   2
BRANCH   1  38
ATOM     38  O   UNL     1      -0.003   8.939  -8.167  1.00  0.00    -0.377 OA
BRANCH  38  39
ATOM     39  C   UNL     1       1.220   9.602  -8.046  1.00  0.00     0.188 C 
BRANCH  39  40
ATOM     40  C   UNL     1       2.400   8.642  -8.053  1.00  0.00     0.188 C 
BRANCH  40  41
ATOM     41  O   UNL     1       2.228   7.298  -8.435  1.00  0.00    -0.376 OA
BRANCH  41  42
ATOM     42  C   UNL     1       1.145   6.481  -8.055  1.00  0.00     0.202 C 
BRANCH  42  43
ATOM     43  C   UNL     1       0.264   6.513  -6.810  1.00  0.00     0.261 C 
BRANCH  43  44
ATOM     44  O   UNL     1       0.497   7.546  -5.901  1.00  0.00    -0.460 OA
BRANCH  44  45
ATOM     45  C   UNL     1       1.520   7.353  -5.059  1.00  0.00     0.338 C 
ATOM     46  O   UNL     1       2.294   6.423  -5.002  1.00  0.00    -0.246 OA
BRANCH  45  47
ATOM     47  C   UNL     1       1.527   8.604  -4.325  1.00  0.00     0.060 A 
ATOM     48  C   UNL     1       2.549   9.515  -4.596  1.00  0.00     0.016 A 
ATOM     49  C   UNL     1       0.371   8.943  -3.611  1.00  0.00     0.016 A 
ATOM     50  C   UNL     1       2.385  10.822  -4.194  1.00  0.00     0.010 A 
ATOM     51  C   UNL     1       0.227  10.240  -3.175  1.00  0.00     0.010 A 
ATOM     52  C   UNL     1       1.236  11.166  -3.473  1.00  0.00    -0.014 A 
BRANCH  52  53
ATOM     53  C   UNL     1       1.178  12.476  -2.837  1.00  0.00     0.031 A 
ATOM     54  C   UNL     1       1.677  12.549  -1.435  1.00  0.00     0.074 A 
ATOM     55  C   UNL     1       0.663  13.508  -3.518  1.00  0.00     0.049 A 
ATOM     56  N   UNL     1       1.645  13.549  -0.606  1.00  0.00    -0.248 NA
ATOM     57  C   UNL     1       2.283  11.319  -0.883  1.00  0.00     0.031 C 
ATOM     58  C   UNL     1       0.183  13.454  -4.902  1.00  0.00     0.029 A 
ATOM     59  N   UNL     1       0.433  14.794  -3.129  1.00  0.00    -0.354 N 
ATOM     60  C   UNL     1       2.214  13.071   0.565  1.00  0.00     0.074 A 
ATOM     61  C   UNL     1       2.565  11.688   0.355  1.00  0.00     0.031 C 
ATOM     62  C   UNL     1      -0.315  14.657  -5.236  1.00  0.00     0.029 A 
ATOM     63  C   UNL     1      -0.222  15.539  -4.077  1.00  0.00     0.049 A 
ATOM     64  H   UNL     1       0.710  15.152  -2.255  1.00  0.00     0.167 HD
ATOM     65  C   UNL     1       2.415  13.751   1.712  1.00  0.00     0.037 A 
ATOM     66  C   UNL     1      -0.722  16.783  -3.977  1.00  0.00     0.037 A 
ATOM     67  C   UNL     1       2.025  15.124   1.865  1.00  0.00     0.049 A 
ATOM     68  C   UNL     1      -0.528  17.501  -2.667  1.00  0.00     0.074 A 
ATOM     69  C   UNL     1       2.189  15.950   2.957  1.00  0.00     0.029 A 
ATOM     70  N   UNL     1       1.372  15.865   0.885  1.00  0.00    -0.354 N 
ATOM     71  N   UNL     1       0.063  17.070  -1.574  1.00  0.00    -0.248 NA
ATOM     72  C   UNL     1      -1.063  18.861  -2.568  1.00  0.00     0.031 C 
ATOM     73  C   UNL     1       1.581  17.173   2.659  1.00  0.00     0.029 A 
ATOM     74  C   UNL     1       1.092  17.130   1.360  1.00  0.00     0.049 A 
ATOM     75  H   UNL     1       1.143  15.535  -0.014  1.00  0.00     0.167 HD
ATOM     76  C   UNL     1      -0.019  18.111  -0.659  1.00  0.00     0.074 A 
ATOM     77  C   UNL     1      -0.694  19.201  -1.341  1.00  0.00     0.031 C 
ATOM     78  C   UNL     1       0.412  18.172   0.626  1.00  0.00     0.037 A 
BRANCH  65  79
ATOM     79  C   UNL     1       3.032  13.015   2.863  1.00  0.00     0.058 A 
ATOM     80  C   UNL     1       4.378  12.615   2.854  1.00  0.00     0.135 A 
ATOM     81  C   UNL     1       2.269  12.720   4.003  1.00  0.00     0.135 A 
ATOM     82  F   UNL     1       5.143  12.835   1.772  1.00  0.00    -0.206 F 
ATOM     83  C   UNL     1       4.945  11.947   3.934  1.00  0.00     0.059 A 
ATOM     84  C   UNL     1       2.821  12.076   5.105  1.00  0.00     0.059 A 
ATOM     85  F   UNL     1       0.970  13.053   4.051  1.00  0.00    -0.206 F 
ATOM     86  C   UNL     1       4.161  11.692   5.060  1.00  0.00     0.060 A 
BRANCH  86  87
ATOM     87  S   UNL     1       4.926  10.872   6.474  1.00  0.00     0.124 S 
ATOM     88  O   UNL     1       5.124   9.521   5.958  1.00  0.00    -0.237 OA
ATOM     89  O   UNL     1       6.139  11.660   6.667  1.00  0.00    -0.237 OA
ATOM     90  O   UNL     1       3.924  11.000   7.527  1.00  0.00    -0.744 OA
ENDBRANCH  86  87
ENDBRANCH  65  79
BRANCH  66  91
ATOM     91  C   UNL     1      -1.460  17.391  -5.114  1.00  0.00     0.058 A 
ATOM     92  C   UNL     1      -0.944  18.492  -5.811  1.00  0.00     0.135 A 
ATOM     93  C   UNL     1      -2.694  16.871  -5.540  1.00  0.00     0.135 A 
ATOM     94  F   UNL     1       0.232  19.024  -5.445  1.00  0.00    -0.206 F 
ATOM     95  C   UNL     1      -1.631  19.070  -6.874  1.00  0.00     0.059 A 
ATOM     96  C   UNL     1      -3.387  17.413  -6.618  1.00  0.00     0.059 A 
ATOM     97  F   UNL     1      -3.226  15.804  -4.923  1.00  0.00    -0.206 F 
ATOM     98  C   UNL     1      -2.853  18.523  -7.271  1.00  0.00     0.060 A 
BRANCH  98  99
ATOM     99  S   UNL     1      -3.719  19.264  -8.671  1.00  0.00     0.124 S 
ATOM    100  O   UNL     1      -4.170  20.528  -8.101  1.00  0.00    -0.237 OA
ATOM    101  O   UNL     1      -2.660  19.354  -9.671  1.00  0.00    -0.237 OA
ATOM    102  O   UNL     1      -4.769  18.294  -8.968  1.00  0.00    -0.744 OA
ENDBRANCH  98  99
ENDBRANCH  66  91
BRANCH  78 103
ATOM    103  C   UNL     1       0.169  19.457   1.359  1.00  0.00     0.058 A 
ATOM    104  C   UNL     1      -1.115  19.813   1.798  1.00  0.00     0.135 A 
ATOM    105  C   UNL     1       1.243  20.296   1.692  1.00  0.00     0.135 A 
ATOM    106  F   UNL     1      -2.172  19.043   1.495  1.00  0.00    -0.206 F 
ATOM    107  C   UNL     1      -1.328  20.971   2.532  1.00  0.00     0.059 A 
ATOM    108  C   UNL     1       1.057  21.441   2.455  1.00  0.00     0.059 A 
ATOM    109  F   UNL     1       2.491  19.986   1.304  1.00  0.00    -0.206 F 
ATOM    110  C   UNL     1      -0.234  21.774   2.862  1.00  0.00     0.060 A 
BRANCH 110 111
ATOM    111  S   UNL     1      -0.521  23.247   3.861  1.00  0.00     0.124 S 
ATOM    112  O   UNL     1      -1.192  24.122   2.906  1.00  0.00    -0.237 OA
ATOM    113  O   UNL     1      -1.354  22.730   4.943  1.00  0.00    -0.237 OA
ATOM    114  O   UNL     1       0.823  23.659   4.254  1.00  0.00    -0.744 OA
ENDBRANCH 110 111
ENDBRANCH  78 103
ENDBRANCH  52  53
ENDBRANCH  45  47
ENDBRANCH  44  45
ENDBRANCH  43  44
ENDBRANCH  42  43
ENDBRANCH  41  42
ENDBRANCH  40  41
ENDBRANCH  39  40
ENDBRANCH  38  39
ENDBRANCH   1  38
TORSDOF 28
