REMARK SMILES COC(=O)c1c(NC(=O)[C@@H]2[C@H]3CC[C@H](CC3)[C@H]2C(=O)OCCOCCOCCOCCOC(=O)c2ccc(-c3c4nc(c(-c5c(F)cc(S(=O)(=O)[O-])cc5F)c5ccc([nH]5)c(-c5c(F)cc(S(=O)(=O)[O-])cc5F)c5nc(c(-c6c(F)cc(S(=O)(=O)[O-])cc6F)c6ccc3[nH]6)C=C5)C=C4)cc2)sc(C)c1-c1ccc(C)cc1
REMARK SMILES IDX 25 1 24 2 23 3 22 4 21 5 20 6 18 7 19 8 17 9 10 10 11 11
REMARK SMILES IDX 12 12 16 13 14 14 13 15 15 16 8 17 7 18 9 20 6 21 5 22
REMARK SMILES IDX 104 23 101 24 102 25 103 26 3 27 4 28 2 29 1 30 105 31
REMARK SMILES IDX 106 32 111 33 107 34 110 35 108 36 109 37 26 38 27 39 28 40
REMARK SMILES IDX 29 41 30 42 31 43 32 44 33 45 34 46 35 47 36 48 100 49 37 50
REMARK SMILES IDX 99 51 38 52 39 53 40 54 93 55 41 56 98 57 92 58 94 59 42 60
REMARK SMILES IDX 97 61 91 62 90 63 43 65 77 66 56 67 76 68 57 69 60 70 75 71
REMARK SMILES IDX 95 72 58 73 59 74 74 76 96 77 61 78 44 79 45 80 54 81 46 82
REMARK SMILES IDX 47 83 53 84 55 85 48 86 49 87 50 88 51 89 52 90 78 91 79 92
REMARK SMILES IDX 88 93 80 94 81 95 87 96 89 97 82 98 83 99 84 100 85 101
REMARK SMILES IDX 86 102 62 103 63 104 72 105 64 106 65 107 71 108 73 109
REMARK SMILES IDX 66 110 67 111 68 112 69 113 70 114
REMARK H PARENT 7 19 94 64 60 75
REMARK Flexibility Score: inf
ROOT
ATOM      1  C   UNL     1       2.512   0.669  -5.910  1.00  0.00     0.188 C 
ENDROOT
BRANCH   1   2
ATOM      2  C   UNL     1       1.271   1.529  -6.202  1.00  0.00     0.188 C 
BRANCH   2   3
ATOM      3  O   UNL     1       0.338   1.872  -5.187  1.00  0.00    -0.376 OA
BRANCH   3   4
ATOM      4  C   UNL     1       0.068   0.991  -4.107  1.00  0.00     0.202 C 
BRANCH   4   5
ATOM      5  C   UNL     1      -0.467  -0.418  -4.390  1.00  0.00     0.261 C 
BRANCH   5   6
ATOM      6  O   UNL     1       0.346  -1.247  -5.244  1.00  0.00    -0.463 OA
BRANCH   6   7
ATOM      7  C   UNL     1      -0.111  -1.408  -6.507  1.00  0.00     0.310 C 
ATOM      8  O   UNL     1      -1.100  -0.838  -6.961  1.00  0.00    -0.252 OA
BRANCH   7   9
ATOM      9  C   UNL     1       0.632  -2.460  -7.321  1.00  0.00     0.115 C 
ATOM     10  C   UNL     1       2.161  -2.711  -7.069  1.00  0.00     0.096 C 
ATOM     11  C   UNL     1       2.391  -4.246  -6.965  1.00  0.00     0.002 C 
ATOM     12  C   UNL     1       1.661  -4.734  -5.702  1.00  0.00     0.005 C 
ATOM     13  C   UNL     1       1.797  -4.984  -8.182  1.00  0.00     0.005 C 
ATOM     14  C   UNL     1      -0.158  -3.784  -7.176  1.00  0.00     0.004 C 
ATOM     15  C   UNL     1       0.159  -4.461  -5.828  1.00  0.00     0.005 C 
ATOM     16  C   UNL     1       0.297  -4.707  -8.312  1.00  0.00     0.005 C 
BRANCH  10  17
ATOM     17  C   UNL     1       3.050  -2.121  -8.190  1.00  0.00     0.229 C 
ATOM     18  N   UNL     1       4.370  -1.777  -8.081  1.00  0.00    -0.317 N 
ATOM     19  H   UNL     1       4.730  -1.423  -8.925  1.00  0.00     0.170 HD
ATOM     20  O   UNL     1       2.561  -1.927  -9.313  1.00  0.00    -0.274 OA
BRANCH  18  21
ATOM     21  C   UNL     1       5.327  -1.804  -7.076  1.00  0.00     0.111 A 
ATOM     22  C   UNL     1       6.637  -1.319  -7.145  1.00  0.00     0.102 A 
ATOM     23  C   UNL     1       7.329  -1.442  -5.853  1.00  0.00     0.012 A 
ATOM     24  S   UNL     1       5.001  -2.498  -5.585  1.00  0.00    -0.122 S 
ATOM     25  C   UNL     1       6.512  -2.078  -4.924  1.00  0.00     0.012 A 
ATOM     26  C   UNL     1       6.681  -2.406  -3.476  1.00  0.00     0.057 C 
BRANCH  22  27
ATOM     27  C   UNL     1       7.178  -0.716  -8.369  1.00  0.00     0.341 C 
ATOM     28  O   UNL     1       6.465  -0.253  -9.255  1.00  0.00    -0.246 OA
BRANCH  27  29
ATOM     29  O   UNL     1       8.540  -0.724  -8.421  1.00  0.00    -0.465 OA
ATOM     30  C   UNL     1       9.120   0.027  -9.487  1.00  0.00     0.282 C 
ENDBRANCH  27  29
ENDBRANCH  22  27
BRANCH  23  31
ATOM     31  C   UNL     1       8.643  -0.876  -5.477  1.00  0.00    -0.016 A 
ATOM     32  C   UNL     1       8.950   0.460  -5.776  1.00  0.00     0.009 A 
ATOM     33  C   UNL     1       9.607  -1.621  -4.788  1.00  0.00     0.009 A 
ATOM     34  C   UNL     1      10.146   1.053  -5.357  1.00  0.00     0.004 A 
ATOM     35  C   UNL     1      10.802  -1.028  -4.352  1.00  0.00     0.004 A 
ATOM     36  C   UNL     1      11.076   0.317  -4.622  1.00  0.00    -0.051 A 
ATOM     37  C   UNL     1      12.347   0.969  -4.159  1.00  0.00     0.044 C 
ENDBRANCH  23  31
ENDBRANCH  18  21
ENDBRANCH  10  17
ENDBRANCH   7   9
ENDBRANCH   6   7
ENDBRANCH   5   6
ENDBRANCH   4   5
ENDBRANCH   3   4
ENDBRANCH   2   3
ENDBRANCH   1   2
BRANCH   1  38
ATOM     38  O   UNL     1       2.643   0.210  -4.578  1.00  0.00    -0.377 OA
BRANCH  38  39
ATOM     39  C   UNL     1       3.582   0.914  -3.772  1.00  0.00     0.188 C 
BRANCH  39  40
ATOM     40  C   UNL     1       3.478   2.448  -3.809  1.00  0.00     0.188 C 
BRANCH  40  41
ATOM     41  O   UNL     1       3.720   2.989  -5.107  1.00  0.00    -0.376 OA
BRANCH  41  42
ATOM     42  C   UNL     1       5.027   3.489  -5.361  1.00  0.00     0.202 C 
BRANCH  42  43
ATOM     43  C   UNL     1       6.132   2.434  -5.442  1.00  0.00     0.261 C 
BRANCH  43  44
ATOM     44  O   UNL     1       6.417   1.728  -4.222  1.00  0.00    -0.460 OA
BRANCH  44  45
ATOM     45  C   UNL     1       6.807   2.440  -3.147  1.00  0.00     0.338 C 
ATOM     46  O   UNL     1       7.020   3.643  -3.105  1.00  0.00    -0.246 OA
BRANCH  45  47
ATOM     47  C   UNL     1       6.745   1.550  -1.970  1.00  0.00     0.060 A 
ATOM     48  C   UNL     1       5.871   1.859  -0.923  1.00  0.00     0.016 A 
ATOM     49  C   UNL     1       7.551   0.415  -1.895  1.00  0.00     0.016 A 
ATOM     50  C   UNL     1       5.837   1.055   0.220  1.00  0.00     0.010 A 
ATOM     51  C   UNL     1       7.497  -0.404  -0.760  1.00  0.00     0.010 A 
ATOM     52  C   UNL     1       6.680  -0.061   0.330  1.00  0.00    -0.014 A 
BRANCH  52  53
ATOM     53  C   UNL     1       6.873  -0.711   1.658  1.00  0.00     0.031 A 
ATOM     54  C   UNL     1       8.168  -0.461   2.395  1.00  0.00     0.074 A 
ATOM     55  C   UNL     1       5.911  -1.455   2.238  1.00  0.00     0.049 A 
ATOM     56  N   UNL     1       8.538  -0.856   3.586  1.00  0.00    -0.248 NA
ATOM     57  C   UNL     1       9.190   0.329   1.686  1.00  0.00     0.031 C 
ATOM     58  C   UNL     1       4.620  -1.795   1.640  1.00  0.00     0.029 A 
ATOM     59  N   UNL     1       5.871  -2.050   3.477  1.00  0.00    -0.354 N 
ATOM     60  C   UNL     1       9.829  -0.369   3.762  1.00  0.00     0.074 A 
ATOM     61  C   UNL     1      10.206   0.288   2.532  1.00  0.00     0.031 C 
ATOM     62  C   UNL     1       3.907  -2.520   2.521  1.00  0.00     0.029 A 
ATOM     63  C   UNL     1       4.689  -2.704   3.743  1.00  0.00     0.049 A 
ATOM     64  H   UNL     1       6.619  -2.013   4.115  1.00  0.00     0.167 HD
ATOM     65  C   UNL     1      10.623  -0.422   4.857  1.00  0.00     0.037 A 
ATOM     66  C   UNL     1       4.282  -3.360   4.850  1.00  0.00     0.037 A 
ATOM     67  C   UNL     1      10.245  -1.040   6.098  1.00  0.00     0.049 A 
ATOM     68  C   UNL     1       5.182  -3.410   6.061  1.00  0.00     0.074 A 
ATOM     69  C   UNL     1      10.966  -1.113   7.277  1.00  0.00     0.029 A 
ATOM     70  N   UNL     1       9.040  -1.686   6.324  1.00  0.00    -0.354 N 
ATOM     71  N   UNL     1       6.378  -2.896   6.226  1.00  0.00    -0.248 NA
ATOM     72  C   UNL     1       4.667  -4.117   7.245  1.00  0.00     0.031 C 
ATOM     73  C   UNL     1      10.209  -1.834   8.207  1.00  0.00     0.029 A 
ATOM     74  C   UNL     1       9.000  -2.170   7.620  1.00  0.00     0.049 A 
ATOM     75  H   UNL     1       8.319  -1.785   5.661  1.00  0.00     0.167 HD
ATOM     76  C   UNL     1       6.742  -3.187   7.538  1.00  0.00     0.074 A 
ATOM     77  C   UNL     1       5.636  -3.913   8.127  1.00  0.00     0.031 C 
ATOM     78  C   UNL     1       7.886  -2.879   8.198  1.00  0.00     0.037 A 
BRANCH  65  79
ATOM     79  C   UNL     1      11.979   0.217   4.754  1.00  0.00     0.058 A 
ATOM     80  C   UNL     1      12.132   1.611   4.683  1.00  0.00     0.135 A 
ATOM     81  C   UNL     1      13.139  -0.573   4.721  1.00  0.00     0.135 A 
ATOM     82  F   UNL     1      11.054   2.411   4.686  1.00  0.00    -0.206 F 
ATOM     83  C   UNL     1      13.384   2.199   4.543  1.00  0.00     0.059 A 
ATOM     84  C   UNL     1      14.405  -0.005   4.612  1.00  0.00     0.059 A 
ATOM     85  F   UNL     1      13.049  -1.911   4.782  1.00  0.00    -0.206 F 
ATOM     86  C   UNL     1      14.515   1.381   4.504  1.00  0.00     0.060 A 
BRANCH  86  87
ATOM     87  S   UNL     1      16.133   2.156   4.306  1.00  0.00     0.124 S 
ATOM     88  O   UNL     1      16.105   2.527   2.894  1.00  0.00    -0.237 OA
ATOM     89  O   UNL     1      16.067   3.265   5.253  1.00  0.00    -0.237 OA
ATOM     90  O   UNL     1      17.065   1.090   4.657  1.00  0.00    -0.744 OA
ENDBRANCH  86  87
ENDBRANCH  65  79
BRANCH  66  91
ATOM     91  C   UNL     1       2.938  -4.001   4.891  1.00  0.00     0.058 A 
ATOM     92  C   UNL     1       1.911  -3.485   5.697  1.00  0.00     0.135 A 
ATOM     93  C   UNL     1       2.661  -5.157   4.146  1.00  0.00     0.135 A 
ATOM     94  F   UNL     1       2.129  -2.389   6.440  1.00  0.00    -0.206 F 
ATOM     95  C   UNL     1       0.666  -4.103   5.780  1.00  0.00     0.059 A 
ATOM     96  C   UNL     1       1.417  -5.779   4.193  1.00  0.00     0.059 A 
ATOM     97  F   UNL     1       3.606  -5.687   3.352  1.00  0.00    -0.206 F 
ATOM     98  C   UNL     1       0.429  -5.251   5.023  1.00  0.00     0.060 A 
BRANCH  98  99
ATOM     99  S   UNL     1      -1.203  -6.022   5.104  1.00  0.00     0.124 S 
ATOM    100  O   UNL     1      -1.164  -6.655   6.417  1.00  0.00    -0.237 OA
ATOM    101  O   UNL     1      -2.092  -4.872   4.976  1.00  0.00    -0.237 OA
ATOM    102  O   UNL     1      -1.200  -6.932   3.963  1.00  0.00    -0.744 OA
ENDBRANCH  98  99
ENDBRANCH  66  91
BRANCH  78 103
ATOM    103  C   UNL     1       7.991  -3.283   9.644  1.00  0.00     0.058 A 
ATOM    104  C   UNL     1       8.164  -4.622  10.028  1.00  0.00     0.135 A 
ATOM    105  C   UNL     1       7.966  -2.309  10.656  1.00  0.00     0.135 A 
ATOM    106  F   UNL     1       8.196  -5.592   9.101  1.00  0.00    -0.206 F 
ATOM    107  C   UNL     1       8.277  -4.985  11.366  1.00  0.00     0.059 A 
ATOM    108  C   UNL     1       8.104  -2.647  11.999  1.00  0.00     0.059 A 
ATOM    109  F   UNL     1       7.820  -1.012  10.343  1.00  0.00    -0.206 F 
ATOM    110  C   UNL     1       8.243  -3.990  12.345  1.00  0.00     0.060 A 
BRANCH 110 111
ATOM    111  S   UNL     1       8.407  -4.470  14.078  1.00  0.00     0.124 S 
ATOM    112  O   UNL     1       7.085  -5.020  14.356  1.00  0.00    -0.237 OA
ATOM    113  O   UNL     1       9.500  -5.437  14.034  1.00  0.00    -0.237 OA
ATOM    114  O   UNL     1       8.719  -3.212  14.751  1.00  0.00    -0.744 OA
ENDBRANCH 110 111
ENDBRANCH  78 103
ENDBRANCH  52  53
ENDBRANCH  45  47
ENDBRANCH  44  45
ENDBRANCH  43  44
ENDBRANCH  42  43
ENDBRANCH  41  42
ENDBRANCH  40  41
ENDBRANCH  39  40
ENDBRANCH  38  39
ENDBRANCH   1  38
TORSDOF 28
