REMARK SMILES O=C(OCCOCCOCCOCCOC(=O)[C@H]1CC[C@@H](CNC(=O)[C@@H]2CCC[NH2+]C2)O1)c1ccc(-c2c3nc(c(-c4c(F)cc(S(=O)(=O)[O-])cc4F)c4ccc([nH]4)c(-c4c(F)cc(S(=O)(=O)[O-])cc4F)c4nc(c(-c5c(F)cc(S(=O)(=O)[O-])cc5F)c5ccc2[nH]5)C=C4)C=C3)cc1
REMARK SMILES IDX 9 1 8 2 7 3 6 4 5 5 4 6 3 7 2 8 1 9 33 10 34 11 98 12 35 13
REMARK SMILES IDX 97 14 36 15 37 16 38 17 91 18 39 19 96 20 90 21 92 22 40 23
REMARK SMILES IDX 95 24 89 25 88 26 41 28 75 29 54 30 74 31 55 32 58 33 73 34
REMARK SMILES IDX 93 35 56 36 57 37 72 39 94 40 59 41 42 42 43 43 52 44 44 45
REMARK SMILES IDX 45 46 51 47 53 48 46 49 47 50 48 51 49 52 50 53 76 54 77 55
REMARK SMILES IDX 86 56 78 57 79 58 85 59 87 60 80 61 81 62 82 63 83 64 84 65
REMARK SMILES IDX 60 66 61 67 70 68 62 69 63 70 69 71 71 72 64 73 65 74 66 75
REMARK SMILES IDX 67 76 68 77 10 78 11 79 12 80 13 81 14 82 15 83 16 84 17 85
REMARK SMILES IDX 18 86 19 87 32 88 20 89 21 90 22 91 23 92 24 93 25 95 26 96
REMARK SMILES IDX 27 97 31 98 28 99 30 100 29 101
REMARK H PARENT 92 27 58 38 23 94 30 102 30 103
REMARK Flexibility Score: inf
ROOT
ATOM      1  O   UNL     1       6.516  -3.567  -0.042  1.00  0.00    -0.377 OA
ENDROOT
BRANCH   1   2
ATOM      2  C   UNL     1       6.957  -2.397   0.648  1.00  0.00     0.188 C 
BRANCH   2   3
ATOM      3  C   UNL     1       6.807  -1.090  -0.138  1.00  0.00     0.188 C 
BRANCH   3   4
ATOM      4  O   UNL     1       5.438  -0.791  -0.415  1.00  0.00    -0.376 OA
BRANCH   4   5
ATOM      5  C   UNL     1       5.091  -0.404  -1.747  1.00  0.00     0.202 C 
BRANCH   5   6
ATOM      6  C   UNL     1       5.513   0.998  -2.156  1.00  0.00     0.261 C 
BRANCH   6   7
ATOM      7  O   UNL     1       6.620   1.504  -1.407  1.00  0.00    -0.460 OA
BRANCH   7   8
ATOM      8  C   UNL     1       6.631   2.038  -0.164  1.00  0.00     0.338 C 
ATOM      9  O   UNL     1       7.723   2.373   0.297  1.00  0.00    -0.246 OA
BRANCH   8  10
ATOM     10  C   UNL     1       5.428   2.233   0.707  1.00  0.00     0.060 A 
ATOM     11  C   UNL     1       4.234   1.509   0.656  1.00  0.00     0.016 A 
ATOM     12  C   UNL     1       5.564   3.185   1.731  1.00  0.00     0.016 A 
ATOM     13  C   UNL     1       3.216   1.691   1.575  1.00  0.00     0.010 A 
ATOM     14  C   UNL     1       4.529   3.419   2.636  1.00  0.00     0.010 A 
ATOM     15  C   UNL     1       3.347   2.681   2.534  1.00  0.00    -0.014 A 
BRANCH  15  16
ATOM     16  C   UNL     1       2.117   3.121   3.195  1.00  0.00     0.031 A 
ATOM     17  C   UNL     1       1.444   4.318   2.607  1.00  0.00     0.074 A 
ATOM     18  C   UNL     1       1.576   2.390   4.180  1.00  0.00     0.049 A 
ATOM     19  N   UNL     1       0.465   5.032   3.076  1.00  0.00    -0.248 NA
ATOM     20  C   UNL     1       1.951   4.770   1.297  1.00  0.00     0.031 C 
ATOM     21  C   UNL     1       2.087   1.102   4.653  1.00  0.00     0.029 A 
ATOM     22  N   UNL     1       0.478   2.627   4.955  1.00  0.00    -0.354 N 
ATOM     23  C   UNL     1       0.283   6.056   2.154  1.00  0.00     0.074 A 
ATOM     24  C   UNL     1       1.234   5.860   1.087  1.00  0.00     0.031 C 
ATOM     25  C   UNL     1       1.319   0.679   5.671  1.00  0.00     0.029 A 
ATOM     26  C   UNL     1       0.327   1.708   5.964  1.00  0.00     0.049 A 
ATOM     27  H   UNL     1      -0.141   3.379   4.807  1.00  0.00     0.167 HD
ATOM     28  C   UNL     1      -0.589   7.084   2.232  1.00  0.00     0.037 A 
ATOM     29  C   UNL     1      -0.475   1.756   7.043  1.00  0.00     0.037 A 
ATOM     30  C   UNL     1      -1.498   7.219   3.335  1.00  0.00     0.049 A 
ATOM     31  C   UNL     1      -1.371   2.958   7.179  1.00  0.00     0.074 A 
ATOM     32  C   UNL     1      -2.396   8.231   3.604  1.00  0.00     0.029 A 
ATOM     33  N   UNL     1      -1.606   6.291   4.369  1.00  0.00    -0.354 N 
ATOM     34  N   UNL     1      -1.486   3.988   6.370  1.00  0.00    -0.248 NA
ATOM     35  C   UNL     1      -2.231   3.022   8.364  1.00  0.00     0.031 C 
ATOM     36  C   UNL     1      -3.006   7.941   4.830  1.00  0.00     0.029 A 
ATOM     37  C   UNL     1      -2.541   6.714   5.290  1.00  0.00     0.049 A 
ATOM     38  H   UNL     1      -1.090   5.455   4.432  1.00  0.00     0.167 HD
ATOM     39  C   UNL     1      -2.449   4.815   6.931  1.00  0.00     0.074 A 
ATOM     40  C   UNL     1      -2.881   4.162   8.155  1.00  0.00     0.031 C 
ATOM     41  C   UNL     1      -2.939   5.998   6.482  1.00  0.00     0.037 A 
BRANCH  28  42
ATOM     42  C   UNL     1      -0.479   8.152   1.181  1.00  0.00     0.058 A 
ATOM     43  C   UNL     1      -0.803   7.925  -0.167  1.00  0.00     0.135 A 
ATOM     44  C   UNL     1       0.065   9.404   1.516  1.00  0.00     0.135 A 
ATOM     45  F   UNL     1      -1.289   6.734  -0.555  1.00  0.00    -0.206 F 
ATOM     46  C   UNL     1      -0.540   8.876  -1.150  1.00  0.00     0.059 A 
ATOM     47  C   UNL     1       0.306  10.381   0.555  1.00  0.00     0.059 A 
ATOM     48  F   UNL     1       0.410   9.673   2.785  1.00  0.00    -0.206 F 
ATOM     49  C   UNL     1       0.026  10.097  -0.780  1.00  0.00     0.060 A 
BRANCH  49  50
ATOM     50  S   UNL     1       0.420  11.297  -2.070  1.00  0.00     0.124 S 
ATOM     51  O   UNL     1       1.586  10.679  -2.695  1.00  0.00    -0.237 OA
ATOM     52  O   UNL     1      -0.798  11.303  -2.873  1.00  0.00    -0.237 OA
ATOM     53  O   UNL     1       0.684  12.524  -1.325  1.00  0.00    -0.744 OA
ENDBRANCH  49  50
ENDBRANCH  28  42
BRANCH  29  54
ATOM     54  C   UNL     1      -0.383   0.688   8.073  1.00  0.00     0.058 A 
ATOM     55  C   UNL     1      -1.415  -0.239   8.264  1.00  0.00     0.135 A 
ATOM     56  C   UNL     1       0.791   0.518   8.830  1.00  0.00     0.135 A 
ATOM     57  F   UNL     1      -2.559  -0.120   7.573  1.00  0.00    -0.206 F 
ATOM     58  C   UNL     1      -1.285  -1.302   9.155  1.00  0.00     0.059 A 
ATOM     59  C   UNL     1       0.955  -0.550   9.706  1.00  0.00     0.059 A 
ATOM     60  F   UNL     1       1.818   1.369   8.678  1.00  0.00    -0.206 F 
ATOM     61  C   UNL     1      -0.090  -1.457   9.862  1.00  0.00     0.060 A 
BRANCH  61  62
ATOM     62  S   UNL     1       0.102  -2.892  10.943  1.00  0.00     0.124 S 
ATOM     63  O   UNL     1      -0.812  -2.565  12.031  1.00  0.00    -0.237 OA
ATOM     64  O   UNL     1      -0.309  -3.987  10.070  1.00  0.00    -0.237 OA
ATOM     65  O   UNL     1       1.521  -2.870  11.283  1.00  0.00    -0.744 OA
ENDBRANCH  61  62
ENDBRANCH  29  54
BRANCH  41  66
ATOM     66  C   UNL     1      -4.039   6.630   7.280  1.00  0.00     0.058 A 
ATOM     67  C   UNL     1      -3.780   7.321   8.471  1.00  0.00     0.135 A 
ATOM     68  C   UNL     1      -5.341   6.664   6.756  1.00  0.00     0.135 A 
ATOM     69  F   UNL     1      -2.550   7.307   9.010  1.00  0.00    -0.206 F 
ATOM     70  C   UNL     1      -4.779   8.040   9.114  1.00  0.00     0.059 A 
ATOM     71  C   UNL     1      -6.347   7.399   7.367  1.00  0.00     0.059 A 
ATOM     72  F   UNL     1      -5.626   6.023   5.611  1.00  0.00    -0.206 F 
ATOM     73  C   UNL     1      -6.055   8.086   8.543  1.00  0.00     0.060 A 
BRANCH  73  74
ATOM     74  S   UNL     1      -7.312   9.112   9.329  1.00  0.00     0.124 S 
ATOM     75  O   UNL     1      -7.628   8.330  10.519  1.00  0.00    -0.237 OA
ATOM     76  O   UNL     1      -6.593  10.361   9.561  1.00  0.00    -0.237 OA
ATOM     77  O   UNL     1      -8.370   9.182   8.325  1.00  0.00    -0.744 OA
ENDBRANCH  73  74
ENDBRANCH  41  66
ENDBRANCH  15  16
ENDBRANCH   8  10
ENDBRANCH   7   8
ENDBRANCH   6   7
ENDBRANCH   5   6
ENDBRANCH   4   5
ENDBRANCH   3   4
ENDBRANCH   2   3
ENDBRANCH   1   2
BRANCH   1  78
ATOM     78  C   UNL     1       5.257  -3.446  -0.693  1.00  0.00     0.188 C 
BRANCH  78  79
ATOM     79  C   UNL     1       3.984  -3.223   0.158  1.00  0.00     0.188 C 
BRANCH  79  80
ATOM     80  O   UNL     1       4.261  -2.704   1.446  1.00  0.00    -0.376 OA
BRANCH  80  81
ATOM     81  C   UNL     1       4.097  -3.571   2.564  1.00  0.00     0.202 C 
BRANCH  81  82
ATOM     82  C   UNL     1       4.760  -4.966   2.572  1.00  0.00     0.261 C 
BRANCH  82  83
ATOM     83  O   UNL     1       5.005  -5.505   1.267  1.00  0.00    -0.461 OA
BRANCH  83  84
ATOM     84  C   UNL     1       4.184  -6.448   0.754  1.00  0.00     0.335 C 
ATOM     85  O   UNL     1       3.330  -7.061   1.397  1.00  0.00    -0.249 OA
BRANCH  84  86
ATOM     86  C   UNL     1       4.390  -6.565  -0.779  1.00  0.00     0.228 C 
ATOM     87  C   UNL     1       5.851  -6.592  -1.200  1.00  0.00     0.047 C 
ATOM     88  O   UNL     1       3.858  -7.732  -1.393  1.00  0.00    -0.361 OA
ATOM     89  C   UNL     1       6.179  -8.039  -1.013  1.00  0.00     0.037 C 
ATOM     90  C   UNL     1       4.856  -8.756  -1.257  1.00  0.00     0.138 C 
BRANCH  90  91
ATOM     91  C   UNL     1       4.381  -9.671  -0.121  1.00  0.00     0.147 C 
BRANCH  91  92
ATOM     92  N   UNL     1       4.625 -11.057  -0.424  1.00  0.00    -0.353 N 
ATOM     93  C   UNL     1       5.470 -11.993   0.051  1.00  0.00     0.228 C 
ATOM     94  H   UNL     1       4.042 -11.398  -1.141  1.00  0.00     0.163 HD
ATOM     95  O   UNL     1       5.281 -13.122  -0.422  1.00  0.00    -0.275 OA
BRANCH  93  96
ATOM     96  C   UNL     1       6.485 -11.771   1.185  1.00  0.00     0.133 C 
ATOM     97  C   UNL     1       7.219 -10.439   1.347  1.00  0.00     0.025 C 
ATOM     98  C   UNL     1       7.576 -12.860   1.073  1.00  0.00     0.274 C 
ATOM     99  C   UNL     1       8.188 -10.201   0.196  1.00  0.00     0.062 C 
ATOM    100  N   UNL     1       8.518 -12.612  -0.032  1.00  0.00    -0.346 N 
ATOM    101  C   UNL     1       9.199 -11.329   0.088  1.00  0.00     0.260 C 
ATOM    102  H   UNL     1       9.219 -13.354  -0.036  1.00  0.00     0.346 HD
ATOM    103  H   UNL     1       7.980 -12.596  -0.898  1.00  0.00     0.346 HD
ENDBRANCH  93  96
ENDBRANCH  91  92
ENDBRANCH  90  91
ENDBRANCH  84  86
ENDBRANCH  83  84
ENDBRANCH  82  83
ENDBRANCH  81  82
ENDBRANCH  80  81
ENDBRANCH  79  80
ENDBRANCH  78  79
ENDBRANCH   1  78
TORSDOF 26
