REMARK SMILES CC(C)CSc1cc2c(cc1Cl)C=C(C(=O)OCCOCCOCCOCCOC(=O)c1ccc(-c3c4nc(c(-c5c(F)cc(S(=O)(=O)[O-])cc5F)c5ccc([nH]5)c(-c5c(F)cc(S(=O)(=O)[O-])cc5F)c5nc(c(-c6c(F)cc(S(=O)(=O)[O-])cc6F)c6ccc3[nH]6)C=C5)C=C4)cc1)[C@H](C(F)(F)F)O2
REMARK SMILES IDX 23 1 22 2 21 3 20 4 19 5 18 6 17 7 15 8 16 9 14 10 6 11 7 12
REMARK SMILES IDX 11 13 8 14 10 15 12 16 9 17 103 18 13 19 98 20 5 21 4 22
REMARK SMILES IDX 2 23 1 24 3 25 99 26 100 27 101 28 102 29 24 30 25 31 26 32
REMARK SMILES IDX 27 33 28 34 29 35 30 36 31 37 32 38 33 39 97 40 34 41 96 42
REMARK SMILES IDX 35 43 36 44 37 45 90 46 38 47 95 48 89 49 91 50 39 51 94 52
REMARK SMILES IDX 88 53 87 54 40 56 74 57 53 58 73 59 54 60 57 61 72 62 92 63
REMARK SMILES IDX 55 64 56 65 71 67 93 68 58 69 41 70 42 71 51 72 43 73 44 74
REMARK SMILES IDX 50 75 52 76 45 77 46 78 47 79 48 80 49 81 75 82 76 83 85 84
REMARK SMILES IDX 77 85 78 86 84 87 86 88 79 89 80 90 81 91 82 92 83 93 59 94
REMARK SMILES IDX 60 95 69 96 61 97 62 98 68 99 70 100 63 101 64 102 65 103
REMARK SMILES IDX 66 104 67 105
REMARK H PARENT 91 55 57 66
REMARK Flexibility Score: inf
ROOT
ATOM      1  O   UNL     1       4.162   0.494  -6.466  1.00  0.00    -0.377 OA
ENDROOT
BRANCH   1   2
ATOM      2  C   UNL     1       2.918  -0.176  -6.546  1.00  0.00     0.188 C 
BRANCH   2   3
ATOM      3  C   UNL     1       2.700  -1.078  -7.765  1.00  0.00     0.188 C 
BRANCH   3   4
ATOM      4  O   UNL     1       2.731  -0.348  -8.989  1.00  0.00    -0.376 OA
BRANCH   4   5
ATOM      5  C   UNL     1       1.496  -0.150  -9.664  1.00  0.00     0.202 C 
BRANCH   5   6
ATOM      6  C   UNL     1       0.731   1.105  -9.215  1.00  0.00     0.261 C 
BRANCH   6   7
ATOM      7  O   UNL     1       0.396   1.138  -7.816  1.00  0.00    -0.460 OA
BRANCH   7   8
ATOM      8  C   UNL     1      -0.473   0.209  -7.382  1.00  0.00     0.338 C 
ATOM      9  O   UNL     1      -1.056  -0.608  -8.076  1.00  0.00    -0.246 OA
BRANCH   8  10
ATOM     10  C   UNL     1      -0.487   0.190  -5.905  1.00  0.00     0.087 C 
ATOM     11  C   UNL     1      -1.153  -1.310  -1.150  1.00  0.00     0.030 A 
ATOM     12  C   UNL     1      -1.326  -0.097  -1.837  1.00  0.00     0.063 A 
ATOM     13  C   UNL     1      -0.710  -2.433  -1.877  1.00  0.00     0.055 A 
ATOM     14  C   UNL     1      -1.038   0.002  -3.200  1.00  0.00     0.129 A 
ATOM     15  C   UNL     1      -0.436  -2.334  -3.246  1.00  0.00     0.033 A 
ATOM     16  Cl  UNL     1      -0.493  -3.994  -1.155  1.00  0.00    -0.083 Cl
ATOM     17  C   UNL     1      -0.607  -1.119  -3.909  1.00  0.00     0.019 A 
ATOM     18  O   UNL     1      -1.282   1.210  -3.802  1.00  0.00    -0.475 OA
ATOM     19  C   UNL     1      -0.455  -1.031  -5.350  1.00  0.00     0.027 C 
ATOM     20  C   UNL     1      -0.627   1.454  -5.090  1.00  0.00     0.316 C 
BRANCH  11  21
ATOM     21  S   UNL     1      -1.567  -1.440   0.593  1.00  0.00    -0.124 SA
BRANCH  21  22
ATOM     22  C   UNL     1      -0.828   0.064   1.327  1.00  0.00     0.078 C 
BRANCH  22  23
ATOM     23  C   UNL     1       0.693   0.007   1.555  1.00  0.00    -0.007 C 
ATOM     24  C   UNL     1       1.509   0.085   0.264  1.00  0.00     0.008 C 
ATOM     25  C   UNL     1       1.099   1.168   2.471  1.00  0.00     0.008 C 
ENDBRANCH  22  23
ENDBRANCH  21  22
ENDBRANCH  11  21
BRANCH  20  26
ATOM     26  C   UNL     1       0.677   2.239  -4.833  1.00  0.00     0.430 C 
ATOM     27  F   UNL     1       1.609   1.475  -4.216  1.00  0.00    -0.167 F 
ATOM     28  F   UNL     1       1.229   2.721  -5.967  1.00  0.00    -0.167 F 
ATOM     29  F   UNL     1       0.449   3.309  -4.032  1.00  0.00    -0.167 F 
ENDBRANCH  20  26
ENDBRANCH   8  10
ENDBRANCH   7   8
ENDBRANCH   6   7
ENDBRANCH   5   6
ENDBRANCH   4   5
ENDBRANCH   3   4
ENDBRANCH   2   3
ENDBRANCH   1   2
BRANCH   1  30
ATOM     30  C   UNL     1       4.498   1.308  -7.579  1.00  0.00     0.188 C 
BRANCH  30  31
ATOM     31  C   UNL     1       5.471   0.639  -8.574  1.00  0.00     0.188 C 
BRANCH  31  32
ATOM     32  O   UNL     1       6.359  -0.411  -8.190  1.00  0.00    -0.376 OA
BRANCH  32  33
ATOM     33  C   UNL     1       6.612  -0.686  -6.824  1.00  0.00     0.202 C 
BRANCH  33  34
ATOM     34  C   UNL     1       7.425   0.338  -6.020  1.00  0.00     0.261 C 
BRANCH  34  35
ATOM     35  O   UNL     1       7.133   1.713  -6.291  1.00  0.00    -0.460 OA
BRANCH  35  36
ATOM     36  C   UNL     1       7.899   2.293  -7.247  1.00  0.00     0.338 C 
ATOM     37  O   UNL     1       8.828   1.784  -7.855  1.00  0.00    -0.246 OA
BRANCH  36  38
ATOM     38  C   UNL     1       7.338   3.623  -7.575  1.00  0.00     0.060 A 
ATOM     39  C   UNL     1       7.020   4.548  -6.577  1.00  0.00     0.016 A 
ATOM     40  C   UNL     1       7.135   3.944  -8.924  1.00  0.00     0.016 A 
ATOM     41  C   UNL     1       6.539   5.812  -6.936  1.00  0.00     0.010 A 
ATOM     42  C   UNL     1       6.631   5.194  -9.280  1.00  0.00     0.010 A 
ATOM     43  C   UNL     1       6.364   6.150  -8.290  1.00  0.00    -0.014 A 
BRANCH  43  44
ATOM     44  C   UNL     1       6.130   7.559  -8.686  1.00  0.00     0.031 A 
ATOM     45  C   UNL     1       4.775   8.076  -9.058  1.00  0.00     0.074 A 
ATOM     46  C   UNL     1       7.207   8.366  -8.750  1.00  0.00     0.049 A 
ATOM     47  N   UNL     1       4.427   9.292  -9.393  1.00  0.00    -0.248 NA
ATOM     48  C   UNL     1       3.669   7.109  -9.064  1.00  0.00     0.031 C 
ATOM     49  C   UNL     1       8.580   7.951  -8.448  1.00  0.00     0.029 A 
ATOM     50  N   UNL     1       7.324   9.688  -9.089  1.00  0.00    -0.354 N 
ATOM     51  C   UNL     1       3.059   9.251  -9.624  1.00  0.00     0.074 A 
ATOM     52  C   UNL     1       2.647   7.873  -9.436  1.00  0.00     0.031 C 
ATOM     53  C   UNL     1       9.399   9.002  -8.602  1.00  0.00     0.029 A 
ATOM     54  C   UNL     1       8.615  10.156  -9.030  1.00  0.00     0.049 A 
ATOM     55  H   UNL     1       6.558  10.248  -9.351  1.00  0.00     0.167 HD
ATOM     56  C   UNL     1       2.228  10.273  -9.946  1.00  0.00     0.037 A 
ATOM     57  C   UNL     1       9.114  11.379  -9.285  1.00  0.00     0.037 A 
ATOM     58  C   UNL     1       2.660  11.635 -10.159  1.00  0.00     0.049 A 
ATOM     59  C   UNL     1       8.177  12.485  -9.675  1.00  0.00     0.074 A 
ATOM     60  C   UNL     1       1.888  12.745 -10.461  1.00  0.00     0.029 A 
ATOM     61  N   UNL     1       3.976  12.072 -10.106  1.00  0.00    -0.354 N 
ATOM     62  N   UNL     1       6.874  12.444  -9.823  1.00  0.00    -0.248 NA
ATOM     63  C   UNL     1       8.773  13.804  -9.919  1.00  0.00     0.031 C 
ATOM     64  C   UNL     1       2.741  13.841 -10.635  1.00  0.00     0.029 A 
ATOM     65  C   UNL     1       4.040  13.428 -10.391  1.00  0.00     0.049 A 
ATOM     66  H   UNL     1       4.752  11.503  -9.897  1.00  0.00     0.167 HD
ATOM     67  C   UNL     1       6.490  13.737 -10.155  1.00  0.00     0.074 A 
ATOM     68  C   UNL     1       7.698  14.539 -10.173  1.00  0.00     0.031 C 
ATOM     69  C   UNL     1       5.249  14.216 -10.415  1.00  0.00     0.037 A 
BRANCH  56  70
ATOM     70  C   UNL     1       0.759   9.973 -10.078  1.00  0.00     0.058 A 
ATOM     71  C   UNL     1      -0.032   9.701  -8.950  1.00  0.00     0.135 A 
ATOM     72  C   UNL     1       0.117  10.037 -11.326  1.00  0.00     0.135 A 
ATOM     73  F   UNL     1       0.530   9.620  -7.734  1.00  0.00    -0.206 F 
ATOM     74  C   UNL     1      -1.403   9.487  -9.056  1.00  0.00     0.059 A 
ATOM     75  C   UNL     1      -1.258   9.849 -11.452  1.00  0.00     0.059 A 
ATOM     76  F   UNL     1       0.823  10.297 -12.437  1.00  0.00    -0.206 F 
ATOM     77  C   UNL     1      -2.007   9.565 -10.312  1.00  0.00     0.060 A 
BRANCH  77  78
ATOM     78  S   UNL     1      -3.788   9.289 -10.424  1.00  0.00     0.124 S 
ATOM     79  O   UNL     1      -3.880   7.861 -10.133  1.00  0.00    -0.237 OA
ATOM     80  O   UNL     1      -4.307  10.179  -9.390  1.00  0.00    -0.237 OA
ATOM     81  O   UNL     1      -4.108   9.670 -11.796  1.00  0.00    -0.744 OA
ENDBRANCH  77  78
ENDBRANCH  56  70
BRANCH  57  82
ATOM     82  C   UNL     1      10.570  11.620  -9.125  1.00  0.00     0.058 A 
ATOM     83  C   UNL     1      11.057  12.367  -8.043  1.00  0.00     0.135 A 
ATOM     84  C   UNL     1      11.504  11.066 -10.014  1.00  0.00     0.135 A 
ATOM     85  F   UNL     1      10.201  12.916  -7.168  1.00  0.00    -0.206 F 
ATOM     86  C   UNL     1      12.419  12.563  -7.850  1.00  0.00     0.059 A 
ATOM     87  C   UNL     1      12.873  11.228  -9.829  1.00  0.00     0.059 A 
ATOM     88  F   UNL     1      11.086  10.326 -11.053  1.00  0.00    -0.206 F 
ATOM     89  C   UNL     1      13.320  11.984  -8.746  1.00  0.00     0.060 A 
BRANCH  89  90
ATOM     90  S   UNL     1      15.088  12.197  -8.448  1.00  0.00     0.124 S 
ATOM     91  O   UNL     1      15.272  13.608  -8.768  1.00  0.00    -0.237 OA
ATOM     92  O   UNL     1      15.204  11.841  -7.037  1.00  0.00    -0.237 OA
ATOM     93  O   UNL     1      15.702  11.254  -9.378  1.00  0.00    -0.744 OA
ENDBRANCH  89  90
ENDBRANCH  57  82
BRANCH  69  94
ATOM     94  C   UNL     1       5.129  15.683 -10.726  1.00  0.00     0.058 A 
ATOM     95  C   UNL     1       5.569  16.216 -11.948  1.00  0.00     0.135 A 
ATOM     96  C   UNL     1       4.530  16.560  -9.807  1.00  0.00     0.135 A 
ATOM     97  F   UNL     1       6.156  15.423 -12.859  1.00  0.00    -0.206 F 
ATOM     98  C   UNL     1       5.443  17.571 -12.238  1.00  0.00     0.059 A 
ATOM     99  C   UNL     1       4.369  17.914 -10.086  1.00  0.00     0.059 A 
ATOM    100  F   UNL     1       4.085  16.101  -8.627  1.00  0.00    -0.206 F 
ATOM    101  C   UNL     1       4.839  18.412 -11.300  1.00  0.00     0.060 A 
BRANCH 101 102
ATOM    102  S   UNL     1       4.658  20.163 -11.702  1.00  0.00     0.124 S 
ATOM    103  O   UNL     1       6.035  20.634 -11.595  1.00  0.00    -0.237 OA
ATOM    104  O   UNL     1       4.106  20.117 -13.053  1.00  0.00    -0.237 OA
ATOM    105  O   UNL     1       3.745  20.655 -10.675  1.00  0.00    -0.744 OA
ENDBRANCH 101 102
ENDBRANCH  69  94
ENDBRANCH  43  44
ENDBRANCH  36  38
ENDBRANCH  35  36
ENDBRANCH  34  35
ENDBRANCH  33  34
ENDBRANCH  32  33
ENDBRANCH  31  32
ENDBRANCH  30  31
ENDBRANCH   1  30
TORSDOF 27
