REMARK SMILES C[C@H](CC(=O)OCCOCCOCCOCCOC(=O)c1ccc(-c2c3nc(c(-c4c(F)cc(S(=O)(=O)[O-])cc4F)c4ccc([nH]4)c(-c4c(F)cc(S(=O)(=O)[O-])cc4F)c4nc(c(-c5c(F)cc(S(=O)(=O)[O-])cc5F)c5ccc2[nH]5)C=C4)C=C3)cc1)NC(=O)CS[C@H]1CCS(=O)(=O)C1
REMARK SMILES IDX 11 1 10 2 9 3 8 4 7 5 6 6 4 7 5 8 3 9 2 10 1 11 87 12 88 13
REMARK SMILES IDX 89 15 90 16 91 17 92 18 93 19 98 20 94 21 95 22 96 23 97 24
REMARK SMILES IDX 12 25 13 26 14 27 15 28 16 29 17 30 18 31 19 32 20 33 21 34
REMARK SMILES IDX 22 35 86 36 23 37 85 38 24 39 25 40 26 41 79 42 27 43 84 44
REMARK SMILES IDX 78 45 80 46 28 47 83 48 77 49 76 50 29 52 63 53 42 54 62 55
REMARK SMILES IDX 43 56 46 57 61 58 81 59 44 60 45 61 60 63 82 64 47 65 30 66
REMARK SMILES IDX 31 67 40 68 32 69 33 70 39 71 41 72 34 73 35 74 36 75 37 76
REMARK SMILES IDX 38 77 64 78 65 79 74 80 66 81 67 82 73 83 75 84 68 85 69 86
REMARK SMILES IDX 70 87 71 88 72 89 48 90 49 91 58 92 50 93 51 94 57 95 59 96
REMARK SMILES IDX 52 97 53 98 54 99 55 100 56 101
REMARK H PARENT 87 14 80 51 46 62
REMARK Flexibility Score: inf
ROOT
ATOM      1  C   UNL     1      -3.322   0.060  -1.648  1.00  0.00     0.188 C 
ENDROOT
BRANCH   1   2
ATOM      2  C   UNL     1      -2.064   0.837  -2.049  1.00  0.00     0.188 C 
BRANCH   2   3
ATOM      3  O   UNL     1      -1.402   0.377  -3.224  1.00  0.00    -0.376 OA
BRANCH   3   4
ATOM      4  C   UNL     1      -0.749  -0.891  -3.117  1.00  0.00     0.202 C 
BRANCH   4   5
ATOM      5  C   UNL     1       0.289  -1.048  -1.985  1.00  0.00     0.261 C 
BRANCH   5   6
ATOM      6  O   UNL     1      -0.284  -0.948  -0.659  1.00  0.00    -0.463 OA
BRANCH   6   7
ATOM      7  C   UNL     1       0.564  -1.144   0.389  1.00  0.00     0.307 C 
ATOM      8  O   UNL     1       1.786  -1.133   0.273  1.00  0.00    -0.252 OA
BRANCH   7   9
ATOM      9  C   UNL     1      -0.187  -1.384   1.972  1.00  0.00     0.147 C 
BRANCH   9  10
ATOM     10  C   UNL     1      -1.740  -2.632   2.815  1.00  0.00     0.090 C 
ATOM     11  C   UNL     1      -3.400  -2.917   2.405  1.00  0.00     0.031 C 
BRANCH  10  12
ATOM     12  N   UNL     1      -1.611  -4.187   3.181  1.00  0.00    -0.352 N 
ATOM     13  C   UNL     1      -1.629  -4.810   4.396  1.00  0.00     0.230 C 
ATOM     14  H   UNL     1      -1.503  -4.787   2.408  1.00  0.00     0.163 HD
ATOM     15  O   UNL     1      -1.717  -6.033   4.449  1.00  0.00    -0.274 OA
BRANCH  13  16
ATOM     16  C   UNL     1      -1.552  -3.933   5.608  1.00  0.00     0.169 C 
BRANCH  16  17
ATOM     17  S   UNL     1       0.007  -2.999   5.591  1.00  0.00    -0.148 SA
BRANCH  17  18
ATOM     18  C   UNL     1       0.011  -2.207   3.906  1.00  0.00     0.063 C 
ATOM     19  C   UNL     1       0.177  -3.296   2.232  1.00  0.00     0.031 C 
ATOM     20  C   UNL     1      -1.232  -0.678   3.738  1.00  0.00     0.151 C 
ATOM     21  C   UNL     1      -1.234  -2.745   0.894  1.00  0.00     0.138 C 
ATOM     22  S   UNL     1      -2.185  -0.706   1.649  1.00  0.00     0.151 S 
ATOM     23  O   UNL     1      -1.649   0.471   0.979  1.00  0.00    -0.229 OA
ATOM     24  O   UNL     1      -3.625  -0.620   1.795  1.00  0.00    -0.229 OA
ENDBRANCH  17  18
ENDBRANCH  16  17
ENDBRANCH  13  16
ENDBRANCH  10  12
ENDBRANCH   9  10
ENDBRANCH   7   9
ENDBRANCH   6   7
ENDBRANCH   5   6
ENDBRANCH   4   5
ENDBRANCH   3   4
ENDBRANCH   2   3
ENDBRANCH   1   2
BRANCH   1  25
ATOM     25  O   UNL     1      -3.174  -1.360  -1.623  1.00  0.00    -0.377 OA
BRANCH  25  26
ATOM     26  C   UNL     1      -4.268  -2.135  -2.139  1.00  0.00     0.188 C 
BRANCH  26  27
ATOM     27  C   UNL     1      -5.546  -1.393  -2.562  1.00  0.00     0.188 C 
BRANCH  27  28
ATOM     28  O   UNL     1      -6.193  -0.599  -1.566  1.00  0.00    -0.376 OA
BRANCH  28  29
ATOM     29  C   UNL     1      -6.250  -1.115  -0.237  1.00  0.00     0.202 C 
BRANCH  29  30
ATOM     30  C   UNL     1      -7.376  -2.114   0.024  1.00  0.00     0.261 C 
BRANCH  30  31
ATOM     31  O   UNL     1      -7.117  -3.371  -0.620  1.00  0.00    -0.460 OA
BRANCH  31  32
ATOM     32  C   UNL     1      -7.787  -3.582  -1.778  1.00  0.00     0.338 C 
ATOM     33  O   UNL     1      -8.608  -2.857  -2.309  1.00  0.00    -0.246 OA
BRANCH  32  34
ATOM     34  C   UNL     1      -7.202  -4.768  -2.424  1.00  0.00     0.060 A 
ATOM     35  C   UNL     1      -6.687  -4.648  -3.722  1.00  0.00     0.016 A 
ATOM     36  C   UNL     1      -7.180  -5.991  -1.752  1.00  0.00     0.016 A 
ATOM     37  C   UNL     1      -6.141  -5.756  -4.356  1.00  0.00     0.010 A 
ATOM     38  C   UNL     1      -6.669  -7.110  -2.403  1.00  0.00     0.010 A 
ATOM     39  C   UNL     1      -6.168  -6.996  -3.711  1.00  0.00    -0.014 A 
BRANCH  39  40
ATOM     40  C   UNL     1      -5.838  -8.214  -4.471  1.00  0.00     0.031 A 
ATOM     41  C   UNL     1      -6.964  -8.983  -5.095  1.00  0.00     0.074 A 
ATOM     42  C   UNL     1      -4.562  -8.614  -4.588  1.00  0.00     0.049 A 
ATOM     43  N   UNL     1      -6.938 -10.132  -5.712  1.00  0.00    -0.248 NA
ATOM     44  C   UNL     1      -8.303  -8.372  -5.007  1.00  0.00     0.031 C 
ATOM     45  C   UNL     1      -3.401  -7.894  -4.064  1.00  0.00     0.029 A 
ATOM     46  N   UNL     1      -4.033  -9.733  -5.171  1.00  0.00    -0.354 N 
ATOM     47  C   UNL     1      -8.253 -10.389  -6.077  1.00  0.00     0.074 A 
ATOM     48  C   UNL     1      -9.057  -9.288  -5.595  1.00  0.00     0.031 C 
ATOM     49  C   UNL     1      -2.294  -8.610  -4.325  1.00  0.00     0.029 A 
ATOM     50  C   UNL     1      -2.676  -9.850  -4.995  1.00  0.00     0.049 A 
ATOM     51  H   UNL     1      -4.572 -10.390  -5.668  1.00  0.00     0.167 HD
ATOM     52  C   UNL     1      -8.739 -11.454  -6.756  1.00  0.00     0.037 A 
ATOM     53  C   UNL     1      -1.851 -10.868  -5.308  1.00  0.00     0.037 A 
ATOM     54  C   UNL     1      -7.917 -12.544  -7.211  1.00  0.00     0.049 A 
ATOM     55  C   UNL     1      -2.429 -12.085  -5.981  1.00  0.00     0.074 A 
ATOM     56  C   UNL     1      -8.295 -13.671  -7.917  1.00  0.00     0.029 A 
ATOM     57  N   UNL     1      -6.550 -12.648  -6.989  1.00  0.00    -0.354 N 
ATOM     58  N   UNL     1      -3.671 -12.315  -6.343  1.00  0.00    -0.248 NA
ATOM     59  C   UNL     1      -1.500 -13.180  -6.287  1.00  0.00     0.031 C 
ATOM     60  C   UNL     1      -7.167 -14.484  -8.071  1.00  0.00     0.029 A 
ATOM     61  C   UNL     1      -6.074 -13.836  -7.514  1.00  0.00     0.049 A 
ATOM     62  H   UNL     1      -6.001 -11.974  -6.527  1.00  0.00     0.167 HD
ATOM     63  C   UNL     1      -3.668 -13.573  -6.935  1.00  0.00     0.074 A 
ATOM     64  C   UNL     1      -2.298 -14.044  -6.901  1.00  0.00     0.031 C 
ATOM     65  C   UNL     1      -4.702 -14.279  -7.460  1.00  0.00     0.037 A 
BRANCH  52  66
ATOM     66  C   UNL     1     -10.220 -11.505  -7.007  1.00  0.00     0.058 A 
ATOM     67  C   UNL     1     -10.852 -10.635  -7.909  1.00  0.00     0.135 A 
ATOM     68  C   UNL     1     -11.017 -12.457  -6.349  1.00  0.00     0.135 A 
ATOM     69  F   UNL     1     -10.143  -9.689  -8.546  1.00  0.00    -0.206 F 
ATOM     70  C   UNL     1     -12.224 -10.692  -8.136  1.00  0.00     0.059 A 
ATOM     71  C   UNL     1     -12.386 -12.551  -6.582  1.00  0.00     0.059 A 
ATOM     72  F   UNL     1     -10.467 -13.306  -5.467  1.00  0.00    -0.206 F 
ATOM     73  C   UNL     1     -12.982 -11.657  -7.470  1.00  0.00     0.060 A 
BRANCH  73  74
ATOM     74  S   UNL     1     -14.757 -11.727  -7.787  1.00  0.00     0.124 S 
ATOM     75  O   UNL     1     -15.220 -10.510  -7.126  1.00  0.00    -0.237 OA
ATOM     76  O   UNL     1     -14.812 -11.717  -9.245  1.00  0.00    -0.237 OA
ATOM     77  O   UNL     1     -15.167 -12.977  -7.155  1.00  0.00    -0.744 OA
ENDBRANCH  73  74
ENDBRANCH  52  66
BRANCH  53  78
ATOM     78  C   UNL     1      -0.407 -10.789  -4.962  1.00  0.00     0.058 A 
ATOM     79  C   UNL     1       0.573 -10.693  -5.960  1.00  0.00     0.135 A 
ATOM     80  C   UNL     1       0.022 -10.794  -3.625  1.00  0.00     0.135 A 
ATOM     81  F   UNL     1       0.214 -10.692  -7.253  1.00  0.00    -0.206 F 
ATOM     82  C   UNL     1       1.926 -10.617  -5.649  1.00  0.00     0.059 A 
ATOM     83  C   UNL     1       1.367 -10.692  -3.287  1.00  0.00     0.059 A 
ATOM     84  F   UNL     1      -0.875 -10.871  -2.630  1.00  0.00    -0.206 F 
ATOM     85  C   UNL     1       2.313 -10.611  -4.307  1.00  0.00     0.060 A 
BRANCH  85  86
ATOM     86  S   UNL     1       4.068 -10.452  -3.914  1.00  0.00     0.124 S 
ATOM     87  O   UNL     1       4.580 -11.756  -4.320  1.00  0.00    -0.237 OA
ATOM     88  O   UNL     1       4.464  -9.321  -4.748  1.00  0.00    -0.237 OA
ATOM     89  O   UNL     1       4.068 -10.191  -2.478  1.00  0.00    -0.744 OA
ENDBRANCH  85  86
ENDBRANCH  53  78
BRANCH  65  90
ATOM     90  C   UNL     1      -4.386 -15.625  -8.052  1.00  0.00     0.058 A 
ATOM     91  C   UNL     1      -4.058 -16.725  -7.245  1.00  0.00     0.135 A 
ATOM     92  C   UNL     1      -4.469 -15.829  -9.439  1.00  0.00     0.135 A 
ATOM     93  F   UNL     1      -3.958 -16.582  -5.914  1.00  0.00    -0.206 F 
ATOM     94  C   UNL     1      -3.801 -17.976  -7.795  1.00  0.00     0.059 A 
ATOM     95  C   UNL     1      -4.247 -17.078 -10.008  1.00  0.00     0.059 A 
ATOM     96  F   UNL     1      -4.790 -14.812 -10.255  1.00  0.00    -0.206 F 
ATOM     97  C   UNL     1      -3.902 -18.144  -9.177  1.00  0.00     0.060 A 
BRANCH  97  98
ATOM     98  S   UNL     1      -3.602 -19.782  -9.872  1.00  0.00     0.124 S 
ATOM     99  O   UNL     1      -2.156 -19.907  -9.716  1.00  0.00    -0.237 OA
ATOM    100  O   UNL     1      -4.409 -20.638  -9.008  1.00  0.00    -0.237 OA
ATOM    101  O   UNL     1      -4.077 -19.661 -11.247  1.00  0.00    -0.744 OA
ENDBRANCH  97  98
ENDBRANCH  65  90
ENDBRANCH  39  40
ENDBRANCH  32  34
ENDBRANCH  31  32
ENDBRANCH  30  31
ENDBRANCH  29  30
ENDBRANCH  28  29
ENDBRANCH  27  28
ENDBRANCH  26  27
ENDBRANCH  25  26
ENDBRANCH   1  25
TORSDOF 28
