REMARK SMILES CC[C@@H](C(=O)OCCOCCOCCOCCOC(=O)c1ccc(-c2c3nc(c(-c4c(F)cc(S(=O)(=O)[O-])cc4F)c4ccc([nH]4)c(-c4c(F)cc(S(=O)(=O)[O-])cc4F)c4nc(c(-c5c(F)cc(S(=O)(=O)[O-])cc5F)c5ccc2[nH]5)C=C4)C=C3)cc1)n1c(SCc2cccc(C(F)(F)F)c2)nc2ccncc21
REMARK SMILES IDX 11 1 10 2 9 3 8 4 7 5 6 6 4 7 5 8 3 9 2 10 1 11 87 12 88 13
REMARK SMILES IDX 107 14 101 15 102 16 106 17 103 18 105 19 104 20 89 21 90 22
REMARK SMILES IDX 91 23 92 24 100 25 93 26 95 27 94 28 96 29 97 30 98 31 99 32
REMARK SMILES IDX 12 33 13 34 14 35 15 36 16 37 17 38 18 39 19 40 20 41 21 42
REMARK SMILES IDX 22 43 86 44 23 45 85 46 24 47 25 48 26 49 79 50 27 51 84 52
REMARK SMILES IDX 78 53 80 54 28 55 83 56 77 57 76 58 29 60 63 61 42 62 62 63
REMARK SMILES IDX 43 64 46 65 61 66 81 67 44 68 45 69 60 71 82 72 47 73 30 74
REMARK SMILES IDX 31 75 40 76 32 77 33 78 39 79 41 80 34 81 35 82 36 83 37 84
REMARK SMILES IDX 38 85 64 86 65 87 74 88 66 89 67 90 73 91 75 92 68 93 69 94
REMARK SMILES IDX 70 95 71 96 72 97 48 98 49 99 58 100 50 101 51 102 57 103
REMARK SMILES IDX 59 104 52 105 53 106 54 107 55 108 56 109
REMARK H PARENT 80 59 46 70
REMARK Flexibility Score: inf
ROOT
ATOM      1  C   UNL     1      -2.160  -2.234  -0.174  1.00  0.00     0.188 C 
ENDROOT
BRANCH   1   2
ATOM      2  C   UNL     1      -2.161  -3.751   0.059  1.00  0.00     0.188 C 
BRANCH   2   3
ATOM      3  O   UNL     1      -1.758  -4.139   1.364  1.00  0.00    -0.376 OA
BRANCH   3   4
ATOM      4  C   UNL     1      -0.440  -4.611   1.564  1.00  0.00     0.202 C 
BRANCH   4   5
ATOM      5  C   UNL     1       0.717  -3.587   1.597  1.00  0.00     0.261 C 
BRANCH   5   6
ATOM      6  O   UNL     1       0.825  -2.604   0.550  1.00  0.00    -0.462 OA
BRANCH   6   7
ATOM      7  C   UNL     1       0.781  -3.057  -0.716  1.00  0.00     0.329 C 
ATOM      8  O   UNL     1       0.566  -4.233  -0.976  1.00  0.00    -0.250 OA
BRANCH   7   9
ATOM      9  C   UNL     1       1.110  -2.020  -1.779  1.00  0.00     0.199 C 
BRANCH   9  10
ATOM     10  C   UNL     1       0.652  -0.542  -1.593  1.00  0.00     0.034 C 
ATOM     11  C   UNL     1       1.105   0.181  -0.327  1.00  0.00     0.007 C 
ENDBRANCH   9  10
BRANCH   9  12
ATOM     12  N   UNL     1       0.852  -2.589  -3.131  1.00  0.00    -0.303 N 
ATOM     13  C   UNL     1       1.652  -3.522  -3.804  1.00  0.00     0.170 A 
ATOM     14  C   UNL     1       0.013  -2.057  -4.109  1.00  0.00     0.088 A 
ATOM     15  N   UNL     1       1.693  -3.230  -5.086  1.00  0.00    -0.222 NA
ATOM     16  C   UNL     1       0.598  -2.455  -5.308  1.00  0.00     0.093 A 
ATOM     17  C   UNL     1      -1.145  -1.286  -4.121  1.00  0.00     0.139 A 
ATOM     18  C   UNL     1       0.035  -2.102  -6.532  1.00  0.00     0.051 A 
ATOM     19  N   UNL     1      -1.707  -0.956  -5.312  1.00  0.00    -0.262 NA
ATOM     20  C   UNL     1      -1.128  -1.365  -6.463  1.00  0.00     0.113 A 
BRANCH  13  21
ATOM     21  S   UNL     1       1.982  -5.188  -3.421  1.00  0.00    -0.083 SA
BRANCH  21  22
ATOM     22  C   UNL     1       2.979  -5.479  -1.974  1.00  0.00     0.113 C 
BRANCH  22  23
ATOM     23  C   UNL     1       4.139  -4.611  -1.560  1.00  0.00    -0.037 A 
ATOM     24  C   UNL     1       5.040  -5.139  -0.620  1.00  0.00     0.004 A 
ATOM     25  C   UNL     1       4.290  -3.271  -1.909  1.00  0.00     0.017 A 
ATOM     26  C   UNL     1       6.008  -4.335  -0.017  1.00  0.00     0.001 A 
ATOM     27  C   UNL     1       5.151  -2.415  -1.205  1.00  0.00     0.056 A 
ATOM     28  C   UNL     1       6.036  -2.968  -0.278  1.00  0.00     0.013 A 
BRANCH  27  29
ATOM     29  C   UNL     1       5.046  -0.918  -1.375  1.00  0.00     0.416 C 
ATOM     30  F   UNL     1       4.763  -0.291  -0.199  1.00  0.00    -0.166 F 
ATOM     31  F   UNL     1       6.179  -0.345  -1.855  1.00  0.00    -0.166 F 
ATOM     32  F   UNL     1       4.044  -0.543  -2.225  1.00  0.00    -0.166 F 
ENDBRANCH  27  29
ENDBRANCH  22  23
ENDBRANCH  21  22
ENDBRANCH  13  21
ENDBRANCH   9  12
ENDBRANCH   7   9
ENDBRANCH   6   7
ENDBRANCH   5   6
ENDBRANCH   4   5
ENDBRANCH   3   4
ENDBRANCH   2   3
ENDBRANCH   1   2
BRANCH   1  33
ATOM     33  O   UNL     1      -1.825  -1.367   0.900  1.00  0.00    -0.377 OA
BRANCH  33  34
ATOM     34  C   UNL     1      -2.348  -1.657   2.197  1.00  0.00     0.188 C 
BRANCH  34  35
ATOM     35  C   UNL     1      -3.743  -2.315   2.306  1.00  0.00     0.188 C 
BRANCH  35  36
ATOM     36  O   UNL     1      -4.474  -2.369   1.091  1.00  0.00    -0.376 OA
BRANCH  36  37
ATOM     37  C   UNL     1      -5.381  -1.315   0.809  1.00  0.00     0.202 C 
BRANCH  37  38
ATOM     38  C   UNL     1      -4.835   0.123   0.773  1.00  0.00     0.261 C 
BRANCH  38  39
ATOM     39  O   UNL     1      -4.221   0.604   1.980  1.00  0.00    -0.460 OA
BRANCH  39  40
ATOM     40  C   UNL     1      -4.958   0.556   3.112  1.00  0.00     0.338 C 
ATOM     41  O   UNL     1      -6.117   0.216   3.221  1.00  0.00    -0.246 OA
BRANCH  40  42
ATOM     42  C   UNL     1      -4.043   0.780   4.251  1.00  0.00     0.060 A 
ATOM     43  C   UNL     1      -3.924  -0.224   5.223  1.00  0.00     0.016 A 
ATOM     44  C   UNL     1      -3.324   1.971   4.365  1.00  0.00     0.016 A 
ATOM     45  C   UNL     1      -3.133  -0.013   6.346  1.00  0.00     0.010 A 
ATOM     46  C   UNL     1      -2.558   2.198   5.511  1.00  0.00     0.010 A 
ATOM     47  C   UNL     1      -2.509   1.227   6.528  1.00  0.00    -0.014 A 
BRANCH  47  48
ATOM     48  C   UNL     1      -2.081   1.592   7.897  1.00  0.00     0.031 A 
ATOM     49  C   UNL     1      -3.061   2.356   8.750  1.00  0.00     0.074 A 
ATOM     50  C   UNL     1      -0.905   1.182   8.401  1.00  0.00     0.049 A 
ATOM     51  N   UNL     1      -2.946   2.764   9.986  1.00  0.00    -0.248 NA
ATOM     52  C   UNL     1      -4.348   2.701   8.121  1.00  0.00     0.031 C 
ATOM     53  C   UNL     1       0.093   0.390   7.685  1.00  0.00     0.029 A 
ATOM     54  N   UNL     1      -0.358   1.374   9.643  1.00  0.00    -0.354 N 
ATOM     55  C   UNL     1      -4.140   3.414  10.279  1.00  0.00     0.074 A 
ATOM     56  C   UNL     1      -4.951   3.380   9.084  1.00  0.00     0.031 C 
ATOM     57  C   UNL     1       1.139   0.169   8.502  1.00  0.00     0.029 A 
ATOM     58  C   UNL     1       0.893   0.825   9.786  1.00  0.00     0.049 A 
ATOM     59  H   UNL     1      -0.818   1.860  10.366  1.00  0.00     0.167 HD
ATOM     60  C   UNL     1      -4.531   3.978  11.445  1.00  0.00     0.037 A 
ATOM     61  C   UNL     1       1.744   0.864  10.831  1.00  0.00     0.037 A 
ATOM     62  C   UNL     1      -3.716   4.009  12.629  1.00  0.00     0.049 A 
ATOM     63  C   UNL     1       1.314   1.560  12.099  1.00  0.00     0.074 A 
ATOM     64  C   UNL     1      -4.014   4.554  13.865  1.00  0.00     0.029 A 
ATOM     65  N   UNL     1      -2.437   3.479  12.722  1.00  0.00    -0.354 N 
ATOM     66  N   UNL     1       0.178   2.161  12.369  1.00  0.00    -0.248 NA
ATOM     67  C   UNL     1       2.278   1.573  13.207  1.00  0.00     0.031 C 
ATOM     68  C   UNL     1      -2.893   4.404  14.688  1.00  0.00     0.029 A 
ATOM     69  C   UNL     1      -1.922   3.705  13.987  1.00  0.00     0.049 A 
ATOM     70  H   UNL     1      -1.965   3.012  11.995  1.00  0.00     0.167 HD
ATOM     71  C   UNL     1       0.279   2.594  13.688  1.00  0.00     0.074 A 
ATOM     72  C   UNL     1       1.581   2.172  14.163  1.00  0.00     0.031 C 
ATOM     73  C   UNL     1      -0.623   3.274  14.442  1.00  0.00     0.037 A 
BRANCH  60  74
ATOM     74  C   UNL     1      -5.883   4.637  11.479  1.00  0.00     0.058 A 
ATOM     75  C   UNL     1      -7.075   3.896  11.424  1.00  0.00     0.135 A 
ATOM     76  C   UNL     1      -5.987   6.033  11.587  1.00  0.00     0.135 A 
ATOM     77  F   UNL     1      -7.036   2.560  11.294  1.00  0.00    -0.206 F 
ATOM     78  C   UNL     1      -8.320   4.517  11.449  1.00  0.00     0.059 A 
ATOM     79  C   UNL     1      -7.221   6.673  11.645  1.00  0.00     0.059 A 
ATOM     80  F   UNL     1      -4.880   6.792  11.634  1.00  0.00    -0.206 F 
ATOM     81  C   UNL     1      -8.382   5.907  11.562  1.00  0.00     0.060 A 
BRANCH  81  82
ATOM     82  S   UNL     1     -10.005   6.697  11.606  1.00  0.00     0.124 S 
ATOM     83  O   UNL     1     -10.452   6.522  10.228  1.00  0.00    -0.237 OA
ATOM     84  O   UNL     1     -10.710   5.902  12.607  1.00  0.00    -0.237 OA
ATOM     85  O   UNL     1      -9.704   8.070  11.998  1.00  0.00    -0.744 OA
ENDBRANCH  81  82
ENDBRANCH  60  74
BRANCH  61  86
ATOM     86  C   UNL     1       3.088   0.235  10.723  1.00  0.00     0.058 A 
ATOM     87  C   UNL     1       3.430  -0.894  11.482  1.00  0.00     0.135 A 
ATOM     88  C   UNL     1       4.064   0.759   9.860  1.00  0.00     0.135 A 
ATOM     89  F   UNL     1       2.538  -1.427  12.331  1.00  0.00    -0.206 F 
ATOM     90  C   UNL     1       4.694  -1.472  11.402  1.00  0.00     0.059 A 
ATOM     91  C   UNL     1       5.324   0.182   9.740  1.00  0.00     0.059 A 
ATOM     92  F   UNL     1       3.787   1.833   9.104  1.00  0.00    -0.206 F 
ATOM     93  C   UNL     1       5.633  -0.929  10.523  1.00  0.00     0.060 A 
BRANCH  93  94
ATOM     94  S   UNL     1       7.251  -1.719  10.386  1.00  0.00     0.124 S 
ATOM     95  O   UNL     1       7.863  -1.361  11.661  1.00  0.00    -0.237 OA
ATOM     96  O   UNL     1       6.890  -3.124  10.222  1.00  0.00    -0.237 OA
ATOM     97  O   UNL     1       7.834  -1.089   9.206  1.00  0.00    -0.744 OA
ENDBRANCH  93  94
ENDBRANCH  61  86
BRANCH  73  98
ATOM     98  C   UNL     1      -0.252   3.564  15.872  1.00  0.00     0.058 A 
ATOM     99  C   UNL     1       0.748   4.489  16.210  1.00  0.00     0.135 A 
ATOM    100  C   UNL     1      -0.935   2.927  16.923  1.00  0.00     0.135 A 
ATOM    101  F   UNL     1       1.432   5.127  15.246  1.00  0.00    -0.206 F 
ATOM    102  C   UNL     1       1.088   4.741  17.535  1.00  0.00     0.059 A 
ATOM    103  C   UNL     1      -0.636   3.190  18.255  1.00  0.00     0.059 A 
ATOM    104  F   UNL     1      -1.913   2.046  16.659  1.00  0.00    -0.206 F 
ATOM    105  C   UNL     1       0.392   4.084  18.551  1.00  0.00     0.060 A 
BRANCH 105 106
ATOM    106  S   UNL     1       0.841   4.420  20.267  1.00  0.00     0.124 S 
ATOM    107  O   UNL     1       2.117   3.720  20.378  1.00  0.00    -0.237 OA
ATOM    108  O   UNL     1       0.913   5.877  20.291  1.00  0.00    -0.237 OA
ATOM    109  O   UNL     1      -0.261   3.839  21.028  1.00  0.00    -0.744 OA
ENDBRANCH 105 106
ENDBRANCH  73  98
ENDBRANCH  47  48
ENDBRANCH  40  42
ENDBRANCH  39  40
ENDBRANCH  38  39
ENDBRANCH  37  38
ENDBRANCH  36  37
ENDBRANCH  35  36
ENDBRANCH  34  35
ENDBRANCH  33  34
ENDBRANCH   1  33
TORSDOF 29
