REMARK SMILES O=C(OCCOCCOCCOCCOC(=O)c1ccc(N2C(=O)[C@@H]3N=NC(c4ccccc4)=C3[C@H]2c2cccc(Br)c2)cc1)c1ccc(-c2c3nc(c(-c4c(F)cc(S(=O)(=O)[O-])cc4F)c4ccc([nH]4)c(-c4c(F)cc(S(=O)(=O)[O-])cc4F)c4nc(c(-c5c(F)cc(S(=O)(=O)[O-])cc5F)c5ccc2[nH]5)C=C4)C=C3)cc1
REMARK SMILES IDX 8 1 7 2 6 3 5 4 4 5 3 6 2 7 1 8 46 9 47 10 111 11 48 12
REMARK SMILES IDX 110 13 49 14 50 15 51 16 104 17 52 18 109 19 103 20 105 21
REMARK SMILES IDX 53 22 108 23 102 24 101 25 54 27 88 28 67 29 87 30 68 31
REMARK SMILES IDX 71 32 86 33 106 34 69 35 70 36 85 38 107 39 72 40 55 41
REMARK SMILES IDX 56 42 65 43 57 44 58 45 64 46 66 47 59 48 60 49 61 50 62 51
REMARK SMILES IDX 63 52 89 53 90 54 99 55 91 56 92 57 98 58 100 59 93 60 94 61
REMARK SMILES IDX 95 62 96 63 97 64 73 65 74 66 83 67 75 68 76 69 82 70 84 71
REMARK SMILES IDX 77 72 78 73 79 74 80 75 81 76 9 77 10 78 11 79 12 80 13 81
REMARK SMILES IDX 14 82 15 83 16 84 17 85 18 86 19 87 45 88 20 89 44 90 21 91
REMARK SMILES IDX 22 92 23 93 36 94 25 95 24 96 35 97 26 98 28 99 27 100
REMARK SMILES IDX 37 101 38 102 43 103 39 104 41 105 40 106 42 107 29 108
REMARK SMILES IDX 30 109 34 110 31 111 33 112 32 113
REMARK H PARENT 105 26 71 37
REMARK Flexibility Score: inf
ROOT
ATOM      1  C   UNL     1       2.220  -1.652  -1.078  1.00  0.00     0.188 C 
ENDROOT
BRANCH   1   2
ATOM      2  C   UNL     1       2.966  -0.361  -1.480  1.00  0.00     0.188 C 
BRANCH   2   3
ATOM      3  O   UNL     1       4.322  -0.057  -1.199  1.00  0.00    -0.376 OA
BRANCH   3   4
ATOM      4  C   UNL     1       5.086  -0.213  -0.022  1.00  0.00     0.202 C 
BRANCH   4   5
ATOM      5  C   UNL     1       4.560  -0.155   1.411  1.00  0.00     0.261 C 
BRANCH   5   6
ATOM      6  O   UNL     1       3.203  -0.522   1.574  1.00  0.00    -0.460 OA
BRANCH   6   7
ATOM      7  C   UNL     1       2.121   0.275   1.492  1.00  0.00     0.338 C 
ATOM      8  O   UNL     1       1.025  -0.224   1.749  1.00  0.00    -0.246 OA
BRANCH   7   9
ATOM      9  C   UNL     1       2.148   1.690   1.029  1.00  0.00     0.060 A 
ATOM     10  C   UNL     1       3.269   2.514   0.890  1.00  0.00     0.016 A 
ATOM     11  C   UNL     1       0.876   2.226   0.751  1.00  0.00     0.016 A 
ATOM     12  C   UNL     1       3.110   3.878   0.764  1.00  0.00     0.010 A 
ATOM     13  C   UNL     1       0.710   3.580   0.578  1.00  0.00     0.010 A 
ATOM     14  C   UNL     1       1.823   4.395   0.713  1.00  0.00    -0.014 A 
BRANCH  14  15
ATOM     15  C   UNL     1       1.672   5.827   0.818  1.00  0.00     0.031 A 
ATOM     16  C   UNL     1       2.163   6.564  -0.367  1.00  0.00     0.074 A 
ATOM     17  C   UNL     1       1.084   6.358   1.907  1.00  0.00     0.049 A 
ATOM     18  N   UNL     1       3.202   7.326  -0.447  1.00  0.00    -0.248 NA
ATOM     19  C   UNL     1       1.545   6.256  -1.667  1.00  0.00     0.031 C 
ATOM     20  C   UNL     1       0.396   5.657   2.997  1.00  0.00     0.029 A 
ATOM     21  N   UNL     1       0.884   7.664   2.217  1.00  0.00    -0.354 N 
ATOM     22  C   UNL     1       3.207   7.805  -1.752  1.00  0.00     0.074 A 
ATOM     23  C   UNL     1       2.319   6.955  -2.499  1.00  0.00     0.031 C 
ATOM     24  C   UNL     1      -0.351   6.540   3.696  1.00  0.00     0.029 A 
ATOM     25  C   UNL     1      -0.084   7.875   3.196  1.00  0.00     0.049 A 
ATOM     26  H   UNL     1       1.380   8.399   1.787  1.00  0.00     0.167 HD
ATOM     27  C   UNL     1       3.720   9.032  -2.046  1.00  0.00     0.037 A 
ATOM     28  C   UNL     1      -0.676   9.066   3.471  1.00  0.00     0.037 A 
ATOM     29  C   UNL     1       4.568   9.508  -0.983  1.00  0.00     0.049 A 
ATOM     30  C   UNL     1       0.235  10.123   2.941  1.00  0.00     0.074 A 
ATOM     31  C   UNL     1       5.734   9.054  -0.399  1.00  0.00     0.029 A 
ATOM     32  N   UNL     1       4.030  10.415  -0.102  1.00  0.00    -0.354 N 
ATOM     33  N   UNL     1       1.430  10.347   3.424  1.00  0.00    -0.248 NA
ATOM     34  C   UNL     1       0.030  10.561   1.567  1.00  0.00     0.031 C 
ATOM     35  C   UNL     1       5.587   9.342   0.989  1.00  0.00     0.029 A 
ATOM     36  C   UNL     1       4.383  10.025   1.165  1.00  0.00     0.049 A 
ATOM     37  H   UNL     1       3.488  11.203  -0.337  1.00  0.00     0.167 HD
ATOM     38  C   UNL     1       2.235  10.555   2.311  1.00  0.00     0.074 A 
ATOM     39  C   UNL     1       1.303  10.732   1.198  1.00  0.00     0.031 C 
ATOM     40  C   UNL     1       3.571  10.268   2.338  1.00  0.00     0.037 A 
BRANCH  27  41
ATOM     41  C   UNL     1       3.141   9.956  -3.089  1.00  0.00     0.058 A 
ATOM     42  C   UNL     1       3.840  11.132  -3.429  1.00  0.00     0.135 A 
ATOM     43  C   UNL     1       1.807   9.884  -3.551  1.00  0.00     0.135 A 
ATOM     44  F   UNL     1       5.110  11.310  -3.032  1.00  0.00    -0.206 F 
ATOM     45  C   UNL     1       3.236  12.186  -4.113  1.00  0.00     0.059 A 
ATOM     46  C   UNL     1       1.204  10.899  -4.282  1.00  0.00     0.059 A 
ATOM     47  F   UNL     1       0.989   8.875  -3.234  1.00  0.00    -0.206 F 
ATOM     48  C   UNL     1       1.912  12.063  -4.524  1.00  0.00     0.060 A 
BRANCH  48  49
ATOM     49  S   UNL     1       1.101  13.454  -5.328  1.00  0.00     0.124 S 
ATOM     50  O   UNL     1       1.015  14.414  -4.233  1.00  0.00    -0.237 OA
ATOM     51  O   UNL     1       2.046  13.778  -6.392  1.00  0.00    -0.237 OA
ATOM     52  O   UNL     1      -0.169  12.890  -5.775  1.00  0.00    -0.744 OA
ENDBRANCH  48  49
ENDBRANCH  27  41
BRANCH  28  53
ATOM     53  C   UNL     1      -2.120   9.303   3.750  1.00  0.00     0.058 A 
ATOM     54  C   UNL     1      -2.581  10.549   4.212  1.00  0.00     0.135 A 
ATOM     55  C   UNL     1      -3.114   8.403   3.310  1.00  0.00     0.135 A 
ATOM     56  F   UNL     1      -1.707  11.478   4.629  1.00  0.00    -0.206 F 
ATOM     57  C   UNL     1      -3.939  10.899   4.195  1.00  0.00     0.059 A 
ATOM     58  C   UNL     1      -4.471   8.724   3.293  1.00  0.00     0.059 A 
ATOM     59  F   UNL     1      -2.791   7.210   2.792  1.00  0.00    -0.206 F 
ATOM     60  C   UNL     1      -4.875   9.984   3.713  1.00  0.00     0.060 A 
BRANCH  60  61
ATOM     61  S   UNL     1      -6.603  10.487   3.519  1.00  0.00     0.124 S 
ATOM     62  O   UNL     1      -7.041  10.606   4.906  1.00  0.00    -0.237 OA
ATOM     63  O   UNL     1      -6.479  11.738   2.779  1.00  0.00    -0.237 OA
ATOM     64  O   UNL     1      -7.196   9.381   2.771  1.00  0.00    -0.744 OA
ENDBRANCH  60  61
ENDBRANCH  28  53
BRANCH  40  65
ATOM     65  C   UNL     1       4.217   9.980   3.669  1.00  0.00     0.058 A 
ATOM     66  C   UNL     1       3.922   8.866   4.477  1.00  0.00     0.135 A 
ATOM     67  C   UNL     1       5.303  10.779   4.054  1.00  0.00     0.135 A 
ATOM     68  F   UNL     1       2.969   7.992   4.123  1.00  0.00    -0.206 F 
ATOM     69  C   UNL     1       4.651   8.585   5.636  1.00  0.00     0.059 A 
ATOM     70  C   UNL     1       6.063  10.500   5.186  1.00  0.00     0.059 A 
ATOM     71  F   UNL     1       5.677  11.818   3.289  1.00  0.00    -0.206 F 
ATOM     72  C   UNL     1       5.723   9.408   5.981  1.00  0.00     0.060 A 
BRANCH  72  73
ATOM     73  S   UNL     1       6.713   9.010   7.439  1.00  0.00     0.124 S 
ATOM     74  O   UNL     1       5.790   9.311   8.528  1.00  0.00    -0.237 OA
ATOM     75  O   UNL     1       7.017   7.596   7.238  1.00  0.00    -0.237 OA
ATOM     76  O   UNL     1       7.861   9.906   7.328  1.00  0.00    -0.744 OA
ENDBRANCH  72  73
ENDBRANCH  40  65
ENDBRANCH  14  15
ENDBRANCH   7   9
ENDBRANCH   6   7
ENDBRANCH   5   6
ENDBRANCH   4   5
ENDBRANCH   3   4
ENDBRANCH   2   3
ENDBRANCH   1   2
BRANCH   1  77
ATOM     77  O   UNL     1       2.742  -2.900  -1.499  1.00  0.00    -0.377 OA
BRANCH  77  78
ATOM     78  C   UNL     1       4.071  -3.132  -1.090  1.00  0.00     0.188 C 
BRANCH  78  79
ATOM     79  C   UNL     1       5.093  -2.885  -2.214  1.00  0.00     0.188 C 
BRANCH  79  80
ATOM     80  O   UNL     1       4.691  -2.335  -3.456  1.00  0.00    -0.376 OA
BRANCH  80  81
ATOM     81  C   UNL     1       3.510  -2.787  -4.098  1.00  0.00     0.202 C 
BRANCH  81  82
ATOM     82  C   UNL     1       3.095  -4.274  -4.153  1.00  0.00     0.261 C 
BRANCH  82  83
ATOM     83  O   UNL     1       3.500  -5.143  -3.081  1.00  0.00    -0.460 OA
BRANCH  83  84
ATOM     84  C   UNL     1       4.602  -5.886  -3.305  1.00  0.00     0.338 C 
ATOM     85  O   UNL     1       5.294  -5.894  -4.321  1.00  0.00    -0.246 OA
BRANCH  84  86
ATOM     86  C   UNL     1       4.990  -6.630  -2.088  1.00  0.00     0.060 A 
ATOM     87  C   UNL     1       6.156  -6.248  -1.416  1.00  0.00     0.018 A 
ATOM     88  C   UNL     1       4.285  -7.760  -1.664  1.00  0.00     0.018 A 
ATOM     89  C   UNL     1       6.618  -6.993  -0.334  1.00  0.00     0.027 A 
ATOM     90  C   UNL     1       4.792  -8.550  -0.613  1.00  0.00     0.027 A 
ATOM     91  C   UNL     1       5.970  -8.177   0.042  1.00  0.00     0.045 A 
BRANCH  91  92
ATOM     92  N   UNL     1       6.555  -8.990   1.058  1.00  0.00    -0.299 N 
ATOM     93  C   UNL     1       6.921  -8.325   2.275  1.00  0.00     0.259 C 
ATOM     94  C   UNL     1       7.598  -9.976   0.672  1.00  0.00     0.152 C 
ATOM     95  C   UNL     1       8.212  -8.927   2.754  1.00  0.00     0.248 C 
ATOM     96  O   UNL     1       6.325  -7.399   2.808  1.00  0.00    -0.271 OA
ATOM     97  C   UNL     1       8.717  -9.373   1.433  1.00  0.00     0.021 C 
ATOM     98  N   UNL     1       9.247  -7.983   3.184  1.00  0.00    -0.170 NA
ATOM     99  C   UNL     1       9.939  -8.859   1.306  1.00  0.00     0.097 C 
ATOM    100  N   UNL     1      10.245  -8.087   2.414  1.00  0.00    -0.154 NA
BRANCH  94 101
ATOM    101  C   UNL     1       7.315 -11.411   1.167  1.00  0.00    -0.020 A 
ATOM    102  C   UNL     1       8.224 -12.086   2.021  1.00  0.00     0.006 A 
ATOM    103  C   UNL     1       6.169 -12.119   0.773  1.00  0.00     0.022 A 
ATOM    104  C   UNL     1       7.973 -13.363   2.523  1.00  0.00     0.002 A 
ATOM    105  C   UNL     1       5.941 -13.421   1.250  1.00  0.00     0.018 A 
ATOM    106  C   UNL     1       6.826 -14.036   2.136  1.00  0.00     0.016 A 
ATOM    107  Br  UNL     1       4.417 -14.387   0.677  1.00  0.00    -0.051 Br
ENDBRANCH  94 101
BRANCH  99 108
ATOM    108  C   UNL     1      10.870  -8.786   0.178  1.00  0.00     0.002 A 
ATOM    109  C   UNL     1      11.835  -9.780  -0.030  1.00  0.00     0.010 A 
ATOM    110  C   UNL     1      11.009  -7.552  -0.476  1.00  0.00     0.010 A 
ATOM    111  C   UNL     1      12.976  -9.498  -0.793  1.00  0.00     0.001 A 
ATOM    112  C   UNL     1      12.149  -7.273  -1.230  1.00  0.00     0.001 A 
ATOM    113  C   UNL     1      13.146  -8.235  -1.362  1.00  0.00     0.000 A 
ENDBRANCH  99 108
ENDBRANCH  91  92
ENDBRANCH  84  86
ENDBRANCH  83  84
ENDBRANCH  82  83
ENDBRANCH  81  82
ENDBRANCH  80  81
ENDBRANCH  79  80
ENDBRANCH  78  79
ENDBRANCH  77  78
ENDBRANCH   1  77
TORSDOF 26
