REMARK SMILES CC(C)C(=O)Nc1ccc2c([C@H](C(=O)OCCOCCOCCOCCOC(=O)c3ccc(-c4c5nc(c(-c6c(F)cc(S(=O)(=O)[O-])cc6F)c6ccc([nH]6)c(-c6c(F)cc(S(=O)(=O)[O-])cc6F)c6nc(c(-c7c(F)cc(S(=O)(=O)[O-])cc7F)c7ccc4[nH]7)C=C6)C=C5)cc3)[NH+]3CC[NH+](CC(=O)N(C)C)CC3)c[nH]c2c1
REMARK SMILES IDX 21 1 20 2 19 3 18 4 17 5 16 6 15 7 13 8 14 9 12 10 11 11
REMARK SMILES IDX 7 12 8 13 111 14 9 15 110 16 10 17 109 18 108 19 6 21 4 22
REMARK SMILES IDX 5 23 2 25 1 26 3 27 96 28 97 29 107 30 98 32 106 33 99 34
REMARK SMILES IDX 100 36 101 37 102 38 103 39 104 40 105 41 22 42 23 43 24 44
REMARK SMILES IDX 25 45 26 46 27 47 28 48 29 49 30 50 31 51 95 52 32 53 94 54
REMARK SMILES IDX 33 55 34 56 35 57 88 58 36 59 93 60 87 61 89 62 37 63 92 64
REMARK SMILES IDX 86 65 85 66 38 68 72 69 51 70 71 71 52 72 55 73 70 74 90 75
REMARK SMILES IDX 53 76 54 77 69 79 91 80 56 81 39 82 40 83 49 84 41 85 42 86
REMARK SMILES IDX 48 87 50 88 43 89 44 90 45 91 46 92 47 93 73 94 74 95 83 96
REMARK SMILES IDX 75 97 76 98 82 99 84 100 77 101 78 102 79 103 80 104 81 105
REMARK SMILES IDX 57 106 58 107 67 108 59 109 60 110 66 111 68 112 61 113
REMARK SMILES IDX 62 114 63 115 64 116 65 117
REMARK H PARENT 109 20 6 24 96 31 99 35 89 67 55 78
REMARK Flexibility Score: inf
ROOT
ATOM      1  O   UNL     1       0.920  -1.949  -1.217  1.00  0.00    -0.377 OA
ENDROOT
BRANCH   1   2
ATOM      2  C   UNL     1       1.151  -3.316  -1.503  1.00  0.00     0.188 C 
BRANCH   2   3
ATOM      3  C   UNL     1       0.170  -4.127  -2.401  1.00  0.00     0.188 C 
BRANCH   3   4
ATOM      4  O   UNL     1      -1.179  -3.729  -2.250  1.00  0.00    -0.376 OA
BRANCH   4   5
ATOM      5  C   UNL     1      -2.005  -4.705  -1.639  1.00  0.00     0.202 C 
BRANCH   5   6
ATOM      6  C   UNL     1      -1.669  -4.977  -0.170  1.00  0.00     0.261 C 
BRANCH   6   7
ATOM      7  O   UNL     1      -0.332  -5.446   0.128  1.00  0.00    -0.459 OA
BRANCH   7   8
ATOM      8  C   UNL     1       0.104  -6.654  -0.347  1.00  0.00     0.370 C 
ATOM      9  O   UNL     1      -0.546  -7.360  -1.108  1.00  0.00    -0.245 OA
BRANCH   8  10
ATOM     10  C   UNL     1       1.470  -6.997   0.301  1.00  0.00     0.328 C 
BRANCH  10  11
ATOM     11  C   UNL     1       1.310  -8.097   1.323  1.00  0.00     0.046 A 
ATOM     12  C   UNL     1       3.988 -10.105   3.829  1.00  0.00     0.043 A 
ATOM     13  C   UNL     1       4.563  -9.188   2.962  1.00  0.00     0.027 A 
ATOM     14  C   UNL     1       2.638 -10.457   3.726  1.00  0.00     0.052 A 
ATOM     15  C   UNL     1       3.769  -8.446   2.099  1.00  0.00     0.013 A 
ATOM     16  C   UNL     1       1.850  -9.691   2.860  1.00  0.00     0.048 A 
ATOM     17  C   UNL     1       2.383  -8.679   2.067  1.00  0.00     0.009 A 
ATOM     18  N   UNL     1       0.497  -9.716   2.624  1.00  0.00    -0.361 N 
ATOM     19  C   UNL     1       0.155  -8.742   1.728  1.00  0.00     0.094 A 
ATOM     20  H   UNL     1      -0.135 -10.345   3.040  1.00  0.00     0.166 HD
BRANCH  12  21
ATOM     21  N   UNL     1       4.743 -10.683   4.847  1.00  0.00    -0.326 N 
ATOM     22  C   UNL     1       5.577 -10.078   5.744  1.00  0.00     0.226 C 
ATOM     23  O   UNL     1       6.267 -10.816   6.460  1.00  0.00    -0.274 OA
ATOM     24  H   UNL     1       4.665 -11.661   4.931  1.00  0.00     0.169 HD
BRANCH  22  25
ATOM     25  C   UNL     1       5.620  -8.553   5.967  1.00  0.00     0.072 C 
ATOM     26  C   UNL     1       6.522  -7.779   5.013  1.00  0.00     0.018 C 
ATOM     27  C   UNL     1       4.253  -7.891   6.145  1.00  0.00     0.018 C 
ENDBRANCH  22  25
ENDBRANCH  12  21
ENDBRANCH  10  11
BRANCH  10  28
ATOM     28  N   UNL     1       2.579  -7.410  -0.589  1.00  0.00    -0.310 N 
ATOM     29  C   UNL     1       2.357  -8.401  -1.634  1.00  0.00     0.325 C 
ATOM     30  C   UNL     1       3.553  -6.406  -0.983  1.00  0.00     0.325 C 
ATOM     31  H   UNL     1       3.018  -7.960   0.149  1.00  0.00     0.349 HD
ATOM     32  C   UNL     1       2.132  -7.837  -3.063  1.00  0.00     0.325 C 
ATOM     33  C   UNL     1       3.130  -5.748  -2.287  1.00  0.00     0.325 C 
ATOM     34  N   UNL     1       2.821  -6.591  -3.428  1.00  0.00    -0.318 N 
ATOM     35  H   UNL     1       2.107  -6.084  -3.952  1.00  0.00     0.348 HD
BRANCH  34  36
ATOM     36  C   UNL     1       3.868  -6.677  -4.448  1.00  0.00     0.364 C 
BRANCH  36  37
ATOM     37  C   UNL     1       5.218  -7.119  -3.879  1.00  0.00     0.277 C 
ATOM     38  O   UNL     1       5.489  -8.323  -3.829  1.00  0.00    -0.268 OA
ATOM     39  N   UNL     1       6.079  -6.155  -3.351  1.00  0.00    -0.344 N 
ATOM     40  C   UNL     1       6.037  -4.716  -3.591  1.00  0.00     0.146 C 
ATOM     41  C   UNL     1       7.169  -6.616  -2.511  1.00  0.00     0.146 C 
ENDBRANCH  36  37
ENDBRANCH  34  36
ENDBRANCH  10  28
ENDBRANCH   8  10
ENDBRANCH   7   8
ENDBRANCH   6   7
ENDBRANCH   5   6
ENDBRANCH   4   5
ENDBRANCH   3   4
ENDBRANCH   2   3
ENDBRANCH   1   2
BRANCH   1  42
ATOM     42  C   UNL     1       0.044  -1.258  -2.084  1.00  0.00     0.188 C 
BRANCH  42  43
ATOM     43  C   UNL     1       0.343  -1.318  -3.600  1.00  0.00     0.188 C 
BRANCH  43  44
ATOM     44  O   UNL     1       1.377  -2.229  -3.956  1.00  0.00    -0.376 OA
BRANCH  44  45
ATOM     45  C   UNL     1       2.567  -1.731  -4.531  1.00  0.00     0.202 C 
BRANCH  45  46
ATOM     46  C   UNL     1       3.522  -1.008  -3.575  1.00  0.00     0.261 C 
BRANCH  46  47
ATOM     47  O   UNL     1       2.928   0.006  -2.762  1.00  0.00    -0.460 OA
BRANCH  47  48
ATOM     48  C   UNL     1       2.462   1.108  -3.400  1.00  0.00     0.338 C 
ATOM     49  O   UNL     1       2.542   1.356  -4.579  1.00  0.00    -0.246 OA
BRANCH  48  50
ATOM     50  C   UNL     1       1.610   1.819  -2.419  1.00  0.00     0.060 A 
ATOM     51  C   UNL     1       0.265   2.043  -2.747  1.00  0.00     0.016 A 
ATOM     52  C   UNL     1       2.097   2.135  -1.147  1.00  0.00     0.016 A 
ATOM     53  C   UNL     1      -0.609   2.538  -1.783  1.00  0.00     0.010 A 
ATOM     54  C   UNL     1       1.237   2.698  -0.204  1.00  0.00     0.010 A 
ATOM     55  C   UNL     1      -0.114   2.911  -0.527  1.00  0.00    -0.014 A 
BRANCH  55  56
ATOM     56  C   UNL     1      -0.943   3.805   0.305  1.00  0.00     0.031 A 
ATOM     57  C   UNL     1      -0.833   5.276   0.015  1.00  0.00     0.074 A 
ATOM     58  C   UNL     1      -1.789   3.336   1.238  1.00  0.00     0.049 A 
ATOM     59  N   UNL     1      -1.445   6.281   0.577  1.00  0.00    -0.248 NA
ATOM     60  C   UNL     1       0.095   5.662  -1.065  1.00  0.00     0.031 C 
ATOM     61  C   UNL     1      -2.001   1.926   1.563  1.00  0.00     0.029 A 
ATOM     62  N   UNL     1      -2.629   4.008   2.089  1.00  0.00    -0.354 N 
ATOM     63  C   UNL     1      -0.980   7.412  -0.082  1.00  0.00     0.074 A 
ATOM     64  C   UNL     1      -0.020   6.979  -1.068  1.00  0.00     0.031 C 
ATOM     65  C   UNL     1      -2.901   1.841   2.560  1.00  0.00     0.029 A 
ATOM     66  C   UNL     1      -3.307   3.188   2.959  1.00  0.00     0.049 A 
ATOM     67  H   UNL     1      -2.736   4.987   2.077  1.00  0.00     0.167 HD
ATOM     68  C   UNL     1      -1.328   8.702   0.119  1.00  0.00     0.037 A 
ATOM     69  C   UNL     1      -4.138   3.504   3.973  1.00  0.00     0.037 A 
ATOM     70  C   UNL     1      -2.272   9.120   1.117  1.00  0.00     0.049 A 
ATOM     71  C   UNL     1      -4.455   4.959   4.226  1.00  0.00     0.074 A 
ATOM     72  C   UNL     1      -2.705  10.400   1.406  1.00  0.00     0.029 A 
ATOM     73  N   UNL     1      -2.915   8.265   2.001  1.00  0.00    -0.354 N 
ATOM     74  N   UNL     1      -4.037   6.022   3.576  1.00  0.00    -0.248 NA
ATOM     75  C   UNL     1      -5.362   5.260   5.342  1.00  0.00     0.031 C 
ATOM     76  C   UNL     1      -3.564  10.327   2.505  1.00  0.00     0.029 A 
ATOM     77  C   UNL     1      -3.721   8.994   2.857  1.00  0.00     0.049 A 
ATOM     78  H   UNL     1      -2.813   7.286   2.016  1.00  0.00     0.167 HD
ATOM     79  C   UNL     1      -4.652   7.111   4.186  1.00  0.00     0.074 A 
ATOM     80  C   UNL     1      -5.482   6.577   5.246  1.00  0.00     0.031 C 
ATOM     81  C   UNL     1      -4.546   8.433   3.898  1.00  0.00     0.037 A 
BRANCH  68  82
ATOM     82  C   UNL     1      -0.654   9.744  -0.724  1.00  0.00     0.058 A 
ATOM     83  C   UNL     1      -0.936   9.892  -2.091  1.00  0.00     0.135 A 
ATOM     84  C   UNL     1       0.270  10.629  -0.145  1.00  0.00     0.135 A 
ATOM     85  F   UNL     1      -1.784   9.049  -2.703  1.00  0.00    -0.206 F 
ATOM     86  C   UNL     1      -0.322  10.877  -2.856  1.00  0.00     0.059 A 
ATOM     87  C   UNL     1       0.874  11.639  -0.884  1.00  0.00     0.059 A 
ATOM     88  F   UNL     1       0.591  10.516   1.154  1.00  0.00    -0.206 F 
ATOM     89  C   UNL     1       0.576  11.752  -2.241  1.00  0.00     0.060 A 
BRANCH  89  90
ATOM     90  S   UNL     1       1.332  13.052  -3.239  1.00  0.00     0.124 S 
ATOM     91  O   UNL     1       2.235  12.280  -4.087  1.00  0.00    -0.237 OA
ATOM     92  O   UNL     1       0.176  13.637  -3.910  1.00  0.00    -0.237 OA
ATOM     93  O   UNL     1       1.979  13.907  -2.249  1.00  0.00    -0.744 OA
ENDBRANCH  89  90
ENDBRANCH  68  82
BRANCH  69  94
ATOM     94  C   UNL     1      -4.706   2.437   4.844  1.00  0.00     0.058 A 
ATOM     95  C   UNL     1      -6.082   2.164   4.869  1.00  0.00     0.135 A 
ATOM     96  C   UNL     1      -3.880   1.685   5.695  1.00  0.00     0.135 A 
ATOM     97  F   UNL     1      -6.918   2.862   4.086  1.00  0.00    -0.206 F 
ATOM     98  C   UNL     1      -6.621   1.202   5.720  1.00  0.00     0.059 A 
ATOM     99  C   UNL     1      -4.391   0.698   6.533  1.00  0.00     0.059 A 
ATOM    100  F   UNL     1      -2.555   1.899   5.710  1.00  0.00    -0.206 F 
ATOM    101  C   UNL     1      -5.766   0.472   6.548  1.00  0.00     0.060 A 
BRANCH 101 102
ATOM    102  S   UNL     1      -6.471  -0.797   7.622  1.00  0.00     0.124 S 
ATOM    103  O   UNL     1      -7.159   0.012   8.622  1.00  0.00    -0.237 OA
ATOM    104  O   UNL     1      -7.327  -1.537   6.700  1.00  0.00    -0.237 OA
ATOM    105  O   UNL     1      -5.298  -1.525   8.097  1.00  0.00    -0.744 OA
ENDBRANCH 101 102
ENDBRANCH  69  94
BRANCH  81 106
ATOM    106  C   UNL     1      -5.376   9.392   4.707  1.00  0.00     0.058 A 
ATOM    107  C   UNL     1      -5.088   9.671   6.052  1.00  0.00     0.135 A 
ATOM    108  C   UNL     1      -6.438  10.088   4.105  1.00  0.00     0.135 A 
ATOM    109  F   UNL     1      -4.084   9.034   6.675  1.00  0.00    -0.206 F 
ATOM    110  C   UNL     1      -5.843  10.584   6.780  1.00  0.00     0.059 A 
ATOM    111  C   UNL     1      -7.184  11.030   4.805  1.00  0.00     0.059 A 
ATOM    112  F   UNL     1      -6.745   9.871   2.816  1.00  0.00    -0.206 F 
ATOM    113  C   UNL     1      -6.888  11.260   6.147  1.00  0.00     0.060 A 
BRANCH 113 114
ATOM    114  S   UNL     1      -7.843  12.460   7.098  1.00  0.00     0.124 S 
ATOM    115  O   UNL     1      -8.620  11.589   7.974  1.00  0.00    -0.237 OA
ATOM    116  O   UNL     1      -6.798  13.245   7.747  1.00  0.00    -0.237 OA
ATOM    117  O   UNL     1      -8.610  13.170   6.078  1.00  0.00    -0.744 OA
ENDBRANCH 113 114
ENDBRANCH  81 106
ENDBRANCH  55  56
ENDBRANCH  48  50
ENDBRANCH  47  48
ENDBRANCH  46  47
ENDBRANCH  45  46
ENDBRANCH  44  45
ENDBRANCH  43  44
ENDBRANCH  42  43
ENDBRANCH   1  42
TORSDOF 29
