REMARK SMILES Cc1ccc(-c2nc(NC(=O)[C@H]3[C@@H](C(=O)OCCOCCOCCOCCOC(=O)c4ccc(-c5c6nc(c(-c7c(F)cc(S(=O)(=O)[O-])cc7F)c7ccc([nH]7)c(-c7c(F)cc(S(=O)(=O)[O-])cc7F)c7nc(c(-c8c(F)cc(S(=O)(=O)[O-])cc8F)c8ccc5[nH]8)C=C7)C=C6)cc4)[C@@H]4CC[C@H]3O4)sc2C)cc1
REMARK SMILES IDX 22 1 21 2 20 3 19 4 18 5 17 6 16 7 14 8 15 9 13 10 12 11
REMARK SMILES IDX 100 12 97 13 99 14 101 15 98 16 10 17 9 18 11 20 8 21 6 22
REMARK SMILES IDX 7 23 103 24 102 25 104 26 5 27 1 28 2 29 3 30 106 31 4 32
REMARK SMILES IDX 105 33 23 34 24 35 25 36 26 37 27 38 28 39 29 40 30 41 31 42
REMARK SMILES IDX 32 43 96 44 33 45 95 46 34 47 35 48 36 49 89 50 37 51 94 52
REMARK SMILES IDX 88 53 90 54 38 55 93 56 87 57 86 58 39 60 73 61 52 62 72 63
REMARK SMILES IDX 53 64 56 65 71 66 91 67 54 68 55 69 70 71 92 72 57 73 40 74
REMARK SMILES IDX 41 75 50 76 42 77 43 78 49 79 51 80 44 81 45 82 46 83 47 84
REMARK SMILES IDX 48 85 74 86 75 87 84 88 76 89 77 90 83 91 85 92 78 93 79 94
REMARK SMILES IDX 80 95 81 96 82 97 58 98 59 99 68 100 60 101 61 102 67 103
REMARK SMILES IDX 69 104 62 105 63 106 64 107 65 108 66 109
REMARK H PARENT 9 19 90 59 56 70
REMARK Flexibility Score: inf
ROOT
ATOM      1  O   UNL     1      -9.169  -0.211  -4.731  1.00  0.00    -0.377 OA
ENDROOT
BRANCH   1   2
ATOM      2  C   UNL     1      -9.900   0.648  -3.838  1.00  0.00     0.188 C 
BRANCH   2   3
ATOM      3  C   UNL     1      -9.913   2.209  -3.982  1.00  0.00     0.188 C 
BRANCH   3   4
ATOM      4  O   UNL     1      -8.807   2.977  -3.511  1.00  0.00    -0.376 OA
BRANCH   4   5
ATOM      5  C   UNL     1      -7.894   2.237  -2.758  1.00  0.00     0.202 C 
BRANCH   5   6
ATOM      6  C   UNL     1      -8.319   1.815  -1.403  1.00  0.00     0.261 C 
BRANCH   6   7
ATOM      7  O   UNL     1      -9.621   2.291  -1.057  1.00  0.00    -0.463 OA
BRANCH   7   8
ATOM      8  C   UNL     1     -10.764   1.632  -0.862  1.00  0.00     0.312 C 
ATOM      9  O   UNL     1     -11.813   2.144  -1.271  1.00  0.00    -0.252 OA
BRANCH   8  10
ATOM     10  C   UNL     1     -10.895   0.393  -0.004  1.00  0.00     0.143 C 
ATOM     11  C   UNL     1      -9.778  -0.526   0.458  1.00  0.00     0.124 C 
ATOM     12  C   UNL     1      -9.943  -1.716  -0.570  1.00  0.00     0.132 C 
ATOM     13  C   UNL     1     -11.776  -0.582  -0.794  1.00  0.00     0.133 C 
ATOM     14  C   UNL     1     -10.982  -2.704  -0.048  1.00  0.00     0.035 C 
ATOM     15  O   UNL     1     -10.767  -1.167  -1.631  1.00  0.00    -0.373 OA
ATOM     16  C   UNL     1     -12.204  -1.783   0.066  1.00  0.00     0.036 C 
BRANCH  11  17
ATOM     17  C   UNL     1      -8.343  -0.112   0.689  1.00  0.00     0.232 C 
ATOM     18  N   UNL     1      -7.871   1.032   1.250  1.00  0.00    -0.302 N 
ATOM     19  H   UNL     1      -6.916   0.968   1.482  1.00  0.00     0.172 HD
ATOM     20  O   UNL     1      -7.473  -0.916   0.323  1.00  0.00    -0.274 OA
BRANCH  18  21
ATOM     21  C   UNL     1      -8.402   2.257   1.570  1.00  0.00     0.190 A 
ATOM     22  C   UNL     1      -8.445   4.600   1.559  1.00  0.00     0.086 A 
ATOM     23  N   UNL     1      -7.743   3.390   1.429  1.00  0.00    -0.220 NA
ATOM     24  C   UNL     1      -9.906   4.031   1.489  1.00  0.00     0.031 A 
ATOM     25  S   UNL     1      -9.911   2.404   2.212  1.00  0.00    -0.101 S 
ATOM     26  C   UNL     1     -11.386   4.386   1.141  1.00  0.00     0.059 C 
BRANCH  22  27
ATOM     27  C   UNL     1      -7.645   6.332   1.603  1.00  0.00     0.001 A 
ATOM     28  C   UNL     1      -7.486  10.799   0.968  1.00  0.00     0.044 C 
ATOM     29  C   UNL     1      -7.236   9.360   1.275  1.00  0.00    -0.051 A 
ATOM     30  C   UNL     1      -6.644   8.434   0.448  1.00  0.00     0.004 A 
ATOM     31  C   UNL     1      -7.694   8.839   2.441  1.00  0.00     0.004 A 
ATOM     32  C   UNL     1      -6.785   7.002   0.668  1.00  0.00     0.010 A 
ATOM     33  C   UNL     1      -7.853   7.436   2.577  1.00  0.00     0.010 A 
ENDBRANCH  22  27
ENDBRANCH  18  21
ENDBRANCH  11  17
ENDBRANCH   8  10
ENDBRANCH   7   8
ENDBRANCH   6   7
ENDBRANCH   5   6
ENDBRANCH   4   5
ENDBRANCH   3   4
ENDBRANCH   2   3
ENDBRANCH   1   2
BRANCH   1  34
ATOM     34  C   UNL     1      -7.779  -0.489  -4.451  1.00  0.00     0.188 C 
BRANCH  34  35
ATOM     35  C   UNL     1      -6.840   0.514  -5.132  1.00  0.00     0.188 C 
BRANCH  35  36
ATOM     36  O   UNL     1      -7.547   1.691  -5.511  1.00  0.00    -0.376 OA
BRANCH  36  37
ATOM     37  C   UNL     1      -8.291   1.633  -6.711  1.00  0.00     0.202 C 
BRANCH  37  38
ATOM     38  C   UNL     1      -7.299   1.639  -7.843  1.00  0.00     0.261 C 
BRANCH  38  39
ATOM     39  O   UNL     1      -6.557   2.895  -7.737  1.00  0.00    -0.460 OA
BRANCH  39  40
ATOM     40  C   UNL     1      -5.388   2.922  -7.015  1.00  0.00     0.338 C 
ATOM     41  O   UNL     1      -4.328   2.528  -7.481  1.00  0.00    -0.246 OA
BRANCH  40  42
ATOM     42  C   UNL     1      -5.464   3.653  -5.688  1.00  0.00     0.060 A 
ATOM     43  C   UNL     1      -4.476   3.481  -4.703  1.00  0.00     0.016 A 
ATOM     44  C   UNL     1      -6.554   4.452  -5.359  1.00  0.00     0.016 A 
ATOM     45  C   UNL     1      -4.662   3.961  -3.380  1.00  0.00     0.010 A 
ATOM     46  C   UNL     1      -6.742   4.911  -4.045  1.00  0.00     0.010 A 
ATOM     47  C   UNL     1      -5.875   4.573  -2.999  1.00  0.00    -0.014 A 
BRANCH  47  48
ATOM     48  C   UNL     1      -6.366   4.655  -1.558  1.00  0.00     0.031 A 
ATOM     49  C   UNL     1      -7.856   5.503  -1.269  1.00  0.00     0.074 A 
ATOM     50  C   UNL     1      -5.646   3.972  -0.574  1.00  0.00     0.049 A 
ATOM     51  N   UNL     1      -8.890   5.253  -0.482  1.00  0.00    -0.248 NA
ATOM     52  C   UNL     1      -8.124   6.803  -1.879  1.00  0.00     0.031 C 
ATOM     53  C   UNL     1      -5.528   4.445   0.766  1.00  0.00     0.029 A 
ATOM     54  N   UNL     1      -4.941   2.710  -0.426  1.00  0.00    -0.354 N 
ATOM     55  C   UNL     1      -9.596   6.467  -0.004  1.00  0.00     0.074 A 
ATOM     56  C   UNL     1      -9.187   7.287  -1.190  1.00  0.00     0.031 C 
ATOM     57  C   UNL     1      -5.298   3.448   1.571  1.00  0.00     0.029 A 
ATOM     58  C   UNL     1      -4.828   2.313   0.943  1.00  0.00     0.049 A 
ATOM     59  H   UNL     1      -4.584   2.189  -1.181  1.00  0.00     0.167 HD
ATOM     60  C   UNL     1     -10.157   6.835   1.417  1.00  0.00     0.037 A 
ATOM     61  C   UNL     1      -4.450   1.342   1.845  1.00  0.00     0.037 A 
ATOM     62  C   UNL     1      -9.977   5.932   3.001  1.00  0.00     0.049 A 
ATOM     63  C   UNL     1      -4.921   1.701   3.473  1.00  0.00     0.074 A 
ATOM     64  C   UNL     1     -10.784   5.361   4.029  1.00  0.00     0.029 A 
ATOM     65  N   UNL     1      -8.674   5.369   3.704  1.00  0.00    -0.354 N 
ATOM     66  N   UNL     1      -5.190   2.935   3.960  1.00  0.00    -0.248 NA
ATOM     67  C   UNL     1      -5.372   0.771   4.525  1.00  0.00     0.031 C 
ATOM     68  C   UNL     1      -9.998   4.424   4.983  1.00  0.00     0.029 A 
ATOM     69  C   UNL     1      -8.641   4.367   4.667  1.00  0.00     0.049 A 
ATOM     70  H   UNL     1      -7.812   5.763   3.436  1.00  0.00     0.167 HD
ATOM     71  C   UNL     1      -6.407   2.889   4.707  1.00  0.00     0.074 A 
ATOM     72  C   UNL     1      -6.216   1.544   5.269  1.00  0.00     0.031 C 
ATOM     73  C   UNL     1      -7.174   3.969   5.213  1.00  0.00     0.037 A 
BRANCH  60  74
ATOM     74  C   UNL     1     -11.059   8.174   1.476  1.00  0.00     0.058 A 
ATOM     75  C   UNL     1     -11.737   8.521   2.661  1.00  0.00     0.135 A 
ATOM     76  C   UNL     1     -11.378   9.080   0.423  1.00  0.00     0.135 A 
ATOM     77  F   UNL     1     -11.480   7.905   3.818  1.00  0.00    -0.206 F 
ATOM     78  C   UNL     1     -12.717   9.533   2.745  1.00  0.00     0.059 A 
ATOM     79  C   UNL     1     -12.317  10.116   0.486  1.00  0.00     0.059 A 
ATOM     80  F   UNL     1     -10.828   9.071  -0.778  1.00  0.00    -0.206 F 
ATOM     81  C   UNL     1     -13.031  10.303   1.638  1.00  0.00     0.060 A 
BRANCH  81  82
ATOM     82  S   UNL     1     -14.339  11.533   1.703  1.00  0.00     0.124 S 
ATOM     83  O   UNL     1     -15.532  10.692   1.746  1.00  0.00    -0.237 OA
ATOM     84  O   UNL     1     -14.023  12.259   2.927  1.00  0.00    -0.237 OA
ATOM     85  O   UNL     1     -14.161  12.293   0.467  1.00  0.00    -0.744 OA
ENDBRANCH  81  82
ENDBRANCH  60  74
BRANCH  61  86
ATOM     86  C   UNL     1      -3.799   0.188   1.082  1.00  0.00     0.058 A 
ATOM     87  C   UNL     1      -4.485  -0.962   0.641  1.00  0.00     0.135 A 
ATOM     88  C   UNL     1      -2.779   0.627   0.191  1.00  0.00     0.135 A 
ATOM     89  F   UNL     1      -5.302  -1.610   1.484  1.00  0.00    -0.206 F 
ATOM     90  C   UNL     1      -4.379  -1.451  -0.691  1.00  0.00     0.059 A 
ATOM     91  C   UNL     1      -2.701   0.208  -1.144  1.00  0.00     0.059 A 
ATOM     92  F   UNL     1      -2.017   1.677   0.538  1.00  0.00    -0.206 F 
ATOM     93  C   UNL     1      -3.543  -0.798  -1.598  1.00  0.00     0.060 A 
BRANCH  93  94
ATOM     94  S   UNL     1      -3.638  -1.081  -3.394  1.00  0.00     0.124 S 
ATOM     95  O   UNL     1      -2.394  -1.804  -3.657  1.00  0.00    -0.237 OA
ATOM     96  O   UNL     1      -4.867  -1.842  -3.565  1.00  0.00    -0.237 OA
ATOM     97  O   UNL     1      -3.694   0.285  -3.904  1.00  0.00    -0.744 OA
ENDBRANCH  93  94
ENDBRANCH  61  86
BRANCH  73  98
ATOM     98  C   UNL     1      -6.376   5.154   5.856  1.00  0.00     0.058 A 
ATOM     99  C   UNL     1      -5.075   5.034   6.396  1.00  0.00     0.135 A 
ATOM    100  C   UNL     1      -6.994   6.409   6.112  1.00  0.00     0.135 A 
ATOM    101  F   UNL     1      -4.367   3.900   6.285  1.00  0.00    -0.206 F 
ATOM    102  C   UNL     1      -4.486   6.039   7.180  1.00  0.00     0.059 A 
ATOM    103  C   UNL     1      -6.410   7.435   6.844  1.00  0.00     0.059 A 
ATOM    104  F   UNL     1      -8.253   6.677   5.753  1.00  0.00    -0.206 F 
ATOM    105  C   UNL     1      -5.191   7.210   7.442  1.00  0.00     0.060 A 
BRANCH 105 106
ATOM    106  S   UNL     1      -4.633   8.314   8.752  1.00  0.00     0.124 S 
ATOM    107  O   UNL     1      -5.004   7.554   9.938  1.00  0.00    -0.237 OA
ATOM    108  O   UNL     1      -3.215   8.447   8.489  1.00  0.00    -0.237 OA
ATOM    109  O   UNL     1      -5.430   9.536   8.524  1.00  0.00    -0.744 OA
ENDBRANCH 105 106
ENDBRANCH  73  98
ENDBRANCH  47  48
ENDBRANCH  40  42
ENDBRANCH  39  40
ENDBRANCH  38  39
ENDBRANCH  37  38
ENDBRANCH  36  37
ENDBRANCH  35  36
ENDBRANCH  34  35
ENDBRANCH   1  34
TORSDOF 26
