REMARK SMILES CC(C)[C@](C)(CC(=O)NC#N)C(=O)OCCOCCOCCOCCOC(=O)c1ccc(-c2c3nc(c(-c4c(F)cc(S(=O)(=O)[O-])cc4F)c4ccc([nH]4)c(-c4c(F)cc(S(=O)(=O)[O-])cc4F)c4nc(c(-c5c(F)cc(S(=O)(=O)[O-])cc5F)c5ccc2[nH]5)C=C4)C=C3)cc1
REMARK SMILES IDX 20 1 19 2 18 3 17 4 16 5 15 6 14 7 12 8 13 9 4 10 5 11 2 12
REMARK SMILES IDX 1 13 3 14 6 15 7 16 8 17 9 18 10 20 11 21 21 22 22 23 23 24
REMARK SMILES IDX 24 25 25 26 26 27 27 28 28 29 29 30 30 31 94 32 31 33 93 34
REMARK SMILES IDX 32 35 33 36 34 37 87 38 35 39 92 40 86 41 88 42 36 43 91 44
REMARK SMILES IDX 85 45 84 46 37 48 71 49 50 50 70 51 51 52 54 53 69 54 89 55
REMARK SMILES IDX 52 56 53 57 68 59 90 60 55 61 38 62 39 63 48 64 40 65 41 66
REMARK SMILES IDX 47 67 49 68 42 69 43 70 44 71 45 72 46 73 72 74 73 75 82 76
REMARK SMILES IDX 74 77 75 78 81 79 83 80 76 81 77 82 78 83 79 84 80 85 56 86
REMARK SMILES IDX 57 87 66 88 58 89 59 90 65 91 67 92 60 93 61 94 62 95 63 96
REMARK SMILES IDX 64 97
REMARK H PARENT 9 19 88 47 54 58
REMARK Flexibility Score: inf
ROOT
ATOM      1  O   UNL     1      -2.291   1.278   3.980  1.00  0.00    -0.377 OA
ENDROOT
BRANCH   1   2
ATOM      2  C   UNL     1      -1.119   1.473   3.224  1.00  0.00     0.188 C 
BRANCH   2   3
ATOM      3  C   UNL     1      -0.767   2.691   2.375  1.00  0.00     0.188 C 
BRANCH   3   4
ATOM      4  O   UNL     1      -1.808   3.589   2.120  1.00  0.00    -0.376 OA
BRANCH   4   5
ATOM      5  C   UNL     1      -2.719   3.424   1.057  1.00  0.00     0.202 C 
BRANCH   5   6
ATOM      6  C   UNL     1      -3.159   2.077   0.432  1.00  0.00     0.261 C 
BRANCH   6   7
ATOM      7  O   UNL     1      -2.653   0.829   0.953  1.00  0.00    -0.463 OA
BRANCH   7   8
ATOM      8  C   UNL     1      -1.601   0.327   0.264  1.00  0.00     0.312 C 
ATOM      9  O   UNL     1      -1.091   0.939  -0.677  1.00  0.00    -0.252 OA
BRANCH   8  10
ATOM     10  C   UNL     1      -1.032  -1.063   0.709  1.00  0.00     0.076 C 
ATOM     11  C   UNL     1       0.489  -0.815   0.689  1.00  0.00     0.024 C 
BRANCH  10  12
ATOM     12  C   UNL     1      -1.511  -1.999  -0.501  1.00  0.00     0.000 C 
ATOM     13  C   UNL     1      -0.397  -2.863  -1.093  1.00  0.00     0.008 C 
ATOM     14  C   UNL     1      -2.736  -2.880  -0.189  1.00  0.00     0.008 C 
ENDBRANCH  10  12
BRANCH  10  15
ATOM     15  C   UNL     1      -1.437  -1.764   2.058  1.00  0.00     0.119 C 
BRANCH  15  16
ATOM     16  C   UNL     1      -0.932  -1.570   3.502  1.00  0.00     0.234 C 
ATOM     17  O   UNL     1      -1.750  -1.570   4.432  1.00  0.00    -0.274 OA
ATOM     18  N   UNL     1       0.360  -1.548   3.898  1.00  0.00    -0.263 N 
ATOM     19  H   UNL     1       0.418  -1.370   4.865  1.00  0.00     0.182 HD
BRANCH  18  20
ATOM     20  C   UNL     1       1.578  -1.695   3.382  1.00  0.00     0.183 C 
ATOM     21  N   UNL     1       2.670  -1.794   3.001  1.00  0.00    -0.172 NA
ENDBRANCH  18  20
ENDBRANCH  15  16
ENDBRANCH  10  15
ENDBRANCH   8  10
ENDBRANCH   7   8
ENDBRANCH   6   7
ENDBRANCH   5   6
ENDBRANCH   4   5
ENDBRANCH   3   4
ENDBRANCH   2   3
ENDBRANCH   1   2
BRANCH   1  22
ATOM     22  C   UNL     1      -3.251   2.298   4.104  1.00  0.00     0.188 C 
BRANCH  22  23
ATOM     23  C   UNL     1      -2.761   3.568   4.803  1.00  0.00     0.188 C 
BRANCH  23  24
ATOM     24  O   UNL     1      -1.450   3.594   5.332  1.00  0.00    -0.376 OA
BRANCH  24  25
ATOM     25  C   UNL     1      -0.974   2.610   6.232  1.00  0.00     0.202 C 
BRANCH  25  26
ATOM     26  C   UNL     1      -1.818   1.649   7.091  1.00  0.00     0.261 C 
BRANCH  26  27
ATOM     27  O   UNL     1      -3.223   1.581   6.885  1.00  0.00    -0.460 OA
BRANCH  27  28
ATOM     28  C   UNL     1      -3.959   2.497   7.548  1.00  0.00     0.338 C 
ATOM     29  O   UNL     1      -3.550   3.389   8.268  1.00  0.00    -0.246 OA
BRANCH  28  30
ATOM     30  C   UNL     1      -5.360   2.347   7.112  1.00  0.00     0.060 A 
ATOM     31  C   UNL     1      -5.957   3.385   6.385  1.00  0.00     0.016 A 
ATOM     32  C   UNL     1      -6.081   1.196   7.434  1.00  0.00     0.016 A 
ATOM     33  C   UNL     1      -7.290   3.293   6.004  1.00  0.00     0.010 A 
ATOM     34  C   UNL     1      -7.430   1.120   7.083  1.00  0.00     0.010 A 
ATOM     35  C   UNL     1      -8.044   2.185   6.401  1.00  0.00    -0.014 A 
BRANCH  35  36
ATOM     36  C   UNL     1      -9.517   2.246   6.285  1.00  0.00     0.031 A 
ATOM     37  C   UNL     1     -10.310   2.588   7.516  1.00  0.00     0.074 A 
ATOM     38  C   UNL     1     -10.125   2.047   5.104  1.00  0.00     0.049 A 
ATOM     39  N   UNL     1     -11.605   2.648   7.676  1.00  0.00    -0.248 NA
ATOM     40  C   UNL     1      -9.537   2.899   8.730  1.00  0.00     0.031 C 
ATOM     41  C   UNL     1      -9.444   1.774   3.840  1.00  0.00     0.029 A 
ATOM     42  N   UNL     1     -11.457   2.037   4.781  1.00  0.00    -0.354 N 
ATOM     43  C   UNL     1     -11.802   2.983   9.011  1.00  0.00     0.074 A 
ATOM     44  C   UNL     1     -10.496   3.085   9.623  1.00  0.00     0.031 C 
ATOM     45  C   UNL     1     -10.366   1.610   2.876  1.00  0.00     0.029 A 
ATOM     46  C   UNL     1     -11.699   1.722   3.466  1.00  0.00     0.049 A 
ATOM     47  H   UNL     1     -12.171   2.236   5.428  1.00  0.00     0.167 HD
ATOM     48  C   UNL     1     -12.970   3.189   9.662  1.00  0.00     0.037 A 
ATOM     49  C   UNL     1     -12.866   1.518   2.824  1.00  0.00     0.037 A 
ATOM     50  C   UNL     1     -14.261   3.080   9.033  1.00  0.00     0.049 A 
ATOM     51  C   UNL     1     -14.155   1.670   3.591  1.00  0.00     0.074 A 
ATOM     52  C   UNL     1     -15.509   3.285   9.593  1.00  0.00     0.029 A 
ATOM     53  N   UNL     1     -14.470   2.721   7.708  1.00  0.00    -0.354 N 
ATOM     54  N   UNL     1     -14.335   2.004   4.848  1.00  0.00    -0.248 NA
ATOM     55  C   UNL     1     -15.400   1.421   2.853  1.00  0.00     0.031 C 
ATOM     56  C   UNL     1     -16.473   2.974   8.630  1.00  0.00     0.029 A 
ATOM     57  C   UNL     1     -15.828   2.660   7.444  1.00  0.00     0.049 A 
ATOM     58  H   UNL     1     -13.759   2.536   7.054  1.00  0.00     0.167 HD
ATOM     59  C   UNL     1     -15.712   2.042   5.041  1.00  0.00     0.074 A 
ATOM     60  C   UNL     1     -16.317   1.707   3.768  1.00  0.00     0.031 C 
ATOM     61  C   UNL     1     -16.414   2.331   6.166  1.00  0.00     0.037 A 
BRANCH  48  62
ATOM     62  C   UNL     1     -12.909   3.503  11.133  1.00  0.00     0.058 A 
ATOM     63  C   UNL     1     -12.385   4.711  11.621  1.00  0.00     0.135 A 
ATOM     64  C   UNL     1     -13.415   2.586  12.070  1.00  0.00     0.135 A 
ATOM     65  F   UNL     1     -11.868   5.617  10.776  1.00  0.00    -0.206 F 
ATOM     66  C   UNL     1     -12.340   4.986  12.985  1.00  0.00     0.059 A 
ATOM     67  C   UNL     1     -13.414   2.856  13.434  1.00  0.00     0.059 A 
ATOM     68  F   UNL     1     -13.922   1.412  11.662  1.00  0.00    -0.206 F 
ATOM     69  C   UNL     1     -12.862   4.053  13.883  1.00  0.00     0.060 A 
BRANCH  69  70
ATOM     70  S   UNL     1     -12.810   4.434  15.647  1.00  0.00     0.124 S 
ATOM     71  O   UNL     1     -11.378   4.365  15.919  1.00  0.00    -0.237 OA
ATOM     72  O   UNL     1     -13.400   5.768  15.692  1.00  0.00    -0.237 OA
ATOM     73  O   UNL     1     -13.613   3.374  16.249  1.00  0.00    -0.744 OA
ENDBRANCH  69  70
ENDBRANCH  48  62
BRANCH  49  74
ATOM     74  C   UNL     1     -12.870   1.136   1.386  1.00  0.00     0.058 A 
ATOM     75  C   UNL     1     -13.390   1.996   0.408  1.00  0.00     0.135 A 
ATOM     76  C   UNL     1     -12.352  -0.098   0.959  1.00  0.00     0.135 A 
ATOM     77  F   UNL     1     -13.908   3.182   0.765  1.00  0.00    -0.206 F 
ATOM     78  C   UNL     1     -13.412   1.644  -0.937  1.00  0.00     0.059 A 
ATOM     79  C   UNL     1     -12.331  -0.459  -0.384  1.00  0.00     0.059 A 
ATOM     80  F   UNL     1     -11.833  -0.956   1.851  1.00  0.00    -0.206 F 
ATOM     81  C   UNL     1     -12.872   0.416  -1.324  1.00  0.00     0.060 A 
BRANCH  81  82
ATOM     82  S   UNL     1     -12.854  -0.003  -3.080  1.00  0.00     0.124 S 
ATOM     83  O   UNL     1     -14.273  -0.191  -3.354  1.00  0.00    -0.237 OA
ATOM     84  O   UNL     1     -12.241   1.185  -3.667  1.00  0.00    -0.237 OA
ATOM     85  O   UNL     1     -12.035  -1.211  -3.129  1.00  0.00    -0.744 OA
ENDBRANCH  81  82
ENDBRANCH  49  74
BRANCH  61  86
ATOM     86  C   UNL     1     -17.917   2.351   6.065  1.00  0.00     0.058 A 
ATOM     87  C   UNL     1     -18.669   1.181   5.875  1.00  0.00     0.135 A 
ATOM     88  C   UNL     1     -18.619   3.559   6.221  1.00  0.00     0.135 A 
ATOM     89  F   UNL     1     -18.052  -0.001   5.715  1.00  0.00    -0.206 F 
ATOM     90  C   UNL     1     -20.059   1.212   5.812  1.00  0.00     0.059 A 
ATOM     91  C   UNL     1     -20.008   3.608   6.202  1.00  0.00     0.059 A 
ATOM     92  F   UNL     1     -17.952   4.708   6.417  1.00  0.00    -0.206 F 
ATOM     93  C   UNL     1     -20.720   2.430   5.983  1.00  0.00     0.060 A 
BRANCH  93  94
ATOM     94  S   UNL     1     -22.523   2.447   5.936  1.00  0.00     0.124 S 
ATOM     95  O   UNL     1     -22.784   2.168   4.527  1.00  0.00    -0.237 OA
ATOM     96  O   UNL     1     -22.868   1.379   6.869  1.00  0.00    -0.237 OA
ATOM     97  O   UNL     1     -22.864   3.795   6.380  1.00  0.00    -0.744 OA
ENDBRANCH  93  94
ENDBRANCH  61  86
ENDBRANCH  35  36
ENDBRANCH  28  30
ENDBRANCH  27  28
ENDBRANCH  26  27
ENDBRANCH  25  26
ENDBRANCH  24  25
ENDBRANCH  23  24
ENDBRANCH  22  23
ENDBRANCH   1  22
TORSDOF 27
