REMARK SMILES Cc1c(-c2nn(-c3ccccc3)cc2/C=N/O)nnn1-c1ccc(C(=O)OCCOCCOCCOCCOC(=O)c2ccc(-c3c4nc(c(-c5c(F)cc(S(=O)(=O)[O-])cc5F)c5ccc([nH]5)c(-c5c(F)cc(S(=O)(=O)[O-])cc5F)c5nc(c(-c6c(F)cc(S(=O)(=O)[O-])cc6F)c6ccc3[nH]6)C=C5)C=C4)cc2)cc1
REMARK SMILES IDX 32 1 31 2 30 3 29 4 28 5 27 6 25 7 26 8 24 9 21 10 22 11
REMARK SMILES IDX 109 12 23 13 108 14 20 15 1 16 2 17 3 18 18 19 19 20 4 21
REMARK SMILES IDX 5 22 14 23 6 24 13 25 15 26 16 27 17 28 7 30 8 31 12 32 9 33
REMARK SMILES IDX 11 34 10 35 33 36 34 37 35 38 36 39 37 40 38 41 39 42 40 43
REMARK SMILES IDX 41 44 42 45 43 46 107 47 44 48 106 49 45 50 46 51 47 52
REMARK SMILES IDX 100 53 48 54 105 55 99 56 101 57 49 58 104 59 98 60 97 61
REMARK SMILES IDX 50 63 84 64 63 65 83 66 64 67 67 68 82 69 102 70 65 71 66 72
REMARK SMILES IDX 81 74 103 75 68 76 51 77 52 78 61 79 53 80 54 81 60 82 62 83
REMARK SMILES IDX 55 84 56 85 57 86 58 87 59 88 85 89 86 90 95 91 87 92 88 93
REMARK SMILES IDX 94 94 96 95 89 96 90 97 91 98 92 99 93 100 69 101 70 102
REMARK SMILES IDX 79 103 71 104 72 105 78 106 80 107 73 108 74 109 75 110
REMARK SMILES IDX 76 111 77 112
REMARK H PARENT 17 29 101 62 67 73
REMARK Flexibility Score: inf
ROOT
ATOM      1  C   UNL     1      -6.640   0.513  -1.345  1.00  0.00     0.188 C 
ENDROOT
BRANCH   1   2
ATOM      2  C   UNL     1      -7.021   0.850   0.113  1.00  0.00     0.188 C 
BRANCH   2   3
ATOM      3  O   UNL     1      -7.769   2.014   0.426  1.00  0.00    -0.376 OA
BRANCH   3   4
ATOM      4  C   UNL     1      -7.436   3.302  -0.058  1.00  0.00     0.202 C 
BRANCH   4   5
ATOM      5  C   UNL     1      -6.011   3.784  -0.388  1.00  0.00     0.261 C 
BRANCH   5   6
ATOM      6  O   UNL     1      -4.993   2.799  -0.536  1.00  0.00    -0.460 OA
BRANCH   6   7
ATOM      7  C   UNL     1      -4.346   2.460   0.598  1.00  0.00     0.338 C 
ATOM      8  O   UNL     1      -4.508   2.930   1.710  1.00  0.00    -0.246 OA
BRANCH   7   9
ATOM      9  C   UNL     1      -3.499   1.280   0.319  1.00  0.00     0.060 A 
ATOM     10  C   UNL     1      -1.773  -0.869   0.011  1.00  0.00     0.067 A 
ATOM     11  C   UNL     1      -2.702  -0.887   1.054  1.00  0.00     0.029 A 
ATOM     12  C   UNL     1      -1.798   0.150  -0.955  1.00  0.00     0.029 A 
ATOM     13  C   UNL     1      -3.537   0.213   1.229  1.00  0.00     0.018 A 
ATOM     14  C   UNL     1      -2.682   1.219  -0.812  1.00  0.00     0.018 A 
BRANCH  10  15
ATOM     15  N   UNL     1      -0.720  -1.810   0.031  1.00  0.00    -0.217 N 
ATOM     16  C   UNL     1       1.231  -0.196  -0.208  1.00  0.00     0.069 C 
ATOM     17  C   UNL     1       0.633  -1.548  -0.096  1.00  0.00     0.071 A 
ATOM     18  C   UNL     1       1.211  -2.791   0.063  1.00  0.00     0.137 A 
ATOM     19  N   UNL     1       0.259  -3.719   0.365  1.00  0.00    -0.128 NA
ATOM     20  N   UNL     1      -0.912  -3.094   0.418  1.00  0.00    -0.061 NA
BRANCH  18  21
ATOM     21  C   UNL     1       2.630  -3.125   0.026  1.00  0.00     0.124 A 
ATOM     22  N   UNL     1       3.468  -2.809   1.024  1.00  0.00    -0.165 NA
ATOM     23  C   UNL     1       3.294  -3.713  -1.074  1.00  0.00     0.044 A 
ATOM     24  N   UNL     1       4.694  -3.079   0.526  1.00  0.00    -0.240 N 
ATOM     25  C   UNL     1       4.630  -3.618  -0.737  1.00  0.00     0.125 A 
BRANCH  23  26
ATOM     26  C   UNL     1       2.794  -4.284  -2.299  1.00  0.00     0.166 C 
ATOM     27  N   UNL     1       1.534  -4.225  -2.574  1.00  0.00    -0.097 NA
BRANCH  27  28
ATOM     28  O   UNL     1       1.298  -4.881  -3.788  1.00  0.00    -0.411 OA
ATOM     29  H   UNL     1       0.429  -4.929  -4.133  1.00  0.00     0.330 HD
ENDBRANCH  27  28
ENDBRANCH  23  26
BRANCH  24  30
ATOM     30  C   UNL     1       5.863  -2.786   1.264  1.00  0.00     0.065 A 
ATOM     31  C   UNL     1       5.862  -2.961   2.654  1.00  0.00     0.028 A 
ATOM     32  C   UNL     1       7.011  -2.321   0.611  1.00  0.00     0.028 A 
ATOM     33  C   UNL     1       7.026  -2.707   3.381  1.00  0.00     0.002 A 
ATOM     34  C   UNL     1       8.152  -2.015   1.355  1.00  0.00     0.002 A 
ATOM     35  C   UNL     1       8.164  -2.223   2.735  1.00  0.00     0.000 A 
ENDBRANCH  24  30
ENDBRANCH  18  21
ENDBRANCH  10  15
ENDBRANCH   7   9
ENDBRANCH   6   7
ENDBRANCH   5   6
ENDBRANCH   4   5
ENDBRANCH   3   4
ENDBRANCH   2   3
ENDBRANCH   1   2
BRANCH   1  36
ATOM     36  O   UNL     1      -6.836   1.586  -2.250  1.00  0.00    -0.377 OA
BRANCH  36  37
ATOM     37  C   UNL     1      -8.094   1.636  -2.921  1.00  0.00     0.188 C 
BRANCH  37  38
ATOM     38  C   UNL     1      -9.394   1.265  -2.158  1.00  0.00     0.188 C 
BRANCH  38  39
ATOM     39  O   UNL     1      -9.255   0.209  -1.218  1.00  0.00    -0.376 OA
BRANCH  39  40
ATOM     40  C   UNL     1      -9.804  -1.079  -1.423  1.00  0.00     0.202 C 
BRANCH  40  41
ATOM     41  C   UNL     1      -9.219  -1.930  -2.542  1.00  0.00     0.261 C 
BRANCH  41  42
ATOM     42  O   UNL     1      -8.890  -1.190  -3.698  1.00  0.00    -0.460 OA
BRANCH  42  43
ATOM     43  C   UNL     1      -9.957  -0.756  -4.400  1.00  0.00     0.338 C 
ATOM     44  O   UNL     1     -11.116  -0.741  -4.041  1.00  0.00    -0.246 OA
BRANCH  43  45
ATOM     45  C   UNL     1      -9.488  -0.433  -5.750  1.00  0.00     0.060 A 
ATOM     46  C   UNL     1     -10.474   0.002  -6.630  1.00  0.00     0.016 A 
ATOM     47  C   UNL     1      -8.263  -0.972  -6.179  1.00  0.00     0.016 A 
ATOM     48  C   UNL     1     -10.368  -0.413  -7.931  1.00  0.00     0.010 A 
ATOM     49  C   UNL     1      -8.170  -1.402  -7.473  1.00  0.00     0.010 A 
ATOM     50  C   UNL     1      -9.277  -1.214  -8.290  1.00  0.00    -0.014 A 
BRANCH  50  51
ATOM     51  C   UNL     1      -9.295  -1.802  -9.601  1.00  0.00     0.031 A 
ATOM     52  C   UNL     1      -8.995  -0.806 -10.640  1.00  0.00     0.074 A 
ATOM     53  C   UNL     1      -9.520  -3.109  -9.814  1.00  0.00     0.049 A 
ATOM     54  N   UNL     1      -9.843  -0.204 -11.403  1.00  0.00    -0.248 NA
ATOM     55  C   UNL     1      -7.645  -0.224 -10.649  1.00  0.00     0.031 C 
ATOM     56  C   UNL     1      -9.556  -4.212  -8.852  1.00  0.00     0.029 A 
ATOM     57  N   UNL     1      -9.696  -3.735 -11.003  1.00  0.00    -0.354 N 
ATOM     58  C   UNL     1      -9.076   0.651 -12.180  1.00  0.00     0.074 A 
ATOM     59  C   UNL     1      -7.811   0.782 -11.508  1.00  0.00     0.031 C 
ATOM     60  C   UNL     1      -9.514  -5.387  -9.525  1.00  0.00     0.029 A 
ATOM     61  C   UNL     1      -9.591  -5.117 -10.952  1.00  0.00     0.049 A 
ATOM     62  H   UNL     1      -9.884  -3.247 -11.837  1.00  0.00     0.167 HD
ATOM     63  C   UNL     1      -9.438   0.929 -13.460  1.00  0.00     0.037 A 
ATOM     64  C   UNL     1      -9.491  -5.935 -12.032  1.00  0.00     0.037 A 
ATOM     65  C   UNL     1     -10.826   0.602 -13.690  1.00  0.00     0.049 A 
ATOM     66  C   UNL     1     -10.027  -5.174 -13.199  1.00  0.00     0.074 A 
ATOM     67  C   UNL     1     -12.020   1.006 -13.121  1.00  0.00     0.029 A 
ATOM     68  N   UNL     1     -11.105  -0.571 -14.352  1.00  0.00    -0.354 N 
ATOM     69  N   UNL     1     -11.281  -4.825 -13.321  1.00  0.00    -0.248 NA
ATOM     70  C   UNL     1      -9.088  -4.381 -13.982  1.00  0.00     0.031 C 
ATOM     71  C   UNL     1     -12.827  -0.168 -13.073  1.00  0.00     0.029 A 
ATOM     72  C   UNL     1     -12.113  -1.208 -13.672  1.00  0.00     0.049 A 
ATOM     73  H   UNL     1     -10.661  -0.896 -15.168  1.00  0.00     0.167 HD
ATOM     74  C   UNL     1     -11.250  -3.538 -13.842  1.00  0.00     0.074 A 
ATOM     75  C   UNL     1      -9.874  -3.348 -14.297  1.00  0.00     0.031 C 
ATOM     76  C   UNL     1     -12.257  -2.647 -13.595  1.00  0.00     0.037 A 
BRANCH  63  77
ATOM     77  C   UNL     1      -8.441   1.103 -14.579  1.00  0.00     0.058 A 
ATOM     78  C   UNL     1      -8.903   1.521 -15.841  1.00  0.00     0.135 A 
ATOM     79  C   UNL     1      -7.112   0.620 -14.546  1.00  0.00     0.135 A 
ATOM     80  F   UNL     1     -10.152   1.990 -15.991  1.00  0.00    -0.206 F 
ATOM     81  C   UNL     1      -8.130   1.396 -16.994  1.00  0.00     0.059 A 
ATOM     82  C   UNL     1      -6.305   0.544 -15.671  1.00  0.00     0.059 A 
ATOM     83  F   UNL     1      -6.551   0.103 -13.447  1.00  0.00    -0.206 F 
ATOM     84  C   UNL     1      -6.837   0.892 -16.898  1.00  0.00     0.060 A 
BRANCH  84  85
ATOM     85  S   UNL     1      -5.872   0.629 -18.392  1.00  0.00     0.124 S 
ATOM     86  O   UNL     1      -6.596  -0.474 -19.012  1.00  0.00    -0.237 OA
ATOM     87  O   UNL     1      -5.985   1.925 -19.053  1.00  0.00    -0.237 OA
ATOM     88  O   UNL     1      -4.543   0.307 -17.881  1.00  0.00    -0.744 OA
ENDBRANCH  84  85
ENDBRANCH  63  77
BRANCH  64  89
ATOM     89  C   UNL     1      -8.605  -7.121 -12.188  1.00  0.00     0.058 A 
ATOM     90  C   UNL     1      -8.732  -7.984 -13.292  1.00  0.00     0.135 A 
ATOM     91  C   UNL     1      -7.434  -7.274 -11.416  1.00  0.00     0.135 A 
ATOM     92  F   UNL     1      -9.803  -7.895 -14.096  1.00  0.00    -0.206 F 
ATOM     93  C   UNL     1      -7.736  -8.905 -13.641  1.00  0.00     0.059 A 
ATOM     94  C   UNL     1      -6.434  -8.190 -11.738  1.00  0.00     0.059 A 
ATOM     95  F   UNL     1      -7.179  -6.469 -10.374  1.00  0.00    -0.206 F 
ATOM     96  C   UNL     1      -6.579  -8.986 -12.868  1.00  0.00     0.060 A 
BRANCH  96  97
ATOM     97  S   UNL     1      -5.214 -10.042 -13.409  1.00  0.00     0.124 S 
ATOM     98  O   UNL     1      -5.760 -11.377 -13.190  1.00  0.00    -0.237 OA
ATOM     99  O   UNL     1      -5.047  -9.642 -14.802  1.00  0.00    -0.237 OA
ATOM    100  O   UNL     1      -4.118  -9.663 -12.520  1.00  0.00    -0.744 OA
ENDBRANCH  96  97
ENDBRANCH  64  89
BRANCH  76 101
ATOM    101  C   UNL     1     -13.542  -3.167 -13.000  1.00  0.00     0.058 A 
ATOM    102  C   UNL     1     -13.657  -3.743 -11.721  1.00  0.00     0.135 A 
ATOM    103  C   UNL     1     -14.734  -2.925 -13.699  1.00  0.00     0.135 A 
ATOM    104  F   UNL     1     -12.579  -3.913 -10.942  1.00  0.00    -0.206 F 
ATOM    105  C   UNL     1     -14.897  -4.098 -11.182  1.00  0.00     0.059 A 
ATOM    106  C   UNL     1     -15.982  -3.241 -13.169  1.00  0.00     0.059 A 
ATOM    107  F   UNL     1     -14.698  -2.321 -14.899  1.00  0.00    -0.206 F 
ATOM    108  C   UNL     1     -16.056  -3.841 -11.915  1.00  0.00     0.060 A 
BRANCH 108 109
ATOM    109  S   UNL     1     -17.665  -4.232 -11.192  1.00  0.00     0.124 S 
ATOM    110  O   UNL     1     -17.671  -5.690 -11.227  1.00  0.00    -0.237 OA
ATOM    111  O   UNL     1     -17.572  -3.629  -9.865  1.00  0.00    -0.237 OA
ATOM    112  O   UNL     1     -18.612  -3.582 -12.095  1.00  0.00    -0.744 OA
ENDBRANCH 108 109
ENDBRANCH  76 101
ENDBRANCH  50  51
ENDBRANCH  43  45
ENDBRANCH  42  43
ENDBRANCH  41  42
ENDBRANCH  40  41
ENDBRANCH  39  40
ENDBRANCH  38  39
ENDBRANCH  37  38
ENDBRANCH  36  37
ENDBRANCH   1  36
TORSDOF 28
