REMARK SMILES O=C(CN(CC(=O)OCCOCCOCCOCCOC(=O)c1ccc(-c2c3nc(c(-c4c(F)cc(S(=O)(=O)[O-])cc4F)c4ccc([nH]4)c(-c4c(F)cc(S(=O)(=O)[O-])cc4F)c4nc(c(-c5c(F)cc(S(=O)(=O)[O-])cc5F)c5ccc2[nH]5)C=C4)C=C3)cc1)c1ccccc1)NCc1ccccc1
REMARK SMILES IDX 13 1 12 2 11 3 10 4 9 5 8 6 6 7 7 8 5 9 4 10 3 11 2 12 1 13
REMARK SMILES IDX 95 14 96 16 97 17 98 18 102 19 99 20 101 21 100 22 89 23
REMARK SMILES IDX 90 24 94 25 91 26 93 27 92 28 14 29 15 30 16 31 17 32 18 33
REMARK SMILES IDX 19 34 20 35 21 36 22 37 23 38 24 39 88 40 25 41 87 42 26 43
REMARK SMILES IDX 27 44 28 45 81 46 29 47 86 48 80 49 82 50 30 51 85 52 79 53
REMARK SMILES IDX 78 54 31 56 65 57 44 58 64 59 45 60 48 61 63 62 83 63 46 64
REMARK SMILES IDX 47 65 62 67 84 68 49 69 32 70 33 71 42 72 34 73 35 74 41 75
REMARK SMILES IDX 43 76 36 77 37 78 38 79 39 80 40 81 66 82 67 83 76 84 68 85
REMARK SMILES IDX 69 86 75 87 77 88 70 89 71 90 72 91 73 92 74 93 50 94 51 95
REMARK SMILES IDX 60 96 52 97 53 98 59 99 61 100 54 101 55 102 56 103 57 104
REMARK SMILES IDX 58 105
REMARK H PARENT 95 15 82 55 48 66
REMARK Flexibility Score: inf
ROOT
ATOM      1  C   UNL     1       3.989  -0.404   4.639  1.00  0.00     0.188 C 
ENDROOT
BRANCH   1   2
ATOM      2  C   UNL     1       5.463  -0.808   4.891  1.00  0.00     0.188 C 
BRANCH   2   3
ATOM      3  O   UNL     1       6.141  -0.000   5.829  1.00  0.00    -0.376 OA
BRANCH   3   4
ATOM      4  C   UNL     1       6.874   1.119   5.370  1.00  0.00     0.202 C 
BRANCH   4   5
ATOM      5  C   UNL     1       6.359   1.998   4.212  1.00  0.00     0.261 C 
BRANCH   5   6
ATOM      6  O   UNL     1       5.718   1.339   3.094  1.00  0.00    -0.462 OA
BRANCH   6   7
ATOM      7  C   UNL     1       6.488   0.681   2.197  1.00  0.00     0.325 C 
ATOM      8  O   UNL     1       7.716   0.695   2.229  1.00  0.00    -0.250 OA
BRANCH   7   9
ATOM      9  C   UNL     1       5.709  -0.084   1.105  1.00  0.00     0.239 C 
BRANCH   9  10
ATOM     10  N   UNL     1       4.262  -0.410   1.306  1.00  0.00    -0.351 N 
BRANCH  10  11
ATOM     11  C   UNL     1       3.303   0.664   0.900  1.00  0.00     0.217 C 
BRANCH  11  12
ATOM     12  C   UNL     1       2.503   0.302  -0.373  1.00  0.00     0.239 C 
ATOM     13  O   UNL     1       1.435   0.842  -0.653  1.00  0.00    -0.273 OA
ATOM     14  N   UNL     1       3.064  -0.700  -1.135  1.00  0.00    -0.350 N 
ATOM     15  H   UNL     1       4.003  -0.945  -0.967  1.00  0.00     0.163 HD
BRANCH  14  16
ATOM     16  C   UNL     1       2.346  -1.407  -2.165  1.00  0.00     0.151 C 
BRANCH  16  17
ATOM     17  C   UNL     1       2.719  -0.933  -3.541  1.00  0.00    -0.029 A 
ATOM     18  C   UNL     1       3.331  -1.796  -4.460  1.00  0.00     0.005 A 
ATOM     19  C   UNL     1       2.434   0.383  -3.930  1.00  0.00     0.005 A 
ATOM     20  C   UNL     1       3.663  -1.344  -5.738  1.00  0.00     0.000 A 
ATOM     21  C   UNL     1       2.772   0.835  -5.204  1.00  0.00     0.000 A 
ATOM     22  C   UNL     1       3.388  -0.028  -6.107  1.00  0.00     0.000 A 
ENDBRANCH  16  17
ENDBRANCH  14  16
ENDBRANCH  11  12
ENDBRANCH  10  11
BRANCH  10  23
ATOM     23  C   UNL     1       3.769  -1.659   1.707  1.00  0.00     0.038 A 
ATOM     24  C   UNL     1       4.597  -2.696   2.163  1.00  0.00     0.026 A 
ATOM     25  C   UNL     1       2.384  -1.960   1.711  1.00  0.00     0.026 A 
ATOM     26  C   UNL     1       4.082  -3.929   2.609  1.00  0.00     0.002 A 
ATOM     27  C   UNL     1       1.865  -3.204   2.101  1.00  0.00     0.002 A 
ATOM     28  C   UNL     1       2.718  -4.189   2.565  1.00  0.00     0.000 A 
ENDBRANCH  10  23
ENDBRANCH   9  10
ENDBRANCH   7   9
ENDBRANCH   6   7
ENDBRANCH   5   6
ENDBRANCH   4   5
ENDBRANCH   3   4
ENDBRANCH   2   3
ENDBRANCH   1   2
BRANCH   1  29
ATOM     29  O   UNL     1       3.124   0.151   5.622  1.00  0.00    -0.377 OA
BRANCH  29  30
ATOM     30  C   UNL     1       3.633   0.392   6.913  1.00  0.00     0.188 C 
BRANCH  30  31
ATOM     31  C   UNL     1       3.894  -0.875   7.742  1.00  0.00     0.188 C 
BRANCH  31  32
ATOM     32  O   UNL     1       4.197  -2.021   6.963  1.00  0.00    -0.376 OA
BRANCH  32  33
ATOM     33  C   UNL     1       3.219  -3.041   6.820  1.00  0.00     0.202 C 
BRANCH  33  34
ATOM     34  C   UNL     1       1.850  -2.738   6.182  1.00  0.00     0.261 C 
BRANCH  34  35
ATOM     35  O   UNL     1       1.158  -1.582   6.653  1.00  0.00    -0.460 OA
BRANCH  35  36
ATOM     36  C   UNL     1       0.697  -1.615   7.922  1.00  0.00     0.338 C 
ATOM     37  O   UNL     1       0.767  -2.534   8.704  1.00  0.00    -0.246 OA
BRANCH  36  38
ATOM     38  C   UNL     1       0.301  -0.229   8.250  1.00  0.00     0.060 A 
ATOM     39  C   UNL     1       0.964   0.410   9.304  1.00  0.00     0.016 A 
ATOM     40  C   UNL     1      -0.655   0.449   7.489  1.00  0.00     0.016 A 
ATOM     41  C   UNL     1       0.677   1.738   9.594  1.00  0.00     0.010 A 
ATOM     42  C   UNL     1      -0.975   1.770   7.809  1.00  0.00     0.010 A 
ATOM     43  C   UNL     1      -0.321   2.408   8.876  1.00  0.00    -0.014 A 
BRANCH  43  44
ATOM     44  C   UNL     1      -0.795   3.704   9.402  1.00  0.00     0.031 A 
ATOM     45  C   UNL     1      -1.957   3.691  10.353  1.00  0.00     0.074 A 
ATOM     46  C   UNL     1      -0.142   4.842   9.116  1.00  0.00     0.049 A 
ATOM     47  N   UNL     1      -2.487   4.675  11.027  1.00  0.00    -0.248 NA
ATOM     48  C   UNL     1      -2.601   2.386  10.579  1.00  0.00     0.031 C 
ATOM     49  C   UNL     1       1.017   4.950   8.231  1.00  0.00     0.029 A 
ATOM     50  N   UNL     1      -0.356   6.123   9.553  1.00  0.00    -0.354 N 
ATOM     51  C   UNL     1      -3.523   4.109  11.761  1.00  0.00     0.074 A 
ATOM     52  C   UNL     1      -3.568   2.704  11.425  1.00  0.00     0.031 C 
ATOM     53  C   UNL     1       1.411   6.235   8.188  1.00  0.00     0.029 A 
ATOM     54  C   UNL     1       0.520   7.038   9.024  1.00  0.00     0.049 A 
ATOM     55  H   UNL     1      -1.071   6.364  10.185  1.00  0.00     0.167 HD
ATOM     56  C   UNL     1      -4.355   4.712  12.642  1.00  0.00     0.037 A 
ATOM     57  C   UNL     1       0.582   8.374   9.190  1.00  0.00     0.037 A 
ATOM     58  C   UNL     1      -4.306   6.118  12.947  1.00  0.00     0.049 A 
ATOM     59  C   UNL     1      -0.390   9.032  10.135  1.00  0.00     0.074 A 
ATOM     60  C   UNL     1      -5.090   6.835  13.833  1.00  0.00     0.029 A 
ATOM     61  N   UNL     1      -3.435   7.026  12.359  1.00  0.00    -0.354 N 
ATOM     62  N   UNL     1      -1.341   8.485  10.857  1.00  0.00    -0.248 NA
ATOM     63  C   UNL     1      -0.271  10.486  10.300  1.00  0.00     0.031 C 
ATOM     64  C   UNL     1      -4.739   8.185  13.730  1.00  0.00     0.029 A 
ATOM     65  C   UNL     1      -3.686   8.302  12.834  1.00  0.00     0.049 A 
ATOM     66  H   UNL     1      -2.741   6.796  11.700  1.00  0.00     0.167 HD
ATOM     67  C   UNL     1      -1.923   9.524  11.575  1.00  0.00     0.074 A 
ATOM     68  C   UNL     1      -1.196  10.727  11.219  1.00  0.00     0.031 C 
ATOM     69  C   UNL     1      -2.962   9.491  12.449  1.00  0.00     0.037 A 
BRANCH  56  70
ATOM     70  C   UNL     1      -5.415   3.861  13.287  1.00  0.00     0.058 A 
ATOM     71  C   UNL     1      -5.105   2.860  14.222  1.00  0.00     0.135 A 
ATOM     72  C   UNL     1      -6.767   4.054  12.963  1.00  0.00     0.135 A 
ATOM     73  F   UNL     1      -3.826   2.614  14.552  1.00  0.00    -0.206 F 
ATOM     74  C   UNL     1      -6.094   2.062  14.789  1.00  0.00     0.059 A 
ATOM     75  C   UNL     1      -7.776   3.289  13.541  1.00  0.00     0.059 A 
ATOM     76  F   UNL     1      -7.121   4.989  12.068  1.00  0.00    -0.206 F 
ATOM     77  C   UNL     1      -7.427   2.285  14.442  1.00  0.00     0.060 A 
BRANCH  77  78
ATOM     78  S   UNL     1      -8.699   1.242  15.187  1.00  0.00     0.124 S 
ATOM     79  O   UNL     1      -8.455  -0.035  14.524  1.00  0.00    -0.237 OA
ATOM     80  O   UNL     1      -8.356   1.297  16.604  1.00  0.00    -0.237 OA
ATOM     81  O   UNL     1      -9.945   1.910  14.820  1.00  0.00    -0.744 OA
ENDBRANCH  77  78
ENDBRANCH  56  70
BRANCH  57  82
ATOM     82  C   UNL     1       1.593   9.167   8.439  1.00  0.00     0.058 A 
ATOM     83  C   UNL     1       2.664   9.797   9.087  1.00  0.00     0.135 A 
ATOM     84  C   UNL     1       1.513   9.289   7.042  1.00  0.00     0.135 A 
ATOM     85  F   UNL     1       2.780   9.723  10.421  1.00  0.00    -0.206 F 
ATOM     86  C   UNL     1       3.619  10.523   8.380  1.00  0.00     0.059 A 
ATOM     87  C   UNL     1       2.470   9.984   6.310  1.00  0.00     0.059 A 
ATOM     88  F   UNL     1       0.511   8.699   6.371  1.00  0.00    -0.206 F 
ATOM     89  C   UNL     1       3.518  10.602   6.989  1.00  0.00     0.060 A 
BRANCH  89  90
ATOM     90  S   UNL     1       4.804  11.480   6.074  1.00  0.00     0.124 S 
ATOM     91  O   UNL     1       4.530  12.866   6.433  1.00  0.00    -0.237 OA
ATOM     92  O   UNL     1       6.023  10.903   6.635  1.00  0.00    -0.237 OA
ATOM     93  O   UNL     1       4.534  11.122   4.685  1.00  0.00    -0.744 OA
ENDBRANCH  89  90
ENDBRANCH  57  82
BRANCH  69  94
ATOM     94  C   UNL     1      -3.357  10.795  13.092  1.00  0.00     0.058 A 
ATOM     95  C   UNL     1      -3.948  11.835  12.356  1.00  0.00     0.135 A 
ATOM     96  C   UNL     1      -3.151  11.002  14.466  1.00  0.00     0.135 A 
ATOM     97  F   UNL     1      -4.169  11.692  11.040  1.00  0.00    -0.206 F 
ATOM     98  C   UNL     1      -4.269  13.053  12.948  1.00  0.00     0.059 A 
ATOM     99  C   UNL     1      -3.500  12.197  15.086  1.00  0.00     0.059 A 
ATOM    100  F   UNL     1      -2.608  10.035  15.223  1.00  0.00    -0.206 F 
ATOM    101  C   UNL     1      -4.035  13.226  14.313  1.00  0.00     0.060 A 
BRANCH 101 102
ATOM    102  S   UNL     1      -4.436  14.817  15.065  1.00  0.00     0.124 S 
ATOM    103  O   UNL     1      -3.372  15.665  14.540  1.00  0.00    -0.237 OA
ATOM    104  O   UNL     1      -5.773  15.081  14.543  1.00  0.00    -0.237 OA
ATOM    105  O   UNL     1      -4.371  14.542  16.497  1.00  0.00    -0.744 OA
ENDBRANCH 101 102
ENDBRANCH  69  94
ENDBRANCH  43  44
ENDBRANCH  36  38
ENDBRANCH  35  36
ENDBRANCH  34  35
ENDBRANCH  33  34
ENDBRANCH  32  33
ENDBRANCH  31  32
ENDBRANCH  30  31
ENDBRANCH  29  30
ENDBRANCH   1  29
TORSDOF 29
