REMARK SMILES O=C(OCCOCCOCCOCCOC(=O)[C@H]1CC2=c3ccccc3=N[C@H]2[C@@H](c2ccccc2)[NH2+]1)c1ccc(-c2c3nc(c(-c4c(F)cc(S(=O)(=O)[O-])cc4F)c4ccc([nH]4)c(-c4c(F)cc(S(=O)(=O)[O-])cc4F)c4nc(c(-c5c(F)cc(S(=O)(=O)[O-])cc5F)c5ccc2[nH]5)C=C4)C=C3)cc1
REMARK SMILES IDX 8 1 7 2 6 3 5 4 4 5 3 6 2 7 1 8 37 9 38 10 102 11 39 12
REMARK SMILES IDX 101 13 40 14 41 15 42 16 95 17 43 18 100 19 94 20 96 21
REMARK SMILES IDX 44 22 99 23 93 24 92 25 45 27 79 28 58 29 78 30 59 31 62 32
REMARK SMILES IDX 77 33 97 34 60 35 61 36 76 38 98 39 63 40 46 41 47 42 56 43
REMARK SMILES IDX 48 44 49 45 55 46 57 47 50 48 51 49 52 50 53 51 54 52 80 53
REMARK SMILES IDX 81 54 90 55 82 56 83 57 89 58 91 59 84 60 85 61 86 62 87 63
REMARK SMILES IDX 88 64 64 65 65 66 74 67 66 68 67 69 73 70 75 71 68 72 69 73
REMARK SMILES IDX 70 74 71 75 72 76 9 77 10 78 11 79 12 80 13 81 14 82 15 83
REMARK SMILES IDX 16 84 17 85 18 86 19 87 36 88 20 89 29 90 21 93 28 94 22 95
REMARK SMILES IDX 26 96 27 97 23 98 25 99 24 100 30 101 31 102 35 103 32 104
REMARK SMILES IDX 34 105 33 106
REMARK H PARENT 96 26 62 37 36 91 36 92
REMARK Flexibility Score: inf
ROOT
ATOM      1  C   UNL     1       2.436   0.067  -2.718  1.00  0.00     0.188 C 
ENDROOT
BRANCH   1   2
ATOM      2  C   UNL     1       2.810   0.460  -1.285  1.00  0.00     0.188 C 
BRANCH   2   3
ATOM      3  O   UNL     1       4.171   0.364  -0.887  1.00  0.00    -0.376 OA
BRANCH   3   4
ATOM      4  C   UNL     1       4.698  -0.944  -0.708  1.00  0.00     0.202 C 
BRANCH   4   5
ATOM      5  C   UNL     1       4.411  -1.617   0.632  1.00  0.00     0.261 C 
BRANCH   5   6
ATOM      6  O   UNL     1       3.053  -1.506   1.065  1.00  0.00    -0.460 OA
BRANCH   6   7
ATOM      7  C   UNL     1       2.541  -0.594   1.929  1.00  0.00     0.338 C 
ATOM      8  O   UNL     1       1.494  -0.883   2.509  1.00  0.00    -0.246 OA
BRANCH   7   9
ATOM      9  C   UNL     1       3.067   0.808   2.078  1.00  0.00     0.060 A 
ATOM     10  C   UNL     1       2.152   1.762   2.563  1.00  0.00     0.016 A 
ATOM     11  C   UNL     1       4.359   1.251   1.775  1.00  0.00     0.016 A 
ATOM     12  C   UNL     1       2.517   3.102   2.729  1.00  0.00     0.010 A 
ATOM     13  C   UNL     1       4.720   2.592   1.895  1.00  0.00     0.010 A 
ATOM     14  C   UNL     1       3.810   3.518   2.399  1.00  0.00    -0.014 A 
BRANCH  14  15
ATOM     15  C   UNL     1       4.314   4.838   2.817  1.00  0.00     0.031 A 
ATOM     16  C   UNL     1       4.452   5.973   1.857  1.00  0.00     0.074 A 
ATOM     17  C   UNL     1       4.742   4.933   4.089  1.00  0.00     0.049 A 
ATOM     18  N   UNL     1       4.792   7.210   2.104  1.00  0.00    -0.248 NA
ATOM     19  C   UNL     1       4.197   5.686   0.438  1.00  0.00     0.031 C 
ATOM     20  C   UNL     1       4.740   3.824   5.050  1.00  0.00     0.029 A 
ATOM     21  N   UNL     1       5.266   5.982   4.790  1.00  0.00    -0.354 N 
ATOM     22  C   UNL     1       4.762   7.864   0.880  1.00  0.00     0.074 A 
ATOM     23  C   UNL     1       4.430   6.869  -0.119  1.00  0.00     0.031 C 
ATOM     24  C   UNL     1       5.219   4.259   6.223  1.00  0.00     0.029 A 
ATOM     25  C   UNL     1       5.561   5.669   6.095  1.00  0.00     0.049 A 
ATOM     26  H   UNL     1       5.417   6.872   4.399  1.00  0.00     0.167 HD
ATOM     27  C   UNL     1       4.975   9.180   0.635  1.00  0.00     0.037 A 
ATOM     28  C   UNL     1       6.032   6.445   7.087  1.00  0.00     0.037 A 
ATOM     29  C   UNL     1       5.349  10.122   1.664  1.00  0.00     0.049 A 
ATOM     30  C   UNL     1       6.252   7.899   6.798  1.00  0.00     0.074 A 
ATOM     31  C   UNL     1       5.522  11.490   1.562  1.00  0.00     0.029 A 
ATOM     32  N   UNL     1       5.635   9.781   2.982  1.00  0.00    -0.354 N 
ATOM     33  N   UNL     1       6.070   8.545   5.670  1.00  0.00    -0.248 NA
ATOM     34  C   UNL     1       6.726   8.733   7.906  1.00  0.00     0.031 C 
ATOM     35  C   UNL     1       5.969  11.966   2.800  1.00  0.00     0.029 A 
ATOM     36  C   UNL     1       6.025  10.905   3.693  1.00  0.00     0.049 A 
ATOM     37  H   UNL     1       5.571   8.873   3.356  1.00  0.00     0.167 HD
ATOM     38  C   UNL     1       6.406   9.866   5.929  1.00  0.00     0.074 A 
ATOM     39  C   UNL     1       6.776   9.928   7.332  1.00  0.00     0.031 C 
ATOM     40  C   UNL     1       6.415  10.927   5.084  1.00  0.00     0.037 A 
BRANCH  27  41
ATOM     41  C   UNL     1       4.798   9.676  -0.777  1.00  0.00     0.058 A 
ATOM     42  C   UNL     1       3.534   9.692  -1.392  1.00  0.00     0.135 A 
ATOM     43  C   UNL     1       5.881  10.186  -1.512  1.00  0.00     0.135 A 
ATOM     44  F   UNL     1       2.459   9.217  -0.743  1.00  0.00    -0.206 F 
ATOM     45  C   UNL     1       3.357  10.159  -2.691  1.00  0.00     0.059 A 
ATOM     46  C   UNL     1       5.723  10.685  -2.805  1.00  0.00     0.059 A 
ATOM     47  F   UNL     1       7.112  10.205  -0.978  1.00  0.00    -0.206 F 
ATOM     48  C   UNL     1       4.458  10.652  -3.392  1.00  0.00     0.060 A 
BRANCH  48  49
ATOM     49  S   UNL     1       4.209  11.237  -5.082  1.00  0.00     0.124 S 
ATOM     50  O   UNL     1       3.897   9.991  -5.778  1.00  0.00    -0.237 OA
ATOM     51  O   UNL     1       3.092  12.168  -4.925  1.00  0.00    -0.237 OA
ATOM     52  O   UNL     1       5.485  11.845  -5.428  1.00  0.00    -0.744 OA
ENDBRANCH  48  49
ENDBRANCH  27  41
BRANCH  28  53
ATOM     53  C   UNL     1       6.221   5.850   8.433  1.00  0.00     0.058 A 
ATOM     54  C   UNL     1       5.308   6.114   9.463  1.00  0.00     0.135 A 
ATOM     55  C   UNL     1       7.229   4.903   8.678  1.00  0.00     0.135 A 
ATOM     56  F   UNL     1       4.322   7.005   9.273  1.00  0.00    -0.206 F 
ATOM     57  C   UNL     1       5.377   5.452  10.684  1.00  0.00     0.059 A 
ATOM     58  C   UNL     1       7.306   4.212   9.883  1.00  0.00     0.059 A 
ATOM     59  F   UNL     1       8.109   4.593   7.712  1.00  0.00    -0.206 F 
ATOM     60  C   UNL     1       6.372   4.492  10.880  1.00  0.00     0.060 A 
BRANCH  60  61
ATOM     61  S   UNL     1       6.385   3.571  12.433  1.00  0.00     0.124 S 
ATOM     62  O   UNL     1       6.748   4.611  13.390  1.00  0.00    -0.237 OA
ATOM     63  O   UNL     1       5.010   3.086  12.509  1.00  0.00    -0.237 OA
ATOM     64  O   UNL     1       7.394   2.542  12.208  1.00  0.00    -0.744 OA
ENDBRANCH  60  61
ENDBRANCH  28  53
BRANCH  40  65
ATOM     65  C   UNL     1       6.882  12.239   5.646  1.00  0.00     0.058 A 
ATOM     66  C   UNL     1       8.240  12.468   5.916  1.00  0.00     0.135 A 
ATOM     67  C   UNL     1       5.984  13.302   5.835  1.00  0.00     0.135 A 
ATOM     68  F   UNL     1       9.136  11.479   5.764  1.00  0.00    -0.206 F 
ATOM     69  C   UNL     1       8.692  13.706   6.356  1.00  0.00     0.059 A 
ATOM     70  C   UNL     1       6.418  14.557   6.247  1.00  0.00     0.059 A 
ATOM     71  F   UNL     1       4.675  13.133   5.587  1.00  0.00    -0.206 F 
ATOM     72  C   UNL     1       7.775  14.748   6.507  1.00  0.00     0.060 A 
BRANCH  72  73
ATOM     73  S   UNL     1       8.393  16.366   7.011  1.00  0.00     0.124 S 
ATOM     74  O   UNL     1       8.800  16.110   8.389  1.00  0.00    -0.237 OA
ATOM     75  O   UNL     1       9.479  16.591   6.061  1.00  0.00    -0.237 OA
ATOM     76  O   UNL     1       7.236  17.239   6.851  1.00  0.00    -0.744 OA
ENDBRANCH  72  73
ENDBRANCH  40  65
ENDBRANCH  14  15
ENDBRANCH   7   9
ENDBRANCH   6   7
ENDBRANCH   5   6
ENDBRANCH   4   5
ENDBRANCH   3   4
ENDBRANCH   2   3
ENDBRANCH   1   2
BRANCH   1  77
ATOM     77  O   UNL     1       3.409  -0.490  -3.588  1.00  0.00    -0.377 OA
BRANCH  77  78
ATOM     78  C   UNL     1       4.673   0.152  -3.742  1.00  0.00     0.188 C 
BRANCH  78  79
ATOM     79  C   UNL     1       4.770   1.634  -4.123  1.00  0.00     0.188 C 
BRANCH  79  80
ATOM     80  O   UNL     1       3.878   2.450  -3.393  1.00  0.00    -0.376 OA
BRANCH  80  81
ATOM     81  C   UNL     1       2.856   3.155  -4.098  1.00  0.00     0.202 C 
BRANCH  81  82
ATOM     82  C   UNL     1       2.444   2.735  -5.530  1.00  0.00     0.261 C 
BRANCH  82  83
ATOM     83  O   UNL     1       2.323   1.305  -5.677  1.00  0.00    -0.459 OA
BRANCH  83  84
ATOM     84  C   UNL     1       2.477   0.823  -6.953  1.00  0.00     0.365 C 
ATOM     85  O   UNL     1       2.182   1.444  -7.967  1.00  0.00    -0.245 OA
BRANCH  84  86
ATOM     86  C   UNL     1       3.378  -0.435  -6.938  1.00  0.00     0.298 C 
ATOM     87  C   UNL     1       2.820  -1.812  -7.435  1.00  0.00     0.111 C 
ATOM     88  N   UNL     1       4.721  -0.008  -7.472  1.00  0.00    -0.326 N 
ATOM     89  C   UNL     1       3.915  -2.870  -7.300  1.00  0.00    -0.024 C 
ATOM     90  C   UNL     1       5.474  -1.102  -8.150  1.00  0.00     0.243 C 
ATOM     91  H   UNL     1       5.283   0.334  -6.692  1.00  0.00     0.347 HD
ATOM     92  H   UNL     1       4.548   0.713  -8.172  1.00  0.00     0.347 HD
ATOM     93  C   UNL     1       4.019  -4.193  -7.439  1.00  0.00     0.002 A 
ATOM     94  C   UNL     1       5.303  -2.291  -7.155  1.00  0.00     0.196 C 
ATOM     95  C   UNL     1       3.184  -5.278  -7.853  1.00  0.00     0.010 A 
ATOM     96  C   UNL     1       5.478  -4.428  -7.261  1.00  0.00     0.066 A 
ATOM     97  N   UNL     1       6.272  -3.402  -7.260  1.00  0.00    -0.270 NA
ATOM     98  C   UNL     1       3.707  -6.520  -7.888  1.00  0.00     0.001 A 
ATOM     99  C   UNL     1       5.928  -5.825  -7.129  1.00  0.00     0.028 A 
ATOM    100  C   UNL     1       5.054  -6.801  -7.414  1.00  0.00     0.002 A 
BRANCH  90 101
ATOM    101  C   UNL     1       5.009  -1.257  -9.621  1.00  0.00     0.012 A 
ATOM    102  C   UNL     1       4.856  -2.502 -10.252  1.00  0.00     0.010 A 
ATOM    103  C   UNL     1       4.668  -0.122 -10.386  1.00  0.00     0.010 A 
ATOM    104  C   UNL     1       4.232  -2.620 -11.502  1.00  0.00     0.001 A 
ATOM    105  C   UNL     1       4.059  -0.233 -11.639  1.00  0.00     0.001 A 
ATOM    106  C   UNL     1       3.812  -1.485 -12.185  1.00  0.00     0.000 A 
ENDBRANCH  90 101
ENDBRANCH  84  86
ENDBRANCH  83  84
ENDBRANCH  82  83
ENDBRANCH  81  82
ENDBRANCH  80  81
ENDBRANCH  79  80
ENDBRANCH  78  79
ENDBRANCH  77  78
ENDBRANCH   1  77
TORSDOF 24
