REMARK SMILES CC(C)[C@@H](NC(=O)N[C@H]1CCS(=O)(=O)C1)C(=O)OCCOCCOCCOCCOC(=O)c1ccc(-c2c3nc(c(-c4c(F)cc(S(=O)(=O)[O-])cc4F)c4ccc([nH]4)c(-c4c(F)cc(S(=O)(=O)[O-])cc4F)c4nc(c(-c5c(F)cc(S(=O)(=O)[O-])cc5F)c5ccc2[nH]5)C=C4)C=C3)cc1
REMARK SMILES IDX 25 1 24 2 23 3 22 4 21 5 20 6 19 7 18 8 16 9 17 10 4 11 2 12
REMARK SMILES IDX 1 13 3 14 5 15 6 16 7 18 8 19 9 21 10 22 15 23 11 24 12 25
REMARK SMILES IDX 13 26 14 27 26 28 27 29 28 30 29 31 30 32 31 33 32 34 33 35
REMARK SMILES IDX 34 36 98 37 35 38 97 39 36 40 37 41 38 42 91 43 39 44 96 45
REMARK SMILES IDX 90 46 92 47 40 48 95 49 89 50 88 51 41 53 75 54 54 55 74 56
REMARK SMILES IDX 55 57 58 58 73 59 93 60 56 61 57 62 72 64 94 65 59 66 42 67
REMARK SMILES IDX 43 68 52 69 44 70 45 71 51 72 53 73 46 74 47 75 48 76 49 77
REMARK SMILES IDX 50 78 76 79 77 80 86 81 78 82 79 83 85 84 87 85 80 86 81 87
REMARK SMILES IDX 82 88 83 89 84 90 60 91 61 92 70 93 62 94 63 95 69 96 71 97
REMARK SMILES IDX 64 98 65 99 66 100 67 101 68 102
REMARK H PARENT 5 17 8 20 92 52 58 63
REMARK Flexibility Score: inf
ROOT
ATOM      1  C   UNL     1      -6.369   5.443   3.181  1.00  0.00     0.188 C 
ENDROOT
BRANCH   1   2
ATOM      2  O   UNL     1      -5.332   5.405   2.216  1.00  0.00    -0.377 OA
BRANCH   2   3
ATOM      3  C   UNL     1      -5.617   4.794   0.974  1.00  0.00     0.188 C 
BRANCH   3   4
ATOM      4  C   UNL     1      -5.579   3.261   1.022  1.00  0.00     0.188 C 
BRANCH   4   5
ATOM      5  O   UNL     1      -4.496   2.628   1.697  1.00  0.00    -0.376 OA
BRANCH   5   6
ATOM      6  C   UNL     1      -4.065   3.100   2.964  1.00  0.00     0.202 C 
BRANCH   6   7
ATOM      7  C   UNL     1      -2.776   3.968   2.997  1.00  0.00     0.261 C 
BRANCH   7   8
ATOM      8  O   UNL     1      -2.549   5.104   2.120  1.00  0.00    -0.462 OA
BRANCH   8   9
ATOM      9  C   UNL     1      -2.386   4.996   0.777  1.00  0.00     0.329 C 
ATOM     10  O   UNL     1      -3.101   4.413  -0.028  1.00  0.00    -0.250 OA
BRANCH   9  11
ATOM     11  C   UNL     1      -1.235   5.774   0.218  1.00  0.00     0.196 C 
BRANCH  11  12
ATOM     12  C   UNL     1      -1.560   7.303   0.324  1.00  0.00     0.017 C 
ATOM     13  C   UNL     1      -0.665   8.167  -0.573  1.00  0.00     0.010 C 
ATOM     14  C   UNL     1      -3.022   7.604  -0.076  1.00  0.00     0.010 C 
ENDBRANCH  11  12
BRANCH  11  15
ATOM     15  N   UNL     1      -0.037   5.311   0.898  1.00  0.00    -0.324 N 
ATOM     16  C   UNL     1       0.606   4.151   0.974  1.00  0.00     0.315 C 
ATOM     17  H   UNL     1       0.399   6.020   1.423  1.00  0.00     0.166 HD
ATOM     18  O   UNL     1       1.776   4.238   1.376  1.00  0.00    -0.249 OA
ATOM     19  N   UNL     1       0.226   2.903   0.739  1.00  0.00    -0.334 N 
ATOM     20  H   UNL     1       1.055   2.403   0.919  1.00  0.00     0.165 HD
BRANCH  19  21
ATOM     21  C   UNL     1      -0.724   1.798   0.359  1.00  0.00     0.099 C 
ATOM     22  C   UNL     1      -2.225   1.880   0.463  1.00  0.00     0.042 C 
ATOM     23  C   UNL     1      -0.380   1.065  -0.940  1.00  0.00     0.161 C 
ATOM     24  C   UNL     1      -2.879   1.797  -0.904  1.00  0.00     0.139 C 
ATOM     25  S   UNL     1      -1.927   0.533  -1.668  1.00  0.00     0.152 S 
ATOM     26  O   UNL     1      -2.316  -0.739  -1.091  1.00  0.00    -0.229 OA
ATOM     27  O   UNL     1      -1.899   0.749  -3.098  1.00  0.00    -0.229 OA
ENDBRANCH  19  21
ENDBRANCH  11  15
ENDBRANCH   9  11
ENDBRANCH   8   9
ENDBRANCH   7   8
ENDBRANCH   6   7
ENDBRANCH   5   6
ENDBRANCH   4   5
ENDBRANCH   3   4
ENDBRANCH   2   3
ENDBRANCH   1   2
BRANCH   1  28
ATOM     28  C   UNL     1      -7.587   4.519   2.996  1.00  0.00     0.188 C 
BRANCH  28  29
ATOM     29  O   UNL     1      -8.163   4.510   1.702  1.00  0.00    -0.376 OA
BRANCH  29  30
ATOM     30  C   UNL     1      -8.956   5.574   1.197  1.00  0.00     0.202 C 
BRANCH  30  31
ATOM     31  C   UNL     1      -8.707   7.062   1.509  1.00  0.00     0.261 C 
BRANCH  31  32
ATOM     32  O   UNL     1      -8.475   7.471   2.862  1.00  0.00    -0.460 OA
BRANCH  32  33
ATOM     33  C   UNL     1      -9.258   6.980   3.851  1.00  0.00     0.338 C 
ATOM     34  O   UNL     1     -10.282   6.363   3.719  1.00  0.00    -0.246 OA
BRANCH  33  35
ATOM     35  C   UNL     1      -8.453   7.072   5.109  1.00  0.00     0.060 A 
ATOM     36  C   UNL     1      -8.406   5.946   5.946  1.00  0.00     0.016 A 
ATOM     37  C   UNL     1      -7.683   8.202   5.413  1.00  0.00     0.016 A 
ATOM     38  C   UNL     1      -7.638   5.960   7.105  1.00  0.00     0.010 A 
ATOM     39  C   UNL     1      -6.963   8.244   6.609  1.00  0.00     0.010 A 
ATOM     40  C   UNL     1      -6.995   7.143   7.482  1.00  0.00    -0.014 A 
BRANCH  40  41
ATOM     41  C   UNL     1      -6.750   7.338   8.928  1.00  0.00     0.031 A 
ATOM     42  C   UNL     1      -7.892   7.918   9.724  1.00  0.00     0.074 A 
ATOM     43  C   UNL     1      -5.614   6.939   9.523  1.00  0.00     0.049 A 
ATOM     44  N   UNL     1      -7.967   8.188  10.998  1.00  0.00    -0.248 NA
ATOM     45  C   UNL     1      -9.124   8.229   8.974  1.00  0.00     0.031 C 
ATOM     46  C   UNL     1      -4.479   6.307   8.853  1.00  0.00     0.029 A 
ATOM     47  N   UNL     1      -5.236   7.011  10.838  1.00  0.00    -0.354 N 
ATOM     48  C   UNL     1      -9.243   8.706  11.195  1.00  0.00     0.074 A 
ATOM     49  C   UNL     1      -9.903   8.735   9.914  1.00  0.00     0.031 C 
ATOM     50  C   UNL     1      -3.518   6.067   9.763  1.00  0.00     0.029 A 
ATOM     51  C   UNL     1      -3.961   6.553  11.069  1.00  0.00     0.049 A 
ATOM     52  H   UNL     1      -5.821   7.357  11.549  1.00  0.00     0.167 HD
ATOM     53  C   UNL     1      -9.815   9.118  12.347  1.00  0.00     0.037 A 
ATOM     54  C   UNL     1      -3.238   6.556  12.206  1.00  0.00     0.037 A 
ATOM     55  C   UNL     1      -9.145   9.084  13.616  1.00  0.00     0.049 A 
ATOM     56  C   UNL     1      -3.877   7.077  13.471  1.00  0.00     0.074 A 
ATOM     57  C   UNL     1      -9.623   9.474  14.852  1.00  0.00     0.029 A 
ATOM     58  N   UNL     1      -7.844   8.640  13.806  1.00  0.00    -0.354 N 
ATOM     59  N   UNL     1      -5.086   7.560  13.649  1.00  0.00    -0.248 NA
ATOM     60  C   UNL     1      -3.059   7.044  14.690  1.00  0.00     0.031 C 
ATOM     61  C   UNL     1      -8.591   9.319  15.782  1.00  0.00     0.029 A 
ATOM     62  C   UNL     1      -7.494   8.768  15.138  1.00  0.00     0.049 A 
ATOM     63  H   UNL     1      -7.258   8.287  13.099  1.00  0.00     0.167 HD
ATOM     64  C   UNL     1      -5.184   7.855  15.006  1.00  0.00     0.074 A 
ATOM     65  C   UNL     1      -3.916   7.484  15.601  1.00  0.00     0.031 C 
ATOM     66  C   UNL     1      -6.225   8.380  15.701  1.00  0.00     0.037 A 
BRANCH  53  67
ATOM     67  C   UNL     1     -11.206   9.681  12.274  1.00  0.00     0.058 A 
ATOM     68  C   UNL     1     -12.327   8.875  12.018  1.00  0.00     0.135 A 
ATOM     69  C   UNL     1     -11.420  11.052  12.487  1.00  0.00     0.135 A 
ATOM     70  F   UNL     1     -12.177   7.564  11.770  1.00  0.00    -0.206 F 
ATOM     71  C   UNL     1     -13.611   9.411  11.968  1.00  0.00     0.059 A 
ATOM     72  C   UNL     1     -12.697  11.604  12.470  1.00  0.00     0.059 A 
ATOM     73  F   UNL     1     -10.381  11.871  12.714  1.00  0.00    -0.206 F 
ATOM     74  C   UNL     1     -13.785  10.776  12.203  1.00  0.00     0.060 A 
BRANCH  74  75
ATOM     75  S   UNL     1     -15.460  11.449  12.173  1.00  0.00     0.124 S 
ATOM     76  O   UNL     1     -15.775  11.382  10.749  1.00  0.00    -0.237 OA
ATOM     77  O   UNL     1     -16.184  10.515  13.028  1.00  0.00    -0.237 OA
ATOM     78  O   UNL     1     -15.295  12.794  12.716  1.00  0.00    -0.744 OA
ENDBRANCH  74  75
ENDBRANCH  53  67
BRANCH  54  79
ATOM     79  C   UNL     1      -1.829   6.077  12.200  1.00  0.00     0.058 A 
ATOM     80  C   UNL     1      -1.442   4.920  12.893  1.00  0.00     0.135 A 
ATOM     81  C   UNL     1      -0.832   6.784  11.507  1.00  0.00     0.135 A 
ATOM     82  F   UNL     1      -2.353   4.213  13.578  1.00  0.00    -0.206 F 
ATOM     83  C   UNL     1      -0.117   4.494  12.919  1.00  0.00     0.059 A 
ATOM     84  C   UNL     1       0.493   6.362  11.494  1.00  0.00     0.059 A 
ATOM     85  F   UNL     1      -1.148   7.892  10.819  1.00  0.00    -0.206 F 
ATOM     86  C   UNL     1       0.844   5.222  12.215  1.00  0.00     0.060 A 
BRANCH  86  87
ATOM     87  S   UNL     1       2.554   4.640  12.225  1.00  0.00     0.124 S 
ATOM     88  O   UNL     1       2.961   4.950  13.590  1.00  0.00    -0.237 OA
ATOM     89  O   UNL     1       2.395   3.224  11.911  1.00  0.00    -0.237 OA
ATOM     90  O   UNL     1       3.186   5.439  11.180  1.00  0.00    -0.744 OA
ENDBRANCH  86  87
ENDBRANCH  54  79
BRANCH  66  91
ATOM     91  C   UNL     1      -6.055   8.532  17.188  1.00  0.00     0.058 A 
ATOM     92  C   UNL     1      -5.191   9.486  17.746  1.00  0.00     0.135 A 
ATOM     93  C   UNL     1      -6.801   7.729  18.067  1.00  0.00     0.135 A 
ATOM     94  F   UNL     1      -4.457  10.281  16.950  1.00  0.00    -0.206 F 
ATOM     95  C   UNL     1      -5.036   9.607  19.122  1.00  0.00     0.059 A 
ATOM     96  C   UNL     1      -6.690   7.857  19.446  1.00  0.00     0.059 A 
ATOM     97  F   UNL     1      -7.658   6.814  17.586  1.00  0.00    -0.206 F 
ATOM     98  C   UNL     1      -5.788   8.785  19.964  1.00  0.00     0.060 A 
BRANCH  98  99
ATOM     99  S   UNL     1      -5.576   8.948  21.748  1.00  0.00     0.124 S 
ATOM    100  O   UNL     1      -4.271   8.327  21.946  1.00  0.00    -0.237 OA
ATOM    101  O   UNL     1      -5.625  10.395  21.938  1.00  0.00    -0.237 OA
ATOM    102  O   UNL     1      -6.712   8.212  22.295  1.00  0.00    -0.744 OA
ENDBRANCH  98  99
ENDBRANCH  66  91
ENDBRANCH  40  41
ENDBRANCH  33  35
ENDBRANCH  32  33
ENDBRANCH  31  32
ENDBRANCH  30  31
ENDBRANCH  29  30
ENDBRANCH  28  29
ENDBRANCH   1  28
TORSDOF 26
