REMARK SMILES COc1cc(/C=C2/SC(=O)N(c3ccc(O)cc3C)C2=O)ccc1OCC(=O)OCCOCCOCCOCCOC(=O)c1ccc(-c2c3nc(c(-c4c(F)cc(S(=O)(=O)[O-])cc4F)c4ccc([nH]4)c(-c4c(F)cc(S(=O)(=O)[O-])cc4F)c4nc(c(-c5c(F)cc(S(=O)(=O)[O-])cc5F)c5ccc2[nH]5)C=C4)C=C3)cc1
REMARK SMILES IDX 34 1 33 2 32 3 31 4 30 5 29 6 27 7 28 8 26 9 25 10 24 11
REMARK SMILES IDX 3 12 4 13 5 14 23 15 22 16 2 17 1 18 6 19 7 20 8 21 20 22
REMARK SMILES IDX 9 23 11 24 21 25 10 26 12 27 13 28 18 29 14 30 17 31 19 32
REMARK SMILES IDX 15 33 16 34 35 36 36 37 37 38 38 39 39 40 40 41 41 42 42 43
REMARK SMILES IDX 43 44 44 45 45 46 109 47 46 48 108 49 47 50 48 51 49 52
REMARK SMILES IDX 102 53 50 54 107 55 101 56 103 57 51 58 106 59 100 60 99 61
REMARK SMILES IDX 52 63 86 64 65 65 85 66 66 67 69 68 84 69 104 70 67 71 68 72
REMARK SMILES IDX 83 74 105 75 70 76 53 77 54 78 63 79 55 80 56 81 62 82 64 83
REMARK SMILES IDX 57 84 58 85 59 86 60 87 61 88 87 89 88 90 97 91 89 92 90 93
REMARK SMILES IDX 96 94 98 95 91 96 92 97 93 98 94 99 95 100 71 101 72 102
REMARK SMILES IDX 81 103 73 104 74 105 80 106 82 107 75 108 76 109 77 110
REMARK SMILES IDX 78 111 79 112
REMARK H PARENT 16 35 103 62 69 73
REMARK Flexibility Score: inf
ROOT
ATOM      1  C   UNL     1       0.869  -2.255  -1.868  1.00  0.00     0.188 C 
ENDROOT
BRANCH   1   2
ATOM      2  C   UNL     1       0.029  -1.062  -1.359  1.00  0.00     0.188 C 
BRANCH   2   3
ATOM      3  O   UNL     1      -0.536  -0.255  -2.373  1.00  0.00    -0.376 OA
BRANCH   3   4
ATOM      4  C   UNL     1       0.128   0.947  -2.719  1.00  0.00     0.202 C 
BRANCH   4   5
ATOM      5  C   UNL     1       1.645   0.911  -2.970  1.00  0.00     0.261 C 
BRANCH   5   6
ATOM      6  O   UNL     1       2.454   0.288  -1.946  1.00  0.00    -0.461 OA
BRANCH   6   7
ATOM      7  C   UNL     1       2.625   0.942  -0.770  1.00  0.00     0.344 C 
ATOM      8  O   UNL     1       2.154   2.048  -0.530  1.00  0.00    -0.248 OA
BRANCH   7   9
ATOM      9  C   UNL     1       3.526   0.158   0.213  1.00  0.00     0.352 C 
BRANCH   9  10
ATOM     10  O   UNL     1       3.579  -1.254   0.266  1.00  0.00    -0.478 OA
BRANCH  10  11
ATOM     11  C   UNL     1       2.654  -2.036   0.895  1.00  0.00     0.162 A 
ATOM     12  C   UNL     1       1.619  -1.684   1.768  1.00  0.00     0.161 A 
ATOM     13  C   UNL     1       0.658  -2.648   2.164  1.00  0.00     0.058 A 
ATOM     14  C   UNL     1       0.750  -3.981   1.729  1.00  0.00    -0.020 A 
ATOM     15  C   UNL     1       2.785  -3.387   0.543  1.00  0.00     0.051 A 
ATOM     16  C   UNL     1       1.839  -4.342   0.930  1.00  0.00     0.012 A 
BRANCH  12  17
ATOM     17  O   UNL     1       1.652  -0.481   2.421  1.00  0.00    -0.493 OA
ATOM     18  C   UNL     1       0.628   0.435   2.052  1.00  0.00     0.278 C 
ENDBRANCH  12  17
BRANCH  14  19
ATOM     19  C   UNL     1      -0.244  -5.002   2.121  1.00  0.00     0.029 C 
ATOM     20  C   UNL     1       0.011  -6.065   2.898  1.00  0.00     0.083 C 
ATOM     21  S   UNL     1      -1.146  -7.247   3.393  1.00  0.00    -0.022 SA
ATOM     22  C   UNL     1       1.306  -6.341   3.559  1.00  0.00     0.272 C 
ATOM     23  C   UNL     1      -0.067  -7.908   4.633  1.00  0.00     0.298 C 
ATOM     24  N   UNL     1       1.123  -7.236   4.590  1.00  0.00    -0.236 N 
ATOM     25  O   UNL     1       2.379  -5.868   3.216  1.00  0.00    -0.268 OA
ATOM     26  O   UNL     1      -0.423  -8.797   5.396  1.00  0.00    -0.260 OA
BRANCH  24  27
ATOM     27  C   UNL     1       2.179  -7.384   5.512  1.00  0.00     0.056 A 
ATOM     28  C   UNL     1       2.593  -6.207   6.171  1.00  0.00     0.031 A 
ATOM     29  C   UNL     1       2.950  -8.553   5.608  1.00  0.00    -0.023 A 
ATOM     30  C   UNL     1       3.771  -6.171   6.902  1.00  0.00     0.048 A 
ATOM     31  C   UNL     1       4.137  -8.502   6.365  1.00  0.00     0.051 A 
ATOM     32  C   UNL     1       2.631  -9.827   4.879  1.00  0.00     0.047 C 
ATOM     33  C   UNL     1       4.543  -7.316   6.980  1.00  0.00     0.115 A 
BRANCH  33  34
ATOM     34  O   UNL     1       5.726  -7.228   7.649  1.00  0.00    -0.508 OA
ATOM     35  H   UNL     1       5.977  -6.421   8.054  1.00  0.00     0.293 HD
ENDBRANCH  33  34
ENDBRANCH  24  27
ENDBRANCH  14  19
ENDBRANCH  10  11
ENDBRANCH   9  10
ENDBRANCH   7   9
ENDBRANCH   6   7
ENDBRANCH   5   6
ENDBRANCH   4   5
ENDBRANCH   3   4
ENDBRANCH   2   3
ENDBRANCH   1   2
BRANCH   1  36
ATOM     36  O   UNL     1       0.542  -3.038  -3.007  1.00  0.00    -0.377 OA
BRANCH  36  37
ATOM     37  C   UNL     1      -0.461  -2.553  -3.871  1.00  0.00     0.188 C 
BRANCH  37  38
ATOM     38  C   UNL     1      -1.887  -2.816  -3.357  1.00  0.00     0.188 C 
BRANCH  38  39
ATOM     39  O   UNL     1      -1.975  -2.797  -1.942  1.00  0.00    -0.376 OA
BRANCH  39  40
ATOM     40  C   UNL     1      -2.211  -3.992  -1.222  1.00  0.00     0.202 C 
BRANCH  40  41
ATOM     41  C   UNL     1      -1.337  -5.251  -1.374  1.00  0.00     0.261 C 
BRANCH  41  42
ATOM     42  O   UNL     1      -0.741  -5.492  -2.638  1.00  0.00    -0.460 OA
BRANCH  42  43
ATOM     43  C   UNL     1      -1.503  -6.055  -3.587  1.00  0.00     0.338 C 
ATOM     44  O   UNL     1      -2.679  -6.389  -3.497  1.00  0.00    -0.246 OA
BRANCH  43  45
ATOM     45  C   UNL     1      -0.717  -5.974  -4.824  1.00  0.00     0.060 A 
ATOM     46  C   UNL     1      -1.236  -5.232  -5.891  1.00  0.00     0.016 A 
ATOM     47  C   UNL     1       0.566  -6.532  -4.884  1.00  0.00     0.016 A 
ATOM     48  C   UNL     1      -0.461  -5.030  -7.024  1.00  0.00     0.010 A 
ATOM     49  C   UNL     1       1.322  -6.373  -6.041  1.00  0.00     0.010 A 
ATOM     50  C   UNL     1       0.795  -5.642  -7.117  1.00  0.00    -0.014 A 
BRANCH  50  51
ATOM     51  C   UNL     1       1.411  -5.755  -8.450  1.00  0.00     0.031 A 
ATOM     52  C   UNL     1       1.028  -6.955  -9.265  1.00  0.00     0.074 A 
ATOM     53  C   UNL     1       2.228  -4.801  -8.923  1.00  0.00     0.049 A 
ATOM     54  N   UNL     1       1.406  -7.296 -10.465  1.00  0.00    -0.248 NA
ATOM     55  C   UNL     1       0.082  -7.898  -8.639  1.00  0.00     0.031 C 
ATOM     56  C   UNL     1       2.611  -3.583  -8.209  1.00  0.00     0.029 A 
ATOM     57  N   UNL     1       2.883  -4.713 -10.121  1.00  0.00    -0.354 N 
ATOM     58  C   UNL     1       0.743  -8.486 -10.737  1.00  0.00     0.074 A 
ATOM     59  C   UNL     1      -0.035  -8.828  -9.571  1.00  0.00     0.031 C 
ATOM     60  C   UNL     1       3.450  -2.872  -8.985  1.00  0.00     0.029 A 
ATOM     61  C   UNL     1       3.680  -3.600 -10.232  1.00  0.00     0.049 A 
ATOM     62  H   UNL     1       2.791  -5.383 -10.837  1.00  0.00     0.167 HD
ATOM     63  C   UNL     1       0.778  -9.222 -11.870  1.00  0.00     0.037 A 
ATOM     64  C   UNL     1       4.514  -3.236 -11.225  1.00  0.00     0.037 A 
ATOM     65  C   UNL     1       1.580  -8.870 -13.008  1.00  0.00     0.049 A 
ATOM     66  C   UNL     1       4.602  -4.118 -12.446  1.00  0.00     0.074 A 
ATOM     67  C   UNL     1       1.706  -9.536 -14.211  1.00  0.00     0.029 A 
ATOM     68  N   UNL     1       2.408  -7.756 -13.072  1.00  0.00    -0.354 N 
ATOM     69  N   UNL     1       3.952  -5.229 -12.710  1.00  0.00    -0.248 NA
ATOM     70  C   UNL     1       5.529  -3.699 -13.505  1.00  0.00     0.031 C 
ATOM     71  C   UNL     1       2.655  -8.856 -14.981  1.00  0.00     0.029 A 
ATOM     72  C   UNL     1       3.071  -7.730 -14.284  1.00  0.00     0.049 A 
ATOM     73  H   UNL     1       2.507  -7.085 -12.359  1.00  0.00     0.167 HD
ATOM     74  C   UNL     1       4.371  -5.627 -13.975  1.00  0.00     0.074 A 
ATOM     75  C   UNL     1       5.322  -4.630 -14.427  1.00  0.00     0.031 C 
ATOM     76  C   UNL     1       4.006  -6.714 -14.702  1.00  0.00     0.037 A 
BRANCH  63  77
ATOM     77  C   UNL     1      -0.035 -10.484 -11.903  1.00  0.00     0.058 A 
ATOM     78  C   UNL     1      -1.439 -10.463 -11.940  1.00  0.00     0.135 A 
ATOM     79  C   UNL     1       0.601 -11.736 -11.898  1.00  0.00     0.135 A 
ATOM     80  F   UNL     1      -2.099  -9.294 -11.912  1.00  0.00    -0.206 F 
ATOM     81  C   UNL     1      -2.184 -11.637 -11.953  1.00  0.00     0.059 A 
ATOM     82  C   UNL     1      -0.123 -12.923 -11.941  1.00  0.00     0.059 A 
ATOM     83  F   UNL     1       1.940 -11.814 -11.845  1.00  0.00    -0.206 F 
ATOM     84  C   UNL     1      -1.516 -12.863 -11.957  1.00  0.00     0.060 A 
BRANCH  84  85
ATOM     85  S   UNL     1      -2.497 -14.378 -11.992  1.00  0.00     0.124 S 
ATOM     86  O   UNL     1      -3.070 -14.387 -10.649  1.00  0.00    -0.237 OA
ATOM     87  O   UNL     1      -3.434 -14.115 -13.079  1.00  0.00    -0.237 OA
ATOM     88  O   UNL     1      -1.508 -15.418 -12.258  1.00  0.00    -0.744 OA
ENDBRANCH  84  85
ENDBRANCH  63  77
BRANCH  64  89
ATOM     89  C   UNL     1       5.332  -2.000 -11.101  1.00  0.00     0.058 A 
ATOM     90  C   UNL     1       5.106  -0.889 -11.927  1.00  0.00     0.135 A 
ATOM     91  C   UNL     1       6.357  -1.902 -10.146  1.00  0.00     0.135 A 
ATOM     92  F   UNL     1       4.145  -0.933 -12.863  1.00  0.00    -0.206 F 
ATOM     93  C   UNL     1       5.873   0.268 -11.822  1.00  0.00     0.059 A 
ATOM     94  C   UNL     1       7.120  -0.747 -10.002  1.00  0.00     0.059 A 
ATOM     95  F   UNL     1       6.611  -2.932  -9.323  1.00  0.00    -0.206 F 
ATOM     96  C   UNL     1       6.876   0.330 -10.852  1.00  0.00     0.060 A 
BRANCH  96  97
ATOM     97  S   UNL     1       7.832   1.855 -10.692  1.00  0.00     0.124 S 
ATOM     98  O   UNL     1       8.641   1.824 -11.904  1.00  0.00    -0.237 OA
ATOM     99  O   UNL     1       6.782   2.869 -10.649  1.00  0.00    -0.237 OA
ATOM    100  O   UNL     1       8.560   1.665  -9.441  1.00  0.00    -0.744 OA
ENDBRANCH  96  97
ENDBRANCH  64  89
BRANCH  76 101
ATOM    101  C   UNL     1       4.606  -6.863 -16.072  1.00  0.00     0.058 A 
ATOM    102  C   UNL     1       5.948  -7.226 -16.255  1.00  0.00     0.135 A 
ATOM    103  C   UNL     1       3.801  -6.717 -17.214  1.00  0.00     0.135 A 
ATOM    104  F   UNL     1       6.760  -7.374 -15.196  1.00  0.00    -0.206 F 
ATOM    105  C   UNL     1       6.479  -7.419 -17.525  1.00  0.00     0.059 A 
ATOM    106  C   UNL     1       4.302  -6.937 -18.491  1.00  0.00     0.059 A 
ATOM    107  F   UNL     1       2.506  -6.385 -17.091  1.00  0.00    -0.206 F 
ATOM    108  C   UNL     1       5.646  -7.278 -18.637  1.00  0.00     0.060 A 
BRANCH 108 109
ATOM    109  S   UNL     1       6.337  -7.576 -20.277  1.00  0.00     0.124 S 
ATOM    110  O   UNL     1       7.181  -6.400 -20.458  1.00  0.00    -0.237 OA
ATOM    111  O   UNL     1       7.042  -8.841 -20.091  1.00  0.00    -0.237 OA
ATOM    112  O   UNL     1       5.159  -7.642 -21.137  1.00  0.00    -0.744 OA
ENDBRANCH 108 109
ENDBRANCH  76 101
ENDBRANCH  50  51
ENDBRANCH  43  45
ENDBRANCH  42  43
ENDBRANCH  41  42
ENDBRANCH  40  41
ENDBRANCH  39  40
ENDBRANCH  38  39
ENDBRANCH  37  38
ENDBRANCH  36  37
ENDBRANCH   1  36
TORSDOF 29
