REMARK SMILES CCCCCCOC(=O)Nc1cccc(-c2ccc([C@@H](C)C(=O)OCCOCCOCCOCCOC(=O)c3ccc(-c4c5nc(c(-c6c(F)cc(S(=O)(=O)[O-])cc6F)c6ccc([nH]6)c(-c6c(F)cc(S(=O)(=O)[O-])cc6F)c6nc(c(-c7c(F)cc(S(=O)(=O)[O-])cc7F)c7ccc4[nH]7)C=C6)C=C5)cc3)cc2F)c1
REMARK SMILES IDX 27 1 26 2 25 3 24 4 22 5 23 6 20 7 21 8 19 9 16 10 17 11
REMARK SMILES IDX 106 12 18 13 105 14 107 15 15 16 11 17 12 18 108 19 13 20
REMARK SMILES IDX 14 21 10 22 8 23 9 24 7 26 6 27 5 28 4 29 3 30 2 31 1 32
REMARK SMILES IDX 28 33 29 34 30 35 31 36 32 37 33 38 34 39 35 40 36 41 37 42
REMARK SMILES IDX 38 43 39 44 40 45 104 46 41 47 103 48 42 49 43 50 44 51
REMARK SMILES IDX 97 52 45 53 102 54 96 55 98 56 46 57 101 58 95 59 94 60
REMARK SMILES IDX 47 62 81 63 60 64 80 65 61 66 64 67 79 68 99 69 62 70 63 71
REMARK SMILES IDX 78 73 100 74 65 75 48 76 49 77 58 78 50 79 51 80 57 81 59 82
REMARK SMILES IDX 52 83 53 84 54 85 55 86 56 87 82 88 83 89 92 90 84 91 85 92
REMARK SMILES IDX 91 93 93 94 86 95 87 96 88 97 89 98 90 99 66 100 67 101
REMARK SMILES IDX 76 102 68 103 69 104 75 105 77 106 70 107 71 108 72 109
REMARK SMILES IDX 73 110 74 111
REMARK H PARENT 10 25 98 61 64 72
REMARK Flexibility Score: inf
ROOT
ATOM      1  O   UNL     1      -8.476   7.103   4.391  1.00  0.00    -0.376 OA
ENDROOT
BRANCH   1   2
ATOM      2  C   UNL     1      -9.309   7.410   3.282  1.00  0.00     0.202 C 
BRANCH   2   3
ATOM      3  C   UNL     1      -9.466   8.867   2.812  1.00  0.00     0.261 C 
BRANCH   3   4
ATOM      4  O   UNL     1      -8.249   9.588   2.525  1.00  0.00    -0.463 OA
BRANCH   4   5
ATOM      5  C   UNL     1      -7.882  10.526   3.428  1.00  0.00     0.313 C 
ATOM      6  O   UNL     1      -8.519  10.771   4.452  1.00  0.00    -0.252 OA
BRANCH   5   7
ATOM      7  C   UNL     1      -6.620  11.317   3.092  1.00  0.00     0.126 C 
ATOM      8  C   UNL     1      -7.028  12.726   2.675  1.00  0.00     0.025 C 
BRANCH   7   9
ATOM      9  C   UNL     1      -5.553  10.748   2.157  1.00  0.00    -0.031 A 
ATOM     10  C   UNL     1      -3.439   9.753   0.478  1.00  0.00     0.018 A 
ATOM     11  C   UNL     1      -4.747   9.930  -0.007  1.00  0.00     0.012 A 
ATOM     12  C   UNL     1      -3.221  10.069   1.824  1.00  0.00     0.131 A 
ATOM     13  C   UNL     1      -5.786  10.418   0.816  1.00  0.00     0.005 A 
ATOM     14  C   UNL     1      -4.243  10.566   2.644  1.00  0.00     0.044 A 
ATOM     15  F   UNL     1      -1.998   9.939   2.361  1.00  0.00    -0.206 F 
BRANCH  10  16
ATOM     16  C   UNL     1      -2.320   9.365  -0.411  1.00  0.00    -0.013 A 
ATOM     17  C   UNL     1      -0.335   8.021  -0.914  1.00  0.00     0.045 A 
ATOM     18  C   UNL     1      -0.002   8.894  -1.951  1.00  0.00     0.026 A 
ATOM     19  C   UNL     1      -1.497   8.247  -0.157  1.00  0.00     0.035 A 
ATOM     20  C   UNL     1      -0.842   9.956  -2.266  1.00  0.00     0.003 A 
ATOM     21  C   UNL     1      -1.985  10.192  -1.498  1.00  0.00     0.009 A 
BRANCH  17  22
ATOM     22  N   UNL     1       0.600   7.024  -0.597  1.00  0.00    -0.291 N 
ATOM     23  C   UNL     1       0.389   5.796  -0.041  1.00  0.00     0.411 C 
ATOM     24  O   UNL     1       1.290   5.200   0.538  1.00  0.00    -0.224 OA
ATOM     25  H   UNL     1       1.538   7.240  -0.803  1.00  0.00     0.173 HD
BRANCH  23  26
ATOM     26  O   UNL     1      -0.830   5.279  -0.328  1.00  0.00    -0.449 OA
BRANCH  26  27
ATOM     27  C   UNL     1      -1.063   3.920   0.061  1.00  0.00     0.235 C 
BRANCH  27  28
ATOM     28  C   UNL     1      -0.631   2.881  -0.967  1.00  0.00     0.042 C 
BRANCH  28  29
ATOM     29  C   UNL     1       0.845   2.491  -0.916  1.00  0.00     0.003 C 
BRANCH  29  30
ATOM     30  C   UNL     1       1.341   1.981   0.444  1.00  0.00    -0.000 C 
BRANCH  30  31
ATOM     31  C   UNL     1       0.666   0.708   0.960  1.00  0.00    -0.003 C 
ATOM     32  C   UNL     1       0.948  -0.504   0.088  1.00  0.00     0.004 C 
ENDBRANCH  30  31
ENDBRANCH  29  30
ENDBRANCH  28  29
ENDBRANCH  27  28
ENDBRANCH  26  27
ENDBRANCH  23  26
ENDBRANCH  17  22
ENDBRANCH  10  16
ENDBRANCH   7   9
ENDBRANCH   5   7
ENDBRANCH   4   5
ENDBRANCH   3   4
ENDBRANCH   2   3
ENDBRANCH   1   2
BRANCH   1  33
ATOM     33  C   UNL     1      -7.106   7.483   4.401  1.00  0.00     0.188 C 
BRANCH  33  34
ATOM     34  C   UNL     1      -6.273   7.519   3.112  1.00  0.00     0.188 C 
BRANCH  34  35
ATOM     35  O   UNL     1      -6.991   7.262   1.925  1.00  0.00    -0.377 OA
BRANCH  35  36
ATOM     36  C   UNL     1      -6.835   5.972   1.357  1.00  0.00     0.188 C 
BRANCH  36  37
ATOM     37  C   UNL     1      -6.857   4.776   2.327  1.00  0.00     0.188 C 
BRANCH  37  38
ATOM     38  O   UNL     1      -5.881   4.848   3.365  1.00  0.00    -0.376 OA
BRANCH  38  39
ATOM     39  C   UNL     1      -4.643   4.188   3.142  1.00  0.00     0.202 C 
BRANCH  39  40
ATOM     40  C   UNL     1      -3.730   4.802   2.076  1.00  0.00     0.261 C 
BRANCH  40  41
ATOM     41  O   UNL     1      -4.218   4.779   0.721  1.00  0.00    -0.460 OA
BRANCH  41  42
ATOM     42  C   UNL     1      -4.631   3.610   0.184  1.00  0.00     0.338 C 
ATOM     43  O   UNL     1      -4.558   2.508   0.696  1.00  0.00    -0.246 OA
BRANCH  42  44
ATOM     44  C   UNL     1      -5.345   3.900  -1.079  1.00  0.00     0.060 A 
ATOM     45  C   UNL     1      -6.658   3.435  -1.220  1.00  0.00     0.016 A 
ATOM     46  C   UNL     1      -4.731   4.607  -2.118  1.00  0.00     0.016 A 
ATOM     47  C   UNL     1      -7.348   3.640  -2.416  1.00  0.00     0.010 A 
ATOM     48  C   UNL     1      -5.418   4.793  -3.324  1.00  0.00     0.010 A 
ATOM     49  C   UNL     1      -6.718   4.282  -3.490  1.00  0.00    -0.014 A 
BRANCH  49  50
ATOM     50  C   UNL     1      -7.353   4.250  -4.833  1.00  0.00     0.031 A 
ATOM     51  C   UNL     1      -6.923   3.182  -5.805  1.00  0.00     0.074 A 
ATOM     52  C   UNL     1      -8.320   5.122  -5.174  1.00  0.00     0.049 A 
ATOM     53  N   UNL     1      -7.324   2.963  -7.030  1.00  0.00    -0.248 NA
ATOM     54  C   UNL     1      -5.907   2.232  -5.325  1.00  0.00     0.031 C 
ATOM     55  C   UNL     1      -8.855   6.172  -4.309  1.00  0.00     0.029 A 
ATOM     56  N   UNL     1      -9.023   5.261  -6.346  1.00  0.00    -0.354 N 
ATOM     57  C   UNL     1      -6.612   1.852  -7.468  1.00  0.00     0.074 A 
ATOM     58  C   UNL     1      -5.730   1.462  -6.389  1.00  0.00     0.031 C 
ATOM     59  C   UNL     1      -9.796   6.855  -4.984  1.00  0.00     0.029 A 
ATOM     60  C   UNL     1      -9.911   6.311  -6.337  1.00  0.00     0.049 A 
ATOM     61  H   UNL     1      -8.902   4.665  -7.120  1.00  0.00     0.167 HD
ATOM     62  C   UNL     1      -6.691   1.208  -8.656  1.00  0.00     0.037 A 
ATOM     63  C   UNL     1     -10.709   6.787  -7.314  1.00  0.00     0.037 A 
ATOM     64  C   UNL     1      -7.562   1.603  -9.732  1.00  0.00     0.049 A 
ATOM     65  C   UNL     1     -10.722   6.103  -8.659  1.00  0.00     0.074 A 
ATOM     66  C   UNL     1      -7.718   1.013 -10.974  1.00  0.00     0.029 A 
ATOM     67  N   UNL     1      -8.418   2.694  -9.698  1.00  0.00    -0.354 N 
ATOM     68  N   UNL     1     -10.057   5.042  -9.053  1.00  0.00    -0.248 NA
ATOM     69  C   UNL     1     -11.594   6.680  -9.694  1.00  0.00     0.031 C 
ATOM     70  C   UNL     1      -8.631   1.777 -11.709  1.00  0.00     0.029 A 
ATOM     71  C   UNL     1      -9.086   2.810 -10.905  1.00  0.00     0.049 A 
ATOM     72  H   UNL     1      -8.533   3.298  -8.928  1.00  0.00     0.167 HD
ATOM     73  C   UNL     1     -10.454   4.807 -10.366  1.00  0.00     0.074 A 
ATOM     74  C   UNL     1     -11.423   5.831 -10.698  1.00  0.00     0.031 C 
ATOM     75  C   UNL     1     -10.057   3.830 -11.219  1.00  0.00     0.037 A 
BRANCH  62  76
ATOM     76  C   UNL     1      -5.791   0.021  -8.864  1.00  0.00     0.058 A 
ATOM     77  C   UNL     1      -6.006  -1.196  -8.198  1.00  0.00     0.135 A 
ATOM     78  C   UNL     1      -4.714   0.094  -9.762  1.00  0.00     0.135 A 
ATOM     79  F   UNL     1      -7.010  -1.315  -7.314  1.00  0.00    -0.206 F 
ATOM     80  C   UNL     1      -5.170  -2.290  -8.394  1.00  0.00     0.059 A 
ATOM     81  C   UNL     1      -3.881  -0.997  -9.994  1.00  0.00     0.059 A 
ATOM     82  F   UNL     1      -4.460   1.234 -10.423  1.00  0.00    -0.206 F 
ATOM     83  C   UNL     1      -4.109  -2.180  -9.294  1.00  0.00     0.060 A 
BRANCH  83  84
ATOM     84  S   UNL     1      -3.033  -3.609  -9.538  1.00  0.00     0.124 S 
ATOM     85  O   UNL     1      -2.288  -3.629  -8.282  1.00  0.00    -0.237 OA
ATOM     86  O   UNL     1      -3.991  -4.694  -9.723  1.00  0.00    -0.237 OA
ATOM     87  O   UNL     1      -2.256  -3.253 -10.721  1.00  0.00    -0.744 OA
ENDBRANCH  83  84
ENDBRANCH  62  76
BRANCH  63  88
ATOM     88  C   UNL     1     -11.558   7.986  -7.069  1.00  0.00     0.058 A 
ATOM     89  C   UNL     1     -12.957   7.891  -7.021  1.00  0.00     0.135 A 
ATOM     90  C   UNL     1     -10.985   9.256  -6.893  1.00  0.00     0.135 A 
ATOM     91  F   UNL     1     -13.554   6.703  -7.199  1.00  0.00    -0.206 F 
ATOM     92  C   UNL     1     -13.758   9.011  -6.822  1.00  0.00     0.059 A 
ATOM     93  C   UNL     1     -11.764  10.386  -6.665  1.00  0.00     0.059 A 
ATOM     94  F   UNL     1      -9.651   9.402  -6.923  1.00  0.00    -0.206 F 
ATOM     95  C   UNL     1     -13.151  10.255  -6.642  1.00  0.00     0.060 A 
BRANCH  95  96
ATOM     96  S   UNL     1     -14.197  11.696  -6.337  1.00  0.00     0.124 S 
ATOM     97  O   UNL     1     -14.780  11.921  -7.654  1.00  0.00    -0.237 OA
ATOM     98  O   UNL     1     -15.109  11.199  -5.310  1.00  0.00    -0.237 OA
ATOM     99  O   UNL     1     -13.248  12.709  -5.884  1.00  0.00    -0.744 OA
ENDBRANCH  95  96
ENDBRANCH  63  88
BRANCH  75 100
ATOM    100  C   UNL     1     -10.694   3.789 -12.582  1.00  0.00     0.058 A 
ATOM    101  C   UNL     1     -10.383   4.732 -13.574  1.00  0.00     0.135 A 
ATOM    102  C   UNL     1     -11.581   2.753 -12.919  1.00  0.00     0.135 A 
ATOM    103  F   UNL     1      -9.545   5.746 -13.304  1.00  0.00    -0.206 F 
ATOM    104  C   UNL     1     -10.946   4.663 -14.845  1.00  0.00     0.059 A 
ATOM    105  C   UNL     1     -12.133   2.648 -14.192  1.00  0.00     0.059 A 
ATOM    106  F   UNL     1     -11.903   1.817 -12.012  1.00  0.00    -0.206 F 
ATOM    107  C   UNL     1     -11.819   3.615 -15.145  1.00  0.00     0.060 A 
BRANCH 107 108
ATOM    108  S   UNL     1     -12.513   3.515 -16.809  1.00  0.00     0.124 S 
ATOM    109  O   UNL     1     -13.488   4.600 -16.787  1.00  0.00    -0.237 OA
ATOM    110  O   UNL     1     -11.340   3.734 -17.651  1.00  0.00    -0.237 OA
ATOM    111  O   UNL     1     -13.073   2.168 -16.864  1.00  0.00    -0.744 OA
ENDBRANCH 107 108
ENDBRANCH  75 100
ENDBRANCH  49  50
ENDBRANCH  42  44
ENDBRANCH  41  42
ENDBRANCH  40  41
ENDBRANCH  39  40
ENDBRANCH  38  39
ENDBRANCH  37  38
ENDBRANCH  36  37
ENDBRANCH  35  36
ENDBRANCH  34  35
ENDBRANCH  33  34
ENDBRANCH   1  33
TORSDOF 32
