REMARK SMILES Nc1ncccc1C[N@@H+]1CC2(CC[NH2+]CC2)C[C@H]1C(=O)OCCOCCOCCOCCOC(=O)c1ccc(-c2c3nc(c(-c4c(F)cc(S(=O)(=O)[O-])cc4F)c4ccc([nH]4)c(-c4c(F)cc(S(=O)(=O)[O-])cc4F)c4nc(c(-c5c(F)cc(S(=O)(=O)[O-])cc5F)c5ccc2[nH]5)C=C4)C=C3)cc1
REMARK SMILES IDX 27 1 26 2 25 3 24 4 23 5 22 6 21 7 19 8 20 9 18 10 9 11
REMARK SMILES IDX 10 12 11 14 17 15 12 16 16 17 13 18 15 19 14 20 8 23 7 24
REMARK SMILES IDX 2 25 3 26 4 27 6 28 5 29 1 30 28 33 29 34 30 35 31 36 32 37
REMARK SMILES IDX 33 38 34 39 35 40 36 41 37 42 101 43 38 44 100 45 39 46
REMARK SMILES IDX 40 47 41 48 94 49 42 50 99 51 93 52 95 53 43 54 98 55 92 56
REMARK SMILES IDX 91 57 44 59 78 60 57 61 77 62 58 63 61 64 76 65 96 66 59 67
REMARK SMILES IDX 60 68 75 70 97 71 62 72 45 73 46 74 55 75 47 76 48 77 54 78
REMARK SMILES IDX 56 79 49 80 50 81 51 82 52 83 53 84 79 85 80 86 89 87 81 88
REMARK SMILES IDX 82 89 88 90 90 91 83 92 84 93 85 94 86 95 87 96 63 97 64 98
REMARK SMILES IDX 73 99 65 100 66 101 72 102 74 103 67 104 68 105 69 106
REMARK SMILES IDX 70 107 71 108
REMARK H PARENT 9 13 14 21 14 22 1 31 1 32 95 58 61 69
REMARK Flexibility Score: inf
ROOT
ATOM      1  O   UNL     1       0.570  -5.513   3.804  1.00  0.00    -0.377 OA
ENDROOT
BRANCH   1   2
ATOM      2  C   UNL     1       1.657  -4.796   3.255  1.00  0.00     0.188 C 
BRANCH   2   3
ATOM      3  C   UNL     1       2.365  -3.864   4.253  1.00  0.00     0.188 C 
BRANCH   3   4
ATOM      4  O   UNL     1       2.177  -4.015   5.653  1.00  0.00    -0.376 OA
BRANCH   4   5
ATOM      5  C   UNL     1       0.886  -4.183   6.220  1.00  0.00     0.202 C 
BRANCH   5   6
ATOM      6  C   UNL     1      -0.372  -3.456   5.715  1.00  0.00     0.261 C 
BRANCH   6   7
ATOM      7  O   UNL     1      -0.382  -3.048   4.347  1.00  0.00    -0.459 OA
BRANCH   7   8
ATOM      8  C   UNL     1      -0.067  -1.754   4.108  1.00  0.00     0.365 C 
ATOM      9  O   UNL     1       0.231  -0.947   4.985  1.00  0.00    -0.245 OA
BRANCH   8  10
ATOM     10  C   UNL     1      -0.180  -1.350   2.632  1.00  0.00     0.296 C 
ATOM     11  N   UNL     1      -0.054  -2.445   1.647  1.00  0.00    -0.319 N 
ATOM     12  C   UNL     1      -1.392  -2.965   1.351  1.00  0.00     0.270 C 
ATOM     13  H   UNL     1       0.492  -3.187   2.084  1.00  0.00     0.349 HD
ATOM     14  C   UNL     1      -2.422  -1.913   1.820  1.00  0.00     0.036 C 
ATOM     15  C   UNL     1      -1.562  -0.766   2.393  1.00  0.00     0.091 C 
ATOM     16  C   UNL     1      -3.382  -2.489   2.891  1.00  0.00     0.074 C 
ATOM     17  C   UNL     1      -3.298  -1.382   0.667  1.00  0.00     0.074 C 
ATOM     18  C   UNL     1      -4.415  -3.460   2.305  1.00  0.00     0.261 C 
ATOM     19  C   UNL     1      -4.274  -2.423   0.137  1.00  0.00     0.261 C 
ATOM     20  N   UNL     1      -5.166  -2.870   1.196  1.00  0.00    -0.346 N 
ATOM     21  H   UNL     1      -5.698  -2.071   1.541  1.00  0.00     0.346 HD
ATOM     22  H   UNL     1      -5.790  -3.580   0.814  1.00  0.00     0.346 HD
BRANCH  11  23
ATOM     23  C   UNL     1       0.826  -2.207   0.483  1.00  0.00     0.303 C 
BRANCH  23  24
ATOM     24  C   UNL     1       0.679  -0.867  -0.199  1.00  0.00     0.048 A 
ATOM     25  C   UNL     1       1.498   0.220   0.108  1.00  0.00     0.132 A 
ATOM     26  N   UNL     1       1.142   1.492  -0.149  1.00  0.00    -0.239 NA
ATOM     27  C   UNL     1      -0.020   1.694  -0.804  1.00  0.00     0.113 A 
ATOM     28  C   UNL     1      -0.405  -0.632  -1.047  1.00  0.00     0.015 A 
ATOM     29  C   UNL     1      -0.788   0.673  -1.325  1.00  0.00     0.021 A 
BRANCH  25  30
ATOM     30  N   UNL     1       2.723   0.070   0.731  1.00  0.00    -0.383 N 
ATOM     31  H   UNL     1       3.273   0.861   0.932  1.00  0.00     0.158 HD
ATOM     32  H   UNL     1       3.045  -0.828   0.974  1.00  0.00     0.158 HD
ENDBRANCH  25  30
ENDBRANCH  23  24
ENDBRANCH  11  23
ENDBRANCH   8  10
ENDBRANCH   7   8
ENDBRANCH   6   7
ENDBRANCH   5   6
ENDBRANCH   4   5
ENDBRANCH   3   4
ENDBRANCH   2   3
ENDBRANCH   1   2
BRANCH   1  33
ATOM     33  C   UNL     1       0.820  -6.862   4.166  1.00  0.00     0.188 C 
BRANCH  33  34
ATOM     34  C   UNL     1       2.176  -7.202   4.822  1.00  0.00     0.188 C 
BRANCH  34  35
ATOM     35  O   UNL     1       3.312  -6.691   4.133  1.00  0.00    -0.376 OA
BRANCH  35  36
ATOM     36  C   UNL     1       4.035  -7.563   3.277  1.00  0.00     0.202 C 
BRANCH  36  37
ATOM     37  C   UNL     1       3.336  -8.038   1.992  1.00  0.00     0.261 C 
BRANCH  37  38
ATOM     38  O   UNL     1       2.095  -8.737   2.162  1.00  0.00    -0.460 OA
BRANCH  38  39
ATOM     39  C   UNL     1       2.116  -9.873   2.899  1.00  0.00     0.338 C 
ATOM     40  O   UNL     1       3.086 -10.405   3.388  1.00  0.00    -0.246 OA
BRANCH  39  41
ATOM     41  C   UNL     1       0.711 -10.250   3.178  1.00  0.00     0.060 A 
ATOM     42  C   UNL     1       0.293 -10.354   4.512  1.00  0.00     0.016 A 
ATOM     43  C   UNL     1      -0.185 -10.496   2.136  1.00  0.00     0.016 A 
ATOM     44  C   UNL     1      -1.012 -10.747   4.807  1.00  0.00     0.010 A 
ATOM     45  C   UNL     1      -1.486 -10.912   2.433  1.00  0.00     0.010 A 
ATOM     46  C   UNL     1      -1.893 -11.076   3.769  1.00  0.00    -0.014 A 
BRANCH  46  47
ATOM     47  C   UNL     1      -3.153 -11.799   4.075  1.00  0.00     0.031 A 
ATOM     48  C   UNL     1      -3.164 -13.297   3.923  1.00  0.00     0.074 A 
ATOM     49  C   UNL     1      -4.253 -11.152   4.501  1.00  0.00     0.049 A 
ATOM     50  N   UNL     1      -4.150 -14.141   4.070  1.00  0.00    -0.248 NA
ATOM     51  C   UNL     1      -1.885 -13.925   3.550  1.00  0.00     0.031 C 
ATOM     52  C   UNL     1      -4.351  -9.713   4.736  1.00  0.00     0.029 A 
ATOM     53  N   UNL     1      -5.504 -11.629   4.803  1.00  0.00    -0.354 N 
ATOM     54  C   UNL     1      -3.615 -15.397   3.803  1.00  0.00     0.074 A 
ATOM     55  C   UNL     1      -2.227 -15.200   3.450  1.00  0.00     0.031 C 
ATOM     56  C   UNL     1      -5.603  -9.421   5.133  1.00  0.00     0.029 A 
ATOM     57  C   UNL     1      -6.402 -10.646   5.146  1.00  0.00     0.049 A 
ATOM     58  H   UNL     1      -5.737 -12.585   4.776  1.00  0.00     0.167 HD
ATOM     59  C   UNL     1      -4.223 -16.605   3.859  1.00  0.00     0.037 A 
ATOM     60  C   UNL     1      -7.722 -10.727   5.414  1.00  0.00     0.037 A 
ATOM     61  C   UNL     1      -5.607 -16.793   4.205  1.00  0.00     0.049 A 
ATOM     62  C   UNL     1      -8.400 -12.076   5.382  1.00  0.00     0.074 A 
ATOM     63  C   UNL     1      -6.319 -17.976   4.293  1.00  0.00     0.029 A 
ATOM     64  N   UNL     1      -6.492 -15.770   4.513  1.00  0.00    -0.354 N 
ATOM     65  N   UNL     1      -7.881 -13.258   5.143  1.00  0.00    -0.248 NA
ATOM     66  C   UNL     1      -9.844 -12.103   5.659  1.00  0.00     0.031 C 
ATOM     67  C   UNL     1      -7.647 -17.664   4.597  1.00  0.00     0.029 A 
ATOM     68  C   UNL     1      -7.750 -16.293   4.766  1.00  0.00     0.049 A 
ATOM     69  H   UNL     1      -6.261 -14.813   4.547  1.00  0.00     0.167 HD
ATOM     70  C   UNL     1      -8.925 -14.169   5.277  1.00  0.00     0.074 A 
ATOM     71  C   UNL     1     -10.103 -13.402   5.627  1.00  0.00     0.031 C 
ATOM     72  C   UNL     1      -8.911 -15.518   5.128  1.00  0.00     0.037 A 
BRANCH  59  73
ATOM     73  C   UNL     1      -3.400 -17.816   3.509  1.00  0.00     0.058 A 
ATOM     74  C   UNL     1      -2.369 -18.277   4.344  1.00  0.00     0.135 A 
ATOM     75  C   UNL     1      -3.666 -18.542   2.337  1.00  0.00     0.135 A 
ATOM     76  F   UNL     1      -2.056 -17.610   5.466  1.00  0.00    -0.206 F 
ATOM     77  C   UNL     1      -1.614 -19.399   4.016  1.00  0.00     0.059 A 
ATOM     78  C   UNL     1      -2.945 -19.685   2.005  1.00  0.00     0.059 A 
ATOM     79  F   UNL     1      -4.636 -18.143   1.500  1.00  0.00    -0.206 F 
ATOM     80  C   UNL     1      -1.912 -20.098   2.845  1.00  0.00     0.060 A 
BRANCH  80  81
ATOM     81  S   UNL     1      -0.928 -21.556   2.439  1.00  0.00     0.124 S 
ATOM     82  O   UNL     1       0.354 -20.954   2.086  1.00  0.00    -0.237 OA
ATOM     83  O   UNL     1      -0.953 -22.305   3.691  1.00  0.00    -0.237 OA
ATOM     84  O   UNL     1      -1.660 -22.164   1.332  1.00  0.00    -0.744 OA
ENDBRANCH  80  81
ENDBRANCH  59  73
BRANCH  60  85
ATOM     85  C   UNL     1      -8.502  -9.496   5.724  1.00  0.00     0.058 A 
ATOM     86  C   UNL     1      -9.056  -9.290   6.996  1.00  0.00     0.135 A 
ATOM     87  C   UNL     1      -8.728  -8.512   4.749  1.00  0.00     0.135 A 
ATOM     88  F   UNL     1      -8.882 -10.207   7.960  1.00  0.00    -0.206 F 
ATOM     89  C   UNL     1      -9.822  -8.164   7.286  1.00  0.00     0.059 A 
ATOM     90  C   UNL     1      -9.464  -7.363   5.023  1.00  0.00     0.059 A 
ATOM     91  F   UNL     1      -8.216  -8.656   3.516  1.00  0.00    -0.206 F 
ATOM     92  C   UNL     1     -10.017  -7.204   6.292  1.00  0.00     0.060 A 
BRANCH  92  93
ATOM     93  S   UNL     1     -10.979  -5.729   6.693  1.00  0.00     0.124 S 
ATOM     94  O   UNL     1     -12.327  -6.276   6.798  1.00  0.00    -0.237 OA
ATOM     95  O   UNL     1     -10.365  -5.296   7.944  1.00  0.00    -0.237 OA
ATOM     96  O   UNL     1     -10.742  -4.852   5.550  1.00  0.00    -0.744 OA
ENDBRANCH  92  93
ENDBRANCH  60  85
BRANCH  72  97
ATOM     97  C   UNL     1     -10.192 -16.266   5.393  1.00  0.00     0.058 A 
ATOM     98  C   UNL     1     -11.290 -16.193   4.523  1.00  0.00     0.135 A 
ATOM     99  C   UNL     1     -10.296 -17.117   6.507  1.00  0.00     0.135 A 
ATOM    100  F   UNL     1     -11.248 -15.393   3.446  1.00  0.00    -0.206 F 
ATOM    101  C   UNL     1     -12.456 -16.916   4.761  1.00  0.00     0.059 A 
ATOM    102  C   UNL     1     -11.438 -17.875   6.745  1.00  0.00     0.059 A 
ATOM    103  F   UNL     1      -9.271 -17.236   7.366  1.00  0.00    -0.206 F 
ATOM    104  C   UNL     1     -12.518 -17.758   5.873  1.00  0.00     0.060 A 
BRANCH 104 105
ATOM    105  S   UNL     1     -14.023 -18.718   6.148  1.00  0.00     0.124 S 
ATOM    106  O   UNL     1     -14.960 -17.681   6.568  1.00  0.00    -0.237 OA
ATOM    107  O   UNL     1     -14.267 -19.298   4.832  1.00  0.00    -0.237 OA
ATOM    108  O   UNL     1     -13.635 -19.670   7.185  1.00  0.00    -0.744 OA
ENDBRANCH 104 105
ENDBRANCH  72  97
ENDBRANCH  46  47
ENDBRANCH  39  41
ENDBRANCH  38  39
ENDBRANCH  37  38
ENDBRANCH  36  37
ENDBRANCH  35  36
ENDBRANCH  34  35
ENDBRANCH  33  34
ENDBRANCH   1  33
TORSDOF 26
