REMARK SMILES C[C@@H]1[C@H](C)CCC[C@H]1NC(=O)C[N@@H+]1CCC[C@@H]1C(=O)OCCOCCOCCOCCOC(=O)c1ccc(-c2c3nc(c(-c4c(F)cc(S(=O)(=O)[O-])cc4F)c4ccc([nH]4)c(-c4c(F)cc(S(=O)(=O)[O-])cc4F)c4nc(c(-c5c(F)cc(S(=O)(=O)[O-])cc5F)c5ccc2[nH]5)C=C4)C=C3)cc1
REMARK SMILES IDX 26 1 25 2 24 3 23 4 22 5 21 6 20 7 18 8 19 9 17 10 13 11
REMARK SMILES IDX 14 12 15 14 16 15 12 16 10 17 9 18 11 20 8 21 1 22 2 23 3 24
REMARK SMILES IDX 4 25 5 26 7 27 6 28 27 29 28 30 29 31 30 32 31 33 32 34
REMARK SMILES IDX 33 35 34 36 35 37 36 38 100 39 37 40 99 41 38 42 39 43 40 44
REMARK SMILES IDX 93 45 41 46 98 47 92 48 94 49 42 50 97 51 91 52 90 53 43 55
REMARK SMILES IDX 77 56 56 57 76 58 57 59 60 60 75 61 95 62 58 63 59 64 74 66
REMARK SMILES IDX 96 67 61 68 44 69 45 70 54 71 46 72 47 73 53 74 55 75 48 76
REMARK SMILES IDX 49 77 50 78 51 79 52 80 78 81 79 82 88 83 80 84 81 85 87 86
REMARK SMILES IDX 89 87 82 88 83 89 84 90 85 91 86 92 62 93 63 94 72 95 64 96
REMARK SMILES IDX 65 97 71 98 73 99 66 100 67 101 68 102 69 103 70 104
REMARK H PARENT 13 13 9 19 94 54 60 65
REMARK Flexibility Score: inf
ROOT
ATOM      1  O   UNL     1       2.268   1.308   8.047  1.00  0.00    -0.377 OA
ENDROOT
BRANCH   1   2
ATOM      2  C   UNL     1       3.670   1.452   8.031  1.00  0.00     0.188 C 
BRANCH   2   3
ATOM      3  C   UNL     1       4.183   2.897   8.123  1.00  0.00     0.188 C 
BRANCH   3   4
ATOM      4  O   UNL     1       3.339   3.998   8.418  1.00  0.00    -0.376 OA
BRANCH   4   5
ATOM      5  C   UNL     1       2.006   4.142   7.951  1.00  0.00     0.202 C 
BRANCH   5   6
ATOM      6  C   UNL     1       1.558   3.884   6.506  1.00  0.00     0.261 C 
BRANCH   6   7
ATOM      7  O   UNL     1       2.088   2.725   5.866  1.00  0.00    -0.459 OA
BRANCH   7   8
ATOM      8  C   UNL     1       3.255   2.925   5.213  1.00  0.00     0.365 C 
ATOM      9  O   UNL     1       3.864   3.992   5.174  1.00  0.00    -0.245 OA
BRANCH   8  10
ATOM     10  C   UNL     1       3.788   1.659   4.538  1.00  0.00     0.295 C 
ATOM     11  N   UNL     1       3.828   1.713   3.061  1.00  0.00    -0.315 N 
ATOM     12  C   UNL     1       3.437   0.409   2.554  1.00  0.00     0.263 C 
ATOM     13  H   UNL     1       4.791   1.883   2.770  1.00  0.00     0.349 HD
ATOM     14  C   UNL     1       2.556  -0.211   3.615  1.00  0.00     0.068 C 
ATOM     15  C   UNL     1       3.160   0.303   4.898  1.00  0.00     0.083 C 
BRANCH  11  16
ATOM     16  C   UNL     1       3.341   2.928   2.383  1.00  0.00     0.364 C 
BRANCH  16  17
ATOM     17  C   UNL     1       1.874   3.313   2.642  1.00  0.00     0.275 C 
ATOM     18  N   UNL     1       0.865   2.655   2.014  1.00  0.00    -0.348 N 
ATOM     19  H   UNL     1      -0.004   2.634   2.476  1.00  0.00     0.163 HD
ATOM     20  O   UNL     1       1.552   4.230   3.399  1.00  0.00    -0.268 OA
BRANCH  18  21
ATOM     21  C   UNL     1       0.941   1.983   0.733  1.00  0.00     0.085 C 
ATOM     22  C   UNL     1       0.714  -0.299  -0.296  1.00  0.00     0.010 C 
ATOM     23  C   UNL     1       0.169   0.651   0.777  1.00  0.00     0.011 C 
ATOM     24  C   UNL     1      -1.358   0.881   0.710  1.00  0.00    -0.009 C 
ATOM     25  C   UNL     1      -2.144  -0.429   0.672  1.00  0.00     0.008 C 
ATOM     26  C   UNL     1      -1.749   1.791  -0.462  1.00  0.00     0.004 C 
ATOM     27  C   UNL     1       0.490   2.939  -0.373  1.00  0.00     0.025 C 
ATOM     28  C   UNL     1      -1.020   3.130  -0.400  1.00  0.00     0.002 C 
ENDBRANCH  18  21
ENDBRANCH  16  17
ENDBRANCH  11  16
ENDBRANCH   8  10
ENDBRANCH   7   8
ENDBRANCH   6   7
ENDBRANCH   5   6
ENDBRANCH   4   5
ENDBRANCH   3   4
ENDBRANCH   2   3
ENDBRANCH   1   2
BRANCH   1  29
ATOM     29  C   UNL     1       1.633   1.151   9.308  1.00  0.00     0.188 C 
BRANCH  29  30
ATOM     30  C   UNL     1       2.311   1.750  10.557  1.00  0.00     0.188 C 
BRANCH  30  31
ATOM     31  O   UNL     1       3.701   1.478  10.661  1.00  0.00    -0.376 OA
BRANCH  31  32
ATOM     32  C   UNL     1       4.143   0.347  11.394  1.00  0.00     0.202 C 
BRANCH  32  33
ATOM     33  C   UNL     1       3.686  -1.054  10.951  1.00  0.00     0.261 C 
BRANCH  33  34
ATOM     34  O   UNL     1       2.273  -1.299  10.902  1.00  0.00    -0.460 OA
BRANCH  34  35
ATOM     35  C   UNL     1       1.543  -1.049  12.012  1.00  0.00     0.338 C 
ATOM     36  O   UNL     1       1.958  -0.706  13.097  1.00  0.00    -0.246 OA
BRANCH  35  37
ATOM     37  C   UNL     1       0.115  -1.062  11.615  1.00  0.00     0.060 A 
ATOM     38  C   UNL     1      -0.658   0.088  11.825  1.00  0.00     0.016 A 
ATOM     39  C   UNL     1      -0.453  -2.201  11.041  1.00  0.00     0.016 A 
ATOM     40  C   UNL     1      -2.016   0.086  11.505  1.00  0.00     0.010 A 
ATOM     41  C   UNL     1      -1.819  -2.212  10.747  1.00  0.00     0.010 A 
ATOM     42  C   UNL     1      -2.613  -1.083  11.018  1.00  0.00    -0.014 A 
BRANCH  42  43
ATOM     43  C   UNL     1      -4.091  -1.203  11.016  1.00  0.00     0.031 A 
ATOM     44  C   UNL     1      -4.742  -1.899  12.182  1.00  0.00     0.074 A 
ATOM     45  C   UNL     1      -4.840  -0.695  10.023  1.00  0.00     0.049 A 
ATOM     46  N   UNL     1      -6.002  -2.178  12.386  1.00  0.00    -0.248 NA
ATOM     47  C   UNL     1      -3.844  -2.344  13.260  1.00  0.00     0.031 C 
ATOM     48  C   UNL     1      -4.329   0.048   8.873  1.00  0.00     0.029 A 
ATOM     49  N   UNL     1      -6.197  -0.736   9.824  1.00  0.00    -0.354 N 
ATOM     50  C   UNL     1      -6.046  -2.847  13.605  1.00  0.00     0.074 A 
ATOM     51  C   UNL     1      -4.685  -2.955  14.079  1.00  0.00     0.031 C 
ATOM     52  C   UNL     1      -5.363   0.387   8.082  1.00  0.00     0.029 A 
ATOM     53  C   UNL     1      -6.600  -0.147   8.650  1.00  0.00     0.049 A 
ATOM     54  H   UNL     1      -6.823  -1.148  10.463  1.00  0.00     0.167 HD
ATOM     55  C   UNL     1      -7.125  -3.324  14.269  1.00  0.00     0.037 A 
ATOM     56  C   UNL     1      -7.825  -0.070   8.091  1.00  0.00     0.037 A 
ATOM     57  C   UNL     1      -8.477  -3.212  13.787  1.00  0.00     0.049 A 
ATOM     58  C   UNL     1      -9.004  -0.679   8.809  1.00  0.00     0.074 A 
ATOM     59  C   UNL     1      -9.644  -3.637  14.394  1.00  0.00     0.029 A 
ATOM     60  N   UNL     1      -8.841  -2.647  12.572  1.00  0.00    -0.354 N 
ATOM     61  N   UNL     1      -9.039  -1.288   9.971  1.00  0.00    -0.248 NA
ATOM     62  C   UNL     1     -10.309  -0.590   8.139  1.00  0.00     0.031 C 
ATOM     63  C   UNL     1     -10.706  -3.392  13.517  1.00  0.00     0.029 A 
ATOM     64  C   UNL     1     -10.211  -2.748  12.394  1.00  0.00     0.049 A 
ATOM     65  H   UNL     1      -8.217  -2.236  11.931  1.00  0.00     0.167 HD
ATOM     66  C   UNL     1     -10.373  -1.623  10.188  1.00  0.00     0.074 A 
ATOM     67  C   UNL     1     -11.113  -1.144   9.038  1.00  0.00     0.031 C 
ATOM     68  C   UNL     1     -10.936  -2.263  11.244  1.00  0.00     0.037 A 
BRANCH  55  69
ATOM     69  C   UNL     1      -6.878  -4.057  15.560  1.00  0.00     0.058 A 
ATOM     70  C   UNL     1      -6.418  -3.404  16.716  1.00  0.00     0.135 A 
ATOM     71  C   UNL     1      -7.112  -5.439  15.642  1.00  0.00     0.135 A 
ATOM     72  F   UNL     1      -6.158  -2.087  16.691  1.00  0.00    -0.206 F 
ATOM     73  C   UNL     1      -6.162  -4.102  17.892  1.00  0.00     0.059 A 
ATOM     74  C   UNL     1      -6.896  -6.151  16.818  1.00  0.00     0.059 A 
ATOM     75  F   UNL     1      -7.549  -6.116  14.568  1.00  0.00    -0.206 F 
ATOM     76  C   UNL     1      -6.402  -5.476  17.932  1.00  0.00     0.060 A 
BRANCH  76  77
ATOM     77  S   UNL     1      -6.050  -6.370  19.460  1.00  0.00     0.124 S 
ATOM     78  O   UNL     1      -4.590  -6.352  19.478  1.00  0.00    -0.237 OA
ATOM     79  O   UNL     1      -6.706  -5.539  20.465  1.00  0.00    -0.237 OA
ATOM     80  O   UNL     1      -6.657  -7.678  19.238  1.00  0.00    -0.744 OA
ENDBRANCH  76  77
ENDBRANCH  55  69
BRANCH  56  81
ATOM     81  C   UNL     1      -8.001   0.612   6.780  1.00  0.00     0.058 A 
ATOM     82  C   UNL     1      -8.698   1.826   6.685  1.00  0.00     0.135 A 
ATOM     83  C   UNL     1      -7.466   0.073   5.599  1.00  0.00     0.135 A 
ATOM     84  F   UNL     1      -9.243   2.373   7.782  1.00  0.00    -0.206 F 
ATOM     85  C   UNL     1      -8.861   2.480   5.468  1.00  0.00     0.059 A 
ATOM     86  C   UNL     1      -7.593   0.722   4.375  1.00  0.00     0.059 A 
ATOM     87  F   UNL     1      -6.787  -1.084   5.634  1.00  0.00    -0.206 F 
ATOM     88  C   UNL     1      -8.296   1.924   4.319  1.00  0.00     0.060 A 
BRANCH  88  89
ATOM     89  S   UNL     1      -8.453   2.820   2.758  1.00  0.00     0.124 S 
ATOM     90  O   UNL     1      -9.873   2.661   2.467  1.00  0.00    -0.237 OA
ATOM     91  O   UNL     1      -8.024   4.163   3.135  1.00  0.00    -0.237 OA
ATOM     92  O   UNL     1      -7.542   2.106   1.868  1.00  0.00    -0.744 OA
ENDBRANCH  88  89
ENDBRANCH  56  81
BRANCH  68  93
ATOM     93  C   UNL     1     -12.431  -2.448  11.236  1.00  0.00     0.058 A 
ATOM     94  C   UNL     1     -13.065  -3.347  10.364  1.00  0.00     0.135 A 
ATOM     95  C   UNL     1     -13.235  -1.758  12.159  1.00  0.00     0.135 A 
ATOM     96  F   UNL     1     -12.348  -4.030   9.458  1.00  0.00    -0.206 F 
ATOM     97  C   UNL     1     -14.444  -3.536  10.390  1.00  0.00     0.059 A 
ATOM     98  C   UNL     1     -14.611  -1.956  12.226  1.00  0.00     0.059 A 
ATOM     99  F   UNL     1     -12.681  -0.894  13.026  1.00  0.00    -0.206 F 
ATOM    100  C   UNL     1     -15.208  -2.838  11.328  1.00  0.00     0.060 A 
BRANCH 100 101
ATOM    101  S   UNL     1     -16.991  -3.120  11.373  1.00  0.00     0.124 S 
ATOM    102  O   UNL     1     -17.425  -2.454  10.149  1.00  0.00    -0.237 OA
ATOM    103  O   UNL     1     -17.076  -4.577  11.368  1.00  0.00    -0.237 OA
ATOM    104  O   UNL     1     -17.406  -2.478  12.617  1.00  0.00    -0.744 OA
ENDBRANCH 100 101
ENDBRANCH  68  93
ENDBRANCH  42  43
ENDBRANCH  35  37
ENDBRANCH  34  35
ENDBRANCH  33  34
ENDBRANCH  32  33
ENDBRANCH  31  32
ENDBRANCH  30  31
ENDBRANCH  29  30
ENDBRANCH   1  29
TORSDOF 26
