REMARK SMILES Nc1nccc(N2CCC[C@@](Cc3ccc(F)cc3F)(C(=O)OCCOCCOCCOCCOC(=O)c3ccc(-c4c5nc(c(-c6c(F)cc(S(=O)(=O)[O-])cc6F)c6ccc([nH]6)c(-c6c(F)cc(S(=O)(=O)[O-])cc6F)c6nc(c(-c7c(F)cc(S(=O)(=O)[O-])cc7F)c7ccc4[nH]7)C=C6)C=C5)cc3)C2)n1
REMARK SMILES IDX 30 1 29 2 28 3 27 4 26 5 25 6 24 7 23 8 21 9 22 10 11 11
REMARK SMILES IDX 7 12 8 13 104 14 9 15 10 16 6 17 2 18 3 19 105 20 4 21 5 22
REMARK SMILES IDX 1 23 12 26 13 27 14 28 19 29 15 30 18 31 20 32 16 33 17 34
REMARK SMILES IDX 31 35 32 36 33 37 34 38 35 39 36 40 37 41 38 42 39 43 103 44
REMARK SMILES IDX 40 45 102 46 41 47 42 48 43 49 96 50 44 51 101 52 95 53
REMARK SMILES IDX 97 54 45 55 100 56 94 57 93 58 46 60 80 61 59 62 79 63 60 64
REMARK SMILES IDX 63 65 78 66 98 67 61 68 62 69 77 71 99 72 64 73 47 74 48 75
REMARK SMILES IDX 57 76 49 77 50 78 56 79 58 80 51 81 52 82 53 83 54 84 55 85
REMARK SMILES IDX 81 86 82 87 91 88 83 89 84 90 90 91 92 92 85 93 86 94 87 95
REMARK SMILES IDX 88 96 89 97 65 98 66 99 75 100 67 101 68 102 74 103 76 104
REMARK SMILES IDX 69 105 70 106 71 107 72 108 73 109
REMARK H PARENT 1 24 1 25 97 59 63 70
REMARK Flexibility Score: inf
ROOT
ATOM      1  C   UNL     1       3.045  -8.482  -2.534  1.00  0.00     0.188 C 
ENDROOT
BRANCH   1   2
ATOM      2  O   UNL     1       2.842  -7.142  -2.100  1.00  0.00    -0.377 OA
BRANCH   2   3
ATOM      3  C   UNL     1       1.552  -6.714  -1.719  1.00  0.00     0.188 C 
BRANCH   3   4
ATOM      4  C   UNL     1       0.569  -6.355  -2.837  1.00  0.00     0.188 C 
BRANCH   4   5
ATOM      5  O   UNL     1       0.675  -6.985  -4.093  1.00  0.00    -0.376 OA
BRANCH   5   6
ATOM      6  C   UNL     1       1.762  -6.755  -4.974  1.00  0.00     0.202 C 
BRANCH   6   7
ATOM      7  C   UNL     1       2.765  -5.592  -4.900  1.00  0.00     0.261 C 
BRANCH   7   8
ATOM      8  O   UNL     1       3.140  -5.093  -3.609  1.00  0.00    -0.463 OA
BRANCH   8   9
ATOM      9  C   UNL     1       2.612  -3.891  -3.300  1.00  0.00     0.314 C 
ATOM     10  O   UNL     1       1.797  -3.316  -4.021  1.00  0.00    -0.252 OA
BRANCH   9  11
ATOM     11  C   UNL     1       3.144  -3.244  -2.021  1.00  0.00     0.090 C 
ATOM     12  N   UNL     1       2.120  -2.076  -0.121  1.00  0.00    -0.355 N 
ATOM     13  C   UNL     1       2.699  -2.881   0.934  1.00  0.00     0.118 C 
ATOM     14  C   UNL     1       1.830  -2.742  -1.375  1.00  0.00     0.137 C 
ATOM     15  C   UNL     1       4.034  -3.421   0.413  1.00  0.00     0.023 C 
ATOM     16  C   UNL     1       3.900  -4.109  -0.965  1.00  0.00     0.023 C 
BRANCH  12  17
ATOM     17  C   UNL     1       1.302  -1.000   0.169  1.00  0.00     0.134 A 
ATOM     18  C   UNL     1      -0.764  -0.016   0.170  1.00  0.00     0.221 A 
ATOM     19  N   UNL     1      -0.266   1.221   0.266  1.00  0.00    -0.222 NA
ATOM     20  N   UNL     1      -0.035  -1.134   0.104  1.00  0.00    -0.196 NA
ATOM     21  C   UNL     1       1.072   1.316   0.326  1.00  0.00     0.119 A 
ATOM     22  C   UNL     1       1.906   0.231   0.304  1.00  0.00     0.067 A 
BRANCH  18  23
ATOM     23  N   UNL     1      -2.123  -0.132   0.095  1.00  0.00    -0.368 N 
ATOM     24  H   UNL     1      -2.689   0.673   0.140  1.00  0.00     0.159 HD
ATOM     25  H   UNL     1      -2.537  -1.020  -0.004  1.00  0.00     0.159 HD
ENDBRANCH  18  23
ENDBRANCH  12  17
BRANCH  11  26
ATOM     26  C   UNL     1       4.041  -2.059  -2.507  1.00  0.00     0.059 C 
BRANCH  26  27
ATOM     27  C   UNL     1       5.361  -2.523  -3.102  1.00  0.00    -0.011 A 
ATOM     28  C   UNL     1       5.412  -3.121  -4.371  1.00  0.00     0.010 A 
ATOM     29  C   UNL     1       6.535  -2.494  -2.336  1.00  0.00     0.129 A 
ATOM     30  C   UNL     1       6.569  -3.776  -4.797  1.00  0.00     0.040 A 
ATOM     31  C   UNL     1       7.697  -3.123  -2.763  1.00  0.00     0.078 A 
ATOM     32  F   UNL     1       6.531  -1.903  -1.132  1.00  0.00    -0.207 F 
ATOM     33  C   UNL     1       7.693  -3.786  -3.981  1.00  0.00     0.126 A 
ATOM     34  F   UNL     1       8.783  -4.459  -4.368  1.00  0.00    -0.207 F 
ENDBRANCH  26  27
ENDBRANCH  11  26
ENDBRANCH   9  11
ENDBRANCH   8   9
ENDBRANCH   7   8
ENDBRANCH   6   7
ENDBRANCH   5   6
ENDBRANCH   4   5
ENDBRANCH   3   4
ENDBRANCH   2   3
ENDBRANCH   1   2
BRANCH   1  35
ATOM     35  C   UNL     1       1.852  -9.446  -2.678  1.00  0.00     0.188 C 
BRANCH  35  36
ATOM     36  O   UNL     1       0.833  -9.286  -1.706  1.00  0.00    -0.376 OA
BRANCH  36  37
ATOM     37  C   UNL     1       0.898 -10.053  -0.513  1.00  0.00     0.202 C 
BRANCH  37  38
ATOM     38  C   UNL     1       2.153  -9.930   0.368  1.00  0.00     0.261 C 
BRANCH  38  39
ATOM     39  O   UNL     1       3.399 -10.347  -0.214  1.00  0.00    -0.460 OA
BRANCH  39  40
ATOM     40  C   UNL     1       3.470 -11.577  -0.770  1.00  0.00     0.338 C 
ATOM     41  O   UNL     1       2.611 -12.433  -0.775  1.00  0.00    -0.246 OA
BRANCH  40  42
ATOM     42  C   UNL     1       4.721 -11.635  -1.557  1.00  0.00     0.060 A 
ATOM     43  C   UNL     1       4.646 -11.857  -2.938  1.00  0.00     0.016 A 
ATOM     44  C   UNL     1       5.958 -11.483  -0.929  1.00  0.00     0.016 A 
ATOM     45  C   UNL     1       5.814 -11.969  -3.691  1.00  0.00     0.010 A 
ATOM     46  C   UNL     1       7.127 -11.618  -1.680  1.00  0.00     0.010 A 
ATOM     47  C   UNL     1       7.060 -11.898  -3.057  1.00  0.00    -0.014 A 
BRANCH  47  48
ATOM     48  C   UNL     1       8.283 -12.312  -3.786  1.00  0.00     0.031 A 
ATOM     49  C   UNL     1       8.802 -13.707  -3.571  1.00  0.00     0.074 A 
ATOM     50  C   UNL     1       8.910 -11.475  -4.630  1.00  0.00     0.049 A 
ATOM     51  N   UNL     1       9.881 -14.274  -4.042  1.00  0.00    -0.248 NA
ATOM     52  C   UNL     1       7.994 -14.579  -2.701  1.00  0.00     0.031 C 
ATOM     53  C   UNL     1       8.473 -10.119  -4.953  1.00  0.00     0.029 A 
ATOM     54  N   UNL     1      10.059 -11.644  -5.362  1.00  0.00    -0.354 N 
ATOM     55  C   UNL     1       9.890 -15.562  -3.517  1.00  0.00     0.074 A 
ATOM     56  C   UNL     1       8.725 -15.682  -2.669  1.00  0.00     0.031 C 
ATOM     57  C   UNL     1       9.352  -9.572  -5.810  1.00  0.00     0.029 A 
ATOM     58  C   UNL     1      10.433 -10.524  -6.066  1.00  0.00     0.049 A 
ATOM     59  H   UNL     1      10.567 -12.487  -5.381  1.00  0.00     0.167 HD
ATOM     60  C   UNL     1      10.786 -16.555  -3.730  1.00  0.00     0.037 A 
ATOM     61  C   UNL     1      11.534 -10.288  -6.808  1.00  0.00     0.037 A 
ATOM     62  C   UNL     1      11.945 -16.419  -4.572  1.00  0.00     0.049 A 
ATOM     63  C   UNL     1      12.560 -11.380  -6.973  1.00  0.00     0.074 A 
ATOM     64  C   UNL     1      12.906 -17.369  -4.870  1.00  0.00     0.029 A 
ATOM     65  N   UNL     1      12.309 -15.258  -5.240  1.00  0.00    -0.354 N 
ATOM     66  N   UNL     1      12.551 -12.600  -6.488  1.00  0.00    -0.248 NA
ATOM     67  C   UNL     1      13.744 -11.067  -7.784  1.00  0.00     0.031 C 
ATOM     68  C   UNL     1      13.884 -16.764  -5.666  1.00  0.00     0.029 A 
ATOM     69  C   UNL     1      13.499 -15.456  -5.921  1.00  0.00     0.049 A 
ATOM     70  H   UNL     1      11.797 -14.417  -5.231  1.00  0.00     0.167 HD
ATOM     71  C   UNL     1      13.716 -13.205  -6.949  1.00  0.00     0.074 A 
ATOM     72  C   UNL     1      14.401 -12.220  -7.762  1.00  0.00     0.031 C 
ATOM     73  C   UNL     1      14.174 -14.463  -6.723  1.00  0.00     0.037 A 
BRANCH  60  74
ATOM     74  C   UNL     1      10.566 -17.857  -3.007  1.00  0.00     0.058 A 
ATOM     75  C   UNL     1      11.447 -18.261  -1.990  1.00  0.00     0.135 A 
ATOM     76  C   UNL     1       9.499 -18.714  -3.324  1.00  0.00     0.135 A 
ATOM     77  F   UNL     1      12.483 -17.481  -1.643  1.00  0.00    -0.206 F 
ATOM     78  C   UNL     1      11.278 -19.463  -1.309  1.00  0.00     0.059 A 
ATOM     79  C   UNL     1       9.292 -19.905  -2.633  1.00  0.00     0.059 A 
ATOM     80  F   UNL     1       8.615 -18.372  -4.275  1.00  0.00    -0.206 F 
ATOM     81  C   UNL     1      10.187 -20.270  -1.626  1.00  0.00     0.060 A 
BRANCH  81  82
ATOM     82  S   UNL     1       9.890 -21.807  -0.728  1.00  0.00     0.124 S 
ATOM     83  O   UNL     1       8.672 -21.485   0.009  1.00  0.00    -0.237 OA
ATOM     84  O   UNL     1       9.739 -22.773  -1.811  1.00  0.00    -0.237 OA
ATOM     85  O   UNL     1      11.091 -21.965   0.087  1.00  0.00    -0.744 OA
ENDBRANCH  81  82
ENDBRANCH  60  74
BRANCH  61  86
ATOM     86  C   UNL     1      11.713  -8.954  -7.443  1.00  0.00     0.058 A 
ATOM     87  C   UNL     1      11.946  -7.806  -6.668  1.00  0.00     0.135 A 
ATOM     88  C   UNL     1      11.597  -8.791  -8.830  1.00  0.00     0.135 A 
ATOM     89  F   UNL     1      12.062  -7.908  -5.334  1.00  0.00    -0.206 F 
ATOM     90  C   UNL     1      12.018  -6.538  -7.238  1.00  0.00     0.059 A 
ATOM     91  C   UNL     1      11.692  -7.537  -9.427  1.00  0.00     0.059 A 
ATOM     92  F   UNL     1      11.391  -9.858  -9.617  1.00  0.00    -0.206 F 
ATOM     93  C   UNL     1      11.887  -6.414  -8.620  1.00  0.00     0.060 A 
BRANCH  93  94
ATOM     94  S   UNL     1      11.913  -4.786  -9.402  1.00  0.00     0.124 S 
ATOM     95  O   UNL     1      13.124  -4.865 -10.211  1.00  0.00    -0.237 OA
ATOM     96  O   UNL     1      10.652  -4.787 -10.138  1.00  0.00    -0.237 OA
ATOM     97  O   UNL     1      11.971  -3.866  -8.271  1.00  0.00    -0.744 OA
ENDBRANCH  93  94
ENDBRANCH  61  86
BRANCH  73  98
ATOM     98  C   UNL     1      15.471 -14.868  -7.374  1.00  0.00     0.058 A 
ATOM     99  C   UNL     1      15.482 -15.832  -8.397  1.00  0.00     0.135 A 
ATOM    100  C   UNL     1      16.707 -14.374  -6.929  1.00  0.00     0.135 A 
ATOM    101  F   UNL     1      14.329 -16.348  -8.852  1.00  0.00    -0.206 F 
ATOM    102  C   UNL     1      16.671 -16.305  -8.945  1.00  0.00     0.059 A 
ATOM    103  C   UNL     1      17.907 -14.811  -7.484  1.00  0.00     0.059 A 
ATOM    104  F   UNL     1      16.755 -13.449  -5.958  1.00  0.00    -0.206 F 
ATOM    105  C   UNL     1      17.878 -15.783  -8.486  1.00  0.00     0.060 A 
BRANCH 105 106
ATOM    106  S   UNL     1      19.446 -16.369  -9.163  1.00  0.00     0.124 S 
ATOM    107  O   UNL     1      19.923 -15.186  -9.872  1.00  0.00    -0.237 OA
ATOM    108  O   UNL     1      20.188 -16.729  -7.959  1.00  0.00    -0.237 OA
ATOM    109  O   UNL     1      19.055 -17.492 -10.011  1.00  0.00    -0.744 OA
ENDBRANCH 105 106
ENDBRANCH  73  98
ENDBRANCH  47  48
ENDBRANCH  40  42
ENDBRANCH  39  40
ENDBRANCH  38  39
ENDBRANCH  37  38
ENDBRANCH  36  37
ENDBRANCH  35  36
ENDBRANCH   1  35
TORSDOF 27
