REMARK SMILES Cc1c(C[NH2+]Cc2cccc(F)c2)c(C(=O)OCCOCCOCCOCCOC(=O)c2ccc(-c3c4nc(c(-c5c(F)cc(S(=O)(=O)[O-])cc5F)c5ccc([nH]5)c(-c5c(F)cc(S(=O)(=O)[O-])cc5F)c5nc(c(-c6c(F)cc(S(=O)(=O)[O-])cc6F)c6ccc3[nH]6)C=C5)C=C4)cc2)c(C)n1Cc1c(F)cccc1Cl
REMARK SMILES IDX 22 1 21 2 20 3 19 4 18 5 17 6 15 7 16 8 14 9 1 10 2 11 3 12
REMARK SMILES IDX 100 13 98 14 99 15 4 16 5 17 6 20 7 21 8 22 13 23 9 24 11 25
REMARK SMILES IDX 10 26 12 27 101 28 102 29 103 30 108 31 104 32 105 33 107 34
REMARK SMILES IDX 109 35 106 36 23 37 24 38 25 39 26 40 27 41 28 42 29 43
REMARK SMILES IDX 30 44 31 45 32 46 33 47 97 48 34 49 96 50 35 51 36 52 37 53
REMARK SMILES IDX 90 54 38 55 95 56 89 57 91 58 39 59 94 60 88 61 87 62 40 64
REMARK SMILES IDX 74 65 53 66 73 67 54 68 57 69 72 70 92 71 55 72 56 73 71 75
REMARK SMILES IDX 93 76 58 77 41 78 42 79 51 80 43 81 44 82 50 83 52 84 45 85
REMARK SMILES IDX 46 86 47 87 48 88 49 89 75 90 76 91 85 92 77 93 78 94 84 95
REMARK SMILES IDX 86 96 79 97 80 98 81 99 82 100 83 101 59 102 60 103 69 104
REMARK SMILES IDX 61 105 62 106 68 107 70 108 63 109 64 110 65 111 66 112
REMARK SMILES IDX 67 113
REMARK H PARENT 5 18 5 19 91 63 57 74
REMARK Flexibility Score: inf
ROOT
ATOM      1  C   UNL     1      -2.778   4.967   0.802  1.00  0.00     0.188 C 
ENDROOT
BRANCH   1   2
ATOM      2  C   UNL     1      -3.460   4.793   2.174  1.00  0.00     0.188 C 
BRANCH   2   3
ATOM      3  O   UNL     1      -3.604   6.016   2.880  1.00  0.00    -0.376 OA
BRANCH   3   4
ATOM      4  C   UNL     1      -2.795   6.270   4.016  1.00  0.00     0.202 C 
BRANCH   4   5
ATOM      5  C   UNL     1      -1.272   6.347   3.849  1.00  0.00     0.261 C 
BRANCH   5   6
ATOM      6  O   UNL     1      -0.713   5.429   2.913  1.00  0.00    -0.460 OA
BRANCH   6   7
ATOM      7  C   UNL     1      -0.390   4.173   3.342  1.00  0.00     0.340 C 
ATOM      8  O   UNL     1      -0.540   3.785   4.478  1.00  0.00    -0.246 OA
BRANCH   7   9
ATOM      9  C   UNL     1       0.100   3.368   2.207  1.00  0.00     0.089 A 
ATOM     10  C   UNL     1       0.619   0.359   0.065  1.00  0.00     0.065 C 
ATOM     11  C   UNL     1       0.492   1.689   0.730  1.00  0.00     0.025 A 
ATOM     12  C   UNL     1      -0.280   2.038   1.840  1.00  0.00     0.042 A 
ATOM     13  N   UNL     1       1.139   2.833   0.272  1.00  0.00    -0.343 N 
ATOM     14  C   UNL     1       0.974   3.827   1.225  1.00  0.00     0.030 A 
ATOM     15  C   UNL     1       1.593   5.183   1.156  1.00  0.00     0.065 C 
BRANCH  12  16
ATOM     16  C   UNL     1      -1.359   1.221   2.499  1.00  0.00     0.300 C 
BRANCH  16  17
ATOM     17  N   UNL     1      -0.933   0.841   3.833  1.00  0.00    -0.339 N 
ATOM     18  H   UNL     1      -0.765   1.690   4.371  1.00  0.00     0.346 HD
ATOM     19  H   UNL     1      -0.092   0.274   3.726  1.00  0.00     0.346 HD
BRANCH  17  20
ATOM     20  C   UNL     1      -1.906   0.027   4.551  1.00  0.00     0.297 C 
BRANCH  20  21
ATOM     21  C   UNL     1      -1.826  -1.471   4.323  1.00  0.00     0.009 A 
ATOM     22  C   UNL     1      -1.158  -2.057   3.236  1.00  0.00     0.010 A 
ATOM     23  C   UNL     1      -2.493  -2.324   5.217  1.00  0.00     0.048 A 
ATOM     24  C   UNL     1      -1.177  -3.438   3.025  1.00  0.00     0.004 A 
ATOM     25  C   UNL     1      -2.491  -3.702   5.012  1.00  0.00     0.123 A 
ATOM     26  C   UNL     1      -1.848  -4.265   3.918  1.00  0.00     0.039 A 
ATOM     27  F   UNL     1      -3.125  -4.499   5.882  1.00  0.00    -0.207 F 
ENDBRANCH  20  21
ENDBRANCH  17  20
ENDBRANCH  16  17
ENDBRANCH  12  16
BRANCH  13  28
ATOM     28  C   UNL     1       1.988   2.923  -0.940  1.00  0.00     0.162 C 
BRANCH  28  29
ATOM     29  C   UNL     1       1.306   3.491  -2.168  1.00  0.00     0.026 A 
ATOM     30  C   UNL     1       1.119   4.876  -2.291  1.00  0.00     0.129 A 
ATOM     31  C   UNL     1       0.905   2.721  -3.273  1.00  0.00     0.048 A 
ATOM     32  F   UNL     1       1.675   5.709  -1.407  1.00  0.00    -0.207 F 
ATOM     33  C   UNL     1       0.455   5.465  -3.366  1.00  0.00     0.040 A 
ATOM     34  C   UNL     1       0.266   3.308  -4.380  1.00  0.00     0.021 A 
ATOM     35  Cl  UNL     1       1.263   1.035  -3.406  1.00  0.00    -0.084 Cl
ATOM     36  C   UNL     1       0.012   4.676  -4.414  1.00  0.00     0.005 A 
ENDBRANCH  28  29
ENDBRANCH  13  28
ENDBRANCH   7   9
ENDBRANCH   6   7
ENDBRANCH   5   6
ENDBRANCH   4   5
ENDBRANCH   3   4
ENDBRANCH   2   3
ENDBRANCH   1   2
BRANCH   1  37
ATOM     37  O   UNL     1      -3.157   6.060  -0.025  1.00  0.00    -0.377 OA
BRANCH  37  38
ATOM     38  C   UNL     1      -3.221   7.360   0.543  1.00  0.00     0.188 C 
BRANCH  38  39
ATOM     39  C   UNL     1      -4.654   7.880   0.785  1.00  0.00     0.188 C 
BRANCH  39  40
ATOM     40  O   UNL     1      -5.747   7.127   0.299  1.00  0.00    -0.376 OA
BRANCH  40  41
ATOM     41  C   UNL     1      -5.673   6.660  -1.030  1.00  0.00     0.202 C 
BRANCH  41  42
ATOM     42  C   UNL     1      -5.498   7.572  -2.320  1.00  0.00     0.261 C 
BRANCH  42  43
ATOM     43  O   UNL     1      -4.795   8.889  -2.581  1.00  0.00    -0.460 OA
BRANCH  43  44
ATOM     44  C   UNL     1      -5.372  10.161  -2.426  1.00  0.00     0.338 C 
ATOM     45  O   UNL     1      -6.162  10.369  -1.514  1.00  0.00    -0.246 OA
BRANCH  44  46
ATOM     46  C   UNL     1      -4.954  11.362  -3.454  1.00  0.00     0.060 A 
ATOM     47  C   UNL     1      -4.923  12.798  -3.296  1.00  0.00     0.016 A 
ATOM     48  C   UNL     1      -4.668  11.107  -4.753  1.00  0.00     0.016 A 
ATOM     49  C   UNL     1      -4.567  13.954  -4.401  1.00  0.00     0.010 A 
ATOM     50  C   UNL     1      -4.361  12.222  -5.729  1.00  0.00     0.010 A 
ATOM     51  C   UNL     1      -4.264  13.747  -5.773  1.00  0.00    -0.014 A 
BRANCH  51  52
ATOM     52  C   UNL     1      -3.389  14.792  -7.094  1.00  0.00     0.031 A 
ATOM     53  C   UNL     1      -1.924  14.441  -7.050  1.00  0.00     0.074 A 
ATOM     54  C   UNL     1      -3.330  15.530  -8.447  1.00  0.00     0.049 A 
ATOM     55  N   UNL     1      -1.482  13.652  -8.001  1.00  0.00    -0.248 NA
ATOM     56  C   UNL     1      -1.505  13.964  -5.756  1.00  0.00     0.031 C 
ATOM     57  C   UNL     1      -4.336  16.112  -9.397  1.00  0.00     0.029 A 
ATOM     58  N   UNL     1      -2.097  15.757  -9.438  1.00  0.00    -0.354 N 
ATOM     59  C   UNL     1      -2.119  12.502  -7.543  1.00  0.00     0.074 A 
ATOM     60  C   UNL     1      -1.730  12.678  -6.088  1.00  0.00     0.031 C 
ATOM     61  C   UNL     1      -3.824  16.537 -10.607  1.00  0.00     0.029 A 
ATOM     62  C   UNL     1      -2.352  16.328 -10.798  1.00  0.00     0.049 A 
ATOM     63  H   UNL     1      -1.182  15.524  -9.157  1.00  0.00     0.167 HD
ATOM     64  C   UNL     1      -3.239  12.106  -8.334  1.00  0.00     0.037 A 
ATOM     65  C   UNL     1      -1.704  16.588 -12.108  1.00  0.00     0.037 A 
ATOM     66  C   UNL     1      -2.621  11.124  -9.182  1.00  0.00     0.049 A 
ATOM     67  C   UNL     1      -1.585  15.103 -12.240  1.00  0.00     0.074 A 
ATOM     68  C   UNL     1      -1.307  10.694  -9.273  1.00  0.00     0.029 A 
ATOM     69  N   UNL     1      -3.161  10.865 -10.408  1.00  0.00    -0.354 N 
ATOM     70  N   UNL     1      -2.369  14.398 -13.003  1.00  0.00    -0.248 NA
ATOM     71  C   UNL     1      -0.357  14.437 -11.731  1.00  0.00     0.031 C 
ATOM     72  C   UNL     1      -1.012  11.208 -10.558  1.00  0.00     0.029 A 
ATOM     73  C   UNL     1      -2.220  11.386 -11.254  1.00  0.00     0.049 A 
ATOM     74  H   UNL     1      -4.011  10.418 -10.627  1.00  0.00     0.167 HD
ATOM     75  C   UNL     1      -1.890  13.137 -12.782  1.00  0.00     0.074 A 
ATOM     76  C   UNL     1      -0.521  13.272 -12.352  1.00  0.00     0.031 C 
ATOM     77  C   UNL     1      -2.729  12.185 -12.334  1.00  0.00     0.037 A 
BRANCH  64  78
ATOM     78  C   UNL     1      -4.974  12.183  -8.358  1.00  0.00     0.058 A 
ATOM     79  C   UNL     1      -5.685  10.987  -8.612  1.00  0.00     0.135 A 
ATOM     80  C   UNL     1      -5.910  13.241  -8.033  1.00  0.00     0.135 A 
ATOM     81  F   UNL     1      -5.027   9.877  -8.968  1.00  0.00    -0.206 F 
ATOM     82  C   UNL     1      -7.083  10.826  -8.451  1.00  0.00     0.059 A 
ATOM     83  C   UNL     1      -7.289  13.083  -7.778  1.00  0.00     0.059 A 
ATOM     84  F   UNL     1      -5.579  14.508  -7.814  1.00  0.00    -0.206 F 
ATOM     85  C   UNL     1      -7.872  11.858  -7.966  1.00  0.00     0.060 A 
BRANCH  85  86
ATOM     86  S   UNL     1      -9.555  11.552  -7.373  1.00  0.00     0.124 S 
ATOM     87  O   UNL     1     -10.363  11.745  -8.566  1.00  0.00    -0.237 OA
ATOM     88  O   UNL     1      -9.462  10.178  -6.882  1.00  0.00    -0.237 OA
ATOM     89  O   UNL     1      -9.729  12.555  -6.323  1.00  0.00    -0.744 OA
ENDBRANCH  85  86
ENDBRANCH  64  78
BRANCH  65  90
ATOM     90  C   UNL     1      -0.566  16.850 -13.455  1.00  0.00     0.058 A 
ATOM     91  C   UNL     1       0.302  15.903 -14.155  1.00  0.00     0.135 A 
ATOM     92  C   UNL     1      -0.482  18.065 -14.195  1.00  0.00     0.135 A 
ATOM     93  F   UNL     1       0.124  14.585 -14.133  1.00  0.00    -0.206 F 
ATOM     94  C   UNL     1       1.315  16.158 -15.114  1.00  0.00     0.059 A 
ATOM     95  C   UNL     1       0.485  18.338 -15.275  1.00  0.00     0.059 A 
ATOM     96  F   UNL     1      -1.385  19.033 -13.976  1.00  0.00    -0.206 F 
ATOM     97  C   UNL     1       1.448  17.402 -15.654  1.00  0.00     0.060 A 
BRANCH  97  98
ATOM     98  S   UNL     1       2.807  17.643 -16.851  1.00  0.00     0.124 S 
ATOM     99  O   UNL     1       3.981  17.613 -15.980  1.00  0.00    -0.237 OA
ATOM    100  O   UNL     1       2.685  16.494 -17.747  1.00  0.00    -0.237 OA
ATOM    101  O   UNL     1       2.517  18.936 -17.459  1.00  0.00    -0.744 OA
ENDBRANCH  97  98
ENDBRANCH  65  90
BRANCH  77 102
ATOM    102  C   UNL     1      -4.175  12.453 -12.664  1.00  0.00     0.058 A 
ATOM    103  C   UNL     1      -5.059  13.139 -11.810  1.00  0.00     0.135 A 
ATOM    104  C   UNL     1      -4.657  12.122 -13.929  1.00  0.00     0.135 A 
ATOM    105  F   UNL     1      -4.627  13.560 -10.619  1.00  0.00    -0.206 F 
ATOM    106  C   UNL     1      -6.385  13.412 -12.152  1.00  0.00     0.059 A 
ATOM    107  C   UNL     1      -5.967  12.401 -14.311  1.00  0.00     0.059 A 
ATOM    108  F   UNL     1      -3.849  11.516 -14.812  1.00  0.00    -0.206 F 
ATOM    109  C   UNL     1      -6.829  13.037 -13.416  1.00  0.00     0.060 A 
BRANCH 109 110
ATOM    110  S   UNL     1      -8.552  13.311 -13.887  1.00  0.00     0.124 S 
ATOM    111  O   UNL     1      -9.269  13.015 -12.655  1.00  0.00    -0.237 OA
ATOM    112  O   UNL     1      -8.539  14.711 -14.297  1.00  0.00    -0.237 OA
ATOM    113  O   UNL     1      -8.754  12.345 -14.966  1.00  0.00    -0.744 OA
ENDBRANCH 109 110
ENDBRANCH  77 102
ENDBRANCH  51  52
ENDBRANCH  44  46
ENDBRANCH  43  44
ENDBRANCH  42  43
ENDBRANCH  41  42
ENDBRANCH  40  41
ENDBRANCH  39  40
ENDBRANCH  38  39
ENDBRANCH  37  38
ENDBRANCH   1  37
TORSDOF 29
