REMARK SMILES O=C(OCCOCCOCCOCCOC(=O)c1ccc(-c2c3nc(c(-c4c(F)cc(S(=O)(=O)[O-])cc4F)c4ccc([nH]4)c(-c4c(F)cc(S(=O)(=O)[O-])cc4F)c4nc(c(-c5c(F)cc(S(=O)(=O)[O-])cc5F)c5ccc2[nH]5)C=C4)C=C3)cc1)C1=C[C@H]2C=C[C@@H]1[C@@H]1C=C[C@H]21
REMARK SMILES IDX 10 1 9 2 8 3 7 4 6 5 5 6 4 7 3 8 2 9 1 10 84 11 85 12 89 13
REMARK SMILES IDX 86 14 88 15 90 16 87 17 93 18 91 19 92 20 11 21 12 22 13 23
REMARK SMILES IDX 14 24 15 25 16 26 17 27 18 28 19 29 83 30 20 31 82 32 21 33
REMARK SMILES IDX 22 34 23 35 76 36 24 37 81 38 75 39 77 40 25 41 80 42 74 43
REMARK SMILES IDX 73 44 26 46 60 47 39 48 59 49 40 50 43 51 58 52 78 53 41 54
REMARK SMILES IDX 42 55 57 57 79 58 44 59 27 60 28 61 37 62 29 63 30 64 36 65
REMARK SMILES IDX 38 66 31 67 32 68 33 69 34 70 35 71 61 72 62 73 71 74 63 75
REMARK SMILES IDX 64 76 70 77 72 78 65 79 66 80 67 81 68 82 69 83 45 84 46 85
REMARK SMILES IDX 55 86 47 87 48 88 54 89 56 90 49 91 50 92 51 93 52 94 53 95
REMARK H PARENT 77 45 43 56
REMARK Flexibility Score: inf
ROOT
ATOM      1  C   UNL     1       4.251   2.896   1.801  1.00  0.00     0.188 C 
ENDROOT
BRANCH   1   2
ATOM      2  O   UNL     1       2.862   3.123   1.975  1.00  0.00    -0.377 OA
BRANCH   2   3
ATOM      3  C   UNL     1       1.986   2.030   1.706  1.00  0.00     0.188 C 
BRANCH   3   4
ATOM      4  C   UNL     1       2.376   1.104   0.549  1.00  0.00     0.188 C 
BRANCH   4   5
ATOM      5  O   UNL     1       3.392   0.186   0.951  1.00  0.00    -0.376 OA
BRANCH   5   6
ATOM      6  C   UNL     1       4.517  -0.052   0.110  1.00  0.00     0.202 C 
BRANCH   6   7
ATOM      7  C   UNL     1       4.275  -0.148  -1.395  1.00  0.00     0.261 C 
BRANCH   7   8
ATOM      8  O   UNL     1       3.393  -1.176  -1.893  1.00  0.00    -0.460 OA
BRANCH   8   9
ATOM      9  C   UNL     1       2.402  -1.650  -1.113  1.00  0.00     0.334 C 
ATOM     10  O   UNL     1       1.214  -1.417  -1.289  1.00  0.00    -0.247 OA
BRANCH   9  11
ATOM     11  C   UNL     1       2.859  -2.622  -0.118  1.00  0.00     0.041 C 
ATOM     12  C   UNL     1       3.611  -3.723  -0.359  1.00  0.00    -0.007 C 
ATOM     13  C   UNL     1       2.350  -2.496   1.315  1.00  0.00     0.056 C 
ATOM     14  C   UNL     1       3.813  -4.606   0.885  1.00  0.00     0.042 C 
ATOM     15  C   UNL     1       3.574  -2.635   2.239  1.00  0.00    -0.022 C 
ATOM     16  C   UNL     1       1.460  -3.762   1.435  1.00  0.00     0.031 C 
ATOM     17  C   UNL     1       4.353  -3.708   1.988  1.00  0.00    -0.022 C 
ATOM     18  C   UNL     1       2.365  -5.037   1.320  1.00  0.00     0.030 C 
ATOM     19  C   UNL     1       1.062  -4.275   2.797  1.00  0.00    -0.026 C 
ATOM     20  C   UNL     1       2.001  -5.245   2.800  1.00  0.00    -0.026 C 
ENDBRANCH   9  11
ENDBRANCH   8   9
ENDBRANCH   7   8
ENDBRANCH   6   7
ENDBRANCH   5   6
ENDBRANCH   4   5
ENDBRANCH   3   4
ENDBRANCH   2   3
ENDBRANCH   1   2
BRANCH   1  21
ATOM     21  C   UNL     1       5.005   2.102   2.888  1.00  0.00     0.188 C 
BRANCH  21  22
ATOM     22  O   UNL     1       4.302   1.046   3.500  1.00  0.00    -0.376 OA
BRANCH  22  23
ATOM     23  C   UNL     1       3.525   1.255   4.670  1.00  0.00     0.202 C 
BRANCH  23  24
ATOM     24  C   UNL     1       3.166   2.611   5.321  1.00  0.00     0.261 C 
BRANCH  24  25
ATOM     25  O   UNL     1       3.461   3.807   4.607  1.00  0.00    -0.460 OA
BRANCH  25  26
ATOM     26  C   UNL     1       4.577   4.472   4.986  1.00  0.00     0.338 C 
ATOM     27  O   UNL     1       5.357   4.158   5.872  1.00  0.00    -0.246 OA
BRANCH  26  28
ATOM     28  C   UNL     1       4.845   5.518   3.981  1.00  0.00     0.060 A 
ATOM     29  C   UNL     1       6.064   5.482   3.285  1.00  0.00     0.016 A 
ATOM     30  C   UNL     1       3.889   6.494   3.695  1.00  0.00     0.016 A 
ATOM     31  C   UNL     1       6.332   6.426   2.295  1.00  0.00     0.010 A 
ATOM     32  C   UNL     1       4.178   7.467   2.739  1.00  0.00     0.010 A 
ATOM     33  C   UNL     1       5.409   7.451   2.056  1.00  0.00    -0.014 A 
BRANCH  33  34
ATOM     34  C   UNL     1       5.826   8.661   1.313  1.00  0.00     0.031 A 
ATOM     35  C   UNL     1       6.356   9.809   2.123  1.00  0.00     0.074 A 
ATOM     36  C   UNL     1       5.701   8.760  -0.020  1.00  0.00     0.049 A 
ATOM     37  N   UNL     1       6.635  11.030   1.755  1.00  0.00    -0.248 NA
ATOM     38  C   UNL     1       6.587   9.540   3.553  1.00  0.00     0.031 C 
ATOM     39  C   UNL     1       5.250   7.694  -0.911  1.00  0.00     0.029 A 
ATOM     40  N   UNL     1       5.917   9.830  -0.851  1.00  0.00    -0.354 N 
ATOM     41  C   UNL     1       7.047  11.681   2.911  1.00  0.00     0.074 A 
ATOM     42  C   UNL     1       6.965  10.727   3.994  1.00  0.00     0.031 C 
ATOM     43  C   UNL     1       5.189   8.176  -2.166  1.00  0.00     0.029 A 
ATOM     44  C   UNL     1       5.552   9.594  -2.155  1.00  0.00     0.049 A 
ATOM     45  H   UNL     1       6.298  10.685  -0.544  1.00  0.00     0.167 HD
ATOM     46  C   UNL     1       7.452  12.964   3.056  1.00  0.00     0.037 A 
ATOM     47  C   UNL     1       5.478  10.440  -3.203  1.00  0.00     0.037 A 
ATOM     48  C   UNL     1       7.508  13.906   1.972  1.00  0.00     0.049 A 
ATOM     49  C   UNL     1       5.865  11.886  -3.013  1.00  0.00     0.074 A 
ATOM     50  C   UNL     1       7.912  15.228   2.001  1.00  0.00     0.029 A 
ATOM     51  N   UNL     1       7.129  13.630   0.665  1.00  0.00    -0.354 N 
ATOM     52  N   UNL     1       6.267  12.495  -1.922  1.00  0.00    -0.248 NA
ATOM     53  C   UNL     1       5.790  12.759  -4.192  1.00  0.00     0.031 C 
ATOM     54  C   UNL     1       7.719  15.768   0.726  1.00  0.00     0.029 A 
ATOM     55  C   UNL     1       7.266  14.763  -0.117  1.00  0.00     0.049 A 
ATOM     56  H   UNL     1       6.810  12.756   0.342  1.00  0.00     0.167 HD
ATOM     57  C   UNL     1       6.529  13.812  -2.291  1.00  0.00     0.074 A 
ATOM     58  C   UNL     1       6.233  13.912  -3.705  1.00  0.00     0.031 C 
ATOM     59  C   UNL     1       6.984  14.840  -1.531  1.00  0.00     0.037 A 
BRANCH  46  60
ATOM     60  C   UNL     1       7.801  13.422   4.445  1.00  0.00     0.058 A 
ATOM     61  C   UNL     1       8.925  12.934   5.131  1.00  0.00     0.135 A 
ATOM     62  C   UNL     1       6.982  14.349   5.109  1.00  0.00     0.135 A 
ATOM     63  F   UNL     1       9.732  12.029   4.553  1.00  0.00    -0.206 F 
ATOM     64  C   UNL     1       9.198  13.312   6.442  1.00  0.00     0.059 A 
ATOM     65  C   UNL     1       7.255  14.769   6.407  1.00  0.00     0.059 A 
ATOM     66  F   UNL     1       5.891  14.844   4.504  1.00  0.00    -0.206 F 
ATOM     67  C   UNL     1       8.353  14.227   7.073  1.00  0.00     0.060 A 
BRANCH  67  68
ATOM     68  S   UNL     1       8.703  14.687   8.782  1.00  0.00     0.124 S 
ATOM     69  O   UNL     1       8.332  13.467   9.493  1.00  0.00    -0.237 OA
ATOM     70  O   UNL     1      10.131  14.984   8.739  1.00  0.00    -0.237 OA
ATOM     71  O   UNL     1       7.833  15.836   9.011  1.00  0.00    -0.744 OA
ENDBRANCH  67  68
ENDBRANCH  46  60
BRANCH  47  72
ATOM     72  C   UNL     1       5.004   9.936  -4.521  1.00  0.00     0.058 A 
ATOM     73  C   UNL     1       5.884   9.797  -5.603  1.00  0.00     0.135 A 
ATOM     74  C   UNL     1       3.669   9.542  -4.710  1.00  0.00     0.135 A 
ATOM     75  F   UNL     1       7.165  10.175  -5.479  1.00  0.00    -0.206 F 
ATOM     76  C   UNL     1       5.463   9.279  -6.824  1.00  0.00     0.059 A 
ATOM     77  C   UNL     1       3.230   8.997  -5.913  1.00  0.00     0.059 A 
ATOM     78  F   UNL     1       2.787   9.651  -3.705  1.00  0.00    -0.206 F 
ATOM     79  C   UNL     1       4.136   8.868  -6.964  1.00  0.00     0.060 A 
BRANCH  79  80
ATOM     80  S   UNL     1       3.628   8.106  -8.522  1.00  0.00     0.124 S 
ATOM     81  O   UNL     1       3.663   9.244  -9.433  1.00  0.00    -0.237 OA
ATOM     82  O   UNL     1       4.665   7.098  -8.717  1.00  0.00    -0.237 OA
ATOM     83  O   UNL     1       2.300   7.579  -8.221  1.00  0.00    -0.744 OA
ENDBRANCH  79  80
ENDBRANCH  47  72
BRANCH  59  84
ATOM     84  C   UNL     1       7.261  16.155  -2.209  1.00  0.00     0.058 A 
ATOM     85  C   UNL     1       6.233  17.009  -2.635  1.00  0.00     0.135 A 
ATOM     86  C   UNL     1       8.585  16.610  -2.337  1.00  0.00     0.135 A 
ATOM     87  F   UNL     1       4.951  16.622  -2.543  1.00  0.00    -0.206 F 
ATOM     88  C   UNL     1       6.507  18.264  -3.170  1.00  0.00     0.059 A 
ATOM     89  C   UNL     1       8.881  17.872  -2.839  1.00  0.00     0.059 A 
ATOM     90  F   UNL     1       9.607  15.837  -1.934  1.00  0.00    -0.206 F 
ATOM     91  C   UNL     1       7.835  18.691  -3.258  1.00  0.00     0.060 A 
BRANCH  91  92
ATOM     92  S   UNL     1       8.172  20.348  -3.891  1.00  0.00     0.124 S 
ATOM     93  O   UNL     1       7.866  20.191  -5.309  1.00  0.00    -0.237 OA
ATOM     94  O   UNL     1       7.238  21.169  -3.127  1.00  0.00    -0.237 OA
ATOM     95  O   UNL     1       9.583  20.554  -3.574  1.00  0.00    -0.744 OA
ENDBRANCH  91  92
ENDBRANCH  59  84
ENDBRANCH  33  34
ENDBRANCH  26  28
ENDBRANCH  25  26
ENDBRANCH  24  25
ENDBRANCH  23  24
ENDBRANCH  22  23
ENDBRANCH  21  22
ENDBRANCH   1  21
TORSDOF 23
