REMARK SMILES O=C(OCCOCCOCCOCCOC(=O)c1ccc(C[NH2+][C@@H]2CCCc3sccc32)nc1)c1ccc(-c2c3nc(c(-c4c(F)cc(S(=O)(=O)[O-])cc4F)c4ccc([nH]4)c(-c4c(F)cc(S(=O)(=O)[O-])cc4F)c4nc(c(-c5c(F)cc(S(=O)(=O)[O-])cc5F)c5ccc2[nH]5)C=C4)C=C3)cc1
REMARK SMILES IDX 9 1 8 2 7 3 6 4 5 5 4 6 3 7 2 8 1 9 35 10 36 11 100 12 37 13
REMARK SMILES IDX 99 14 38 15 39 16 40 17 93 18 41 19 98 20 92 21 94 22 42 23
REMARK SMILES IDX 97 24 91 25 90 26 43 28 77 29 56 30 76 31 57 32 60 33 75 34
REMARK SMILES IDX 95 35 58 36 59 37 74 39 96 40 61 41 44 42 45 43 54 44 46 45
REMARK SMILES IDX 47 46 53 47 55 48 48 49 49 50 50 51 51 52 52 53 78 54 79 55
REMARK SMILES IDX 88 56 80 57 81 58 87 59 89 60 82 61 83 62 84 63 85 64 86 65
REMARK SMILES IDX 62 66 63 67 72 68 64 69 65 70 71 71 73 72 66 73 67 74 68 75
REMARK SMILES IDX 69 76 70 77 10 78 11 79 12 80 13 81 14 82 15 83 16 84 17 85
REMARK SMILES IDX 18 86 19 87 34 88 20 89 33 90 21 91 22 92 23 93 24 96 25 97
REMARK SMILES IDX 32 98 26 99 28 100 31 101 27 102 29 103 30 104
REMARK H PARENT 94 27 60 38 23 94 23 95
REMARK Flexibility Score: inf
ROOT
ATOM      1  O   UNL     1       2.647   4.000  -0.243  1.00  0.00    -0.377 OA
ENDROOT
BRANCH   1   2
ATOM      2  C   UNL     1       1.875   2.840   0.078  1.00  0.00     0.188 C 
BRANCH   2   3
ATOM      3  C   UNL     1       2.298   1.564  -0.653  1.00  0.00     0.188 C 
BRANCH   3   4
ATOM      4  O   UNL     1       3.573   1.138  -0.182  1.00  0.00    -0.376 OA
BRANCH   4   5
ATOM      5  C   UNL     1       4.392   0.417  -1.096  1.00  0.00     0.202 C 
BRANCH   5   6
ATOM      6  C   UNL     1       3.943  -1.015  -1.406  1.00  0.00     0.261 C 
BRANCH   6   7
ATOM      7  O   UNL     1       2.543  -1.248  -1.166  1.00  0.00    -0.460 OA
BRANCH   7   8
ATOM      8  C   UNL     1       1.983  -1.793  -0.053  1.00  0.00     0.338 C 
ATOM      9  O   UNL     1       0.789  -2.082  -0.058  1.00  0.00    -0.246 OA
BRANCH   8  10
ATOM     10  C   UNL     1       2.782  -2.091   1.166  1.00  0.00     0.060 A 
ATOM     11  C   UNL     1       3.794  -1.264   1.639  1.00  0.00     0.016 A 
ATOM     12  C   UNL     1       2.453  -3.225   1.920  1.00  0.00     0.016 A 
ATOM     13  C   UNL     1       4.597  -1.633   2.700  1.00  0.00     0.010 A 
ATOM     14  C   UNL     1       3.189  -3.550   3.066  1.00  0.00     0.010 A 
ATOM     15  C   UNL     1       4.306  -2.781   3.426  1.00  0.00    -0.014 A 
BRANCH  15  16
ATOM     16  C   UNL     1       5.279  -3.207   4.454  1.00  0.00     0.031 A 
ATOM     17  C   UNL     1       6.056  -4.469   4.212  1.00  0.00     0.074 A 
ATOM     18  C   UNL     1       5.575  -2.388   5.483  1.00  0.00     0.049 A 
ATOM     19  N   UNL     1       6.908  -5.078   4.989  1.00  0.00    -0.248 NA
ATOM     20  C   UNL     1       5.846  -5.137   2.913  1.00  0.00     0.031 C 
ATOM     21  C   UNL     1       4.956  -1.079   5.727  1.00  0.00     0.029 A 
ATOM     22  N   UNL     1       6.498  -2.504   6.487  1.00  0.00    -0.354 N 
ATOM     23  C   UNL     1       7.303  -6.215   4.294  1.00  0.00     0.074 A 
ATOM     24  C   UNL     1       6.588  -6.225   3.039  1.00  0.00     0.031 C 
ATOM     25  C   UNL     1       5.550  -0.498   6.781  1.00  0.00     0.029 A 
ATOM     26  C   UNL     1       6.520  -1.427   7.344  1.00  0.00     0.049 A 
ATOM     27  H   UNL     1       7.090  -3.284   6.587  1.00  0.00     0.167 HD
ATOM     28  C   UNL     1       8.188  -7.163   4.677  1.00  0.00     0.037 A 
ATOM     29  C   UNL     1       7.216  -1.239   8.481  1.00  0.00     0.037 A 
ATOM     30  C   UNL     1       8.899  -7.109   5.924  1.00  0.00     0.049 A 
ATOM     31  C   UNL     1       8.140  -2.342   8.922  1.00  0.00     0.074 A 
ATOM     32  C   UNL     1       9.748  -8.045   6.482  1.00  0.00     0.029 A 
ATOM     33  N   UNL     1       8.851  -6.032   6.802  1.00  0.00    -0.354 N 
ATOM     34  N   UNL     1       8.414  -3.476   8.317  1.00  0.00    -0.248 NA
ATOM     35  C   UNL     1       8.832  -2.159  10.203  1.00  0.00     0.031 C 
ATOM     36  C   UNL     1      10.192  -7.544   7.712  1.00  0.00     0.029 A 
ATOM     37  C   UNL     1       9.655  -6.278   7.898  1.00  0.00     0.049 A 
ATOM     38  H   UNL     1       8.321  -5.214   6.663  1.00  0.00     0.167 HD
ATOM     39  C   UNL     1       9.311  -4.141   9.142  1.00  0.00     0.074 A 
ATOM     40  C   UNL     1       9.559  -3.265  10.272  1.00  0.00     0.031 C 
ATOM     41  C   UNL     1       9.872  -5.368   8.995  1.00  0.00     0.037 A 
BRANCH  28  42
ATOM     42  C   UNL     1       8.376  -8.339   3.760  1.00  0.00     0.058 A 
ATOM     43  C   UNL     1       9.062  -8.229   2.540  1.00  0.00     0.135 A 
ATOM     44  C   UNL     1       7.826  -9.588   4.090  1.00  0.00     0.135 A 
ATOM     45  F   UNL     1       9.575  -7.048   2.157  1.00  0.00    -0.206 F 
ATOM     46  C   UNL     1       9.173  -9.308   1.668  1.00  0.00     0.059 A 
ATOM     47  C   UNL     1       7.946 -10.687   3.244  1.00  0.00     0.059 A 
ATOM     48  F   UNL     1       7.145  -9.745   5.236  1.00  0.00    -0.206 F 
ATOM     49  C   UNL     1       8.608 -10.533   2.028  1.00  0.00     0.060 A 
BRANCH  49  50
ATOM     50  S   UNL     1       8.746 -11.919   0.879  1.00  0.00     0.124 S 
ATOM     51  O   UNL     1       7.811 -11.523  -0.169  1.00  0.00    -0.237 OA
ATOM     52  O   UNL     1      10.159 -11.882   0.514  1.00  0.00    -0.237 OA
ATOM     53  O   UNL     1       8.339 -13.068   1.682  1.00  0.00    -0.744 OA
ENDBRANCH  49  50
ENDBRANCH  28  42
BRANCH  29  54
ATOM     54  C   UNL     1       7.003  -0.018   9.310  1.00  0.00     0.058 A 
ATOM     55  C   UNL     1       8.030   0.909   9.541  1.00  0.00     0.135 A 
ATOM     56  C   UNL     1       5.756   0.237   9.909  1.00  0.00     0.135 A 
ATOM     57  F   UNL     1       9.243   0.715   9.001  1.00  0.00    -0.206 F 
ATOM     58  C   UNL     1       7.839   2.027  10.352  1.00  0.00     0.059 A 
ATOM     59  C   UNL     1       5.531   1.363  10.694  1.00  0.00     0.059 A 
ATOM     60  F   UNL     1       4.731  -0.608   9.716  1.00  0.00    -0.206 F 
ATOM     61  C   UNL     1       6.585   2.243  10.927  1.00  0.00     0.060 A 
BRANCH  61  62
ATOM     62  S   UNL     1       6.335   3.697  11.969  1.00  0.00     0.124 S 
ATOM     63  O   UNL     1       7.018   3.299  13.194  1.00  0.00    -0.237 OA
ATOM     64  O   UNL     1       6.980   4.750  11.191  1.00  0.00    -0.237 OA
ATOM     65  O   UNL     1       4.881   3.797  12.060  1.00  0.00    -0.744 OA
ENDBRANCH  61  62
ENDBRANCH  29  54
BRANCH  41  66
ATOM     66  C   UNL     1      10.820  -5.806  10.071  1.00  0.00     0.058 A 
ATOM     67  C   UNL     1      10.359  -6.208  11.333  1.00  0.00     0.135 A 
ATOM     68  C   UNL     1      12.199  -5.859   9.819  1.00  0.00     0.135 A 
ATOM     69  F   UNL     1       9.048  -6.167  11.620  1.00  0.00    -0.206 F 
ATOM     70  C   UNL     1      11.240  -6.623  12.323  1.00  0.00     0.059 A 
ATOM     71  C   UNL     1      13.096  -6.297  10.785  1.00  0.00     0.059 A 
ATOM     72  F   UNL     1      12.683  -5.495   8.620  1.00  0.00    -0.206 F 
ATOM     73  C   UNL     1      12.607  -6.663  12.040  1.00  0.00     0.060 A 
BRANCH  73  74
ATOM     74  S   UNL     1      13.741  -7.225  13.325  1.00  0.00     0.124 S 
ATOM     75  O   UNL     1      13.796  -6.057  14.197  1.00  0.00    -0.237 OA
ATOM     76  O   UNL     1      13.047  -8.390  13.866  1.00  0.00    -0.237 OA
ATOM     77  O   UNL     1      14.966  -7.520  12.589  1.00  0.00    -0.744 OA
ENDBRANCH  73  74
ENDBRANCH  41  66
ENDBRANCH  15  16
ENDBRANCH   8  10
ENDBRANCH   7   8
ENDBRANCH   6   7
ENDBRANCH   5   6
ENDBRANCH   4   5
ENDBRANCH   3   4
ENDBRANCH   2   3
ENDBRANCH   1   2
BRANCH   1  78
ATOM     78  C   UNL     1       4.063   3.842  -0.190  1.00  0.00     0.188 C 
BRANCH  78  79
ATOM     79  C   UNL     1       4.723   3.493   1.162  1.00  0.00     0.188 C 
BRANCH  79  80
ATOM     80  O   UNL     1       3.812   3.167   2.205  1.00  0.00    -0.376 OA
BRANCH  80  81
ATOM     81  C   UNL     1       3.797   4.082   3.299  1.00  0.00     0.202 C 
BRANCH  81  82
ATOM     82  C   UNL     1       2.992   5.363   3.032  1.00  0.00     0.261 C 
BRANCH  82  83
ATOM     83  O   UNL     1       3.422   6.114   1.883  1.00  0.00    -0.460 OA
BRANCH  83  84
ATOM     84  C   UNL     1       4.608   6.757   1.955  1.00  0.00     0.339 C 
ATOM     85  O   UNL     1       5.338   6.853   2.926  1.00  0.00    -0.246 OA
BRANCH  84  86
ATOM     86  C   UNL     1       4.993   7.109   0.577  1.00  0.00     0.078 A 
ATOM     87  C   UNL     1       4.085   7.609  -0.358  1.00  0.00     0.019 A 
ATOM     88  C   UNL     1       6.252   6.733   0.136  1.00  0.00     0.127 A 
ATOM     89  C   UNL     1       4.457   7.675  -1.702  1.00  0.00     0.031 A 
ATOM     90  N   UNL     1       6.626   6.768  -1.165  1.00  0.00    -0.254 NA
ATOM     91  C   UNL     1       5.723   7.223  -2.075  1.00  0.00     0.094 A 
BRANCH  91  92
ATOM     92  C   UNL     1       6.161   7.252  -3.532  1.00  0.00     0.318 C 
BRANCH  92  93
ATOM     93  N   UNL     1       7.366   8.055  -3.687  1.00  0.00    -0.335 N 
ATOM     94  H   UNL     1       8.161   7.475  -3.417  1.00  0.00     0.347 HD
ATOM     95  H   UNL     1       7.220   8.876  -3.099  1.00  0.00     0.347 HD
BRANCH  93  96
ATOM     96  C   UNL     1       7.633   8.579  -5.014  1.00  0.00     0.215 C 
ATOM     97  C   UNL     1       9.177   8.657  -5.124  1.00  0.00     0.071 C 
ATOM     98  C   UNL     1       7.001   9.946  -5.187  1.00  0.00     0.023 A 
ATOM     99  C   UNL     1       9.636   9.550  -6.281  1.00  0.00     0.012 C 
ATOM    100  C   UNL     1       7.719  11.021  -5.686  1.00  0.00     0.014 A 
ATOM    101  C   UNL     1       5.642  10.332  -4.940  1.00  0.00     0.022 A 
ATOM    102  C   UNL     1       9.164  10.995  -6.079  1.00  0.00     0.047 C 
ATOM    103  S   UNL     1       6.803  12.453  -5.789  1.00  0.00    -0.148 S 
ATOM    104  C   UNL     1       5.407  11.663  -5.207  1.00  0.00     0.065 A 
ENDBRANCH  93  96
ENDBRANCH  92  93
ENDBRANCH  91  92
ENDBRANCH  84  86
ENDBRANCH  83  84
ENDBRANCH  82  83
ENDBRANCH  81  82
ENDBRANCH  80  81
ENDBRANCH  79  80
ENDBRANCH  78  79
ENDBRANCH   1  78
TORSDOF 26
