REMARK SMILES Cc1cc(C)n(C)c(=O)c1C(=O)[NH+]1CCC2(CC1)C[NH2+][C@@H](C(=O)OCCOCCOCCOCCOC(=O)c1ccc(-c3c4nc(c(-c5c(F)cc(S(=O)(=O)[O-])cc5F)c5ccc([nH]5)c(-c5c(F)cc(S(=O)(=O)[O-])cc5F)c5nc(c(-c6c(F)cc(S(=O)(=O)[O-])cc6F)c6ccc3[nH]6)C=C5)C=C4)cc1)C2
REMARK SMILES IDX 31 1 30 2 29 3 28 4 27 5 26 6 25 7 24 8 22 9 23 10 21 11
REMARK SMILES IDX 13 12 14 13 18 14 15 16 17 17 16 18 19 19 105 20 20 21 11 24
REMARK SMILES IDX 12 25 10 26 1 27 2 28 3 29 4 30 8 31 5 32 6 33 9 34 7 35
REMARK SMILES IDX 32 36 33 37 34 38 35 39 36 40 37 41 38 42 39 43 40 44 104 45
REMARK SMILES IDX 41 46 103 47 42 48 43 49 44 50 97 51 45 52 102 53 96 54
REMARK SMILES IDX 98 55 46 56 101 57 95 58 94 59 47 61 81 62 60 63 80 64 61 65
REMARK SMILES IDX 64 66 79 67 99 68 62 69 63 70 78 72 100 73 65 74 48 75 49 76
REMARK SMILES IDX 58 77 50 78 51 79 57 80 59 81 52 82 53 83 54 84 55 85 56 86
REMARK SMILES IDX 82 87 83 88 92 89 84 90 85 91 91 92 93 93 86 94 87 95 88 96
REMARK SMILES IDX 89 97 90 98 66 99 67 100 76 101 68 102 69 103 75 104 77 105
REMARK SMILES IDX 70 106 71 107 72 108 73 109 74 110
REMARK H PARENT 13 15 20 22 20 23 98 60 64 71
REMARK Flexibility Score: inf
ROOT
ATOM      1  C   UNL     1      -1.936   6.032  -5.355  1.00  0.00     0.188 C 
ENDROOT
BRANCH   1   2
ATOM      2  O   UNL     1      -0.687   5.378  -5.184  1.00  0.00    -0.377 OA
BRANCH   2   3
ATOM      3  C   UNL     1       0.186   5.991  -4.267  1.00  0.00     0.188 C 
BRANCH   3   4
ATOM      4  C   UNL     1       1.422   6.643  -4.904  1.00  0.00     0.188 C 
BRANCH   4   5
ATOM      5  O   UNL     1       1.449   6.971  -6.290  1.00  0.00    -0.376 OA
BRANCH   5   6
ATOM      6  C   UNL     1       0.929   6.068  -7.260  1.00  0.00     0.202 C 
BRANCH   6   7
ATOM      7  C   UNL     1       1.380   4.598  -7.291  1.00  0.00     0.261 C 
BRANCH   7   8
ATOM      8  O   UNL     1       1.615   4.008  -6.006  1.00  0.00    -0.459 OA
BRANCH   8   9
ATOM      9  C   UNL     1       2.904   3.730  -5.693  1.00  0.00     0.364 C 
ATOM     10  O   UNL     1       3.864   3.906  -6.438  1.00  0.00    -0.245 OA
BRANCH   9  11
ATOM     11  C   UNL     1       3.072   3.188  -4.269  1.00  0.00     0.294 C 
ATOM     12  N   UNL     1       0.597   2.250   0.283  1.00  0.00    -0.267 N 
ATOM     13  C   UNL     1       1.469   3.372  -0.026  1.00  0.00     0.271 C 
ATOM     14  C   UNL     1      -0.140   1.750  -0.872  1.00  0.00     0.271 C 
ATOM     15  H   UNL     1       1.311   2.790   0.693  1.00  0.00     0.357 HD
ATOM     16  C   UNL     1       2.602   2.852  -0.903  1.00  0.00     0.075 C 
ATOM     17  C   UNL     1       0.768   1.412  -2.074  1.00  0.00     0.075 C 
ATOM     18  C   UNL     1       2.097   2.226  -2.230  1.00  0.00     0.036 C 
ATOM     19  C   UNL     1       3.222   1.361  -2.858  1.00  0.00     0.268 C 
ATOM     20  C   UNL     1       1.925   3.340  -3.282  1.00  0.00     0.090 C 
ATOM     21  N   UNL     1       3.269   1.733  -4.268  1.00  0.00    -0.334 N 
ATOM     22  H   UNL     1       2.526   1.267  -4.790  1.00  0.00     0.347 HD
ATOM     23  H   UNL     1       4.145   1.458  -4.714  1.00  0.00     0.347 HD
BRANCH  12  24
ATOM     24  C   UNL     1       0.532   1.824   1.608  1.00  0.00     0.350 C 
ATOM     25  O   UNL     1       0.885   2.579   2.520  1.00  0.00    -0.225 OA
BRANCH  24  26
ATOM     26  C   UNL     1       0.189   0.402   1.969  1.00  0.00     0.147 A 
ATOM     27  C   UNL     1       1.764  -0.687   0.263  1.00  0.00     0.045 C 
ATOM     28  C   UNL     1       0.765  -0.668   1.375  1.00  0.00    -0.027 A 
ATOM     29  C   UNL     1       0.566  -2.003   1.895  1.00  0.00     0.026 A 
ATOM     30  C   UNL     1       0.087  -2.215   3.125  1.00  0.00     0.018 A 
ATOM     31  C   UNL     1      -0.518   0.152   3.291  1.00  0.00     0.267 A 
ATOM     32  C   UNL     1       0.086  -3.620   3.659  1.00  0.00     0.064 C 
ATOM     33  N   UNL     1      -0.391  -1.135   3.857  1.00  0.00    -0.315 N 
ATOM     34  O   UNL     1      -1.147   1.052   3.849  1.00  0.00    -0.268 OA
ATOM     35  C   UNL     1      -0.816  -1.317   5.239  1.00  0.00     0.153 C 
ENDBRANCH  24  26
ENDBRANCH  12  24
ENDBRANCH   9  11
ENDBRANCH   8   9
ENDBRANCH   7   8
ENDBRANCH   6   7
ENDBRANCH   5   6
ENDBRANCH   4   5
ENDBRANCH   3   4
ENDBRANCH   2   3
ENDBRANCH   1   2
BRANCH   1  36
ATOM     36  C   UNL     1      -1.908   7.574  -5.478  1.00  0.00     0.188 C 
BRANCH  36  37
ATOM     37  O   UNL     1      -1.228   8.249  -4.423  1.00  0.00    -0.376 OA
BRANCH  37  38
ATOM     38  C   UNL     1      -1.983   8.730  -3.317  1.00  0.00     0.202 C 
BRANCH  38  39
ATOM     39  C   UNL     1      -2.670   7.707  -2.390  1.00  0.00     0.261 C 
BRANCH  39  40
ATOM     40  O   UNL     1      -3.614   6.813  -2.999  1.00  0.00    -0.460 OA
BRANCH  40  41
ATOM     41  C   UNL     1      -4.652   7.353  -3.671  1.00  0.00     0.338 C 
ATOM     42  O   UNL     1      -4.934   8.537  -3.748  1.00  0.00    -0.246 OA
BRANCH  41  43
ATOM     43  C   UNL     1      -5.258   6.288  -4.500  1.00  0.00     0.060 A 
ATOM     44  C   UNL     1      -5.285   6.457  -5.891  1.00  0.00     0.016 A 
ATOM     45  C   UNL     1      -5.779   5.128  -3.922  1.00  0.00     0.016 A 
ATOM     46  C   UNL     1      -5.861   5.486  -6.707  1.00  0.00     0.010 A 
ATOM     47  C   UNL     1      -6.398   4.173  -4.737  1.00  0.00     0.010 A 
ATOM     48  C   UNL     1      -6.475   4.370  -6.128  1.00  0.00    -0.014 A 
BRANCH  48  49
ATOM     49  C   UNL     1      -7.428   3.577  -6.942  1.00  0.00     0.031 A 
ATOM     50  C   UNL     1      -8.880   3.975  -6.891  1.00  0.00     0.074 A 
ATOM     51  C   UNL     1      -7.024   2.576  -7.743  1.00  0.00     0.049 A 
ATOM     52  N   UNL     1      -9.914   3.421  -7.466  1.00  0.00    -0.248 NA
ATOM     53  C   UNL     1      -9.206   5.164  -6.083  1.00  0.00     0.031 C 
ATOM     54  C   UNL     1      -5.641   2.146  -7.932  1.00  0.00     0.029 A 
ATOM     55  N   UNL     1      -7.752   1.735  -8.549  1.00  0.00    -0.354 N 
ATOM     56  C   UNL     1     -11.009   4.189  -7.087  1.00  0.00     0.074 A 
ATOM     57  C   UNL     1     -10.522   5.230  -6.212  1.00  0.00     0.031 C 
ATOM     58  C   UNL     1      -5.621   1.109  -8.790  1.00  0.00     0.029 A 
ATOM     59  C   UNL     1      -6.991   0.781  -9.182  1.00  0.00     0.049 A 
ATOM     60  H   UNL     1      -8.727   1.809  -8.664  1.00  0.00     0.167 HD
ATOM     61  C   UNL     1     -12.306   4.043  -7.443  1.00  0.00     0.037 A 
ATOM     62  C   UNL     1      -7.366  -0.253  -9.964  1.00  0.00     0.037 A 
ATOM     63  C   UNL     1     -12.786   3.005  -8.314  1.00  0.00     0.049 A 
ATOM     64  C   UNL     1      -8.831  -0.453 -10.271  1.00  0.00     0.074 A 
ATOM     65  C   UNL     1     -14.082   2.774  -8.739  1.00  0.00     0.029 A 
ATOM     66  N   UNL     1     -11.994   2.024  -8.889  1.00  0.00    -0.354 N 
ATOM     67  N   UNL     1      -9.858   0.279  -9.908  1.00  0.00    -0.248 NA
ATOM     68  C   UNL     1      -9.188  -1.620 -11.091  1.00  0.00     0.031 C 
ATOM     69  C   UNL     1     -14.082   1.617  -9.524  1.00  0.00     0.029 A 
ATOM     70  C   UNL     1     -12.778   1.164  -9.639  1.00  0.00     0.049 A 
ATOM     71  H   UNL     1     -11.018   1.949  -8.781  1.00  0.00     0.167 HD
ATOM     72  C   UNL     1     -10.979  -0.329 -10.469  1.00  0.00     0.074 A 
ATOM     73  C   UNL     1     -10.500  -1.475 -11.214  1.00  0.00     0.031 C 
ATOM     74  C   UNL     1     -12.285   0.025 -10.374  1.00  0.00     0.037 A 
BRANCH  61  75
ATOM     75  C   UNL     1     -13.303   5.010  -6.871  1.00  0.00     0.058 A 
ATOM     76  C   UNL     1     -13.365   6.346  -7.296  1.00  0.00     0.135 A 
ATOM     77  C   UNL     1     -14.246   4.578  -5.924  1.00  0.00     0.135 A 
ATOM     78  F   UNL     1     -12.469   6.819  -8.177  1.00  0.00    -0.206 F 
ATOM     79  C   UNL     1     -14.325   7.222  -6.799  1.00  0.00     0.059 A 
ATOM     80  C   UNL     1     -15.232   5.428  -5.435  1.00  0.00     0.059 A 
ATOM     81  F   UNL     1     -14.222   3.313  -5.475  1.00  0.00    -0.206 F 
ATOM     82  C   UNL     1     -15.260   6.750  -5.876  1.00  0.00     0.060 A 
BRANCH  82  83
ATOM     83  S   UNL     1     -16.523   7.891  -5.275  1.00  0.00     0.124 S 
ATOM     84  O   UNL     1     -15.724   8.824  -4.486  1.00  0.00    -0.237 OA
ATOM     85  O   UNL     1     -17.074   8.422  -6.517  1.00  0.00    -0.237 OA
ATOM     86  O   UNL     1     -17.421   7.033  -4.508  1.00  0.00    -0.744 OA
ENDBRANCH  82  83
ENDBRANCH  61  75
BRANCH  62  87
ATOM     87  C   UNL     1      -6.344  -1.199 -10.493  1.00  0.00     0.058 A 
ATOM     88  C   UNL     1      -6.065  -1.277 -11.866  1.00  0.00     0.135 A 
ATOM     89  C   UNL     1      -5.630  -2.051  -9.635  1.00  0.00     0.135 A 
ATOM     90  F   UNL     1      -6.732  -0.498 -12.731  1.00  0.00    -0.206 F 
ATOM     91  C   UNL     1      -5.123  -2.169 -12.370  1.00  0.00     0.059 A 
ATOM     92  C   UNL     1      -4.663  -2.932 -10.112  1.00  0.00     0.059 A 
ATOM     93  F   UNL     1      -5.856  -2.018  -8.313  1.00  0.00    -0.206 F 
ATOM     94  C   UNL     1      -4.422  -2.988 -11.483  1.00  0.00     0.060 A 
BRANCH  94  95
ATOM     95  S   UNL     1      -3.164  -4.103 -12.146  1.00  0.00     0.124 S 
ATOM     96  O   UNL     1      -3.978  -5.066 -12.878  1.00  0.00    -0.237 OA
ATOM     97  O   UNL     1      -2.357  -3.199 -12.959  1.00  0.00    -0.237 OA
ATOM     98  O   UNL     1      -2.505  -4.615 -10.949  1.00  0.00    -0.744 OA
ENDBRANCH  94  95
ENDBRANCH  62  87
BRANCH  74  99
ATOM     99  C   UNL     1     -13.296  -0.823 -11.099  1.00  0.00     0.058 A 
ATOM    100  C   UNL     1     -13.622  -2.116 -10.660  1.00  0.00     0.135 A 
ATOM    101  C   UNL     1     -13.999  -0.311 -12.204  1.00  0.00     0.135 A 
ATOM    102  F   UNL     1     -12.982  -2.654  -9.611  1.00  0.00    -0.206 F 
ATOM    103  C   UNL     1     -14.588  -2.881 -11.306  1.00  0.00     0.059 A 
ATOM    104  C   UNL     1     -14.991  -1.046 -12.844  1.00  0.00     0.059 A 
ATOM    105  F   UNL     1     -13.739   0.926 -12.656  1.00  0.00    -0.206 F 
ATOM    106  C   UNL     1     -15.270  -2.336 -12.396  1.00  0.00     0.060 A 
BRANCH 106 107
ATOM    107  S   UNL     1     -16.537  -3.334 -13.206  1.00  0.00     0.124 S 
ATOM    108  O   UNL     1     -15.730  -4.366 -13.850  1.00  0.00    -0.237 OA
ATOM    109  O   UNL     1     -17.351  -3.777 -12.078  1.00  0.00    -0.237 OA
ATOM    110  O   UNL     1     -17.188  -2.392 -14.111  1.00  0.00    -0.744 OA
ENDBRANCH 106 107
ENDBRANCH  74  99
ENDBRANCH  48  49
ENDBRANCH  41  43
ENDBRANCH  40  41
ENDBRANCH  39  40
ENDBRANCH  38  39
ENDBRANCH  37  38
ENDBRANCH  36  37
ENDBRANCH   1  36
TORSDOF 25
