REMARK SMILES CCN(CC)S(=O)(=O)c1cccc(C(=O)N2C[C@H](O)C[C@H]2C(=O)OCCOCCOCCOCCOC(=O)c2ccc(-c3c4nc(c(-c5c(F)cc(S(=O)(=O)[O-])cc5F)c5ccc([nH]5)c(-c5c(F)cc(S(=O)(=O)[O-])cc5F)c5nc(c(-c6c(F)cc(S(=O)(=O)[O-])cc6F)c6ccc3[nH]6)C=C5)C=C4)cc2)c1
REMARK SMILES IDX 29 1 28 2 27 3 26 4 25 5 24 6 22 7 23 8 21 9 16 10 17 11
REMARK SMILES IDX 18 12 20 13 14 14 15 15 13 16 9 17 10 18 105 19 11 20 12 21
REMARK SMILES IDX 6 22 7 23 8 24 3 25 2 26 1 27 4 28 5 29 19 30 30 32 31 33
REMARK SMILES IDX 32 34 33 35 34 36 35 37 36 38 37 39 38 40 39 41 40 42 104 43
REMARK SMILES IDX 41 44 103 45 42 46 43 47 44 48 97 49 45 50 102 51 96 52
REMARK SMILES IDX 98 53 46 54 101 55 95 56 94 57 47 59 81 60 60 61 80 62 61 63
REMARK SMILES IDX 64 64 79 65 99 66 62 67 63 68 78 70 100 71 65 72 48 73 49 74
REMARK SMILES IDX 58 75 50 76 51 77 57 78 59 79 52 80 53 81 54 82 55 83 56 84
REMARK SMILES IDX 82 85 83 86 92 87 84 88 85 89 91 90 93 91 86 92 87 93 88 94
REMARK SMILES IDX 89 95 90 96 66 97 67 98 76 99 68 100 69 101 75 102 77 103
REMARK SMILES IDX 70 104 71 105 72 106 73 107 74 108
REMARK H PARENT 19 31 98 58 64 69
REMARK Flexibility Score: inf
ROOT
ATOM      1  C   UNL     1       6.904   1.812   7.779  1.00  0.00     0.188 C 
ENDROOT
BRANCH   1   2
ATOM      2  C   UNL     1       7.682   3.124   7.872  1.00  0.00     0.188 C 
BRANCH   2   3
ATOM      3  O   UNL     1       7.762   3.755   9.135  1.00  0.00    -0.376 OA
BRANCH   3   4
ATOM      4  C   UNL     1       6.630   4.447   9.657  1.00  0.00     0.202 C 
BRANCH   4   5
ATOM      5  C   UNL     1       5.613   5.163   8.743  1.00  0.00     0.261 C 
BRANCH   5   6
ATOM      6  O   UNL     1       4.824   4.311   7.868  1.00  0.00    -0.462 OA
BRANCH   6   7
ATOM      7  C   UNL     1       5.040   4.479   6.545  1.00  0.00     0.329 C 
ATOM      8  O   UNL     1       5.842   5.309   6.101  1.00  0.00    -0.250 OA
BRANCH   7   9
ATOM      9  C   UNL     1       4.290   3.562   5.538  1.00  0.00     0.198 C 
ATOM     10  N   UNL     1       3.191   2.576   5.676  1.00  0.00    -0.322 N 
ATOM     11  C   UNL     1       2.016   2.963   4.915  1.00  0.00     0.152 C 
ATOM     12  C   UNL     1       2.553   3.906   3.849  1.00  0.00     0.136 C 
ATOM     13  C   UNL     1       3.677   4.616   4.570  1.00  0.00     0.071 C 
BRANCH  10  14
ATOM     14  C   UNL     1       3.233   1.335   6.284  1.00  0.00     0.254 C 
ATOM     15  O   UNL     1       2.928   1.211   7.468  1.00  0.00    -0.269 OA
BRANCH  14  16
ATOM     16  C   UNL     1       3.411   0.072   5.465  1.00  0.00     0.041 A 
ATOM     17  C   UNL     1       3.370  -1.251   3.424  1.00  0.00     0.083 A 
ATOM     18  C   UNL     1       3.613  -2.430   4.131  1.00  0.00     0.022 A 
ATOM     19  C   UNL     1       3.326   0.000   4.071  1.00  0.00     0.035 A 
ATOM     20  C   UNL     1       3.699  -2.372   5.515  1.00  0.00     0.002 A 
ATOM     21  C   UNL     1       3.567  -1.139   6.168  1.00  0.00     0.014 A 
BRANCH  17  22
ATOM     22  S   UNL     1       3.015  -1.347   1.677  1.00  0.00     0.243 S 
ATOM     23  O   UNL     1       3.521  -2.613   1.179  1.00  0.00    -0.207 OA
ATOM     24  O   UNL     1       3.470  -0.106   1.098  1.00  0.00    -0.207 OA
BRANCH  22  25
ATOM     25  N   UNL     1       1.300  -1.403   1.649  1.00  0.00    -0.198 NA
BRANCH  25  26
ATOM     26  C   UNL     1       0.650  -1.224   0.317  1.00  0.00     0.099 C 
ATOM     27  C   UNL     1       0.824   0.173  -0.248  1.00  0.00     0.022 C 
ENDBRANCH  25  26
BRANCH  25  28
ATOM     28  C   UNL     1       0.621  -2.470   2.452  1.00  0.00     0.099 C 
ATOM     29  C   UNL     1       0.800  -3.878   1.906  1.00  0.00     0.022 C 
ENDBRANCH  25  28
ENDBRANCH  22  25
ENDBRANCH  17  22
ENDBRANCH  14  16
ENDBRANCH  10  14
BRANCH  12  30
ATOM     30  O   UNL     1       3.058   3.209   2.715  1.00  0.00    -0.391 OA
ATOM     31  H   UNL     1       3.755   2.595   2.995  1.00  0.00     0.211 HD
ENDBRANCH  12  30
ENDBRANCH   7   9
ENDBRANCH   6   7
ENDBRANCH   5   6
ENDBRANCH   4   5
ENDBRANCH   3   4
ENDBRANCH   2   3
ENDBRANCH   1   2
BRANCH   1  32
ATOM     32  O   UNL     1       5.555   1.851   8.192  1.00  0.00    -0.377 OA
BRANCH  32  33
ATOM     33  C   UNL     1       5.188   1.508   9.530  1.00  0.00     0.188 C 
BRANCH  33  34
ATOM     34  C   UNL     1       6.229   0.793  10.393  1.00  0.00     0.188 C 
BRANCH  34  35
ATOM     35  O   UNL     1       6.757  -0.444   9.900  1.00  0.00    -0.376 OA
BRANCH  35  36
ATOM     36  C   UNL     1       5.936  -1.225   9.036  1.00  0.00     0.202 C 
BRANCH  36  37
ATOM     37  C   UNL     1       5.021  -2.214   9.750  1.00  0.00     0.261 C 
BRANCH  37  38
ATOM     38  O   UNL     1       3.977  -1.543  10.468  1.00  0.00    -0.460 OA
BRANCH  38  39
ATOM     39  C   UNL     1       4.220  -1.386  11.790  1.00  0.00     0.338 C 
ATOM     40  O   UNL     1       5.182  -1.799  12.415  1.00  0.00    -0.246 OA
BRANCH  39  41
ATOM     41  C   UNL     1       3.202  -0.504  12.388  1.00  0.00     0.060 A 
ATOM     42  C   UNL     1       3.643   0.469  13.293  1.00  0.00     0.016 A 
ATOM     43  C   UNL     1       1.838  -0.689  12.147  1.00  0.00     0.016 A 
ATOM     44  C   UNL     1       2.720   1.212  14.017  1.00  0.00     0.010 A 
ATOM     45  C   UNL     1       0.911   0.054  12.880  1.00  0.00     0.010 A 
ATOM     46  C   UNL     1       1.351   0.968  13.853  1.00  0.00    -0.014 A 
BRANCH  46  47
ATOM     47  C   UNL     1       0.402   1.532  14.838  1.00  0.00     0.031 A 
ATOM     48  C   UNL     1      -0.102   0.643  15.941  1.00  0.00     0.074 A 
ATOM     49  C   UNL     1       0.046   2.826  14.777  1.00  0.00     0.049 A 
ATOM     50  N   UNL     1      -0.942   0.912  16.905  1.00  0.00    -0.248 NA
ATOM     51  C   UNL     1       0.410  -0.739  15.959  1.00  0.00     0.031 C 
ATOM     52  C   UNL     1       0.512   3.782  13.772  1.00  0.00     0.029 A 
ATOM     53  N   UNL     1      -0.791   3.558  15.577  1.00  0.00    -0.354 N 
ATOM     54  C   UNL     1      -1.065  -0.264  17.638  1.00  0.00     0.074 A 
ATOM     55  C   UNL     1      -0.243  -1.259  16.986  1.00  0.00     0.031 C 
ATOM     56  C   UNL     1      -0.055   4.976  14.012  1.00  0.00     0.029 A 
ATOM     57  C   UNL     1      -0.948   4.858  15.163  1.00  0.00     0.049 A 
ATOM     58  H   UNL     1      -1.237   3.188  16.372  1.00  0.00     0.167 HD
ATOM     59  C   UNL     1      -1.790  -0.486  18.759  1.00  0.00     0.037 A 
ATOM     60  C   UNL     1      -1.743   5.832  15.647  1.00  0.00     0.037 A 
ATOM     61  C   UNL     1      -2.605   0.518  19.393  1.00  0.00     0.049 A 
ATOM     62  C   UNL     1      -2.591   5.543  16.858  1.00  0.00     0.074 A 
ATOM     63  C   UNL     1      -3.373   0.408  20.538  1.00  0.00     0.029 A 
ATOM     64  N   UNL     1      -2.764   1.817  18.929  1.00  0.00    -0.354 N 
ATOM     65  N   UNL     1      -2.687   4.434  17.555  1.00  0.00    -0.248 NA
ATOM     66  C   UNL     1      -3.433   6.638  17.355  1.00  0.00     0.031 C 
ATOM     67  C   UNL     1      -4.043   1.620  20.733  1.00  0.00     0.029 A 
ATOM     68  C   UNL     1      -3.639   2.510  19.749  1.00  0.00     0.049 A 
ATOM     69  H   UNL     1      -2.319   2.191  18.134  1.00  0.00     0.167 HD
ATOM     70  C   UNL     1      -3.578   4.707  18.587  1.00  0.00     0.074 A 
ATOM     71  C   UNL     1      -3.977   6.091  18.433  1.00  0.00     0.031 C 
ATOM     72  C   UNL     1      -4.025   3.890  19.575  1.00  0.00     0.037 A 
BRANCH  59  73
ATOM     73  C   UNL     1      -1.762  -1.871  19.350  1.00  0.00     0.058 A 
ATOM     74  C   UNL     1      -0.613  -2.395  19.965  1.00  0.00     0.135 A 
ATOM     75  C   UNL     1      -2.912  -2.677  19.325  1.00  0.00     0.135 A 
ATOM     76  F   UNL     1       0.522  -1.678  20.001  1.00  0.00    -0.206 F 
ATOM     77  C   UNL     1      -0.598  -3.675  20.511  1.00  0.00     0.059 A 
ATOM     78  C   UNL     1      -2.929  -3.948  19.892  1.00  0.00     0.059 A 
ATOM     79  F   UNL     1      -4.037  -2.232  18.744  1.00  0.00    -0.206 F 
ATOM     80  C   UNL     1      -1.762  -4.444  20.472  1.00  0.00     0.060 A 
BRANCH  80  81
ATOM     81  S   UNL     1      -1.729  -6.098  21.195  1.00  0.00     0.124 S 
ATOM     82  O   UNL     1      -0.887  -6.816  20.243  1.00  0.00    -0.237 OA
ATOM     83  O   UNL     1      -1.137  -5.852  22.506  1.00  0.00    -0.237 OA
ATOM     84  O   UNL     1      -3.134  -6.492  21.209  1.00  0.00    -0.744 OA
ENDBRANCH  80  81
ENDBRANCH  59  73
BRANCH  60  85
ATOM     85  C   UNL     1      -1.780   7.160  14.978  1.00  0.00     0.058 A 
ATOM     86  C   UNL     1      -1.281   8.309  15.607  1.00  0.00     0.135 A 
ATOM     87  C   UNL     1      -2.310   7.302  13.685  1.00  0.00     0.135 A 
ATOM     88  F   UNL     1      -0.772   8.228  16.846  1.00  0.00    -0.206 F 
ATOM     89  C   UNL     1      -1.317   9.554  14.987  1.00  0.00     0.059 A 
ATOM     90  C   UNL     1      -2.330   8.530  13.032  1.00  0.00     0.059 A 
ATOM     91  F   UNL     1      -2.791   6.232  13.033  1.00  0.00    -0.206 F 
ATOM     92  C   UNL     1      -1.839   9.653  13.695  1.00  0.00     0.060 A 
BRANCH  92  93
ATOM     93  S   UNL     1      -1.832  11.263  12.880  1.00  0.00     0.124 S 
ATOM     94  O   UNL     1      -2.856  11.979  13.632  1.00  0.00    -0.237 OA
ATOM     95  O   UNL     1      -0.457  11.705  13.090  1.00  0.00    -0.237 OA
ATOM     96  O   UNL     1      -2.174  10.941  11.497  1.00  0.00    -0.744 OA
ENDBRANCH  92  93
ENDBRANCH  60  85
BRANCH  72  97
ATOM     97  C   UNL     1      -4.970   4.484  20.586  1.00  0.00     0.058 A 
ATOM     98  C   UNL     1      -6.288   4.835  20.253  1.00  0.00     0.135 A 
ATOM     99  C   UNL     1      -4.559   4.672  21.916  1.00  0.00     0.135 A 
ATOM    100  F   UNL     1      -6.733   4.679  18.996  1.00  0.00    -0.206 F 
ATOM    101  C   UNL     1      -7.152   5.388  21.193  1.00  0.00     0.059 A 
ATOM    102  C   UNL     1      -5.417   5.190  22.881  1.00  0.00     0.059 A 
ATOM    103  F   UNL     1      -3.314   4.340  22.293  1.00  0.00    -0.206 F 
ATOM    104  C   UNL     1      -6.706   5.561  22.505  1.00  0.00     0.060 A 
BRANCH 104 105
ATOM    105  S   UNL     1      -7.841   6.269  23.716  1.00  0.00     0.124 S 
ATOM    106  O   UNL     1      -7.894   7.664  23.290  1.00  0.00    -0.237 OA
ATOM    107  O   UNL     1      -9.057   5.492  23.496  1.00  0.00    -0.237 OA
ATOM    108  O   UNL     1      -7.173   6.029  24.991  1.00  0.00    -0.744 OA
ENDBRANCH 104 105
ENDBRANCH  72  97
ENDBRANCH  46  47
ENDBRANCH  39  41
ENDBRANCH  38  39
ENDBRANCH  37  38
ENDBRANCH  36  37
ENDBRANCH  35  36
ENDBRANCH  34  35
ENDBRANCH  33  34
ENDBRANCH  32  33
ENDBRANCH   1  32
TORSDOF 30
