REMARK SMILES O=C(OCCOCCOCCOCCOC(=O)c1ccc(-c2c3nc(c(-c4c(F)cc(S(=O)(=O)[O-])cc4F)c4ccc([nH]4)c(-c4c(F)cc(S(=O)(=O)[O-])cc4F)c4nc(c(-c5c(F)cc(S(=O)(=O)[O-])cc5F)c5ccc2[nH]5)C=C4)C=C3)cc1)C1=Cc2cc(S(F)(F)(F)(F)F)ccc2O[C@H]1C(F)(F)F
REMARK SMILES IDX 10 1 9 2 8 3 7 4 6 5 5 6 4 7 3 8 2 9 1 10 84 11 85 12 99 13
REMARK SMILES IDX 86 14 98 15 87 16 97 17 88 18 96 19 95 20 100 21 101 22
REMARK SMILES IDX 102 23 103 24 89 25 90 26 91 27 92 28 93 29 94 30 11 31
REMARK SMILES IDX 12 32 13 33 14 34 15 35 16 36 17 37 18 38 19 39 83 40 20 41
REMARK SMILES IDX 82 42 21 43 22 44 23 45 76 46 24 47 81 48 75 49 77 50 25 51
REMARK SMILES IDX 80 52 74 53 73 54 26 56 60 57 39 58 59 59 40 60 43 61 58 62
REMARK SMILES IDX 78 63 41 64 42 65 57 67 79 68 44 69 27 70 28 71 37 72 29 73
REMARK SMILES IDX 30 74 36 75 38 76 31 77 32 78 33 79 34 80 35 81 61 82 62 83
REMARK SMILES IDX 71 84 63 85 64 86 70 87 72 88 65 89 66 90 67 91 68 92 69 93
REMARK SMILES IDX 45 94 46 95 55 96 47 97 48 98 54 99 56 100 49 101 50 102
REMARK SMILES IDX 51 103 52 104 53 105
REMARK H PARENT 77 55 43 66
REMARK Flexibility Score: inf
ROOT
ATOM      1  C   UNL     1       4.467   2.504  -1.082  1.00  0.00     0.188 C 
ENDROOT
BRANCH   1   2
ATOM      2  O   UNL     1       3.047   2.504  -1.082  1.00  0.00    -0.377 OA
BRANCH   2   3
ATOM      3  C   UNL     1       2.574   2.404   0.253  1.00  0.00     0.188 C 
BRANCH   3   4
ATOM      4  C   UNL     1       3.081   1.113   0.875  1.00  0.00     0.188 C 
BRANCH   4   5
ATOM      5  O   UNL     1       4.501   1.113   0.875  1.00  0.00    -0.376 OA
BRANCH   5   6
ATOM      6  C   UNL     1       4.974   1.213  -0.460  1.00  0.00     0.202 C 
BRANCH   6   7
ATOM      7  C   UNL     1       4.467   0.029  -1.267  1.00  0.00     0.261 C 
BRANCH   7   8
ATOM      8  O   UNL     1       3.047   0.029  -1.267  1.00  0.00    -0.460 OA
BRANCH   8   9
ATOM      9  C   UNL     1       2.337  -0.063  -0.041  1.00  0.00     0.338 C 
ATOM     10  O   UNL     1       1.066  -0.063  -0.041  1.00  0.00    -0.246 OA
BRANCH   9  11
ATOM     11  C   UNL     1       3.097  -0.161   1.272  1.00  0.00     0.087 C 
ATOM     12  C   UNL     1       4.458  -0.161   1.272  1.00  0.00     0.027 C 
ATOM     13  C   UNL     1       2.337  -0.259   2.585  1.00  0.00     0.316 C 
ATOM     14  C   UNL     1       5.218  -0.063  -0.041  1.00  0.00     0.019 A 
ATOM     15  O   UNL     1       3.635   1.560  -0.754  1.00  0.00    -0.475 OA
ATOM     16  C   UNL     1       6.294  -0.905  -0.268  1.00  0.00     0.036 A 
ATOM     17  C   UNL     1       4.835   0.826  -0.950  1.00  0.00     0.128 A 
ATOM     18  C   UNL     1       7.088  -0.533  -1.378  1.00  0.00     0.107 A 
ATOM     19  C   UNL     1       5.588   1.042  -2.078  1.00  0.00     0.048 A 
ATOM     20  C   UNL     1       6.698   0.286  -2.338  1.00  0.00     0.028 A 
BRANCH  13  21
ATOM     21  C   UNL     1       0.843  -0.239   2.308  1.00  0.00     0.430 C 
ATOM     22  F   UNL     1       0.597  -0.854   1.155  1.00  0.00    -0.167 F 
ATOM     23  F   UNL     1       0.201  -0.865   3.290  1.00  0.00    -0.167 F 
ATOM     24  F   UNL     1       0.423   1.021   2.236  1.00  0.00    -0.167 F 
ENDBRANCH  13  21
BRANCH  18  25
ATOM     25  S   UNL     1       8.756  -1.228  -1.491  1.00  0.00     0.310 S 
ATOM     26  F   UNL     1       8.927  -1.235   0.086  1.00  0.00    -0.094 F 
ATOM     27  F   UNL     1       9.338   0.236  -1.479  1.00  0.00    -0.094 F 
ATOM     28  F   UNL     1      10.188  -1.827  -1.588  1.00  0.00    -0.094 F 
ATOM     29  F   UNL     1       8.164  -2.687  -1.360  1.00  0.00    -0.094 F 
ATOM     30  F   UNL     1       7.305  -0.637  -1.278  1.00  0.00    -0.094 F 
ENDBRANCH  18  25
ENDBRANCH   9  11
ENDBRANCH   8   9
ENDBRANCH   7   8
ENDBRANCH   6   7
ENDBRANCH   5   6
ENDBRANCH   4   5
ENDBRANCH   3   4
ENDBRANCH   2   3
ENDBRANCH   1   2
BRANCH   1  31
ATOM     31  C   UNL     1       4.974   3.688  -0.274  1.00  0.00     0.188 C 
BRANCH  31  32
ATOM     32  O   UNL     1       4.501   3.588   1.061  1.00  0.00    -0.376 OA
BRANCH  32  33
ATOM     33  C   UNL     1       3.081   3.588   1.061  1.00  0.00     0.202 C 
BRANCH  33  34
ATOM     34  C   UNL     1       2.574   4.880   0.439  1.00  0.00     0.261 C 
BRANCH  34  35
ATOM     35  O   UNL     1       3.047   4.980  -0.896  1.00  0.00    -0.460 OA
BRANCH  35  36
ATOM     36  C   UNL     1       4.443   4.999  -1.155  1.00  0.00     0.338 C 
ATOM     37  O   UNL     1       5.269   4.927  -0.192  1.00  0.00    -0.246 OA
BRANCH  36  38
ATOM     38  C   UNL     1       4.950   5.106  -2.584  1.00  0.00     0.060 A 
ATOM     39  C   UNL     1       5.975   4.276  -3.006  1.00  0.00     0.016 A 
ATOM     40  C   UNL     1       4.395   5.989  -3.407  1.00  0.00     0.016 A 
ATOM     41  C   UNL     1       6.547   4.654  -4.244  1.00  0.00     0.010 A 
ATOM     42  C   UNL     1       4.925   6.210  -4.655  1.00  0.00     0.010 A 
ATOM     43  C   UNL     1       5.976   5.467  -5.115  1.00  0.00    -0.014 A 
BRANCH  43  44
ATOM     44  C   UNL     1       6.463   5.570  -6.551  1.00  0.00     0.031 A 
ATOM     45  C   UNL     1       6.911   6.812  -7.003  1.00  0.00     0.074 A 
ATOM     46  C   UNL     1       6.426   4.429  -7.334  1.00  0.00     0.049 A 
ATOM     47  N   UNL     1       7.399   7.112  -8.208  1.00  0.00    -0.248 NA
ATOM     48  C   UNL     1       6.919   8.034  -6.184  1.00  0.00     0.031 C 
ATOM     49  C   UNL     1       5.984   3.170  -6.883  1.00  0.00     0.029 A 
ATOM     50  N   UNL     1       6.798   4.297  -8.654  1.00  0.00    -0.354 N 
ATOM     51  C   UNL     1       7.741   8.402  -8.258  1.00  0.00     0.074 A 
ATOM     52  C   UNL     1       7.431   9.014  -6.959  1.00  0.00     0.031 C 
ATOM     53  C   UNL     1       6.075   2.295  -7.919  1.00  0.00     0.029 A 
ATOM     54  C   UNL     1       6.578   2.992  -9.034  1.00  0.00     0.049 A 
ATOM     55  H   UNL     1       7.158   5.012  -9.226  1.00  0.00     0.167 HD
ATOM     56  C   UNL     1       8.301   9.090  -9.336  1.00  0.00     0.037 A 
ATOM     57  C   UNL     1       6.795   2.422 -10.279  1.00  0.00     0.037 A 
ATOM     58  C   UNL     1       8.559   8.509 -10.568  1.00  0.00     0.049 A 
ATOM     59  C   UNL     1       7.301   3.125 -11.375  1.00  0.00     0.074 A 
ATOM     60  C   UNL     1       9.130   9.187 -11.662  1.00  0.00     0.029 A 
ATOM     61  N   UNL     1       8.316   7.210 -10.956  1.00  0.00    -0.354 N 
ATOM     62  N   UNL     1       7.680   4.404 -11.414  1.00  0.00    -0.248 NA
ATOM     63  C   UNL     1       7.505   2.541 -12.707  1.00  0.00     0.031 C 
ATOM     64  C   UNL     1       9.222   8.311 -12.699  1.00  0.00     0.029 A 
ATOM     65  C   UNL     1       8.709   7.073 -12.269  1.00  0.00     0.049 A 
ATOM     66  H   UNL     1       7.929   6.502 -10.392  1.00  0.00     0.167 HD
ATOM     67  C   UNL     1       8.129   4.714 -12.632  1.00  0.00     0.074 A 
ATOM     68  C   UNL     1       8.016   3.522 -13.483  1.00  0.00     0.031 C 
ATOM     69  C   UNL     1       8.632   5.941 -13.066  1.00  0.00     0.037 A 
BRANCH  56  70
ATOM     70  C   UNL     1       8.647  10.558  -9.148  1.00  0.00     0.058 A 
ATOM     71  C   UNL     1       9.552  10.926  -8.166  1.00  0.00     0.135 A 
ATOM     72  C   UNL     1       8.069  11.464  -9.927  1.00  0.00     0.135 A 
ATOM     73  F   UNL     1      10.338  10.055  -7.540  1.00  0.00    -0.206 F 
ATOM     74  C   UNL     1       9.565  12.314  -7.890  1.00  0.00     0.059 A 
ATOM     75  C   UNL     1       8.234  12.806  -9.681  1.00  0.00     0.059 A 
ATOM     76  F   UNL     1       7.323  11.070 -10.955  1.00  0.00    -0.206 F 
ATOM     77  C   UNL     1       9.068  13.241  -8.689  1.00  0.00     0.060 A 
BRANCH  77  78
ATOM     78  S   UNL     1       9.469  14.994  -8.480  1.00  0.00     0.124 S 
ATOM     79  O   UNL     1       9.021  15.458  -7.093  1.00  0.00    -0.237 OA
ATOM     80  O   UNL     1      10.980  15.192  -8.621  1.00  0.00    -0.237 OA
ATOM     81  O   UNL     1       8.660  15.910  -9.677  1.00  0.00    -0.744 OA
ENDBRANCH  77  78
ENDBRANCH  56  70
BRANCH  57  82
ATOM     82  C   UNL     1       6.465   0.950 -10.462  1.00  0.00     0.058 A 
ATOM     83  C   UNL     1       7.463   0.065 -10.833  1.00  0.00     0.135 A 
ATOM     84  C   UNL     1       5.218   0.538 -10.261  1.00  0.00     0.135 A 
ATOM     85  F   UNL     1       8.756   0.374 -10.799  1.00  0.00    -0.206 F 
ATOM     86  C   UNL     1       6.983  -1.199 -11.251  1.00  0.00     0.059 A 
ATOM     87  C   UNL     1       4.850  -0.750 -10.564  1.00  0.00     0.059 A 
ATOM     88  F   UNL     1       4.319   1.380  -9.761  1.00  0.00    -0.206 F 
ATOM     89  C   UNL     1       5.774  -1.663 -10.993  1.00  0.00     0.060 A 
BRANCH  89  90
ATOM     90  S   UNL     1       5.361  -3.414 -11.195  1.00  0.00     0.124 S 
ATOM     91  O   UNL     1       5.585  -3.826 -12.652  1.00  0.00    -0.237 OA
ATOM     92  O   UNL     1       6.256  -4.257 -10.284  1.00  0.00    -0.237 OA
ATOM     93  O   UNL     1       3.723  -3.666 -10.776  1.00  0.00    -0.744 OA
ENDBRANCH  89  90
ENDBRANCH  57  82
BRANCH  69  94
ATOM     94  C   UNL     1       9.125   6.044 -14.500  1.00  0.00     0.058 A 
ATOM     95  C   UNL     1       8.244   5.801 -15.541  1.00  0.00     0.135 A 
ATOM     96  C   UNL     1      10.390   6.372 -14.731  1.00  0.00     0.135 A 
ATOM     97  F   UNL     1       6.927   5.720 -15.373  1.00  0.00    -0.206 F 
ATOM     98  C   UNL     1       8.871   5.647 -16.799  1.00  0.00     0.059 A 
ATOM     99  C   UNL     1      10.902   6.330 -16.006  1.00  0.00     0.059 A 
ATOM    100  F   UNL     1      11.170   6.745 -13.720  1.00  0.00    -0.206 F 
ATOM    101  C   UNL     1      10.102   6.040 -17.076  1.00  0.00     0.060 A 
BRANCH 101 102
ATOM    102  S   UNL     1      10.696   6.186 -18.779  1.00  0.00     0.124 S 
ATOM    103  O   UNL     1      10.607   4.823 -19.469  1.00  0.00    -0.237 OA
ATOM    104  O   UNL     1       9.834   7.199 -19.536  1.00  0.00    -0.237 OA
ATOM    105  O   UNL     1      12.322   6.715 -18.772  1.00  0.00    -0.744 OA
ENDBRANCH 101 102
ENDBRANCH  69  94
ENDBRANCH  43  44
ENDBRANCH  36  38
ENDBRANCH  35  36
ENDBRANCH  34  35
ENDBRANCH  33  34
ENDBRANCH  32  33
ENDBRANCH  31  32
ENDBRANCH   1  31
TORSDOF 25
