REMARK SMILES Cc1ccccc1-c1c(Cl)ccc2c1C=C(C(=O)OCCOCCOCCOCCOC(=O)c1ccc(-c3c4nc(c(-c5c(F)cc(S(=O)(=O)[O-])cc5F)c5ccc([nH]5)c(-c5c(F)cc(S(=O)(=O)[O-])cc5F)c5nc(c(-c6c(F)cc(S(=O)(=O)[O-])cc6F)c6ccc3[nH]6)C=C5)C=C4)cc1)[C@@H](C(F)(F)F)O2
REMARK SMILES IDX 26 1 25 2 24 3 23 4 22 5 21 6 20 7 19 8 17 9 18 10 16 11
REMARK SMILES IDX 8 12 9 13 14 14 10 15 11 16 13 17 15 18 12 19 105 20 100 21
REMARK SMILES IDX 7 22 1 23 2 24 3 25 4 26 6 27 5 28 101 29 102 30 103 31
REMARK SMILES IDX 104 32 27 33 28 34 29 35 30 36 31 37 32 38 33 39 34 40 35 41
REMARK SMILES IDX 99 42 36 43 98 44 37 45 38 46 39 47 92 48 40 49 97 50 91 51
REMARK SMILES IDX 93 52 41 53 96 54 90 55 89 56 42 58 76 59 55 60 75 61 56 62
REMARK SMILES IDX 59 63 74 64 94 65 57 66 58 67 73 69 95 70 60 71 43 72 44 73
REMARK SMILES IDX 53 74 45 75 46 76 52 77 54 78 47 79 48 80 49 81 50 82 51 83
REMARK SMILES IDX 77 84 78 85 87 86 79 87 80 88 86 89 88 90 81 91 82 92 83 93
REMARK SMILES IDX 84 94 85 95 61 96 62 97 71 98 63 99 64 100 70 101 72 102
REMARK SMILES IDX 65 103 66 104 67 105 68 106 69 107
REMARK H PARENT 93 57 59 68
REMARK Flexibility Score: inf
ROOT
ATOM      1  C   UNL     1       7.125   0.305  -4.351  1.00  0.00     0.188 C 
ENDROOT
BRANCH   1   2
ATOM      2  O   UNL     1       5.863   0.988  -4.324  1.00  0.00    -0.377 OA
BRANCH   2   3
ATOM      3  C   UNL     1       5.622   2.020  -5.260  1.00  0.00     0.188 C 
BRANCH   3   4
ATOM      4  C   UNL     1       5.473   3.427  -4.673  1.00  0.00     0.188 C 
BRANCH   4   5
ATOM      5  O   UNL     1       6.586   4.066  -4.066  1.00  0.00    -0.376 OA
BRANCH   5   6
ATOM      6  C   UNL     1       6.903   3.664  -2.733  1.00  0.00     0.202 C 
BRANCH   6   7
ATOM      7  C   UNL     1       5.910   4.055  -1.649  1.00  0.00     0.261 C 
BRANCH   7   8
ATOM      8  O   UNL     1       4.706   3.295  -1.774  1.00  0.00    -0.460 OA
BRANCH   8   9
ATOM      9  C   UNL     1       3.625   4.082  -1.873  1.00  0.00     0.338 C 
ATOM     10  O   UNL     1       3.594   5.284  -1.655  1.00  0.00    -0.246 OA
BRANCH   9  11
ATOM     11  C   UNL     1       2.552   3.341  -2.635  1.00  0.00     0.087 C 
ATOM     12  C   UNL     1       0.449   2.707   0.184  1.00  0.00     0.012 A 
ATOM     13  C   UNL     1       0.275   3.609   1.251  1.00  0.00     0.049 A 
ATOM     14  C   UNL     1       0.905   3.265  -1.021  1.00  0.00     0.027 A 
ATOM     15  Cl  UNL     1      -0.184   3.063   2.827  1.00  0.00    -0.084 Cl
ATOM     16  C   UNL     1       0.455   4.992   1.072  1.00  0.00     0.025 A 
ATOM     17  C   UNL     1       0.786   4.649  -1.274  1.00  0.00     0.128 A 
ATOM     18  C   UNL     1       1.727   2.495  -1.982  1.00  0.00     0.028 C 
ATOM     19  C   UNL     1       0.628   5.519  -0.209  1.00  0.00     0.049 A 
ATOM     20  O   UNL     1       0.942   5.177  -2.547  1.00  0.00    -0.475 OA
ATOM     21  C   UNL     1       1.833   4.417  -3.427  1.00  0.00     0.316 C 
BRANCH  12  22
ATOM     22  C   UNL     1      -0.118   1.333   0.199  1.00  0.00    -0.013 A 
ATOM     23  C   UNL     1       2.088   0.076   0.522  1.00  0.00     0.045 C 
ATOM     24  C   UNL     1       0.601   0.130   0.345  1.00  0.00    -0.043 A 
ATOM     25  C   UNL     1      -0.079  -1.103   0.271  1.00  0.00     0.004 A 
ATOM     26  C   UNL     1      -1.455  -1.161   0.069  1.00  0.00     0.000 A 
ATOM     27  C   UNL     1      -1.515   1.240  -0.009  1.00  0.00     0.009 A 
ATOM     28  C   UNL     1      -2.177   0.014  -0.071  1.00  0.00     0.001 A 
ENDBRANCH  12  22
BRANCH  21  29
ATOM     29  C   UNL     1       1.155   3.870  -4.684  1.00  0.00     0.430 C 
ATOM     30  F   UNL     1       0.828   4.864  -5.545  1.00  0.00    -0.167 F 
ATOM     31  F   UNL     1       1.989   3.040  -5.365  1.00  0.00    -0.167 F 
ATOM     32  F   UNL     1       0.028   3.173  -4.422  1.00  0.00    -0.167 F 
ENDBRANCH  21  29
ENDBRANCH   9  11
ENDBRANCH   8   9
ENDBRANCH   7   8
ENDBRANCH   6   7
ENDBRANCH   5   6
ENDBRANCH   4   5
ENDBRANCH   3   4
ENDBRANCH   2   3
ENDBRANCH   1   2
BRANCH   1  33
ATOM     33  C   UNL     1       8.113   0.576  -5.482  1.00  0.00     0.188 C 
BRANCH  33  34
ATOM     34  O   UNL     1       8.566   1.929  -5.363  1.00  0.00    -0.376 OA
BRANCH  34  35
ATOM     35  C   UNL     1       9.035   2.522  -6.566  1.00  0.00     0.202 C 
BRANCH  35  36
ATOM     36  C   UNL     1      10.292   1.857  -7.135  1.00  0.00     0.261 C 
BRANCH  36  37
ATOM     37  O   UNL     1      11.452   2.205  -6.355  1.00  0.00    -0.460 OA
BRANCH  37  38
ATOM     38  C   UNL     1      11.975   1.177  -5.623  1.00  0.00     0.338 C 
ATOM     39  O   UNL     1      12.717   0.332  -6.081  1.00  0.00    -0.246 OA
BRANCH  38  40
ATOM     40  C   UNL     1      11.534   1.274  -4.205  1.00  0.00     0.060 A 
ATOM     41  C   UNL     1      11.550   0.157  -3.357  1.00  0.00     0.016 A 
ATOM     42  C   UNL     1      10.953   2.452  -3.763  1.00  0.00     0.016 A 
ATOM     43  C   UNL     1      10.857   0.179  -2.128  1.00  0.00     0.010 A 
ATOM     44  C   UNL     1      10.224   2.442  -2.592  1.00  0.00     0.010 A 
ATOM     45  C   UNL     1      10.129   1.312  -1.763  1.00  0.00    -0.014 A 
BRANCH  45  46
ATOM     46  C   UNL     1       9.101   1.408  -0.693  1.00  0.00     0.031 A 
ATOM     47  C   UNL     1       9.000   2.673   0.133  1.00  0.00     0.074 A 
ATOM     48  C   UNL     1       8.022   0.592  -0.809  1.00  0.00     0.049 A 
ATOM     49  N   UNL     1       8.024   3.001   0.916  1.00  0.00    -0.248 NA
ATOM     50  C   UNL     1      10.047   3.700   0.142  1.00  0.00     0.031 C 
ATOM     51  C   UNL     1       6.634   1.008  -0.609  1.00  0.00     0.029 A 
ATOM     52  N   UNL     1       7.865  -0.692  -1.307  1.00  0.00    -0.354 N 
ATOM     53  C   UNL     1       8.143   4.345   1.250  1.00  0.00     0.074 A 
ATOM     54  C   UNL     1       9.473   4.695   0.828  1.00  0.00     0.031 C 
ATOM     55  C   UNL     1       5.794   0.041  -1.001  1.00  0.00     0.029 A 
ATOM     56  C   UNL     1       6.569  -1.166  -1.067  1.00  0.00     0.049 A 
ATOM     57  H   UNL     1       8.570  -1.202  -1.768  1.00  0.00     0.167 HD
ATOM     58  C   UNL     1       7.056   5.033   1.729  1.00  0.00     0.037 A 
ATOM     59  C   UNL     1       6.326  -2.178  -0.176  1.00  0.00     0.037 A 
ATOM     60  C   UNL     1       5.939   4.117   2.012  1.00  0.00     0.049 A 
ATOM     61  C   UNL     1       5.726  -1.707   1.154  1.00  0.00     0.074 A 
ATOM     62  C   UNL     1       4.611   4.088   1.633  1.00  0.00     0.029 A 
ATOM     63  N   UNL     1       6.163   2.928   2.716  1.00  0.00    -0.354 N 
ATOM     64  N   UNL     1       5.659  -0.446   1.521  1.00  0.00    -0.248 NA
ATOM     65  C   UNL     1       5.122  -2.578   2.159  1.00  0.00     0.031 C 
ATOM     66  C   UNL     1       4.070   2.848   2.050  1.00  0.00     0.029 A 
ATOM     67  C   UNL     1       5.056   2.104   2.680  1.00  0.00     0.049 A 
ATOM     68  H   UNL     1       7.004   2.707   3.178  1.00  0.00     0.167 HD
ATOM     69  C   UNL     1       5.116  -0.326   2.769  1.00  0.00     0.074 A 
ATOM     70  C   UNL     1       4.765  -1.694   3.112  1.00  0.00     0.031 C 
ATOM     71  C   UNL     1       5.018   0.861   3.447  1.00  0.00     0.037 A 
BRANCH  58  72
ATOM     72  C   UNL     1       6.865   6.570   1.781  1.00  0.00     0.058 A 
ATOM     73  C   UNL     1       5.704   7.137   2.373  1.00  0.00     0.135 A 
ATOM     74  C   UNL     1       7.703   7.536   1.176  1.00  0.00     0.135 A 
ATOM     75  F   UNL     1       4.823   6.378   3.041  1.00  0.00    -0.206 F 
ATOM     76  C   UNL     1       5.377   8.503   2.317  1.00  0.00     0.059 A 
ATOM     77  C   UNL     1       7.427   8.917   1.161  1.00  0.00     0.059 A 
ATOM     78  F   UNL     1       8.820   7.197   0.525  1.00  0.00    -0.206 F 
ATOM     79  C   UNL     1       6.246   9.392   1.706  1.00  0.00     0.060 A 
BRANCH  79  80
ATOM     80  S   UNL     1       5.838  11.153   1.663  1.00  0.00     0.124 S 
ATOM     81  O   UNL     1       4.768  11.198   0.672  1.00  0.00    -0.237 OA
ATOM     82  O   UNL     1       5.436  11.420   3.041  1.00  0.00    -0.237 OA
ATOM     83  O   UNL     1       7.091  11.783   1.255  1.00  0.00    -0.744 OA
ENDBRANCH  79  80
ENDBRANCH  58  72
BRANCH  59  84
ATOM     84  C   UNL     1       7.059  -3.430  -0.555  1.00  0.00     0.058 A 
ATOM     85  C   UNL     1       6.564  -4.009  -1.746  1.00  0.00     0.135 A 
ATOM     86  C   UNL     1       8.453  -3.461  -0.370  1.00  0.00     0.135 A 
ATOM     87  F   UNL     1       5.238  -4.098  -1.940  1.00  0.00    -0.206 F 
ATOM     88  C   UNL     1       7.397  -4.236  -2.840  1.00  0.00     0.059 A 
ATOM     89  C   UNL     1       9.311  -3.698  -1.450  1.00  0.00     0.059 A 
ATOM     90  F   UNL     1       8.987  -3.003   0.772  1.00  0.00    -0.206 F 
ATOM     91  C   UNL     1       8.760  -3.978  -2.704  1.00  0.00     0.060 A 
BRANCH  91  92
ATOM     92  S   UNL     1       9.721  -3.678  -4.215  1.00  0.00     0.124 S 
ATOM     93  O   UNL     1       9.897  -5.025  -4.741  1.00  0.00    -0.237 OA
ATOM     94  O   UNL     1       8.828  -2.803  -4.973  1.00  0.00    -0.237 OA
ATOM     95  O   UNL     1      10.923  -3.027  -3.707  1.00  0.00    -0.744 OA
ENDBRANCH  91  92
ENDBRANCH  59  84
BRANCH  71  96
ATOM     96  C   UNL     1       4.829   0.971   4.946  1.00  0.00     0.058 A 
ATOM     97  C   UNL     1       5.298   0.001   5.848  1.00  0.00     0.135 A 
ATOM     98  C   UNL     1       4.343   2.165   5.538  1.00  0.00     0.135 A 
ATOM     99  F   UNL     1       5.902  -1.118   5.421  1.00  0.00    -0.206 F 
ATOM    100  C   UNL     1       5.220   0.164   7.231  1.00  0.00     0.059 A 
ATOM    101  C   UNL     1       4.308   2.371   6.914  1.00  0.00     0.059 A 
ATOM    102  F   UNL     1       3.902   3.192   4.797  1.00  0.00    -0.206 F 
ATOM    103  C   UNL     1       4.722   1.351   7.756  1.00  0.00     0.060 A 
BRANCH 103 104
ATOM    104  S   UNL     1       4.672   1.572   9.541  1.00  0.00     0.124 S 
ATOM    105  O   UNL     1       3.425   0.896   9.881  1.00  0.00    -0.237 OA
ATOM    106  O   UNL     1       5.893   0.900   9.979  1.00  0.00    -0.237 OA
ATOM    107  O   UNL     1       4.672   3.022   9.706  1.00  0.00    -0.744 OA
ENDBRANCH 103 104
ENDBRANCH  71  96
ENDBRANCH  45  46
ENDBRANCH  38  40
ENDBRANCH  37  38
ENDBRANCH  36  37
ENDBRANCH  35  36
ENDBRANCH  34  35
ENDBRANCH  33  34
ENDBRANCH   1  33
TORSDOF 25
