REMARK SMILES C[C@H](NC(=O)N1CCN(/C=C/c2ccccc2)CC1)C(=O)OCCOCCOCCOCCOC(=O)c1ccc(-c2c3nc(c(-c4c(F)cc(S(=O)(=O)[O-])cc4F)c4ccc([nH]4)c(-c4c(F)cc(S(=O)(=O)[O-])cc4F)c4nc(c(-c5c(F)cc(S(=O)(=O)[O-])cc5F)c5ccc2[nH]5)C=C4)C=C3)cc1
REMARK SMILES IDX 28 1 27 2 26 3 25 4 24 5 23 6 22 7 20 8 21 9 2 10 1 11 3 12
REMARK SMILES IDX 4 13 5 15 6 16 7 17 19 18 8 19 18 20 9 21 10 22 11 23 12 24
REMARK SMILES IDX 13 25 17 26 14 27 16 28 15 29 29 30 30 31 31 32 32 33 33 34
REMARK SMILES IDX 34 35 35 36 36 37 37 38 38 39 102 40 39 41 101 42 40 43
REMARK SMILES IDX 41 44 42 45 95 46 43 47 100 48 94 49 96 50 44 51 99 52 93 53
REMARK SMILES IDX 92 54 45 56 79 57 58 58 78 59 59 60 62 61 77 62 97 63 60 64
REMARK SMILES IDX 61 65 76 67 98 68 63 69 46 70 47 71 56 72 48 73 49 74 55 75
REMARK SMILES IDX 57 76 50 77 51 78 52 79 53 80 54 81 80 82 81 83 90 84 82 85
REMARK SMILES IDX 83 86 89 87 91 88 84 89 85 90 86 91 87 92 88 93 64 94 65 95
REMARK SMILES IDX 74 96 66 97 67 98 73 99 75 100 68 101 69 102 70 103 71 104
REMARK SMILES IDX 72 105
REMARK H PARENT 3 14 96 55 62 66
REMARK Flexibility Score: inf
ROOT
ATOM      1  O   UNL     1      -2.229   0.135   0.752  1.00  0.00    -0.377 OA
ENDROOT
BRANCH   1   2
ATOM      2  C   UNL     1      -1.454   1.195   0.236  1.00  0.00     0.188 C 
BRANCH   2   3
ATOM      3  C   UNL     1      -1.998   1.810  -1.069  1.00  0.00     0.188 C 
BRANCH   3   4
ATOM      4  O   UNL     1      -3.234   1.395  -1.638  1.00  0.00    -0.376 OA
BRANCH   4   5
ATOM      5  C   UNL     1      -3.686   0.053  -1.520  1.00  0.00     0.202 C 
BRANCH   5   6
ATOM      6  C   UNL     1      -2.773  -1.130  -1.901  1.00  0.00     0.261 C 
BRANCH   6   7
ATOM      7  O   UNL     1      -1.378  -0.978  -1.583  1.00  0.00    -0.462 OA
BRANCH   7   8
ATOM      8  C   UNL     1      -0.558  -0.671  -2.616  1.00  0.00     0.328 C 
ATOM      9  O   UNL     1      -0.919  -0.610  -3.788  1.00  0.00    -0.250 OA
BRANCH   8  10
ATOM     10  C   UNL     1       0.866  -0.243  -2.171  1.00  0.00     0.190 C 
ATOM     11  C   UNL     1       1.869  -0.435  -3.299  1.00  0.00     0.043 C 
BRANCH  10  12
ATOM     12  N   UNL     1       1.390  -0.458  -0.808  1.00  0.00    -0.325 N 
ATOM     13  C   UNL     1       1.503  -1.503   0.034  1.00  0.00     0.318 C 
ATOM     14  H   UNL     1       1.746   0.372  -0.416  1.00  0.00     0.166 HD
ATOM     15  O   UNL     1       1.605  -1.236   1.232  1.00  0.00    -0.249 OA
ATOM     16  N   UNL     1       1.450  -2.770  -0.418  1.00  0.00    -0.321 N 
ATOM     17  C   UNL     1       0.819  -3.826   0.377  1.00  0.00     0.143 C 
ATOM     18  C   UNL     1       2.051  -3.258  -1.641  1.00  0.00     0.143 C 
ATOM     19  C   UNL     1      -0.260  -4.540  -0.471  1.00  0.00     0.137 C 
ATOM     20  C   UNL     1       0.965  -3.852  -2.533  1.00  0.00     0.137 C 
ATOM     21  N   UNL     1       0.268  -4.931  -1.806  1.00  0.00    -0.374 N 
BRANCH  21  22
ATOM     22  C   UNL     1       0.126  -6.172  -2.385  1.00  0.00     0.081 C 
ATOM     23  C   UNL     1      -0.379  -7.309  -1.897  1.00  0.00     0.025 C 
BRANCH  23  24
ATOM     24  C   UNL     1      -0.345  -8.556  -2.668  1.00  0.00    -0.024 A 
ATOM     25  C   UNL     1      -1.424  -9.440  -2.587  1.00  0.00     0.008 A 
ATOM     26  C   UNL     1       0.776  -8.915  -3.434  1.00  0.00     0.008 A 
ATOM     27  C   UNL     1      -1.391 -10.653  -3.277  1.00  0.00     0.001 A 
ATOM     28  C   UNL     1       0.806 -10.125  -4.127  1.00  0.00     0.001 A 
ATOM     29  C   UNL     1      -0.279 -10.993  -4.047  1.00  0.00     0.000 A 
ENDBRANCH  23  24
ENDBRANCH  21  22
ENDBRANCH  10  12
ENDBRANCH   8  10
ENDBRANCH   7   8
ENDBRANCH   6   7
ENDBRANCH   5   6
ENDBRANCH   4   5
ENDBRANCH   3   4
ENDBRANCH   2   3
ENDBRANCH   1   2
BRANCH   1  30
ATOM     30  C   UNL     1      -3.085   0.463   1.835  1.00  0.00     0.188 C 
BRANCH  30  31
ATOM     31  C   UNL     1      -3.889   1.772   1.706  1.00  0.00     0.188 C 
BRANCH  31  32
ATOM     32  O   UNL     1      -3.085   2.920   1.448  1.00  0.00    -0.376 OA
BRANCH  32  33
ATOM     33  C   UNL     1      -2.730   3.757   2.540  1.00  0.00     0.202 C 
BRANCH  33  34
ATOM     34  C   UNL     1      -1.740   3.190   3.574  1.00  0.00     0.261 C 
BRANCH  34  35
ATOM     35  O   UNL     1      -2.143   1.992   4.254  1.00  0.00    -0.460 OA
BRANCH  35  36
ATOM     36  C   UNL     1      -3.317   2.025   4.921  1.00  0.00     0.338 C 
ATOM     37  O   UNL     1      -4.035   2.991   5.082  1.00  0.00    -0.246 OA
BRANCH  36  38
ATOM     38  C   UNL     1      -3.705   0.635   5.246  1.00  0.00     0.060 A 
ATOM     39  C   UNL     1      -4.974   0.194   4.852  1.00  0.00     0.016 A 
ATOM     40  C   UNL     1      -2.849  -0.211   5.957  1.00  0.00     0.016 A 
ATOM     41  C   UNL     1      -5.428  -1.063   5.244  1.00  0.00     0.010 A 
ATOM     42  C   UNL     1      -3.313  -1.465   6.368  1.00  0.00     0.010 A 
ATOM     43  C   UNL     1      -4.627  -1.865   6.067  1.00  0.00    -0.014 A 
BRANCH  43  44
ATOM     44  C   UNL     1      -5.279  -2.952   6.838  1.00  0.00     0.031 A 
ATOM     45  C   UNL     1      -5.717  -2.643   8.248  1.00  0.00     0.074 A 
ATOM     46  C   UNL     1      -5.552  -4.147   6.287  1.00  0.00     0.049 A 
ATOM     47  N   UNL     1      -6.341  -3.400   9.112  1.00  0.00    -0.248 NA
ATOM     48  C   UNL     1      -5.409  -1.292   8.749  1.00  0.00     0.031 C 
ATOM     49  C   UNL     1      -5.225  -4.544   4.919  1.00  0.00     0.029 A 
ATOM     50  N   UNL     1      -6.180  -5.247   6.817  1.00  0.00    -0.354 N 
ATOM     51  C   UNL     1      -6.487  -2.623  10.257  1.00  0.00     0.074 A 
ATOM     52  C   UNL     1      -5.859  -1.350   9.992  1.00  0.00     0.031 C 
ATOM     53  C   UNL     1      -5.658  -5.802   4.716  1.00  0.00     0.029 A 
ATOM     54  C   UNL     1      -6.269  -6.306   5.946  1.00  0.00     0.049 A 
ATOM     55  H   UNL     1      -6.533  -5.274   7.736  1.00  0.00     0.167 HD
ATOM     56  C   UNL     1      -7.101  -2.938  11.422  1.00  0.00     0.037 A 
ATOM     57  C   UNL     1      -6.779  -7.540   6.128  1.00  0.00     0.037 A 
ATOM     58  C   UNL     1      -7.731  -4.205  11.677  1.00  0.00     0.049 A 
ATOM     59  C   UNL     1      -7.408  -7.888   7.456  1.00  0.00     0.074 A 
ATOM     60  C   UNL     1      -8.397  -4.621  12.816  1.00  0.00     0.029 A 
ATOM     61  N   UNL     1      -7.767  -5.265  10.783  1.00  0.00    -0.354 N 
ATOM     62  N   UNL     1      -7.559  -7.139   8.523  1.00  0.00    -0.248 NA
ATOM     63  C   UNL     1      -7.947  -9.248   7.598  1.00  0.00     0.031 C 
ATOM     64  C   UNL     1      -8.782  -5.953  12.634  1.00  0.00     0.029 A 
ATOM     65  C   UNL     1      -8.421  -6.344  11.354  1.00  0.00     0.049 A 
ATOM     66  H   UNL     1      -7.383  -5.253   9.876  1.00  0.00     0.167 HD
ATOM     67  C   UNL     1      -8.253  -7.920   9.444  1.00  0.00     0.074 A 
ATOM     68  C   UNL     1      -8.491  -9.198   8.806  1.00  0.00     0.031 C 
ATOM     69  C   UNL     1      -8.665  -7.606  10.699  1.00  0.00     0.037 A 
BRANCH  56  70
ATOM     70  C   UNL     1      -7.081  -1.908  12.520  1.00  0.00     0.058 A 
ATOM     71  C   UNL     1      -7.811  -0.711  12.436  1.00  0.00     0.135 A 
ATOM     72  C   UNL     1      -6.326  -2.132  13.682  1.00  0.00     0.135 A 
ATOM     73  F   UNL     1      -8.533  -0.432  11.338  1.00  0.00    -0.206 F 
ATOM     74  C   UNL     1      -7.768   0.240  13.452  1.00  0.00     0.059 A 
ATOM     75  C   UNL     1      -6.294  -1.210  14.724  1.00  0.00     0.059 A 
ATOM     76  F   UNL     1      -5.604  -3.256  13.813  1.00  0.00    -0.206 F 
ATOM     77  C   UNL     1      -7.007  -0.020  14.592  1.00  0.00     0.060 A 
BRANCH  77  78
ATOM     78  S   UNL     1      -6.962   1.222  15.902  1.00  0.00     0.124 S 
ATOM     79  O   UNL     1      -6.153   2.268  15.284  1.00  0.00    -0.237 OA
ATOM     80  O   UNL     1      -8.376   1.536  16.081  1.00  0.00    -0.237 OA
ATOM     81  O   UNL     1      -6.333   0.519  17.016  1.00  0.00    -0.744 OA
ENDBRANCH  77  78
ENDBRANCH  56  70
BRANCH  57  82
ATOM     82  C   UNL     1      -6.733  -8.540   5.026  1.00  0.00     0.058 A 
ATOM     83  C   UNL     1      -7.905  -8.978   4.392  1.00  0.00     0.135 A 
ATOM     84  C   UNL     1      -5.514  -9.085   4.590  1.00  0.00     0.135 A 
ATOM     85  F   UNL     1      -9.097  -8.497   4.779  1.00  0.00    -0.206 F 
ATOM     86  C   UNL     1      -7.875  -9.932   3.379  1.00  0.00     0.059 A 
ATOM     87  C   UNL     1      -5.456 -10.018   3.560  1.00  0.00     0.059 A 
ATOM     88  F   UNL     1      -4.362  -8.695   5.156  1.00  0.00    -0.206 F 
ATOM     89  C   UNL     1      -6.644 -10.443   2.966  1.00  0.00     0.060 A 
BRANCH  89  90
ATOM     90  S   UNL     1      -6.612 -11.642   1.616  1.00  0.00     0.124 S 
ATOM     91  O   UNL     1      -7.172 -12.826   2.259  1.00  0.00    -0.237 OA
ATOM     92  O   UNL     1      -7.458 -10.998   0.616  1.00  0.00    -0.237 OA
ATOM     93  O   UNL     1      -5.196 -11.721   1.270  1.00  0.00    -0.744 OA
ENDBRANCH  89  90
ENDBRANCH  57  82
BRANCH  69  94
ATOM     94  C   UNL     1      -9.480  -8.631  11.443  1.00  0.00     0.058 A 
ATOM     95  C   UNL     1      -8.926  -9.830  11.917  1.00  0.00     0.135 A 
ATOM     96  C   UNL     1     -10.837  -8.387  11.714  1.00  0.00     0.135 A 
ATOM     97  F   UNL     1      -7.634 -10.116  11.688  1.00  0.00    -0.206 F 
ATOM     98  C   UNL     1      -9.698 -10.770  12.595  1.00  0.00     0.059 A 
ATOM     99  C   UNL     1     -11.619  -9.296  12.420  1.00  0.00     0.059 A 
ATOM    100  F   UNL     1     -11.416  -7.249  11.300  1.00  0.00    -0.206 F 
ATOM    101  C   UNL     1     -11.045 -10.494  12.839  1.00  0.00     0.060 A 
BRANCH 101 102
ATOM    102  S   UNL     1     -12.036 -11.719  13.719  1.00  0.00     0.124 S 
ATOM    103  O   UNL     1     -12.202 -12.750  12.700  1.00  0.00    -0.237 OA
ATOM    104  O   UNL     1     -11.172 -12.071  14.842  1.00  0.00    -0.237 OA
ATOM    105  O   UNL     1     -13.248 -10.986  14.074  1.00  0.00    -0.744 OA
ENDBRANCH 101 102
ENDBRANCH  69  94
ENDBRANCH  43  44
ENDBRANCH  36  38
ENDBRANCH  35  36
ENDBRANCH  34  35
ENDBRANCH  33  34
ENDBRANCH  32  33
ENDBRANCH  31  32
ENDBRANCH  30  31
ENDBRANCH   1  30
TORSDOF 26
