REMARK SMILES CCC(CC)(NC(=O)Nc1ccccc1)C(=O)OCCOCCOCCOCCOC(=O)c1ccc(-c2c3nc(c(-c4c(F)cc(S(=O)(=O)[O-])cc4F)c4ccc([nH]4)c(-c4c(F)cc(S(=O)(=O)[O-])cc4F)c4nc(c(-c5c(F)cc(S(=O)(=O)[O-])cc5F)c5ccc2[nH]5)C=C4)C=C3)cc1
REMARK SMILES IDX 25 1 24 2 23 3 22 4 21 5 20 6 19 7 18 8 16 9 17 10 3 11 2 12
REMARK SMILES IDX 1 13 4 14 5 15 6 16 7 17 8 19 9 20 10 22 11 23 15 24 12 25
REMARK SMILES IDX 14 26 13 27 26 28 27 29 28 30 29 31 30 32 31 33 32 34 33 35
REMARK SMILES IDX 34 36 98 37 35 38 97 39 36 40 37 41 38 42 91 43 39 44 96 45
REMARK SMILES IDX 90 46 92 47 40 48 95 49 89 50 88 51 41 53 75 54 54 55 74 56
REMARK SMILES IDX 55 57 58 58 73 59 93 60 56 61 57 62 72 64 94 65 59 66 42 67
REMARK SMILES IDX 43 68 52 69 44 70 45 71 51 72 53 73 46 74 47 75 48 76 49 77
REMARK SMILES IDX 50 78 76 79 77 80 86 81 78 82 79 83 85 84 87 85 80 86 81 87
REMARK SMILES IDX 82 88 83 89 84 90 60 91 61 92 70 93 62 94 63 95 69 96 71 97
REMARK SMILES IDX 64 98 65 99 66 100 67 101 68 102
REMARK H PARENT 6 18 9 21 92 52 58 63
REMARK Flexibility Score: inf
ROOT
ATOM      1  C   UNL     1       4.259  -6.229   0.043  1.00  0.00     0.188 C 
ENDROOT
BRANCH   1   2
ATOM      2  O   UNL     1       3.148  -5.721  -0.682  1.00  0.00    -0.377 OA
BRANCH   2   3
ATOM      3  C   UNL     1       3.243  -4.384  -1.169  1.00  0.00     0.188 C 
BRANCH   3   4
ATOM      4  C   UNL     1       4.471  -3.529  -0.698  1.00  0.00     0.188 C 
BRANCH   4   5
ATOM      5  O   UNL     1       4.638  -3.748   0.732  1.00  0.00    -0.376 OA
BRANCH   5   6
ATOM      6  C   UNL     1       5.007  -2.957   1.886  1.00  0.00     0.202 C 
BRANCH   6   7
ATOM      7  C   UNL     1       4.035  -2.994   3.292  1.00  0.00     0.261 C 
BRANCH   7   8
ATOM      8  O   UNL     1       2.534  -2.549   3.534  1.00  0.00    -0.461 OA
BRANCH   8   9
ATOM      9  C   UNL     1       1.685  -1.410   3.529  1.00  0.00     0.331 C 
ATOM     10  O   UNL     1       1.792  -0.493   4.343  1.00  0.00    -0.249 OA
BRANCH   9  11
ATOM     11  C   UNL     1       0.420  -1.460   2.429  1.00  0.00     0.139 C 
BRANCH  11  12
ATOM     12  C   UNL     1       0.188  -0.810   0.993  1.00  0.00     0.037 C 
ATOM     13  C   UNL     1       0.402   0.646   0.692  1.00  0.00     0.007 C 
ENDBRANCH  11  12
BRANCH  11  14
ATOM     14  C   UNL     1      -0.845  -1.234   3.289  1.00  0.00     0.037 C 
ATOM     15  C   UNL     1      -2.207  -1.529   2.666  1.00  0.00     0.007 C 
ENDBRANCH  11  14
BRANCH  11  16
ATOM     16  N   UNL     1       0.638  -2.799   2.043  1.00  0.00    -0.322 N 
ATOM     17  C   UNL     1       1.794  -3.055   1.409  1.00  0.00     0.320 C 
ATOM     18  H   UNL     1      -0.020  -3.507   2.228  1.00  0.00     0.166 HD
ATOM     19  O   UNL     1       2.065  -4.251   1.322  1.00  0.00    -0.248 OA
ATOM     20  N   UNL     1       2.645  -2.056   0.941  1.00  0.00    -0.308 N 
ATOM     21  H   UNL     1       2.988  -2.410   0.088  1.00  0.00     0.171 HD
BRANCH  20  22
ATOM     22  C   UNL     1       3.293  -0.739   1.074  1.00  0.00     0.042 A 
ATOM     23  C   UNL     1       3.927  -0.237  -0.080  1.00  0.00     0.026 A 
ATOM     24  C   UNL     1       3.695  -0.063   2.241  1.00  0.00     0.026 A 
ATOM     25  C   UNL     1       4.874   0.812  -0.054  1.00  0.00     0.002 A 
ATOM     26  C   UNL     1       4.535   1.065   2.274  1.00  0.00     0.002 A 
ATOM     27  C   UNL     1       5.152   1.490   1.121  1.00  0.00     0.000 A 
ENDBRANCH  20  22
ENDBRANCH  11  16
ENDBRANCH   9  11
ENDBRANCH   8   9
ENDBRANCH   7   8
ENDBRANCH   6   7
ENDBRANCH   5   6
ENDBRANCH   4   5
ENDBRANCH   3   4
ENDBRANCH   2   3
ENDBRANCH   1   2
BRANCH   1  28
ATOM     28  C   UNL     1       5.543  -6.304  -0.793  1.00  0.00     0.188 C 
BRANCH  28  29
ATOM     29  O   UNL     1       5.508  -6.790  -2.131  1.00  0.00    -0.376 OA
BRANCH  29  30
ATOM     30  C   UNL     1       4.287  -7.184  -2.730  1.00  0.00     0.202 C 
BRANCH  30  31
ATOM     31  C   UNL     1       3.514  -8.398  -2.168  1.00  0.00     0.261 C 
BRANCH  31  32
ATOM     32  O   UNL     1       3.850  -8.879  -0.859  1.00  0.00    -0.460 OA
BRANCH  32  33
ATOM     33  C   UNL     1       5.109  -9.355  -0.682  1.00  0.00     0.338 C 
ATOM     34  O   UNL     1       5.921  -9.579  -1.544  1.00  0.00    -0.246 OA
BRANCH  33  35
ATOM     35  C   UNL     1       5.415  -9.386   0.782  1.00  0.00     0.060 A 
ATOM     36  C   UNL     1       6.652  -8.876   1.206  1.00  0.00     0.016 A 
ATOM     37  C   UNL     1       4.531  -9.922   1.722  1.00  0.00     0.016 A 
ATOM     38  C   UNL     1       7.038  -8.961   2.539  1.00  0.00     0.010 A 
ATOM     39  C   UNL     1       4.945 -10.069   3.055  1.00  0.00     0.010 A 
ATOM     40  C   UNL     1       6.229  -9.648   3.447  1.00  0.00    -0.014 A 
BRANCH  40  41
ATOM     41  C   UNL     1       6.892 -10.195   4.658  1.00  0.00     0.031 A 
ATOM     42  C   UNL     1       7.419 -11.608   4.583  1.00  0.00     0.074 A 
ATOM     43  C   UNL     1       7.160  -9.427   5.728  1.00  0.00     0.049 A 
ATOM     44  N   UNL     1       8.088 -12.297   5.471  1.00  0.00    -0.248 NA
ATOM     45  C   UNL     1       7.164 -12.339   3.329  1.00  0.00     0.031 C 
ATOM     46  C   UNL     1       6.768  -8.028   5.885  1.00  0.00     0.029 A 
ATOM     47  N   UNL     1       7.842  -9.718   6.883  1.00  0.00    -0.354 N 
ATOM     48  C   UNL     1       8.336 -13.533   4.881  1.00  0.00     0.074 A 
ATOM     49  C   UNL     1       7.709 -13.518   3.580  1.00  0.00     0.031 C 
ATOM     50  C   UNL     1       7.204  -7.585   7.078  1.00  0.00     0.029 A 
ATOM     51  C   UNL     1       7.885  -8.675   7.777  1.00  0.00     0.049 A 
ATOM     52  H   UNL     1       8.262 -10.592   7.055  1.00  0.00     0.167 HD
ATOM     53  C   UNL     1       9.041 -14.580   5.369  1.00  0.00     0.037 A 
ATOM     54  C   UNL     1       8.396  -8.617   9.023  1.00  0.00     0.037 A 
ATOM     55  C   UNL     1       9.662 -14.591   6.667  1.00  0.00     0.049 A 
ATOM     56  C   UNL     1       9.106  -9.826   9.582  1.00  0.00     0.074 A 
ATOM     57  C   UNL     1      10.379 -15.609   7.270  1.00  0.00     0.029 A 
ATOM     58  N   UNL     1       9.639 -13.532   7.564  1.00  0.00    -0.354 N 
ATOM     59  N   UNL     1       9.325 -10.991   9.018  1.00  0.00    -0.248 NA
ATOM     60  C   UNL     1       9.649  -9.707  10.942  1.00  0.00     0.031 C 
ATOM     61  C   UNL     1      10.745 -15.185   8.552  1.00  0.00     0.029 A 
ATOM     62  C   UNL     1      10.313 -13.879   8.723  1.00  0.00     0.049 A 
ATOM     63  H   UNL     1       9.207 -12.663   7.400  1.00  0.00     0.167 HD
ATOM     64  C   UNL     1      10.051 -11.735   9.945  1.00  0.00     0.074 A 
ATOM     65  C   UNL     1      10.256 -10.876  11.094  1.00  0.00     0.031 C 
ATOM     66  C   UNL     1      10.505 -13.011   9.859  1.00  0.00     0.037 A 
BRANCH  53  67
ATOM     67  C   UNL     1       9.157 -15.808   4.505  1.00  0.00     0.058 A 
ATOM     68  C   UNL     1       9.933 -15.820   3.334  1.00  0.00     0.135 A 
ATOM     69  C   UNL     1       8.508 -16.999   4.870  1.00  0.00     0.135 A 
ATOM     70  F   UNL     1      10.555 -14.704   2.923  1.00  0.00    -0.206 F 
ATOM     71  C   UNL     1      10.048 -16.963   2.548  1.00  0.00     0.059 A 
ATOM     72  C   UNL     1       8.633 -18.162   4.115  1.00  0.00     0.059 A 
ATOM     73  F   UNL     1       7.745 -17.042   5.973  1.00  0.00    -0.206 F 
ATOM     74  C   UNL     1       9.398 -18.131   2.950  1.00  0.00     0.060 A 
BRANCH  74  75
ATOM     75  S   UNL     1       9.580 -19.612   1.933  1.00  0.00     0.124 S 
ATOM     76  O   UNL     1       8.809 -19.250   0.748  1.00  0.00    -0.237 OA
ATOM     77  O   UNL     1      11.026 -19.687   1.751  1.00  0.00    -0.237 OA
ATOM     78  O   UNL     1       8.999 -20.666   2.759  1.00  0.00    -0.744 OA
ENDBRANCH  74  75
ENDBRANCH  53  67
BRANCH  54  79
ATOM     79  C   UNL     1       8.225  -7.386   9.844  1.00  0.00     0.058 A 
ATOM     80  C   UNL     1       9.318  -6.598  10.233  1.00  0.00     0.135 A 
ATOM     81  C   UNL     1       6.949  -6.985  10.276  1.00  0.00     0.135 A 
ATOM     82  F   UNL     1      10.560  -6.941   9.859  1.00  0.00    -0.206 F 
ATOM     83  C   UNL     1       9.158  -5.472  11.037  1.00  0.00     0.059 A 
ATOM     84  C   UNL     1       6.760  -5.847  11.052  1.00  0.00     0.059 A 
ATOM     85  F   UNL     1       5.866  -7.698   9.928  1.00  0.00    -0.206 F 
ATOM     86  C   UNL     1       7.873  -5.103  11.439  1.00  0.00     0.060 A 
BRANCH  86  87
ATOM     87  S   UNL     1       7.671  -3.620  12.449  1.00  0.00     0.124 S 
ATOM     88  O   UNL     1       8.216  -4.058  13.728  1.00  0.00    -0.237 OA
ATOM     89  O   UNL     1       8.467  -2.641  11.715  1.00  0.00    -0.237 OA
ATOM     90  O   UNL     1       6.229  -3.389  12.423  1.00  0.00    -0.744 OA
ENDBRANCH  86  87
ENDBRANCH  54  79
BRANCH  66  91
ATOM     91  C   UNL     1      11.298 -13.542  11.025  1.00  0.00     0.058 A 
ATOM     92  C   UNL     1      10.704 -13.802  12.270  1.00  0.00     0.135 A 
ATOM     93  C   UNL     1      12.671 -13.811  10.888  1.00  0.00     0.135 A 
ATOM     94  F   UNL     1       9.396 -13.565  12.457  1.00  0.00    -0.206 F 
ATOM     95  C   UNL     1      11.451 -14.260  13.351  1.00  0.00     0.059 A 
ATOM     96  C   UNL     1      13.429 -14.304  11.945  1.00  0.00     0.059 A 
ATOM     97  F   UNL     1      13.289 -13.599   9.715  1.00  0.00    -0.206 F 
ATOM     98  C   UNL     1      12.814 -14.503  13.180  1.00  0.00     0.060 A 
BRANCH  98  99
ATOM     99  S   UNL     1      13.773 -15.086  14.593  1.00  0.00     0.124 S 
ATOM    100  O   UNL     1      13.850 -13.882  15.413  1.00  0.00    -0.237 OA
ATOM    101  O   UNL     1      12.934 -16.159  15.119  1.00  0.00    -0.237 OA
ATOM    102  O   UNL     1      15.033 -15.519  13.995  1.00  0.00    -0.744 OA
ENDBRANCH  98  99
ENDBRANCH  66  91
ENDBRANCH  40  41
ENDBRANCH  33  35
ENDBRANCH  32  33
ENDBRANCH  31  32
ENDBRANCH  30  31
ENDBRANCH  29  30
ENDBRANCH  28  29
ENDBRANCH   1  28
TORSDOF 27
