REMARK SMILES O=C(OCCOCCOCCOCCOC(=O)c1ncoc1-c1cc(F)cc(F)c1)c1ccc(-c2c3nc(c(-c4c(F)cc(S(=O)(=O)[O-])cc4F)c4ccc([nH]4)c(-c4c(F)cc(S(=O)(=O)[O-])cc4F)c4nc(c(-c5c(F)cc(S(=O)(=O)[O-])cc5F)c5ccc2[nH]5)C=C4)C=C3)cc1
REMARK SMILES IDX 8 1 7 2 6 3 5 4 4 5 3 6 2 7 1 8 31 9 32 10 96 11 33 12 95 13
REMARK SMILES IDX 34 14 35 15 36 16 89 17 37 18 94 19 88 20 90 21 38 22 93 23
REMARK SMILES IDX 87 24 86 25 39 27 73 28 52 29 72 30 53 31 56 32 71 33 91 34
REMARK SMILES IDX 54 35 55 36 70 38 92 39 57 40 40 41 41 42 50 43 42 44 43 45
REMARK SMILES IDX 49 46 51 47 44 48 45 49 46 50 47 51 48 52 74 53 75 54 84 55
REMARK SMILES IDX 76 56 77 57 83 58 85 59 78 60 79 61 80 62 81 63 82 64 58 65
REMARK SMILES IDX 59 66 68 67 60 68 61 69 67 70 69 71 62 72 63 73 64 74 65 75
REMARK SMILES IDX 66 76 9 77 10 78 11 79 12 80 13 81 14 82 15 83 16 84 17 85
REMARK SMILES IDX 18 86 19 87 22 88 20 89 21 90 23 91 24 92 30 93 25 94 28 95
REMARK SMILES IDX 26 96 27 97 29 98
REMARK H PARENT 90 26 56 37
REMARK Flexibility Score: inf
ROOT
ATOM      1  C   UNL     1       1.510   1.834  -1.802  1.00  0.00     0.188 C 
ENDROOT
BRANCH   1   2
ATOM      2  C   UNL     1       1.821   0.381  -1.454  1.00  0.00     0.188 C 
BRANCH   2   3
ATOM      3  O   UNL     1       3.188   0.300  -1.046  1.00  0.00    -0.376 OA
BRANCH   3   4
ATOM      4  C   UNL     1       3.789  -0.986  -1.153  1.00  0.00     0.202 C 
BRANCH   4   5
ATOM      5  C   UNL     1       3.608  -1.865   0.087  1.00  0.00     0.261 C 
BRANCH   5   6
ATOM      6  O   UNL     1       2.255  -1.815   0.569  1.00  0.00    -0.460 OA
BRANCH   6   7
ATOM      7  C   UNL     1       1.768  -1.060   1.588  1.00  0.00     0.338 C 
ATOM      8  O   UNL     1       0.569  -1.129   1.853  1.00  0.00    -0.246 OA
BRANCH   7   9
ATOM      9  C   UNL     1       2.626  -0.186   2.441  1.00  0.00     0.060 A 
ATOM     10  C   UNL     1       3.740   0.526   1.992  1.00  0.00     0.016 A 
ATOM     11  C   UNL     1       2.244  -0.038   3.784  1.00  0.00     0.016 A 
ATOM     12  C   UNL     1       4.543   1.239   2.874  1.00  0.00     0.010 A 
ATOM     13  C   UNL     1       3.011   0.728   4.666  1.00  0.00     0.010 A 
ATOM     14  C   UNL     1       4.197   1.324   4.221  1.00  0.00    -0.014 A 
BRANCH  14  15
ATOM     15  C   UNL     1       5.177   1.890   5.171  1.00  0.00     0.031 A 
ATOM     16  C   UNL     1       5.900   0.943   6.085  1.00  0.00     0.074 A 
ATOM     17  C   UNL     1       5.501   3.195   5.122  1.00  0.00     0.049 A 
ATOM     18  N   UNL     1       6.720   1.198   7.067  1.00  0.00    -0.248 NA
ATOM     19  C   UNL     1       5.667  -0.495   5.854  1.00  0.00     0.031 C 
ATOM     20  C   UNL     1       4.948   4.166   4.176  1.00  0.00     0.029 A 
ATOM     21  N   UNL     1       6.399   3.921   5.858  1.00  0.00    -0.354 N 
ATOM     22  C   UNL     1       7.059  -0.039   7.603  1.00  0.00     0.074 A 
ATOM     23  C   UNL     1       6.363  -1.046   6.835  1.00  0.00     0.031 C 
ATOM     24  C   UNL     1       5.554   5.351   4.359  1.00  0.00     0.029 A 
ATOM     25  C   UNL     1       6.478   5.241   5.483  1.00  0.00     0.049 A 
ATOM     26  H   UNL     1       6.938   3.534   6.585  1.00  0.00     0.167 HD
ATOM     27  C   UNL     1       7.871  -0.301   8.653  1.00  0.00     0.037 A 
ATOM     28  C   UNL     1       7.198   6.248   6.015  1.00  0.00     0.037 A 
ATOM     29  C   UNL     1       8.563   0.726   9.382  1.00  0.00     0.049 A 
ATOM     30  C   UNL     1       8.056   5.947   7.214  1.00  0.00     0.074 A 
ATOM     31  C   UNL     1       9.335   0.614  10.522  1.00  0.00     0.029 A 
ATOM     32  N   UNL     1       8.574   2.067   9.016  1.00  0.00    -0.354 N 
ATOM     33  N   UNL     1       8.262   4.793   7.807  1.00  0.00    -0.248 NA
ATOM     34  C   UNL     1       8.752   7.078   7.836  1.00  0.00     0.031 C 
ATOM     35  C   UNL     1       9.797   1.894  10.856  1.00  0.00     0.029 A 
ATOM     36  C   UNL     1       9.342   2.795   9.904  1.00  0.00     0.049 A 
ATOM     37  H   UNL     1       8.103   2.442   8.237  1.00  0.00     0.167 HD
ATOM     38  C   UNL     1       9.110   5.058   8.875  1.00  0.00     0.074 A 
ATOM     39  C   UNL     1       9.397   6.480   8.830  1.00  0.00     0.031 C 
ATOM     40  C   UNL     1       9.600   4.212   9.815  1.00  0.00     0.037 A 
BRANCH  27  41
ATOM     41  C   UNL     1       7.969  -1.734   9.094  1.00  0.00     0.058 A 
ATOM     42  C   UNL     1       7.279  -2.168  10.237  1.00  0.00     0.135 A 
ATOM     43  C   UNL     1       8.674  -2.696   8.352  1.00  0.00     0.135 A 
ATOM     44  F   UNL     1       6.579  -1.292  10.977  1.00  0.00    -0.206 F 
ATOM     45  C   UNL     1       7.262  -3.506  10.619  1.00  0.00     0.059 A 
ATOM     46  C   UNL     1       8.653  -4.043   8.703  1.00  0.00     0.059 A 
ATOM     47  F   UNL     1       9.324  -2.342   7.232  1.00  0.00    -0.206 F 
ATOM     48  C   UNL     1       7.931  -4.440   9.830  1.00  0.00     0.060 A 
BRANCH  48  49
ATOM     49  S   UNL     1       7.854  -6.199  10.234  1.00  0.00     0.124 S 
ATOM     50  O   UNL     1       6.950  -6.694   9.199  1.00  0.00    -0.237 OA
ATOM     51  O   UNL     1       9.248  -6.612  10.106  1.00  0.00    -0.237 OA
ATOM     52  O   UNL     1       7.320  -6.213  11.592  1.00  0.00    -0.744 OA
ENDBRANCH  48  49
ENDBRANCH  27  41
BRANCH  28  53
ATOM     53  C   UNL     1       7.103   7.618   5.440  1.00  0.00     0.058 A 
ATOM     54  C   UNL     1       5.912   8.360   5.518  1.00  0.00     0.135 A 
ATOM     55  C   UNL     1       8.185   8.200   4.763  1.00  0.00     0.135 A 
ATOM     56  F   UNL     1       4.843   7.850   6.150  1.00  0.00    -0.206 F 
ATOM     57  C   UNL     1       5.784   9.611   4.922  1.00  0.00     0.059 A 
ATOM     58  C   UNL     1       8.089   9.460   4.178  1.00  0.00     0.059 A 
ATOM     59  F   UNL     1       9.350   7.541   4.671  1.00  0.00    -0.206 F 
ATOM     60  C   UNL     1       6.880  10.155   4.255  1.00  0.00     0.060 A 
BRANCH  60  61
ATOM     61  S   UNL     1       6.741  11.757   3.430  1.00  0.00     0.124 S 
ATOM     62  O   UNL     1       7.545  12.607   4.300  1.00  0.00    -0.237 OA
ATOM     63  O   UNL     1       7.305  11.475   2.114  1.00  0.00    -0.237 OA
ATOM     64  O   UNL     1       5.304  12.019   3.444  1.00  0.00    -0.744 OA
ENDBRANCH  60  61
ENDBRANCH  28  53
BRANCH  40  65
ATOM     65  C   UNL     1      10.501   4.803  10.856  1.00  0.00     0.058 A 
ATOM     66  C   UNL     1      11.884   4.573  10.809  1.00  0.00     0.135 A 
ATOM     67  C   UNL     1       9.985   5.530  11.938  1.00  0.00     0.135 A 
ATOM     68  F   UNL     1      12.419   3.873   9.796  1.00  0.00    -0.206 F 
ATOM     69  C   UNL     1      12.731   5.039  11.808  1.00  0.00     0.059 A 
ATOM     70  C   UNL     1      10.815   6.021  12.938  1.00  0.00     0.059 A 
ATOM     71  F   UNL     1       8.668   5.777  12.021  1.00  0.00    -0.206 F 
ATOM     72  C   UNL     1      12.187   5.767  12.866  1.00  0.00     0.060 A 
BRANCH  72  73
ATOM     73  S   UNL     1      13.248   6.367  14.196  1.00  0.00     0.124 S 
ATOM     74  O   UNL     1      13.315   7.794  13.896  1.00  0.00    -0.237 OA
ATOM     75  O   UNL     1      12.489   6.005  15.389  1.00  0.00    -0.237 OA
ATOM     76  O   UNL     1      14.489   5.624  14.001  1.00  0.00    -0.744 OA
ENDBRANCH  72  73
ENDBRANCH  40  65
ENDBRANCH  14  15
ENDBRANCH   7   9
ENDBRANCH   6   7
ENDBRANCH   5   6
ENDBRANCH   4   5
ENDBRANCH   3   4
ENDBRANCH   2   3
ENDBRANCH   1   2
BRANCH   1  77
ATOM     77  O   UNL     1       2.013   2.216  -3.080  1.00  0.00    -0.377 OA
BRANCH  77  78
ATOM     78  C   UNL     1       3.419   2.105  -3.268  1.00  0.00     0.188 C 
BRANCH  78  79
ATOM     79  C   UNL     1       4.361   2.829  -2.282  1.00  0.00     0.188 C 
BRANCH  79  80
ATOM     80  O   UNL     1       3.955   4.035  -1.657  1.00  0.00    -0.376 OA
BRANCH  80  81
ATOM     81  C   UNL     1       3.184   4.980  -2.383  1.00  0.00     0.202 C 
BRANCH  81  82
ATOM     82  C   UNL     1       3.884   5.701  -3.539  1.00  0.00     0.261 C 
BRANCH  82  83
ATOM     83  O   UNL     1       4.175   4.823  -4.640  1.00  0.00    -0.458 OA
BRANCH  83  84
ATOM     84  C   UNL     1       5.488   4.541  -4.879  1.00  0.00     0.361 C 
ATOM     85  O   UNL     1       6.437   5.048  -4.292  1.00  0.00    -0.244 OA
BRANCH  84  86
ATOM     86  C   UNL     1       5.639   3.444  -5.823  1.00  0.00     0.194 A 
ATOM     87  N   UNL     1       4.936   3.332  -7.016  1.00  0.00    -0.209 NA
ATOM     88  C   UNL     1       6.368   2.284  -5.614  1.00  0.00     0.169 A 
ATOM     89  C   UNL     1       5.290   2.155  -7.475  1.00  0.00     0.309 A 
ATOM     90  O   UNL     1       6.141   1.454  -6.682  1.00  0.00    -0.443 OA
BRANCH  88  91
ATOM     91  C   UNL     1       7.161   1.716  -4.537  1.00  0.00     0.026 A 
ATOM     92  C   UNL     1       6.811   0.465  -4.004  1.00  0.00     0.051 A 
ATOM     93  C   UNL     1       8.245   2.403  -3.982  1.00  0.00     0.051 A 
ATOM     94  C   UNL     1       7.525  -0.067  -2.933  1.00  0.00     0.126 A 
ATOM     95  C   UNL     1       8.956   1.839  -2.922  1.00  0.00     0.126 A 
ATOM     96  F   UNL     1       7.153  -1.249  -2.423  1.00  0.00    -0.207 F 
ATOM     97  C   UNL     1       8.602   0.609  -2.385  1.00  0.00     0.078 A 
ATOM     98  F   UNL     1      10.006   2.497  -2.414  1.00  0.00    -0.207 F 
ENDBRANCH  88  91
ENDBRANCH  84  86
ENDBRANCH  83  84
ENDBRANCH  82  83
ENDBRANCH  81  82
ENDBRANCH  80  81
ENDBRANCH  79  80
ENDBRANCH  78  79
ENDBRANCH  77  78
ENDBRANCH   1  77
TORSDOF 24
