REMARK SMILES CC[C@@H](C(=O)OCCOCCOCCOCCOC(=O)c1ccc(-c2c3nc(c(-c4c(F)cc(S(=O)(=O)[O-])cc4F)c4ccc([nH]4)c(-c4c(F)cc(S(=O)(=O)[O-])cc4F)c4nc(c(-c5c(F)cc(S(=O)(=O)[O-])cc5F)c5ccc2[nH]5)C=C4)C=C3)cc1)N1CCN(Cc2cccc(C)c2)C(=O)C1=O
REMARK SMILES IDX 12 1 11 2 10 3 9 4 8 5 7 6 6 7 4 8 5 9 3 10 2 11 1 12 87 13
REMARK SMILES IDX 88 14 101 15 89 16 99 17 102 18 90 19 100 20 91 21 92 22
REMARK SMILES IDX 93 23 98 24 94 25 96 26 95 27 97 28 13 29 14 30 15 31 16 32
REMARK SMILES IDX 17 33 18 34 19 35 20 36 21 37 22 38 86 39 23 40 85 41 24 42
REMARK SMILES IDX 25 43 26 44 79 45 27 46 84 47 78 48 80 49 28 50 83 51 77 52
REMARK SMILES IDX 76 53 29 55 63 56 42 57 62 58 43 59 46 60 61 61 81 62 44 63
REMARK SMILES IDX 45 64 60 66 82 67 47 68 30 69 31 70 40 71 32 72 33 73 39 74
REMARK SMILES IDX 41 75 34 76 35 77 36 78 37 79 38 80 64 81 65 82 74 83 66 84
REMARK SMILES IDX 67 85 73 86 75 87 68 88 69 89 70 90 71 91 72 92 48 93 49 94
REMARK SMILES IDX 58 95 50 96 51 97 57 98 59 99 52 100 53 101 54 102 55 103
REMARK SMILES IDX 56 104
REMARK H PARENT 80 54 46 65
REMARK Flexibility Score: inf
ROOT
ATOM      1  O   UNL     1      -1.413  -1.428   0.376  1.00  0.00    -0.377 OA
ENDROOT
BRANCH   1   2
ATOM      2  C   UNL     1      -1.690  -1.973  -0.904  1.00  0.00     0.188 C 
BRANCH   2   3
ATOM      3  C   UNL     1      -1.516  -3.482  -1.143  1.00  0.00     0.188 C 
BRANCH   3   4
ATOM      4  O   UNL     1      -1.424  -4.267   0.041  1.00  0.00    -0.376 OA
BRANCH   4   5
ATOM      5  C   UNL     1      -0.147  -4.861   0.275  1.00  0.00     0.202 C 
BRANCH   5   6
ATOM      6  C   UNL     1       0.953  -3.872   0.668  1.00  0.00     0.261 C 
BRANCH   6   7
ATOM      7  O   UNL     1       1.046  -2.794  -0.278  1.00  0.00    -0.462 OA
BRANCH   7   8
ATOM      8  C   UNL     1       2.074  -2.798  -1.156  1.00  0.00     0.328 C 
ATOM      9  O   UNL     1       2.923  -3.678  -1.213  1.00  0.00    -0.250 OA
BRANCH   8  10
ATOM     10  C   UNL     1       2.014  -1.569  -2.107  1.00  0.00     0.195 C 
BRANCH  10  11
ATOM     11  C   UNL     1       1.697  -0.246  -1.347  1.00  0.00     0.034 C 
ATOM     12  C   UNL     1       2.241  -0.079   0.064  1.00  0.00     0.007 C 
ENDBRANCH  10  11
BRANCH  10  13
ATOM     13  N   UNL     1       1.159  -1.764  -3.335  1.00  0.00    -0.319 N 
ATOM     14  C   UNL     1       0.399  -0.664  -3.927  1.00  0.00     0.142 C 
ATOM     15  C   UNL     1       1.331  -2.902  -4.147  1.00  0.00     0.312 C 
ATOM     16  C   UNL     1       0.761  -0.491  -5.401  1.00  0.00     0.142 C 
ATOM     17  C   UNL     1       0.573  -2.925  -5.522  1.00  0.00     0.312 C 
ATOM     18  O   UNL     1       2.067  -3.838  -3.873  1.00  0.00    -0.263 OA
ATOM     19  N   UNL     1       0.405  -1.684  -6.147  1.00  0.00    -0.328 N 
ATOM     20  O   UNL     1       0.218  -3.989  -6.012  1.00  0.00    -0.263 OA
BRANCH  19  21
ATOM     21  C   UNL     1       0.178  -1.624  -7.591  1.00  0.00     0.155 C 
BRANCH  21  22
ATOM     22  C   UNL     1      -1.056  -0.859  -8.017  1.00  0.00    -0.028 A 
ATOM     23  C   UNL     1      -2.199  -1.540  -8.456  1.00  0.00     0.005 A 
ATOM     24  C   UNL     1      -1.078   0.545  -8.009  1.00  0.00     0.009 A 
ATOM     25  C   UNL     1      -3.334  -0.833  -8.862  1.00  0.00     0.001 A 
ATOM     26  C   UNL     1      -2.236   1.260  -8.340  1.00  0.00    -0.051 A 
ATOM     27  C   UNL     1      -3.358   0.559  -8.791  1.00  0.00     0.003 A 
ATOM     28  C   UNL     1      -2.274   2.754  -8.213  1.00  0.00     0.044 C 
ENDBRANCH  21  22
ENDBRANCH  19  21
ENDBRANCH  10  13
ENDBRANCH   8  10
ENDBRANCH   7   8
ENDBRANCH   6   7
ENDBRANCH   5   6
ENDBRANCH   4   5
ENDBRANCH   3   4
ENDBRANCH   2   3
ENDBRANCH   1   2
BRANCH   1  29
ATOM     29  C   UNL     1      -2.060  -1.980   1.519  1.00  0.00     0.188 C 
BRANCH  29  30
ATOM     30  C   UNL     1      -3.444  -2.648   1.385  1.00  0.00     0.188 C 
BRANCH  30  31
ATOM     31  O   UNL     1      -4.164  -2.308   0.208  1.00  0.00    -0.376 OA
BRANCH  31  32
ATOM     32  C   UNL     1      -5.167  -1.311   0.344  1.00  0.00     0.202 C 
BRANCH  32  33
ATOM     33  C   UNL     1      -4.652   0.100   0.661  1.00  0.00     0.261 C 
BRANCH  33  34
ATOM     34  O   UNL     1      -4.050   0.261   1.956  1.00  0.00    -0.460 OA
BRANCH  34  35
ATOM     35  C   UNL     1      -4.800  -0.058   3.033  1.00  0.00     0.338 C 
ATOM     36  O   UNL     1      -5.966  -0.411   3.045  1.00  0.00    -0.246 OA
BRANCH  35  37
ATOM     37  C   UNL     1      -3.913  -0.075   4.210  1.00  0.00     0.060 A 
ATOM     38  C   UNL     1      -3.772  -1.265   4.935  1.00  0.00     0.016 A 
ATOM     39  C   UNL     1      -3.246   1.086   4.605  1.00  0.00     0.016 A 
ATOM     40  C   UNL     1      -2.994  -1.283   6.092  1.00  0.00     0.010 A 
ATOM     41  C   UNL     1      -2.483   1.071   5.774  1.00  0.00     0.010 A 
ATOM     42  C   UNL     1      -2.388  -0.102   6.542  1.00  0.00    -0.014 A 
BRANCH  42  43
ATOM     43  C   UNL     1      -1.846  -0.038   7.920  1.00  0.00     0.031 A 
ATOM     44  C   UNL     1      -2.739   0.496   9.007  1.00  0.00     0.074 A 
ATOM     45  C   UNL     1      -0.602  -0.460   8.206  1.00  0.00     0.049 A 
ATOM     46  N   UNL     1      -2.486   0.677  10.276  1.00  0.00    -0.248 NA
ATOM     47  C   UNL     1      -4.103   0.880   8.604  1.00  0.00     0.031 C 
ATOM     48  C   UNL     1       0.342  -1.028   7.246  1.00  0.00     0.029 A 
ATOM     49  N   UNL     1       0.082  -0.467   9.396  1.00  0.00    -0.354 N 
ATOM     50  C   UNL     1      -3.655   1.194  10.823  1.00  0.00     0.074 A 
ATOM     51  C   UNL     1      -4.606   1.331   9.742  1.00  0.00     0.031 C 
ATOM     52  C   UNL     1       1.490  -1.319   7.884  1.00  0.00     0.029 A 
ATOM     53  C   UNL     1       1.369  -0.934   9.290  1.00  0.00     0.049 A 
ATOM     54  H   UNL     1      -0.314  -0.165  10.246  1.00  0.00     0.167 HD
ATOM     55  C   UNL     1      -3.916   1.516  12.111  1.00  0.00     0.037 A 
ATOM     56  C   UNL     1       2.341  -1.023  10.221  1.00  0.00     0.037 A 
ATOM     57  C   UNL     1      -2.964   1.387  13.181  1.00  0.00     0.049 A 
ATOM     58  C   UNL     1       2.050  -0.594  11.637  1.00  0.00     0.074 A 
ATOM     59  C   UNL     1      -3.132   1.679  14.523  1.00  0.00     0.029 A 
ATOM     60  N   UNL     1      -1.661   0.935  13.030  1.00  0.00    -0.354 N 
ATOM     61  N   UNL     1       0.933  -0.128  12.146  1.00  0.00    -0.248 NA
ATOM     62  C   UNL     1       3.149  -0.706  12.606  1.00  0.00     0.031 C 
ATOM     63  C   UNL     1      -1.917   1.448  15.176  1.00  0.00     0.029 A 
ATOM     64  C   UNL     1      -1.007   0.961  14.250  1.00  0.00     0.049 A 
ATOM     65  H   UNL     1      -1.261   0.639  12.181  1.00  0.00     0.167 HD
ATOM     66  C   UNL     1       1.188   0.079  13.499  1.00  0.00     0.074 A 
ATOM     67  C   UNL     1       2.561  -0.319  13.730  1.00  0.00     0.031 C 
ATOM     68  C   UNL     1       0.359   0.553  14.464  1.00  0.00     0.037 A 
BRANCH  55  69
ATOM     69  C   UNL     1      -5.280   2.065  12.423  1.00  0.00     0.058 A 
ATOM     70  C   UNL     1      -6.425   1.254  12.399  1.00  0.00     0.135 A 
ATOM     71  C   UNL     1      -5.442   3.418  12.761  1.00  0.00     0.135 A 
ATOM     72  F   UNL     1      -6.330  -0.042  12.060  1.00  0.00    -0.206 F 
ATOM     73  C   UNL     1      -7.687   1.770  12.675  1.00  0.00     0.059 A 
ATOM     74  C   UNL     1      -6.691   3.950  13.066  1.00  0.00     0.059 A 
ATOM     75  F   UNL     1      -4.380   4.239  12.792  1.00  0.00    -0.206 F 
ATOM     76  C   UNL     1      -7.810   3.120  13.005  1.00  0.00     0.060 A 
BRANCH  76  77
ATOM     77  S   UNL     1      -9.454   3.777  13.357  1.00  0.00     0.124 S 
ATOM     78  O   UNL     1     -10.042   3.818  12.021  1.00  0.00    -0.237 OA
ATOM     79  O   UNL     1     -10.005   2.773  14.261  1.00  0.00    -0.237 OA
ATOM     80  O   UNL     1      -9.179   5.077  13.961  1.00  0.00    -0.744 OA
ENDBRANCH  76  77
ENDBRANCH  55  69
BRANCH  56  81
ATOM     81  C   UNL     1       3.687  -1.534   9.845  1.00  0.00     0.058 A 
ATOM     82  C   UNL     1       4.149  -2.774  10.312  1.00  0.00     0.135 A 
ATOM     83  C   UNL     1       4.541  -0.788   9.018  1.00  0.00     0.135 A 
ATOM     84  F   UNL     1       3.375  -3.518  11.116  1.00  0.00    -0.206 F 
ATOM     85  C   UNL     1       5.414  -3.251   9.984  1.00  0.00     0.059 A 
ATOM     86  C   UNL     1       5.801  -1.255   8.656  1.00  0.00     0.059 A 
ATOM     87  F   UNL     1       4.145   0.401   8.539  1.00  0.00    -0.206 F 
ATOM     88  C   UNL     1       6.233  -2.484   9.153  1.00  0.00     0.060 A 
BRANCH  88  89
ATOM     89  S   UNL     1       7.854  -3.133   8.694  1.00  0.00     0.124 S 
ATOM     90  O   UNL     1       8.600  -2.966   9.936  1.00  0.00    -0.237 OA
ATOM     91  O   UNL     1       7.538  -4.508   8.318  1.00  0.00    -0.237 OA
ATOM     92  O   UNL     1       8.261  -2.268   7.591  1.00  0.00    -0.744 OA
ENDBRANCH  88  89
ENDBRANCH  56  81
BRANCH  68  93
ATOM     93  C   UNL     1       0.897   0.631  15.867  1.00  0.00     0.058 A 
ATOM     94  C   UNL     1       1.833   1.605  16.248  1.00  0.00     0.135 A 
ATOM     95  C   UNL     1       0.424  -0.245  16.858  1.00  0.00     0.135 A 
ATOM     96  F   UNL     1       2.320   2.465  15.339  1.00  0.00    -0.206 F 
ATOM     97  C   UNL     1       2.300   1.692  17.556  1.00  0.00     0.059 A 
ATOM     98  C   UNL     1       0.856  -0.159  18.177  1.00  0.00     0.059 A 
ATOM     99  F   UNL     1      -0.482  -1.187  16.551  1.00  0.00    -0.206 F 
ATOM    100  C   UNL     1       1.804   0.806  18.514  1.00  0.00     0.060 A 
BRANCH 100 101
ATOM    101  S   UNL     1       2.394   0.949  20.215  1.00  0.00     0.124 S 
ATOM    102  O   UNL     1       3.735   0.383  20.109  1.00  0.00    -0.237 OA
ATOM    103  O   UNL     1       2.329   2.388  20.449  1.00  0.00    -0.237 OA
ATOM    104  O   UNL     1       1.435   0.153  20.975  1.00  0.00    -0.744 OA
ENDBRANCH 100 101
ENDBRANCH  68  93
ENDBRANCH  42  43
ENDBRANCH  35  37
ENDBRANCH  34  35
ENDBRANCH  33  34
ENDBRANCH  32  33
ENDBRANCH  31  32
ENDBRANCH  30  31
ENDBRANCH  29  30
ENDBRANCH   1  29
TORSDOF 27
