REMARK SMILES CC(C)[C@H](CO)NS(=O)(=O)c1ccc(C(=O)OCCOCCOCCOCCOC(=O)c2ccc(-c3c4nc(c(-c5c(F)cc(S(=O)(=O)[O-])cc5F)c5ccc([nH]5)c(-c5c(F)cc(S(=O)(=O)[O-])cc5F)c5nc(c(-c6c(F)cc(S(=O)(=O)[O-])cc6F)c6ccc3[nH]6)C=C5)C=C4)cc2)cn1
REMARK SMILES IDX 22 1 21 2 20 3 19 4 18 5 17 6 15 7 16 8 14 9 11 10 12 11
REMARK SMILES IDX 99 12 13 13 98 14 8 15 9 16 10 17 7 18 4 20 2 21 1 22 3 23
REMARK SMILES IDX 5 24 6 25 23 27 24 28 25 29 26 30 27 31 28 32 29 33 30 34
REMARK SMILES IDX 31 35 32 36 33 37 97 38 34 39 96 40 35 41 36 42 37 43 90 44
REMARK SMILES IDX 38 45 95 46 89 47 91 48 39 49 94 50 88 51 87 52 40 54 74 55
REMARK SMILES IDX 53 56 73 57 54 58 57 59 72 60 92 61 55 62 56 63 71 65 93 66
REMARK SMILES IDX 58 67 41 68 42 69 51 70 43 71 44 72 50 73 52 74 45 75 46 76
REMARK SMILES IDX 47 77 48 78 49 79 75 80 76 81 85 82 77 83 78 84 84 85 86 86
REMARK SMILES IDX 79 87 80 88 81 89 82 90 83 91 59 92 60 93 69 94 61 95 62 96
REMARK SMILES IDX 68 97 70 98 63 99 64 100 65 101 66 102 67 103
REMARK H PARENT 7 19 6 26 91 53 57 64
REMARK Flexibility Score: inf
ROOT
ATOM      1  C   UNL     1      -6.088   5.130   2.838  1.00  0.00     0.188 C 
ENDROOT
BRANCH   1   2
ATOM      2  C   UNL     1      -4.966   6.173   2.699  1.00  0.00     0.188 C 
BRANCH   2   3
ATOM      3  O   UNL     1      -5.344   7.315   1.931  1.00  0.00    -0.376 OA
BRANCH   3   4
ATOM      4  C   UNL     1      -4.910   7.359   0.575  1.00  0.00     0.202 C 
BRANCH   4   5
ATOM      5  C   UNL     1      -5.526   6.336  -0.392  1.00  0.00     0.261 C 
BRANCH   5   6
ATOM      6  O   UNL     1      -5.244   4.962  -0.083  1.00  0.00    -0.460 OA
BRANCH   6   7
ATOM      7  C   UNL     1      -3.959   4.563  -0.063  1.00  0.00     0.339 C 
ATOM      8  O   UNL     1      -2.971   5.210  -0.361  1.00  0.00    -0.246 OA
BRANCH   7   9
ATOM      9  C   UNL     1      -3.912   3.250   0.603  1.00  0.00     0.078 A 
ATOM     10  C   UNL     1      -3.748   0.950   2.033  1.00  0.00     0.170 A 
ATOM     11  C   UNL     1      -4.852   1.118   1.210  1.00  0.00     0.043 A 
ATOM     12  N   UNL     1      -2.726   1.848   2.179  1.00  0.00    -0.243 NA
ATOM     13  C   UNL     1      -4.935   2.302   0.485  1.00  0.00     0.020 A 
ATOM     14  C   UNL     1      -2.846   2.986   1.456  1.00  0.00     0.128 A 
BRANCH  10  15
ATOM     15  S   UNL     1      -3.477  -0.634   2.827  1.00  0.00     0.258 S 
ATOM     16  O   UNL     1      -4.130  -1.642   2.019  1.00  0.00    -0.205 OA
ATOM     17  O   UNL     1      -3.779  -0.482   4.234  1.00  0.00    -0.205 OA
BRANCH  15  18
ATOM     18  N   UNL     1      -1.813  -0.884   2.715  1.00  0.00    -0.204 NA
ATOM     19  H   UNL     1      -1.378  -0.227   3.361  1.00  0.00     0.141 HD
BRANCH  18  20
ATOM     20  C   UNL     1      -1.095  -0.739   1.421  1.00  0.00     0.098 C 
BRANCH  20  21
ATOM     21  C   UNL     1      -1.376  -1.893   0.436  1.00  0.00     0.003 C 
ATOM     22  C   UNL     1      -0.424  -1.858  -0.766  1.00  0.00     0.009 C 
ATOM     23  C   UNL     1      -1.343  -3.283   1.072  1.00  0.00     0.009 C 
ENDBRANCH  20  21
BRANCH  20  24
ATOM     24  C   UNL     1       0.395  -0.524   1.772  1.00  0.00     0.176 C 
BRANCH  24  25
ATOM     25  O   UNL     1       0.519   0.526   2.743  1.00  0.00    -0.395 OA
ATOM     26  H   UNL     1       0.157   1.348   2.377  1.00  0.00     0.210 HD
ENDBRANCH  24  25
ENDBRANCH  20  24
ENDBRANCH  18  20
ENDBRANCH  15  18
ENDBRANCH  10  15
ENDBRANCH   7   9
ENDBRANCH   6   7
ENDBRANCH   5   6
ENDBRANCH   4   5
ENDBRANCH   3   4
ENDBRANCH   2   3
ENDBRANCH   1   2
BRANCH   1  27
ATOM     27  O   UNL     1      -7.191   5.412   1.993  1.00  0.00    -0.377 OA
BRANCH  27  28
ATOM     28  C   UNL     1      -8.222   6.236   2.536  1.00  0.00     0.188 C 
BRANCH  28  29
ATOM     29  C   UNL     1      -7.861   7.379   3.509  1.00  0.00     0.188 C 
BRANCH  29  30
ATOM     30  O   UNL     1      -7.148   6.935   4.667  1.00  0.00    -0.376 OA
BRANCH  30  31
ATOM     31  C   UNL     1      -7.881   6.918   5.888  1.00  0.00     0.202 C 
BRANCH  31  32
ATOM     32  C   UNL     1      -8.802   5.699   6.036  1.00  0.00     0.261 C 
BRANCH  32  33
ATOM     33  O   UNL     1      -9.892   5.651   5.102  1.00  0.00    -0.460 OA
BRANCH  33  34
ATOM     34  C   UNL     1     -10.757   6.689   5.115  1.00  0.00     0.338 C 
ATOM     35  O   UNL     1     -10.763   7.632   5.885  1.00  0.00    -0.246 OA
BRANCH  34  36
ATOM     36  C   UNL     1     -11.593   6.596   3.902  1.00  0.00     0.060 A 
ATOM     37  C   UNL     1     -11.673   7.706   3.053  1.00  0.00     0.016 A 
ATOM     38  C   UNL     1     -12.299   5.425   3.615  1.00  0.00     0.016 A 
ATOM     39  C   UNL     1     -12.503   7.663   1.933  1.00  0.00     0.010 A 
ATOM     40  C   UNL     1     -13.141   5.389   2.503  1.00  0.00     0.010 A 
ATOM     41  C   UNL     1     -13.274   6.521   1.680  1.00  0.00    -0.014 A 
BRANCH  41  42
ATOM     42  C   UNL     1     -14.368   6.573   0.683  1.00  0.00     0.031 A 
ATOM     43  C   UNL     1     -15.752   6.908   1.166  1.00  0.00     0.074 A 
ATOM     44  C   UNL     1     -14.141   6.323  -0.618  1.00  0.00     0.049 A 
ATOM     45  N   UNL     1     -16.872   6.971   0.497  1.00  0.00    -0.248 NA
ATOM     46  C   UNL     1     -15.888   7.209   2.602  1.00  0.00     0.031 C 
ATOM     47  C   UNL     1     -12.840   6.012  -1.206  1.00  0.00     0.029 A 
ATOM     48  N   UNL     1     -15.011   6.281  -1.677  1.00  0.00    -0.354 N 
ATOM     49  C   UNL     1     -17.846   7.319   1.425  1.00  0.00     0.074 A 
ATOM     50  C   UNL     1     -17.191   7.422   2.711  1.00  0.00     0.031 C 
ATOM     51  C   UNL     1     -13.001   5.798  -2.525  1.00  0.00     0.029 A 
ATOM     52  C   UNL     1     -14.416   5.933  -2.865  1.00  0.00     0.049 A 
ATOM     53  H   UNL     1     -15.972   6.482  -1.595  1.00  0.00     0.167 HD
ATOM     54  C   UNL     1     -19.166   7.542   1.225  1.00  0.00     0.037 A 
ATOM     55  C   UNL     1     -14.960   5.729  -4.082  1.00  0.00     0.037 A 
ATOM     56  C   UNL     1     -19.817   7.422  -0.051  1.00  0.00     0.049 A 
ATOM     57  C   UNL     1     -16.443   5.915  -4.271  1.00  0.00     0.074 A 
ATOM     58  C   UNL     1     -21.148   7.634  -0.363  1.00  0.00     0.029 A 
ATOM     59  N   UNL     1     -19.186   7.045  -1.227  1.00  0.00    -0.354 N 
ATOM     60  N   UNL     1     -17.349   6.273  -3.391  1.00  0.00    -0.248 NA
ATOM     61  C   UNL     1     -16.979   5.670  -5.617  1.00  0.00     0.031 C 
ATOM     62  C   UNL     1     -21.329   7.346  -1.720  1.00  0.00     0.029 A 
ATOM     63  C   UNL     1     -20.103   6.997  -2.263  1.00  0.00     0.049 A 
ATOM     64  H   UNL     1     -18.226   6.841  -1.313  1.00  0.00     0.167 HD
ATOM     65  C   UNL     1     -18.555   6.323  -4.083  1.00  0.00     0.074 A 
ATOM     66  C   UNL     1     -18.263   5.963  -5.455  1.00  0.00     0.031 C 
ATOM     67  C   UNL     1     -19.792   6.641  -3.625  1.00  0.00     0.037 A 
BRANCH  54  68
ATOM     68  C   UNL     1     -19.988   7.910   2.426  1.00  0.00     0.058 A 
ATOM     69  C   UNL     1     -19.882   9.173   3.031  1.00  0.00     0.135 A 
ATOM     70  C   UNL     1     -20.890   6.989   2.983  1.00  0.00     0.135 A 
ATOM     71  F   UNL     1     -19.018  10.082   2.550  1.00  0.00    -0.206 F 
ATOM     72  C   UNL     1     -20.616   9.499   4.166  1.00  0.00     0.059 A 
ATOM     73  C   UNL     1     -21.652   7.303   4.104  1.00  0.00     0.059 A 
ATOM     74  F   UNL     1     -21.025   5.767   2.446  1.00  0.00    -0.206 F 
ATOM     75  C   UNL     1     -21.495   8.554   4.699  1.00  0.00     0.060 A 
BRANCH  75  76
ATOM     76  S   UNL     1     -22.428   8.982   6.183  1.00  0.00     0.124 S 
ATOM     77  O   UNL     1     -21.398   8.879   7.212  1.00  0.00    -0.237 OA
ATOM     78  O   UNL     1     -22.891  10.334   5.884  1.00  0.00    -0.237 OA
ATOM     79  O   UNL     1     -23.471   7.963   6.234  1.00  0.00    -0.744 OA
ENDBRANCH  75  76
ENDBRANCH  54  68
BRANCH  55  80
ATOM     80  C   UNL     1     -14.094   5.324  -5.221  1.00  0.00     0.058 A 
ATOM     81  C   UNL     1     -13.813   6.214  -6.267  1.00  0.00     0.135 A 
ATOM     82  C   UNL     1     -13.525   4.042  -5.281  1.00  0.00     0.135 A 
ATOM     83  F   UNL     1     -14.345   7.445  -6.261  1.00  0.00    -0.206 F 
ATOM     84  C   UNL     1     -13.002   5.848  -7.337  1.00  0.00     0.059 A 
ATOM     85  C   UNL     1     -12.694   3.660  -6.329  1.00  0.00     0.059 A 
ATOM     86  F   UNL     1     -13.758   3.156  -4.300  1.00  0.00    -0.206 F 
ATOM     87  C   UNL     1     -12.443   4.568  -7.356  1.00  0.00     0.060 A 
BRANCH  87  88
ATOM     88  S   UNL     1     -11.337   4.125  -8.714  1.00  0.00     0.124 S 
ATOM     89  O   UNL     1     -12.280   3.925  -9.808  1.00  0.00    -0.237 OA
ATOM     90  O   UNL     1     -10.483   5.305  -8.812  1.00  0.00    -0.237 OA
ATOM     91  O   UNL     1     -10.672   2.921  -8.224  1.00  0.00    -0.744 OA
ENDBRANCH  87  88
ENDBRANCH  55  80
BRANCH  67  92
ATOM     92  C   UNL     1     -20.920   6.648  -4.619  1.00  0.00     0.058 A 
ATOM     93  C   UNL     1     -21.479   5.457  -5.108  1.00  0.00     0.135 A 
ATOM     94  C   UNL     1     -21.489   7.861  -5.038  1.00  0.00     0.135 A 
ATOM     95  F   UNL     1     -20.969   4.271  -4.741  1.00  0.00    -0.206 F 
ATOM     96  C   UNL     1     -22.553   5.470  -5.993  1.00  0.00     0.059 A 
ATOM     97  C   UNL     1     -22.578   7.897  -5.904  1.00  0.00     0.059 A 
ATOM     98  F   UNL     1     -20.999   9.028  -4.591  1.00  0.00    -0.206 F 
ATOM     99  C   UNL     1     -23.096   6.695  -6.384  1.00  0.00     0.060 A 
BRANCH  99 100
ATOM    100  S   UNL     1     -24.514   6.699  -7.503  1.00  0.00     0.124 S 
ATOM    101  O   UNL     1     -23.879   6.393  -8.781  1.00  0.00    -0.237 OA
ATOM    102  O   UNL     1     -25.357   5.646  -6.946  1.00  0.00    -0.237 OA
ATOM    103  O   UNL     1     -25.044   8.053  -7.373  1.00  0.00    -0.744 OA
ENDBRANCH  99 100
ENDBRANCH  67  92
ENDBRANCH  41  42
ENDBRANCH  34  36
ENDBRANCH  33  34
ENDBRANCH  32  33
ENDBRANCH  31  32
ENDBRANCH  30  31
ENDBRANCH  29  30
ENDBRANCH  28  29
ENDBRANCH  27  28
ENDBRANCH   1  27
TORSDOF 29
