REMARK SMILES C[C@@H](NC(=O)C[C@H]1CCCCO1)C(=O)OCCOCCOCCOCCOC(=O)c1ccc(-c2c3nc(c(-c4c(F)cc(S(=O)(=O)[O-])cc4F)c4ccc([nH]4)c(-c4c(F)cc(S(=O)(=O)[O-])cc4F)c4nc(c(-c5c(F)cc(S(=O)(=O)[O-])cc5F)c5ccc2[nH]5)C=C4)C=C3)cc1
REMARK SMILES IDX 21 1 20 2 19 3 18 4 17 5 16 6 15 7 13 8 14 9 2 10 1 11 3 12
REMARK SMILES IDX 4 13 5 15 6 16 7 17 8 18 12 19 9 20 11 21 10 22 22 23 23 24
REMARK SMILES IDX 24 25 25 26 26 27 27 28 28 29 29 30 30 31 31 32 95 33 32 34
REMARK SMILES IDX 94 35 33 36 34 37 35 38 88 39 36 40 93 41 87 42 89 43 37 44
REMARK SMILES IDX 92 45 86 46 85 47 38 49 72 50 51 51 71 52 52 53 55 54 70 55
REMARK SMILES IDX 90 56 53 57 54 58 69 60 91 61 56 62 39 63 40 64 49 65 41 66
REMARK SMILES IDX 42 67 48 68 50 69 43 70 44 71 45 72 46 73 47 74 73 75 74 76
REMARK SMILES IDX 83 77 75 78 76 79 82 80 84 81 77 82 78 83 79 84 80 85 81 86
REMARK SMILES IDX 57 87 58 88 67 89 59 90 60 91 66 92 68 93 61 94 62 95 63 96
REMARK SMILES IDX 64 97 65 98
REMARK H PARENT 3 14 89 48 55 59
REMARK Flexibility Score: inf
ROOT
ATOM      1  O   UNL     1       1.139   1.506   0.673  1.00  0.00    -0.377 OA
ENDROOT
BRANCH   1   2
ATOM      2  C   UNL     1       2.376   1.605  -0.019  1.00  0.00     0.188 C 
BRANCH   2   3
ATOM      3  C   UNL     1       2.563   2.715  -1.056  1.00  0.00     0.188 C 
BRANCH   3   4
ATOM      4  O   UNL     1       1.763   3.837  -0.775  1.00  0.00    -0.376 OA
BRANCH   4   5
ATOM      5  C   UNL     1       0.676   4.118  -1.631  1.00  0.00     0.202 C 
BRANCH   5   6
ATOM      6  C   UNL     1      -0.239   3.015  -2.187  1.00  0.00     0.261 C 
BRANCH   6   7
ATOM      7  O   UNL     1       0.063   1.645  -1.875  1.00  0.00    -0.462 OA
BRANCH   7   8
ATOM      8  C   UNL     1       0.374   0.843  -2.924  1.00  0.00     0.328 C 
ATOM      9  O   UNL     1       0.701   1.274  -4.026  1.00  0.00    -0.250 OA
BRANCH   8  10
ATOM     10  C   UNL     1       0.143  -0.660  -2.668  1.00  0.00     0.189 C 
ATOM     11  C   UNL     1       0.269  -1.276  -1.281  1.00  0.00     0.043 C 
BRANCH  10  12
ATOM     12  N   UNL     1      -0.999  -1.192  -3.412  1.00  0.00    -0.343 N 
ATOM     13  C   UNL     1      -2.328  -0.909  -3.374  1.00  0.00     0.223 C 
ATOM     14  H   UNL     1      -0.759  -1.889  -4.065  1.00  0.00     0.164 HD
ATOM     15  O   UNL     1      -3.067  -1.686  -3.987  1.00  0.00    -0.275 OA
BRANCH  13  16
ATOM     16  C   UNL     1      -2.887   0.370  -2.783  1.00  0.00     0.132 C 
BRANCH  16  17
ATOM     17  C   UNL     1      -2.818   0.579  -1.272  1.00  0.00     0.127 C 
ATOM     18  C   UNL     1      -4.070   1.250  -0.701  1.00  0.00     0.033 C 
ATOM     19  O   UNL     1      -2.581  -0.624  -0.550  1.00  0.00    -0.378 OA
ATOM     20  C   UNL     1      -3.847   1.568   0.778  1.00  0.00     0.005 C 
ATOM     21  C   UNL     1      -2.206  -0.343   0.803  1.00  0.00     0.160 C 
ATOM     22  C   UNL     1      -3.334   0.352   1.546  1.00  0.00     0.029 C 
ENDBRANCH  16  17
ENDBRANCH  13  16
ENDBRANCH  10  12
ENDBRANCH   8  10
ENDBRANCH   7   8
ENDBRANCH   6   7
ENDBRANCH   5   6
ENDBRANCH   4   5
ENDBRANCH   3   4
ENDBRANCH   2   3
ENDBRANCH   1   2
BRANCH   1  23
ATOM     23  C   UNL     1       0.657   2.572   1.489  1.00  0.00     0.188 C 
BRANCH  23  24
ATOM     24  C   UNL     1       1.614   3.609   2.102  1.00  0.00     0.188 C 
BRANCH  24  25
ATOM     25  O   UNL     1       2.879   3.182   2.592  1.00  0.00    -0.376 OA
BRANCH  25  26
ATOM     26  C   UNL     1       2.962   1.931   3.259  1.00  0.00     0.202 C 
BRANCH  26  27
ATOM     27  C   UNL     1       2.475   1.889   4.699  1.00  0.00     0.261 C 
BRANCH  27  28
ATOM     28  O   UNL     1       1.057   2.075   4.792  1.00  0.00    -0.460 OA
BRANCH  28  29
ATOM     29  C   UNL     1       0.679   3.306   5.209  1.00  0.00     0.338 C 
ATOM     30  O   UNL     1       1.395   4.250   5.484  1.00  0.00    -0.246 OA
BRANCH  29  31
ATOM     31  C   UNL     1      -0.789   3.395   5.170  1.00  0.00     0.060 A 
ATOM     32  C   UNL     1      -1.373   4.500   4.539  1.00  0.00     0.016 A 
ATOM     33  C   UNL     1      -1.569   2.460   5.852  1.00  0.00     0.016 A 
ATOM     34  C   UNL     1      -2.743   4.715   4.651  1.00  0.00     0.010 A 
ATOM     35  C   UNL     1      -2.939   2.679   5.969  1.00  0.00     0.010 A 
ATOM     36  C   UNL     1      -3.519   3.834   5.414  1.00  0.00    -0.014 A 
BRANCH  36  37
ATOM     37  C   UNL     1      -4.896   4.204   5.803  1.00  0.00     0.031 A 
ATOM     38  C   UNL     1      -5.128   4.734   7.189  1.00  0.00     0.074 A 
ATOM     39  C   UNL     1      -5.918   4.042   4.948  1.00  0.00     0.049 A 
ATOM     40  N   UNL     1      -6.252   4.995   7.799  1.00  0.00    -0.248 NA
ATOM     41  C   UNL     1      -3.926   4.995   8.000  1.00  0.00     0.031 C 
ATOM     42  C   UNL     1      -5.791   3.576   3.571  1.00  0.00     0.029 A 
ATOM     43  N   UNL     1      -7.265   4.220   5.123  1.00  0.00    -0.354 N 
ATOM     44  C   UNL     1      -5.898   5.429   9.070  1.00  0.00     0.074 A 
ATOM     45  C   UNL     1      -4.455   5.373   9.153  1.00  0.00     0.031 C 
ATOM     46  C   UNL     1      -7.017   3.464   3.033  1.00  0.00     0.029 A 
ATOM     47  C   UNL     1      -8.012   3.815   4.044  1.00  0.00     0.049 A 
ATOM     48  H   UNL     1      -7.659   4.601   5.941  1.00  0.00     0.167 HD
ATOM     49  C   UNL     1      -6.709   5.837  10.074  1.00  0.00     0.037 A 
ATOM     50  C   UNL     1      -9.348   3.701   3.906  1.00  0.00     0.037 A 
ATOM     51  C   UNL     1      -8.143   5.883   9.969  1.00  0.00     0.049 A 
ATOM     52  C   UNL     1     -10.235   4.103   5.055  1.00  0.00     0.074 A 
ATOM     53  C   UNL     1      -9.062   6.311  10.910  1.00  0.00     0.029 A 
ATOM     54  N   UNL     1      -8.869   5.470   8.859  1.00  0.00    -0.354 N 
ATOM     55  N   UNL     1      -9.893   4.545   6.243  1.00  0.00    -0.248 NA
ATOM     56  C   UNL     1     -11.685   3.997   4.848  1.00  0.00     0.031 C 
ATOM     57  C   UNL     1     -10.344   6.097  10.394  1.00  0.00     0.029 A 
ATOM     58  C   UNL     1     -10.225   5.601   9.104  1.00  0.00     0.049 A 
ATOM     59  H   UNL     1      -8.476   5.133   8.021  1.00  0.00     0.167 HD
ATOM     60  C   UNL     1     -11.085   4.798   6.914  1.00  0.00     0.074 A 
ATOM     61  C   UNL     1     -12.156   4.465   5.997  1.00  0.00     0.031 C 
ATOM     62  C   UNL     1     -11.276   5.270   8.172  1.00  0.00     0.037 A 
BRANCH  49  63
ATOM     63  C   UNL     1      -6.065   6.221  11.379  1.00  0.00     0.058 A 
ATOM     64  C   UNL     1      -5.273   7.373  11.511  1.00  0.00     0.135 A 
ATOM     65  C   UNL     1      -6.256   5.426  12.521  1.00  0.00     0.135 A 
ATOM     66  F   UNL     1      -5.042   8.161  10.448  1.00  0.00    -0.206 F 
ATOM     67  C   UNL     1      -4.664   7.704  12.718  1.00  0.00     0.059 A 
ATOM     68  C   UNL     1      -5.684   5.755  13.746  1.00  0.00     0.059 A 
ATOM     69  F   UNL     1      -7.000   4.311  12.453  1.00  0.00    -0.206 F 
ATOM     70  C   UNL     1      -4.875   6.886  13.830  1.00  0.00     0.060 A 
BRANCH  70  71
ATOM     71  S   UNL     1      -4.070   7.323  15.386  1.00  0.00     0.124 S 
ATOM     72  O   UNL     1      -2.675   7.013  15.088  1.00  0.00    -0.237 OA
ATOM     73  O   UNL     1      -4.391   8.741  15.514  1.00  0.00    -0.237 OA
ATOM     74  O   UNL     1      -4.712   6.447  16.360  1.00  0.00    -0.744 OA
ENDBRANCH  70  71
ENDBRANCH  49  63
BRANCH  50  75
ATOM     75  C   UNL     1      -9.913   3.166   2.640  1.00  0.00     0.058 A 
ATOM     76  C   UNL     1     -10.624   3.990   1.757  1.00  0.00     0.135 A 
ATOM     77  C   UNL     1      -9.723   1.824   2.273  1.00  0.00     0.135 A 
ATOM     78  F   UNL     1     -10.838   5.278   2.066  1.00  0.00    -0.206 F 
ATOM     79  C   UNL     1     -11.132   3.503   0.557  1.00  0.00     0.059 A 
ATOM     80  C   UNL     1     -10.197   1.320   1.066  1.00  0.00     0.059 A 
ATOM     81  F   UNL     1      -9.037   0.997   3.078  1.00  0.00    -0.206 F 
ATOM     82  C   UNL     1     -10.906   2.168   0.217  1.00  0.00     0.060 A 
BRANCH  82  83
ATOM     83  S   UNL     1     -11.514   1.569  -1.375  1.00  0.00     0.124 S 
ATOM     84  O   UNL     1     -12.955   1.558  -1.154  1.00  0.00    -0.237 OA
ATOM     85  O   UNL     1     -11.015   2.590  -2.291  1.00  0.00    -0.237 OA
ATOM     86  O   UNL     1     -10.884   0.259  -1.503  1.00  0.00    -0.744 OA
ENDBRANCH  82  83
ENDBRANCH  50  75
BRANCH  62  87
ATOM     87  C   UNL     1     -12.693   5.497   8.626  1.00  0.00     0.058 A 
ATOM     88  C   UNL     1     -13.552   4.433   8.937  1.00  0.00     0.135 A 
ATOM     89  C   UNL     1     -13.165   6.804   8.835  1.00  0.00     0.135 A 
ATOM     90  F   UNL     1     -13.154   3.165   8.748  1.00  0.00    -0.206 F 
ATOM     91  C   UNL     1     -14.834   4.655   9.430  1.00  0.00     0.059 A 
ATOM     92  C   UNL     1     -14.431   7.049   9.356  1.00  0.00     0.059 A 
ATOM     93  F   UNL     1     -12.380   7.858   8.562  1.00  0.00    -0.206 F 
ATOM     94  C   UNL     1     -15.261   5.968   9.645  1.00  0.00     0.060 A 
BRANCH  94  95
ATOM     95  S   UNL     1     -16.903   6.239  10.344  1.00  0.00     0.124 S 
ATOM     96  O   UNL     1     -17.764   5.875   9.223  1.00  0.00    -0.237 OA
ATOM     97  O   UNL     1     -16.914   5.320  11.477  1.00  0.00    -0.237 OA
ATOM     98  O   UNL     1     -16.894   7.657  10.693  1.00  0.00    -0.744 OA
ENDBRANCH  94  95
ENDBRANCH  62  87
ENDBRANCH  36  37
ENDBRANCH  29  31
ENDBRANCH  28  29
ENDBRANCH  27  28
ENDBRANCH  26  27
ENDBRANCH  25  26
ENDBRANCH  24  25
ENDBRANCH  23  24
ENDBRANCH   1  23
TORSDOF 26
