REMARK SMILES C[C@H](C(=O)Nc1ccc(C(F)(F)F)cc1)n1nc(C(=O)OCCOCCOCCOCCOC(=O)c2ccc(-c3c4nc(c(-c5c(F)cc(S(=O)(=O)[O-])cc5F)c5ccc([nH]5)c(-c5c(F)cc(S(=O)(=O)[O-])cc5F)c5nc(c(-c6c(F)cc(S(=O)(=O)[O-])cc6F)c6ccc3[nH]6)C=C5)C=C4)cc2)c2ccccc2c1=O
REMARK SMILES IDX 26 1 25 2 24 3 23 4 22 5 21 6 19 7 20 8 18 9 16 10 17 11
REMARK SMILES IDX 108 12 107 13 109 14 102 15 106 16 103 17 105 18 104 19 2 20
REMARK SMILES IDX 1 21 3 22 4 23 5 24 6 26 7 27 15 28 8 29 14 30 9 31 10 32
REMARK SMILES IDX 11 33 12 34 13 35 27 36 28 37 29 38 30 39 31 40 32 41 33 42
REMARK SMILES IDX 34 43 35 44 36 45 37 46 101 47 38 48 100 49 39 50 40 51
REMARK SMILES IDX 41 52 94 53 42 54 99 55 93 56 95 57 43 58 98 59 92 60 91 61
REMARK SMILES IDX 44 63 78 64 57 65 77 66 58 67 61 68 76 69 96 70 59 71 60 72
REMARK SMILES IDX 75 74 97 75 62 76 45 77 46 78 55 79 47 80 48 81 54 82 56 83
REMARK SMILES IDX 49 84 50 85 51 86 52 87 53 88 79 89 80 90 89 91 81 92 82 93
REMARK SMILES IDX 88 94 90 95 83 96 84 97 85 98 86 99 87 100 63 101 64 102
REMARK SMILES IDX 73 103 65 104 66 105 72 106 74 107 67 108 68 109 69 110
REMARK SMILES IDX 70 111 71 112
REMARK H PARENT 5 25 95 62 61 73
REMARK Flexibility Score: inf
ROOT
ATOM      1  C   UNL     1      -4.476   0.013  -3.720  1.00  0.00     0.188 C 
ENDROOT
BRANCH   1   2
ATOM      2  C   UNL     1      -5.896   0.234  -3.157  1.00  0.00     0.188 C 
BRANCH   2   3
ATOM      3  O   UNL     1      -6.499   1.524  -3.132  1.00  0.00    -0.376 OA
BRANCH   3   4
ATOM      4  C   UNL     1      -5.758   2.674  -2.734  1.00  0.00     0.202 C 
BRANCH   4   5
ATOM      5  C   UNL     1      -5.059   2.659  -1.376  1.00  0.00     0.261 C 
BRANCH   5   6
ATOM      6  O   UNL     1      -4.054   1.642  -1.276  1.00  0.00    -0.458 OA
BRANCH   6   7
ATOM      7  C   UNL     1      -4.298   0.659  -0.397  1.00  0.00     0.359 C 
ATOM      8  O   UNL     1      -5.263   0.550   0.341  1.00  0.00    -0.244 OA
BRANCH   7   9
ATOM      9  C   UNL     1      -3.181  -0.381  -0.382  1.00  0.00     0.176 A 
ATOM     10  N   UNL     1      -0.914  -0.767  -0.175  1.00  0.00    -0.216 N 
ATOM     11  N   UNL     1      -1.967   0.031  -0.576  1.00  0.00    -0.161 NA
ATOM     12  C   UNL     1      -1.091  -1.967   0.517  1.00  0.00     0.275 A 
ATOM     13  C   UNL     1      -2.475  -2.479   0.595  1.00  0.00     0.051 A 
ATOM     14  O   UNL     1      -0.191  -2.635   1.013  1.00  0.00    -0.267 OA
ATOM     15  C   UNL     1      -3.500  -1.756   0.007  1.00  0.00     0.022 A 
ATOM     16  C   UNL     1      -2.758  -3.716   1.185  1.00  0.00     0.014 A 
ATOM     17  C   UNL     1      -4.766  -2.326  -0.161  1.00  0.00     0.011 A 
ATOM     18  C   UNL     1      -4.041  -4.260   1.085  1.00  0.00     0.001 A 
ATOM     19  C   UNL     1      -5.031  -3.587   0.370  1.00  0.00     0.001 A 
BRANCH  10  20
ATOM     20  C   UNL     1       0.431  -0.232  -0.472  1.00  0.00     0.197 C 
ATOM     21  C   UNL     1       1.169  -1.134  -1.478  1.00  0.00     0.044 C 
BRANCH  20  22
ATOM     22  C   UNL     1       1.311   0.081   0.769  1.00  0.00     0.249 C 
ATOM     23  O   UNL     1       2.123  -0.742   1.212  1.00  0.00    -0.272 OA
ATOM     24  N   UNL     1       1.315   1.323   1.362  1.00  0.00    -0.324 N 
ATOM     25  H   UNL     1       2.066   1.467   1.983  1.00  0.00     0.170 HD
BRANCH  24  26
ATOM     26  C   UNL     1       0.452   2.422   1.249  1.00  0.00     0.041 A 
ATOM     27  C   UNL     1       0.973   3.708   1.397  1.00  0.00     0.027 A 
ATOM     28  C   UNL     1      -0.918   2.288   1.082  1.00  0.00     0.027 A 
ATOM     29  C   UNL     1       0.152   4.835   1.229  1.00  0.00     0.015 A 
ATOM     30  C   UNL     1      -1.742   3.398   0.894  1.00  0.00     0.015 A 
ATOM     31  C   UNL     1      -1.210   4.689   0.931  1.00  0.00     0.056 A 
BRANCH  31  32
ATOM     32  C   UNL     1      -2.107   5.881   0.712  1.00  0.00     0.416 C 
ATOM     33  F   UNL     1      -2.680   6.316   1.870  1.00  0.00    -0.166 F 
ATOM     34  F   UNL     1      -1.473   6.955   0.173  1.00  0.00    -0.166 F 
ATOM     35  F   UNL     1      -3.151   5.607  -0.127  1.00  0.00    -0.166 F 
ENDBRANCH  31  32
ENDBRANCH  24  26
ENDBRANCH  20  22
ENDBRANCH  10  20
ENDBRANCH   7   9
ENDBRANCH   6   7
ENDBRANCH   5   6
ENDBRANCH   4   5
ENDBRANCH   3   4
ENDBRANCH   2   3
ENDBRANCH   1   2
BRANCH   1  36
ATOM     36  O   UNL     1      -3.795   1.204  -4.056  1.00  0.00    -0.377 OA
BRANCH  36  37
ATOM     37  C   UNL     1      -3.808   1.542  -5.440  1.00  0.00     0.188 C 
BRANCH  37  38
ATOM     38  C   UNL     1      -5.181   1.498  -6.136  1.00  0.00     0.188 C 
BRANCH  38  39
ATOM     39  O   UNL     1      -5.724   0.176  -6.199  1.00  0.00    -0.376 OA
BRANCH  39  40
ATOM     40  C   UNL     1      -5.618  -0.486  -7.457  1.00  0.00     0.202 C 
BRANCH  40  41
ATOM     41  C   UNL     1      -4.225  -1.062  -7.754  1.00  0.00     0.261 C 
BRANCH  41  42
ATOM     42  O   UNL     1      -3.180  -0.091  -7.935  1.00  0.00    -0.460 OA
BRANCH  42  43
ATOM     43  C   UNL     1      -3.368   0.859  -8.877  1.00  0.00     0.338 C 
ATOM     44  O   UNL     1      -4.283   0.930  -9.673  1.00  0.00    -0.246 OA
BRANCH  43  45
ATOM     45  C   UNL     1      -2.380   1.932  -8.643  1.00  0.00     0.060 A 
ATOM     46  C   UNL     1      -2.845   3.246  -8.494  1.00  0.00     0.016 A 
ATOM     47  C   UNL     1      -1.013   1.651  -8.596  1.00  0.00     0.016 A 
ATOM     48  C   UNL     1      -1.936   4.293  -8.357  1.00  0.00     0.010 A 
ATOM     49  C   UNL     1      -0.102   2.703  -8.489  1.00  0.00     0.010 A 
ATOM     50  C   UNL     1      -0.561   4.030  -8.418  1.00  0.00    -0.014 A 
BRANCH  50  51
ATOM     51  C   UNL     1       0.378   5.141  -8.694  1.00  0.00     0.031 A 
ATOM     52  C   UNL     1       0.666   5.462 -10.137  1.00  0.00     0.074 A 
ATOM     53  C   UNL     1       0.955   5.845  -7.706  1.00  0.00     0.049 A 
ATOM     54  N   UNL     1       1.488   6.340 -10.645  1.00  0.00    -0.248 NA
ATOM     55  C   UNL     1      -0.077   4.681 -11.144  1.00  0.00     0.031 C 
ATOM     56  C   UNL     1       0.724   5.649  -6.276  1.00  0.00     0.029 A 
ATOM     57  N   UNL     1       1.871   6.866  -7.763  1.00  0.00    -0.354 N 
ATOM     58  C   UNL     1       1.364   6.217 -12.024  1.00  0.00     0.074 A 
ATOM     59  C   UNL     1       0.405   5.167 -12.277  1.00  0.00     0.031 C 
ATOM     60  C   UNL     1       1.497   6.509  -5.588  1.00  0.00     0.029 A 
ATOM     61  C   UNL     1       2.294   7.297  -6.528  1.00  0.00     0.049 A 
ATOM     62  H   UNL     1       2.194   7.253  -8.608  1.00  0.00     0.167 HD
ATOM     63  C   UNL     1       1.993   6.918 -12.995  1.00  0.00     0.037 A 
ATOM     64  C   UNL     1       3.235   8.206  -6.203  1.00  0.00     0.037 A 
ATOM     65  C   UNL     1       2.955   7.954 -12.740  1.00  0.00     0.049 A 
ATOM     66  C   UNL     1       3.967   8.934  -7.304  1.00  0.00     0.074 A 
ATOM     67  C   UNL     1       3.651   8.726 -13.652  1.00  0.00     0.029 A 
ATOM     68  N   UNL     1       3.362   8.355 -11.477  1.00  0.00    -0.354 N 
ATOM     69  N   UNL     1       3.825   8.823  -8.604  1.00  0.00    -0.248 NA
ATOM     70  C   UNL     1       4.987   9.911  -6.894  1.00  0.00     0.031 C 
ATOM     71  C   UNL     1       4.507   9.572 -12.940  1.00  0.00     0.029 A 
ATOM     72  C   UNL     1       4.312   9.355 -11.584  1.00  0.00     0.049 A 
ATOM     73  H   UNL     1       3.025   7.984 -10.629  1.00  0.00     0.167 HD
ATOM     74  C   UNL     1       4.713   9.736  -9.164  1.00  0.00     0.074 A 
ATOM     75  C   UNL     1       5.386  10.394  -8.063  1.00  0.00     0.031 C 
ATOM     76  C   UNL     1       4.950  10.010 -10.471  1.00  0.00     0.037 A 
BRANCH  63  77
ATOM     77  C   UNL     1       1.673   6.568 -14.419  1.00  0.00     0.058 A 
ATOM     78  C   UNL     1       0.457   6.940 -15.011  1.00  0.00     0.135 A 
ATOM     79  C   UNL     1       2.604   5.873 -15.206  1.00  0.00     0.135 A 
ATOM     80  F   UNL     1      -0.478   7.581 -14.292  1.00  0.00    -0.206 F 
ATOM     81  C   UNL     1       0.168   6.621 -16.334  1.00  0.00     0.059 A 
ATOM     82  C   UNL     1       2.345   5.563 -16.537  1.00  0.00     0.059 A 
ATOM     83  F   UNL     1       3.777   5.485 -14.681  1.00  0.00    -0.206 F 
ATOM     84  C   UNL     1       1.119   5.933 -17.089  1.00  0.00     0.060 A 
BRANCH  84  85
ATOM     85  S   UNL     1       0.737   5.540 -18.809  1.00  0.00     0.124 S 
ATOM     86  O   UNL     1      -0.218   4.447 -18.651  1.00  0.00    -0.237 OA
ATOM     87  O   UNL     1       0.184   6.797 -19.302  1.00  0.00    -0.237 OA
ATOM     88  O   UNL     1       2.032   5.165 -19.367  1.00  0.00    -0.744 OA
ENDBRANCH  84  85
ENDBRANCH  63  77
BRANCH  64  89
ATOM     89  C   UNL     1       3.560   8.471  -4.776  1.00  0.00     0.058 A 
ATOM     90  C   UNL     1       3.231   9.691  -4.168  1.00  0.00     0.135 A 
ATOM     91  C   UNL     1       4.231   7.514  -3.998  1.00  0.00     0.135 A 
ATOM     92  F   UNL     1       2.601  10.643  -4.875  1.00  0.00    -0.206 F 
ATOM     93  C   UNL     1       3.569   9.963  -2.846  1.00  0.00     0.059 A 
ATOM     94  C   UNL     1       4.560   7.753  -2.668  1.00  0.00     0.059 A 
ATOM     95  F   UNL     1       4.562   6.327  -4.529  1.00  0.00    -0.206 F 
ATOM     96  C   UNL     1       4.236   8.986  -2.103  1.00  0.00     0.060 A 
BRANCH  96  97
ATOM     97  S   UNL     1       4.639   9.325  -0.375  1.00  0.00     0.124 S 
ATOM     98  O   UNL     1       5.803  10.192  -0.510  1.00  0.00    -0.237 OA
ATOM     99  O   UNL     1       3.419   9.963   0.109  1.00  0.00    -0.237 OA
ATOM    100  O   UNL     1       4.897   7.996   0.172  1.00  0.00    -0.744 OA
ENDBRANCH  96  97
ENDBRANCH  64  89
BRANCH  76 101
ATOM    101  C   UNL     1       5.939  11.096 -10.789  1.00  0.00     0.058 A 
ATOM    102  C   UNL     1       7.321  10.891 -10.674  1.00  0.00     0.135 A 
ATOM    103  C   UNL     1       5.495  12.329 -11.293  1.00  0.00     0.135 A 
ATOM    104  F   UNL     1       7.795   9.730 -10.194  1.00  0.00    -0.206 F 
ATOM    105  C   UNL     1       8.232  11.878 -11.034  1.00  0.00     0.059 A 
ATOM    106  C   UNL     1       6.388  13.322 -11.682  1.00  0.00     0.059 A 
ATOM    107  F   UNL     1       4.181  12.568 -11.435  1.00  0.00    -0.206 F 
ATOM    108  C   UNL     1       7.755  13.090 -11.540  1.00  0.00     0.060 A 
BRANCH 108 109
ATOM    109  S   UNL     1       8.947  14.346 -12.052  1.00  0.00     0.124 S 
ATOM    110  O   UNL     1       9.376  14.884 -10.766  1.00  0.00    -0.237 OA
ATOM    111  O   UNL     1       9.942  13.560 -12.775  1.00  0.00    -0.237 OA
ATOM    112  O   UNL     1       8.152  15.250 -12.878  1.00  0.00    -0.744 OA
ENDBRANCH 108 109
ENDBRANCH  76 101
ENDBRANCH  50  51
ENDBRANCH  43  45
ENDBRANCH  42  43
ENDBRANCH  41  42
ENDBRANCH  40  41
ENDBRANCH  39  40
ENDBRANCH  38  39
ENDBRANCH  37  38
ENDBRANCH  36  37
ENDBRANCH   1  36
TORSDOF 27
