REMARK SMILES NS(=O)(=O)c1ccc(-c2coc(=O)n2-c2ccc(C(=O)OCCOCCOCCOCCOC(=O)c3ccc(-c4c5nc(c(-c6c(F)cc(S(=O)(=O)[O-])cc6F)c6ccc([nH]6)c(-c6c(F)cc(S(=O)(=O)[O-])cc6F)c6nc(c(-c7c(F)cc(S(=O)(=O)[O-])cc7F)c7ccc4[nH]7)C=C6)C=C5)cc3)cc2)cc1
REMARK SMILES IDX 26 1 25 2 24 3 23 4 22 5 21 6 19 7 20 8 18 9 15 10 16 11
REMARK SMILES IDX 103 12 17 13 102 14 14 15 9 16 10 17 11 18 12 19 13 20 8 21
REMARK SMILES IDX 5 22 6 23 105 24 7 25 104 26 2 27 3 28 4 29 1 30 27 33 28 34
REMARK SMILES IDX 29 35 30 36 31 37 32 38 33 39 34 40 35 41 36 42 37 43 101 44
REMARK SMILES IDX 38 45 100 46 39 47 40 48 41 49 94 50 42 51 99 52 93 53 95 54
REMARK SMILES IDX 43 55 98 56 92 57 91 58 44 60 78 61 57 62 77 63 58 64 61 65
REMARK SMILES IDX 76 66 96 67 59 68 60 69 75 71 97 72 62 73 45 74 46 75 55 76
REMARK SMILES IDX 47 77 48 78 54 79 56 80 49 81 50 82 51 83 52 84 53 85 79 86
REMARK SMILES IDX 80 87 89 88 81 89 82 90 88 91 90 92 83 93 84 94 85 95 86 96
REMARK SMILES IDX 87 97 63 98 64 99 73 100 65 101 66 102 72 103 74 104 67 105
REMARK SMILES IDX 68 106 69 107 70 108 71 109
REMARK H PARENT 1 31 1 32 95 59 61 70
REMARK Flexibility Score: inf
ROOT
ATOM      1  C   UNL     1       7.360  -6.414   1.980  1.00  0.00     0.188 C 
ENDROOT
BRANCH   1   2
ATOM      2  C   UNL     1       6.470  -7.249   1.030  1.00  0.00     0.188 C 
BRANCH   2   3
ATOM      3  O   UNL     1       6.532  -7.157  -0.391  1.00  0.00    -0.376 OA
BRANCH   3   4
ATOM      4  C   UNL     1       7.083  -6.024  -1.037  1.00  0.00     0.202 C 
BRANCH   4   5
ATOM      5  C   UNL     1       6.403  -4.660  -0.862  1.00  0.00     0.261 C 
BRANCH   5   6
ATOM      6  O   UNL     1       5.796  -4.444   0.412  1.00  0.00    -0.460 OA
BRANCH   6   7
ATOM      7  C   UNL     1       4.497  -4.810   0.503  1.00  0.00     0.338 C 
ATOM      8  O   UNL     1       3.768  -5.201  -0.391  1.00  0.00    -0.246 OA
BRANCH   7   9
ATOM      9  C   UNL     1       4.107  -4.797   1.928  1.00  0.00     0.060 A 
ATOM     10  C   UNL     1       3.197  -4.775   4.557  1.00  0.00     0.053 A 
ATOM     11  C   UNL     1       2.955  -5.895   3.760  1.00  0.00     0.028 A 
ATOM     12  C   UNL     1       3.998  -3.726   4.074  1.00  0.00     0.028 A 
ATOM     13  C   UNL     1       3.370  -5.882   2.429  1.00  0.00     0.018 A 
ATOM     14  C   UNL     1       4.472  -3.743   2.765  1.00  0.00     0.018 A 
BRANCH  10  15
ATOM     15  N   UNL     1       2.432  -4.578   5.721  1.00  0.00    -0.242 N 
ATOM     16  C   UNL     1       1.589  -3.527   5.962  1.00  0.00     0.095 A 
ATOM     17  C   UNL     1       1.030  -3.770   7.141  1.00  0.00     0.228 A 
ATOM     18  O   UNL     1       1.437  -4.969   7.730  1.00  0.00    -0.415 OA
ATOM     19  C   UNL     1       2.299  -5.489   6.761  1.00  0.00     0.424 A 
ATOM     20  O   UNL     1       2.828  -6.588   6.868  1.00  0.00    -0.223 OA
BRANCH  16  21
ATOM     21  C   UNL     1       1.232  -2.503   4.978  1.00  0.00     0.002 A 
ATOM     22  C   UNL     1       0.701  -0.617   2.976  1.00  0.00     0.082 A 
ATOM     23  C   UNL     1       0.487  -1.969   2.715  1.00  0.00     0.022 A 
ATOM     24  C   UNL     1       1.159  -0.196   4.229  1.00  0.00     0.022 A 
ATOM     25  C   UNL     1       0.741  -2.902   3.719  1.00  0.00     0.012 A 
ATOM     26  C   UNL     1       1.421  -1.141   5.230  1.00  0.00     0.012 A 
BRANCH  22  27
ATOM     27  S   UNL     1       0.395   0.563   1.695  1.00  0.00     0.238 S 
ATOM     28  O   UNL     1       1.093   1.791   2.004  1.00  0.00    -0.207 OA
ATOM     29  O   UNL     1      -1.008   0.525   1.365  1.00  0.00    -0.207 OA
BRANCH  27  30
ATOM     30  N   UNL     1       1.209  -0.088   0.377  1.00  0.00    -0.225 NA
ATOM     31  H   UNL     1       1.095   0.526  -0.430  1.00  0.00     0.137 HD
ATOM     32  H   UNL     1       0.826  -1.008   0.161  1.00  0.00     0.137 HD
ENDBRANCH  27  30
ENDBRANCH  22  27
ENDBRANCH  16  21
ENDBRANCH  10  15
ENDBRANCH   7   9
ENDBRANCH   6   7
ENDBRANCH   5   6
ENDBRANCH   4   5
ENDBRANCH   3   4
ENDBRANCH   2   3
ENDBRANCH   1   2
BRANCH   1  33
ATOM     33  O   UNL     1       8.381  -5.658   1.346  1.00  0.00    -0.377 OA
BRANCH  33  34
ATOM     34  C   UNL     1       9.674  -6.258   1.385  1.00  0.00     0.188 C 
BRANCH  34  35
ATOM     35  C   UNL     1       9.784  -7.661   0.750  1.00  0.00     0.188 C 
BRANCH  35  36
ATOM     36  O   UNL     1       8.857  -8.603   1.291  1.00  0.00    -0.376 OA
BRANCH  36  37
ATOM     37  C   UNL     1       9.359  -9.675   2.074  1.00  0.00     0.202 C 
BRANCH  37  38
ATOM     38  C   UNL     1       9.573  -9.297   3.536  1.00  0.00     0.261 C 
BRANCH  38  39
ATOM     39  O   UNL     1      10.425  -8.175   3.708  1.00  0.00    -0.460 OA
BRANCH  39  40
ATOM     40  C   UNL     1      11.672  -8.296   3.213  1.00  0.00     0.338 C 
ATOM     41  O   UNL     1      12.122  -9.214   2.551  1.00  0.00    -0.246 OA
BRANCH  40  42
ATOM     42  C   UNL     1      12.464  -7.154   3.672  1.00  0.00     0.060 A 
ATOM     43  C   UNL     1      13.784  -7.098   3.220  1.00  0.00     0.016 A 
ATOM     44  C   UNL     1      11.998  -6.385   4.749  1.00  0.00     0.016 A 
ATOM     45  C   UNL     1      14.709  -6.478   4.022  1.00  0.00     0.010 A 
ATOM     46  C   UNL     1      12.924  -5.783   5.557  1.00  0.00     0.010 A 
ATOM     47  C   UNL     1      14.270  -5.936   5.231  1.00  0.00    -0.014 A 
BRANCH  47  48
ATOM     48  C   UNL     1      15.272  -5.611   6.218  1.00  0.00     0.031 A 
ATOM     49  C   UNL     1      15.880  -4.280   6.052  1.00  0.00     0.074 A 
ATOM     50  C   UNL     1      15.489  -6.439   7.256  1.00  0.00     0.049 A 
ATOM     51  N   UNL     1      17.116  -3.986   5.831  1.00  0.00    -0.248 NA
ATOM     52  C   UNL     1      14.961  -3.131   5.989  1.00  0.00     0.031 C 
ATOM     53  C   UNL     1      14.691  -7.611   7.642  1.00  0.00     0.029 A 
ATOM     54  N   UNL     1      16.387  -6.329   8.269  1.00  0.00    -0.354 N 
ATOM     55  C   UNL     1      17.163  -2.597   5.838  1.00  0.00     0.074 A 
ATOM     56  C   UNL     1      15.805  -2.136   5.728  1.00  0.00     0.031 C 
ATOM     57  C   UNL     1      14.998  -7.952   8.912  1.00  0.00     0.029 A 
ATOM     58  C   UNL     1      16.076  -7.098   9.381  1.00  0.00     0.049 A 
ATOM     59  H   UNL     1      17.185  -5.755   8.218  1.00  0.00     0.167 HD
ATOM     60  C   UNL     1      18.281  -1.931   6.226  1.00  0.00     0.037 A 
ATOM     61  C   UNL     1      16.596  -6.954  10.624  1.00  0.00     0.037 A 
ATOM     62  C   UNL     1      19.452  -2.768   6.146  1.00  0.00     0.049 A 
ATOM     63  C   UNL     1      17.853  -6.168  10.494  1.00  0.00     0.074 A 
ATOM     64  C   UNL     1      20.064  -3.478   5.132  1.00  0.00     0.029 A 
ATOM     65  N   UNL     1      19.980  -3.251   7.319  1.00  0.00    -0.354 N 
ATOM     66  N   UNL     1      18.935  -6.597   9.902  1.00  0.00    -0.248 NA
ATOM     67  C   UNL     1      17.779  -4.724  10.668  1.00  0.00     0.031 C 
ATOM     68  C   UNL     1      20.602  -4.641   5.755  1.00  0.00     0.029 A 
ATOM     69  C   UNL     1      20.313  -4.566   7.119  1.00  0.00     0.049 A 
ATOM     70  H   UNL     1      20.099  -2.743   8.154  1.00  0.00     0.167 HD
ATOM     71  C   UNL     1      19.472  -5.480   9.275  1.00  0.00     0.074 A 
ATOM     72  C   UNL     1      18.787  -4.343   9.879  1.00  0.00     0.031 C 
ATOM     73  C   UNL     1      20.211  -5.596   8.133  1.00  0.00     0.037 A 
BRANCH  60  74
ATOM     74  C   UNL     1      18.235  -0.660   7.039  1.00  0.00     0.058 A 
ATOM     75  C   UNL     1      19.424   0.065   7.243  1.00  0.00     0.135 A 
ATOM     76  C   UNL     1      17.142  -0.286   7.857  1.00  0.00     0.135 A 
ATOM     77  F   UNL     1      20.523  -0.210   6.524  1.00  0.00    -0.206 F 
ATOM     78  C   UNL     1      19.544   1.026   8.247  1.00  0.00     0.059 A 
ATOM     79  C   UNL     1      17.222   0.711   8.818  1.00  0.00     0.059 A 
ATOM     80  F   UNL     1      15.973  -0.939   7.846  1.00  0.00    -0.206 F 
ATOM     81  C   UNL     1      18.442   1.322   9.044  1.00  0.00     0.060 A 
BRANCH  81  82
ATOM     82  S   UNL     1      18.628   2.436  10.444  1.00  0.00     0.124 S 
ATOM     83  O   UNL     1      19.381   1.601  11.372  1.00  0.00    -0.237 OA
ATOM     84  O   UNL     1      19.353   3.554   9.851  1.00  0.00    -0.237 OA
ATOM     85  O   UNL     1      17.248   2.724  10.827  1.00  0.00    -0.744 OA
ENDBRANCH  81  82
ENDBRANCH  60  74
BRANCH  61  86
ATOM     86  C   UNL     1      15.899  -7.166  11.920  1.00  0.00     0.058 A 
ATOM     87  C   UNL     1      16.615  -7.252  13.126  1.00  0.00     0.135 A 
ATOM     88  C   UNL     1      14.498  -7.047  12.039  1.00  0.00     0.135 A 
ATOM     89  F   UNL     1      17.954  -7.332  13.110  1.00  0.00    -0.206 F 
ATOM     90  C   UNL     1      15.983  -7.195  14.373  1.00  0.00     0.059 A 
ATOM     91  C   UNL     1      13.845  -7.011  13.268  1.00  0.00     0.059 A 
ATOM     92  F   UNL     1      13.719  -6.870  10.961  1.00  0.00    -0.206 F 
ATOM     93  C   UNL     1      14.596  -7.062  14.434  1.00  0.00     0.060 A 
BRANCH  93  94
ATOM     94  S   UNL     1      13.789  -6.838  16.035  1.00  0.00     0.124 S 
ATOM     95  O   UNL     1      13.971  -8.148  16.650  1.00  0.00    -0.237 OA
ATOM     96  O   UNL     1      14.561  -5.745  16.617  1.00  0.00    -0.237 OA
ATOM     97  O   UNL     1      12.413  -6.503  15.677  1.00  0.00    -0.744 OA
ENDBRANCH  93  94
ENDBRANCH  61  86
BRANCH  73  98
ATOM     98  C   UNL     1      20.738  -6.959   7.765  1.00  0.00     0.058 A 
ATOM     99  C   UNL     1      19.923  -8.049   7.413  1.00  0.00     0.135 A 
ATOM    100  C   UNL     1      22.124  -7.119   7.611  1.00  0.00     0.135 A 
ATOM    101  F   UNL     1      18.587  -7.942   7.427  1.00  0.00    -0.206 F 
ATOM    102  C   UNL     1      20.463  -9.257   6.968  1.00  0.00     0.059 A 
ATOM    103  C   UNL     1      22.683  -8.304   7.138  1.00  0.00     0.059 A 
ATOM    104  F   UNL     1      22.952  -6.093   7.867  1.00  0.00    -0.206 F 
ATOM    105  C   UNL     1      21.845  -9.374   6.830  1.00  0.00     0.060 A 
BRANCH 105 106
ATOM    106  S   UNL     1      22.533 -10.903   6.157  1.00  0.00     0.124 S 
ATOM    107  O   UNL     1      22.404 -11.820   7.285  1.00  0.00    -0.237 OA
ATOM    108  O   UNL     1      21.660 -11.172   5.018  1.00  0.00    -0.237 OA
ATOM    109  O   UNL     1      23.903 -10.534   5.805  1.00  0.00    -0.744 OA
ENDBRANCH 105 106
ENDBRANCH  73  98
ENDBRANCH  47  48
ENDBRANCH  40  42
ENDBRANCH  39  40
ENDBRANCH  38  39
ENDBRANCH  37  38
ENDBRANCH  36  37
ENDBRANCH  35  36
ENDBRANCH  34  35
ENDBRANCH  33  34
ENDBRANCH   1  33
TORSDOF 27
