REMARK SMILES O=C(OCCOCCOCCOCCOC(=O)c1ccccc1Nc1nc(Cl)nc(Nc2ccc(N3CCOCC3=O)cc2)n1)c1ccc(-c2c3nc(c(-c4c(F)cc(S(=O)(=O)[O-])cc4F)c4ccc([nH]4)c(-c4c(F)cc(S(=O)(=O)[O-])cc4F)c4nc(c(-c5c(F)cc(S(=O)(=O)[O-])cc5F)c5ccc2[nH]5)C=C4)C=C3)cc1
REMARK SMILES IDX 10 1 9 2 8 3 7 4 6 5 5 6 4 7 3 8 2 9 1 10 46 11 47 12 111 13
REMARK SMILES IDX 48 14 110 15 49 16 50 17 51 18 104 19 52 20 109 21 103 22
REMARK SMILES IDX 105 23 53 24 108 25 102 26 101 27 54 29 88 30 67 31 87 32
REMARK SMILES IDX 68 33 71 34 86 35 106 36 69 37 70 38 85 40 107 41 72 42
REMARK SMILES IDX 55 43 56 44 65 45 57 46 58 47 64 48 66 49 59 50 60 51 61 52
REMARK SMILES IDX 62 53 63 54 89 55 90 56 99 57 91 58 92 59 98 60 100 61 93 62
REMARK SMILES IDX 94 63 95 64 96 65 97 66 73 67 74 68 83 69 75 70 76 71 82 72
REMARK SMILES IDX 84 73 77 74 78 75 79 76 80 77 81 78 11 79 12 80 13 81 14 82
REMARK SMILES IDX 15 83 16 84 17 85 18 86 19 87 23 88 20 89 22 90 21 91 24 92
REMARK SMILES IDX 25 94 26 95 45 96 27 97 30 98 28 99 29 100 31 101 32 103
REMARK SMILES IDX 33 104 44 105 34 106 43 107 35 108 36 109 37 110 41 111
REMARK SMILES IDX 38 112 40 113 42 114 39 115
REMARK H PARENT 105 28 71 39 24 93 31 102
REMARK Flexibility Score: inf
ROOT
ATOM      1  C   UNL     1       3.980   2.983   2.346  1.00  0.00     0.188 C 
ENDROOT
BRANCH   1   2
ATOM      2  O   UNL     1       2.562   3.062   2.466  1.00  0.00    -0.377 OA
BRANCH   2   3
ATOM      3  C   UNL     1       1.823   1.942   1.976  1.00  0.00     0.188 C 
BRANCH   3   4
ATOM      4  C   UNL     1       2.220   1.467   0.577  1.00  0.00     0.188 C 
BRANCH   4   5
ATOM      5  O   UNL     1       3.540   0.921   0.584  1.00  0.00    -0.376 OA
BRANCH   5   6
ATOM      6  C   UNL     1       4.336   1.211  -0.565  1.00  0.00     0.202 C 
BRANCH   6   7
ATOM      7  C   UNL     1       4.099   0.265  -1.743  1.00  0.00     0.261 C 
BRANCH   7   8
ATOM      8  O   UNL     1       2.736  -0.176  -1.819  1.00  0.00    -0.460 OA
BRANCH   8   9
ATOM      9  C   UNL     1       2.201  -1.297  -1.269  1.00  0.00     0.338 C 
ATOM     10  O   UNL     1       1.011  -1.536  -1.477  1.00  0.00    -0.246 OA
BRANCH   9  11
ATOM     11  C   UNL     1       2.976  -2.277  -0.444  1.00  0.00     0.060 A 
ATOM     12  C   UNL     1       4.106  -1.975   0.316  1.00  0.00     0.016 A 
ATOM     13  C   UNL     1       2.486  -3.594  -0.384  1.00  0.00     0.016 A 
ATOM     14  C   UNL     1       4.784  -2.942   1.037  1.00  0.00     0.010 A 
ATOM     15  C   UNL     1       3.140  -4.574   0.372  1.00  0.00     0.010 A 
ATOM     16  C   UNL     1       4.314  -4.249   1.060  1.00  0.00    -0.014 A 
BRANCH  16  17
ATOM     17  C   UNL     1       5.189  -5.261   1.675  1.00  0.00     0.031 A 
ATOM     18  C   UNL     1       5.986  -6.140   0.759  1.00  0.00     0.074 A 
ATOM     19  C   UNL     1       5.401  -5.238   3.005  1.00  0.00     0.049 A 
ATOM     20  N   UNL     1       6.812  -7.106   1.051  1.00  0.00    -0.248 NA
ATOM     21  C   UNL     1       5.851  -5.880  -0.687  1.00  0.00     0.031 C 
ATOM     22  C   UNL     1       4.775  -4.299   3.943  1.00  0.00     0.029 A 
ATOM     23  N   UNL     1       6.228  -5.990   3.793  1.00  0.00    -0.354 N 
ATOM     24  C   UNL     1       7.274  -7.583  -0.170  1.00  0.00     0.074 A 
ATOM     25  C   UNL     1       6.636  -6.809  -1.208  1.00  0.00     0.031 C 
ATOM     26  C   UNL     1       5.258  -4.522   5.176  1.00  0.00     0.029 A 
ATOM     27  C   UNL     1       6.165  -5.662   5.127  1.00  0.00     0.049 A 
ATOM     28  H   UNL     1       6.812  -6.699   3.439  1.00  0.00     0.167 HD
ATOM     29  C   UNL     1       8.153  -8.586  -0.391  1.00  0.00     0.037 A 
ATOM     30  C   UNL     1       6.749  -6.254   6.187  1.00  0.00     0.037 A 
ATOM     31  C   UNL     1       8.768  -9.330   0.673  1.00  0.00     0.049 A 
ATOM     32  C   UNL     1       7.634  -7.443   5.917  1.00  0.00     0.074 A 
ATOM     33  C   UNL     1       9.601 -10.428   0.594  1.00  0.00     0.029 A 
ATOM     34  N   UNL     1       8.614  -9.034   2.022  1.00  0.00    -0.354 N 
ATOM     35  N   UNL     1       7.989  -7.959   4.761  1.00  0.00    -0.248 NA
ATOM     36  C   UNL     1       8.181  -8.144   7.083  1.00  0.00     0.031 C 
ATOM     37  C   UNL     1       9.920 -10.821   1.899  1.00  0.00     0.029 A 
ATOM     38  C   UNL     1       9.326  -9.937   2.788  1.00  0.00     0.049 A 
ATOM     39  H   UNL     1       8.076  -8.291   2.380  1.00  0.00     0.167 HD
ATOM     40  C   UNL     1       8.809  -9.039   5.061  1.00  0.00     0.074 A 
ATOM     41  C   UNL     1       8.921  -9.081   6.507  1.00  0.00     0.031 C 
ATOM     42  C   UNL     1       9.409  -9.927   4.228  1.00  0.00     0.037 A 
BRANCH  29  43
ATOM     43  C   UNL     1       8.429  -8.961  -1.818  1.00  0.00     0.058 A 
ATOM     44  C   UNL     1       9.212  -8.159  -2.662  1.00  0.00     0.135 A 
ATOM     45  C   UNL     1       7.883 -10.138  -2.355  1.00  0.00     0.135 A 
ATOM     46  F   UNL     1       9.724  -7.002  -2.212  1.00  0.00    -0.206 F 
ATOM     47  C   UNL     1       9.434  -8.503  -3.993  1.00  0.00     0.059 A 
ATOM     48  C   UNL     1       8.110 -10.514  -3.676  1.00  0.00     0.059 A 
ATOM     49  F   UNL     1       7.109 -10.930  -1.597  1.00  0.00    -0.206 F 
ATOM     50  C   UNL     1       8.880  -9.685  -4.490  1.00  0.00     0.060 A 
BRANCH  50  51
ATOM     51  S   UNL     1       9.184 -10.123  -6.215  1.00  0.00     0.124 S 
ATOM     52  O   UNL     1       8.366  -9.138  -6.916  1.00  0.00    -0.237 OA
ATOM     53  O   UNL     1      10.628  -9.944  -6.330  1.00  0.00    -0.237 OA
ATOM     54  O   UNL     1       8.717 -11.503  -6.303  1.00  0.00    -0.744 OA
ENDBRANCH  50  51
ENDBRANCH  29  43
BRANCH  30  55
ATOM     55  C   UNL     1       6.455  -5.801   7.576  1.00  0.00     0.058 A 
ATOM     56  C   UNL     1       7.458  -5.301   8.419  1.00  0.00     0.135 A 
ATOM     57  C   UNL     1       5.156  -5.899   8.106  1.00  0.00     0.135 A 
ATOM     58  F   UNL     1       8.718  -5.190   7.970  1.00  0.00    -0.206 F 
ATOM     59  C   UNL     1       7.195  -4.948   9.742  1.00  0.00     0.059 A 
ATOM     60  C   UNL     1       4.861  -5.522   9.412  1.00  0.00     0.059 A 
ATOM     61  F   UNL     1       4.151  -6.361   7.346  1.00  0.00    -0.206 F 
ATOM     62  C   UNL     1       5.893  -5.069  10.231  1.00  0.00     0.060 A 
BRANCH  62  63
ATOM     63  S   UNL     1       5.557  -4.617  11.947  1.00  0.00     0.124 S 
ATOM     64  O   UNL     1       6.145  -5.742  12.665  1.00  0.00    -0.237 OA
ATOM     65  O   UNL     1       6.255  -3.342  12.074  1.00  0.00    -0.237 OA
ATOM     66  O   UNL     1       4.100  -4.532  11.992  1.00  0.00    -0.744 OA
ENDBRANCH  62  63
ENDBRANCH  30  55
BRANCH  42  67
ATOM     67  C   UNL     1      10.254 -10.986   4.870  1.00  0.00     0.058 A 
ATOM     68  C   UNL     1       9.678 -12.064   5.560  1.00  0.00     0.135 A 
ATOM     69  C   UNL     1      11.652 -10.943   4.752  1.00  0.00     0.135 A 
ATOM     70  F   UNL     1       8.346 -12.143   5.702  1.00  0.00    -0.206 F 
ATOM     71  C   UNL     1      10.465 -13.051   6.139  1.00  0.00     0.059 A 
ATOM     72  C   UNL     1      12.455 -11.936   5.297  1.00  0.00     0.059 A 
ATOM     73  F   UNL     1      12.245  -9.938   4.089  1.00  0.00    -0.206 F 
ATOM     74  C   UNL     1      11.853 -12.978   6.002  1.00  0.00     0.060 A 
BRANCH  74  75
ATOM     75  S   UNL     1      12.863 -14.280   6.735  1.00  0.00     0.124 S 
ATOM     76  O   UNL     1      12.810 -13.928   8.150  1.00  0.00    -0.237 OA
ATOM     77  O   UNL     1      12.140 -15.489   6.354  1.00  0.00    -0.237 OA
ATOM     78  O   UNL     1      14.161 -14.104   6.091  1.00  0.00    -0.744 OA
ENDBRANCH  74  75
ENDBRANCH  42  67
ENDBRANCH  16  17
ENDBRANCH   9  11
ENDBRANCH   8   9
ENDBRANCH   7   8
ENDBRANCH   6   7
ENDBRANCH   5   6
ENDBRANCH   4   5
ENDBRANCH   3   4
ENDBRANCH   2   3
ENDBRANCH   1   2
BRANCH   1  79
ATOM     79  C   UNL     1       4.718   1.840   3.079  1.00  0.00     0.188 C 
BRANCH  79  80
ATOM     80  O   UNL     1       3.848   0.904   3.696  1.00  0.00    -0.376 OA
BRANCH  80  81
ATOM     81  C   UNL     1       3.854   0.888   5.119  1.00  0.00     0.202 C 
BRANCH  81  82
ATOM     82  C   UNL     1       3.259   2.118   5.822  1.00  0.00     0.261 C 
BRANCH  82  83
ATOM     83  O   UNL     1       3.699   3.397   5.333  1.00  0.00    -0.460 OA
BRANCH  83  84
ATOM     84  C   UNL     1       4.943   3.841   5.624  1.00  0.00     0.340 C 
ATOM     85  O   UNL     1       5.764   3.287   6.334  1.00  0.00    -0.246 OA
BRANCH  84  86
ATOM     86  C   UNL     1       5.214   5.035   4.766  1.00  0.00     0.083 A 
ATOM     87  C   UNL     1       6.472   5.100   4.146  1.00  0.00     0.018 A 
ATOM     88  C   UNL     1       4.221   6.002   4.470  1.00  0.00     0.055 A 
ATOM     89  C   UNL     1       6.747   6.107   3.220  1.00  0.00     0.001 A 
ATOM     90  C   UNL     1       4.542   7.033   3.573  1.00  0.00     0.027 A 
ATOM     91  C   UNL     1       5.787   7.076   2.942  1.00  0.00     0.002 A 
BRANCH  88  92
ATOM     92  N   UNL     1       2.945   5.924   5.057  1.00  0.00    -0.323 N 
ATOM     93  H   UNL     1       2.547   5.025   5.115  1.00  0.00     0.170 HD
BRANCH  92  94
ATOM     94  C   UNL     1       2.183   6.964   5.561  1.00  0.00     0.233 A 
ATOM     95  N   UNL     1       1.651   7.872   4.762  1.00  0.00    -0.182 NA
ATOM     96  N   UNL     1       2.069   6.962   6.882  1.00  0.00    -0.176 NA
ATOM     97  C   UNL     1       0.931   8.770   5.410  1.00  0.00     0.228 A 
ATOM     98  C   UNL     1       1.399   7.965   7.421  1.00  0.00     0.233 A 
ATOM     99  Cl  UNL     1       0.169   9.959   4.447  1.00  0.00    -0.041 Cl
ATOM    100  N   UNL     1       0.764   8.888   6.716  1.00  0.00    -0.182 NA
BRANCH  98 101
ATOM    101  N   UNL     1       1.497   8.066   8.803  1.00  0.00    -0.324 N 
ATOM    102  H   UNL     1       2.117   7.436   9.237  1.00  0.00     0.170 HD
BRANCH 101 103
ATOM    103  C   UNL     1       0.830   8.943   9.651  1.00  0.00     0.041 A 
ATOM    104  C   UNL     1       1.550   9.714  10.568  1.00  0.00     0.028 A 
ATOM    105  C   UNL     1      -0.546   9.142   9.531  1.00  0.00     0.028 A 
ATOM    106  C   UNL     1       0.905  10.698  11.325  1.00  0.00     0.028 A 
ATOM    107  C   UNL     1      -1.201  10.077  10.325  1.00  0.00     0.028 A 
ATOM    108  C   UNL     1      -0.477  10.877  11.212  1.00  0.00     0.044 A 
BRANCH 108 109
ATOM    109  N   UNL     1      -1.138  11.915  11.923  1.00  0.00    -0.308 N 
ATOM    110  C   UNL     1      -0.649  13.277  11.685  1.00  0.00     0.154 C 
ATOM    111  C   UNL     1      -2.399  11.691  12.486  1.00  0.00     0.253 C 
ATOM    112  C   UNL     1      -1.286  14.312  12.601  1.00  0.00     0.183 C 
ATOM    113  C   UNL     1      -3.113  12.936  13.027  1.00  0.00     0.260 C 
ATOM    114  O   UNL     1      -2.908  10.579  12.643  1.00  0.00    -0.272 OA
ATOM    115  O   UNL     1      -2.706  14.202  12.532  1.00  0.00    -0.370 OA
ENDBRANCH 108 109
ENDBRANCH 101 103
ENDBRANCH  98 101
ENDBRANCH  92  94
ENDBRANCH  88  92
ENDBRANCH  84  86
ENDBRANCH  83  84
ENDBRANCH  82  83
ENDBRANCH  81  82
ENDBRANCH  80  81
ENDBRANCH  79  80
ENDBRANCH   1  79
TORSDOF 28
