REMARK SMILES O=C(CCCC[C@@H]1CCSS1)OCCOCCOCCOCCOC(=O)c1ccc(-c2c3nc(c(-c4c(F)cc(S(=O)(=O)[O-])cc4F)c4ccc([nH]4)c(-c4c(F)cc(S(=O)(=O)[O-])cc4F)c4nc(c(-c5c(F)cc(S(=O)(=O)[O-])cc5F)c5ccc2[nH]5)C=C4)C=C3)cc1
REMARK SMILES IDX 17 1 16 2 15 3 14 4 13 5 12 6 2 7 1 8 3 9 4 10 5 11 6 12
REMARK SMILES IDX 7 13 8 14 11 15 9 16 10 17 18 18 19 19 20 20 21 21 22 22
REMARK SMILES IDX 23 23 24 24 25 25 26 26 27 27 28 28 92 29 29 30 91 31 30 32
REMARK SMILES IDX 31 33 32 34 85 35 33 36 90 37 84 38 86 39 34 40 89 41 83 42
REMARK SMILES IDX 82 43 35 45 69 46 48 47 68 48 49 49 52 50 67 51 87 52 50 53
REMARK SMILES IDX 51 54 66 56 88 57 53 58 36 59 37 60 46 61 38 62 39 63 45 64
REMARK SMILES IDX 47 65 40 66 41 67 42 68 43 69 44 70 70 71 71 72 80 73 72 74
REMARK SMILES IDX 73 75 79 76 81 77 74 78 75 79 76 80 77 81 78 82 54 83 55 84
REMARK SMILES IDX 64 85 56 86 57 87 63 88 65 89 58 90 59 91 60 92 61 93 62 94
REMARK H PARENT 86 44 52 55
REMARK Flexibility Score: inf
ROOT
ATOM      1  C   UNL     1       2.092  -2.280   1.611  1.00  0.00     0.188 C 
ENDROOT
BRANCH   1   2
ATOM      2  C   UNL     1       2.401  -1.462   0.363  1.00  0.00     0.188 C 
BRANCH   2   3
ATOM      3  O   UNL     1       3.556  -0.630   0.444  1.00  0.00    -0.376 OA
BRANCH   3   4
ATOM      4  C   UNL     1       3.685   0.216   1.576  1.00  0.00     0.202 C 
BRANCH   4   5
ATOM      5  C   UNL     1       3.497   1.670   1.206  1.00  0.00     0.261 C 
BRANCH   5   6
ATOM      6  O   UNL     1       2.282   1.926   0.484  1.00  0.00    -0.463 OA
BRANCH   6   7
ATOM      7  C   UNL     1       2.000   1.735  -0.817  1.00  0.00     0.305 C 
ATOM      8  O   UNL     1       0.849   1.976  -1.195  1.00  0.00    -0.252 OA
BRANCH   7   9
ATOM      9  C   UNL     1       2.988   1.157  -1.817  1.00  0.00     0.123 C 
BRANCH   9  10
ATOM     10  C   UNL     1       4.087   2.031  -2.409  1.00  0.00     0.012 C 
BRANCH  10  11
ATOM     11  C   UNL     1       5.437   2.116  -1.686  1.00  0.00     0.002 C 
BRANCH  11  12
ATOM     12  C   UNL     1       6.079   0.788  -1.248  1.00  0.00     0.015 C 
BRANCH  12  13
ATOM     13  C   UNL     1       6.890   0.047  -2.317  1.00  0.00     0.059 C 
ATOM     14  C   UNL     1       7.249  -1.373  -1.840  1.00  0.00     0.027 C 
ATOM     15  S   UNL     1       8.461   0.911  -2.669  1.00  0.00    -0.091 SA
ATOM     16  C   UNL     1       8.378  -1.960  -2.677  1.00  0.00     0.083 C 
ATOM     17  S   UNL     1       9.692  -0.725  -2.660  1.00  0.00    -0.094 SA
ENDBRANCH  12  13
ENDBRANCH  11  12
ENDBRANCH  10  11
ENDBRANCH   9  10
ENDBRANCH   7   9
ENDBRANCH   6   7
ENDBRANCH   5   6
ENDBRANCH   4   5
ENDBRANCH   3   4
ENDBRANCH   2   3
ENDBRANCH   1   2
BRANCH   1  18
ATOM     18  O   UNL     1       3.059  -3.225   2.046  1.00  0.00    -0.377 OA
BRANCH  18  19
ATOM     19  C   UNL     1       4.437  -3.025   1.797  1.00  0.00     0.188 C 
BRANCH  19  20
ATOM     20  C   UNL     1       5.085  -4.086   0.896  1.00  0.00     0.188 C 
BRANCH  20  21
ATOM     21  O   UNL     1       4.312  -4.626  -0.166  1.00  0.00    -0.376 OA
BRANCH  21  22
ATOM     22  C   UNL     1       3.084  -5.277   0.161  1.00  0.00     0.202 C 
BRANCH  22  23
ATOM     23  C   UNL     1       3.009  -6.285   1.331  1.00  0.00     0.261 C 
BRANCH  23  24
ATOM     24  O   UNL     1       3.299  -5.748   2.639  1.00  0.00    -0.460 OA
BRANCH  24  25
ATOM     25  C   UNL     1       4.426  -6.201   3.243  1.00  0.00     0.338 C 
ATOM     26  O   UNL     1       5.169  -7.071   2.827  1.00  0.00    -0.246 OA
BRANCH  25  27
ATOM     27  C   UNL     1       4.786  -5.341   4.399  1.00  0.00     0.060 A 
ATOM     28  C   UNL     1       6.060  -4.749   4.405  1.00  0.00     0.016 A 
ATOM     29  C   UNL     1       3.939  -5.178   5.495  1.00  0.00     0.016 A 
ATOM     30  C   UNL     1       6.503  -4.022   5.513  1.00  0.00     0.010 A 
ATOM     31  C   UNL     1       4.400  -4.484   6.625  1.00  0.00     0.010 A 
ATOM     32  C   UNL     1       5.698  -3.938   6.655  1.00  0.00    -0.014 A 
BRANCH  32  33
ATOM     33  C   UNL     1       6.317  -3.531   7.946  1.00  0.00     0.031 A 
ATOM     34  C   UNL     1       6.844  -4.621   8.845  1.00  0.00     0.074 A 
ATOM     35  C   UNL     1       6.455  -2.241   8.306  1.00  0.00     0.049 A 
ATOM     36  N   UNL     1       7.395  -4.535  10.028  1.00  0.00    -0.248 NA
ATOM     37  C   UNL     1       6.731  -5.998   8.334  1.00  0.00     0.031 C 
ATOM     38  C   UNL     1       6.045  -1.089   7.506  1.00  0.00     0.029 A 
ATOM     39  N   UNL     1       6.980  -1.687   9.449  1.00  0.00    -0.354 N 
ATOM     40  C   UNL     1       7.685  -5.842  10.405  1.00  0.00     0.074 A 
ATOM     41  C   UNL     1       7.221  -6.704   9.341  1.00  0.00     0.031 C 
ATOM     42  C   UNL     1       6.320   0.037   8.191  1.00  0.00     0.029 A 
ATOM     43  C   UNL     1       6.897  -0.315   9.490  1.00  0.00     0.049 A 
ATOM     44  H   UNL     1       7.378  -2.223  10.172  1.00  0.00     0.167 HD
ATOM     45  C   UNL     1       8.290  -6.288  11.532  1.00  0.00     0.037 A 
ATOM     46  C   UNL     1       7.229   0.553  10.469  1.00  0.00     0.037 A 
ATOM     47  C   UNL     1       8.743  -5.430  12.596  1.00  0.00     0.049 A 
ATOM     48  C   UNL     1       7.825   0.028  11.755  1.00  0.00     0.074 A 
ATOM     49  C   UNL     1       9.373  -5.784  13.776  1.00  0.00     0.029 A 
ATOM     50  N   UNL     1       8.604  -4.050  12.615  1.00  0.00    -0.354 N 
ATOM     51  N   UNL     1       8.110  -1.208  12.092  1.00  0.00    -0.248 NA
ATOM     52  C   UNL     1       8.148   1.019  12.793  1.00  0.00     0.031 C 
ATOM     53  C   UNL     1       9.560  -4.625  14.535  1.00  0.00     0.029 A 
ATOM     54  C   UNL     1       9.111  -3.540  13.799  1.00  0.00     0.049 A 
ATOM     55  H   UNL     1       8.204  -3.513  11.893  1.00  0.00     0.167 HD
ATOM     56  C   UNL     1       8.679  -1.138  13.361  1.00  0.00     0.074 A 
ATOM     57  C   UNL     1       8.706   0.262  13.728  1.00  0.00     0.031 C 
ATOM     58  C   UNL     1       9.143  -2.141  14.150  1.00  0.00     0.037 A 
BRANCH  45  59
ATOM     59  C   UNL     1       8.459  -7.776  11.687  1.00  0.00     0.058 A 
ATOM     60  C   UNL     1       9.353  -8.509  10.891  1.00  0.00     0.135 A 
ATOM     61  C   UNL     1       7.727  -8.475  12.661  1.00  0.00     0.135 A 
ATOM     62  F   UNL     1      10.064  -7.896   9.930  1.00  0.00    -0.206 F 
ATOM     63  C   UNL     1       9.492  -9.887  11.031  1.00  0.00     0.059 A 
ATOM     64  C   UNL     1       7.874  -9.847  12.842  1.00  0.00     0.059 A 
ATOM     65  F   UNL     1       6.855  -7.825  13.448  1.00  0.00    -0.206 F 
ATOM     66  C   UNL     1       8.748 -10.547  12.011  1.00  0.00     0.060 A 
BRANCH  66  67
ATOM     67  S   UNL     1       8.939 -12.333  12.181  1.00  0.00     0.124 S 
ATOM     68  O   UNL     1       8.281 -12.813  10.969  1.00  0.00    -0.237 OA
ATOM     69  O   UNL     1      10.390 -12.488  12.218  1.00  0.00    -0.237 OA
ATOM     70  O   UNL     1       8.247 -12.633  13.430  1.00  0.00    -0.744 OA
ENDBRANCH  66  67
ENDBRANCH  45  59
BRANCH  46  71
ATOM     71  C   UNL     1       7.002   2.015  10.288  1.00  0.00     0.058 A 
ATOM     72  C   UNL     1       8.076   2.913  10.199  1.00  0.00     0.135 A 
ATOM     73  C   UNL     1       5.704   2.546  10.220  1.00  0.00     0.135 A 
ATOM     74  F   UNL     1       9.336   2.461  10.278  1.00  0.00    -0.206 F 
ATOM     75  C   UNL     1       7.874   4.284  10.064  1.00  0.00     0.059 A 
ATOM     76  C   UNL     1       5.476   3.909  10.055  1.00  0.00     0.059 A 
ATOM     77  F   UNL     1       4.639   1.733  10.295  1.00  0.00    -0.206 F 
ATOM     78  C   UNL     1       6.569   4.772   9.986  1.00  0.00     0.060 A 
BRANCH  78  79
ATOM     79  S   UNL     1       6.320   6.546   9.752  1.00  0.00     0.124 S 
ATOM     80  O   UNL     1       6.722   7.075  11.050  1.00  0.00    -0.237 OA
ATOM     81  O   UNL     1       7.218   6.833   8.638  1.00  0.00    -0.237 OA
ATOM     82  O   UNL     1       4.897   6.646   9.441  1.00  0.00    -0.744 OA
ENDBRANCH  78  79
ENDBRANCH  46  71
BRANCH  58  83
ATOM     83  C   UNL     1       9.769  -1.765  15.469  1.00  0.00     0.058 A 
ATOM     84  C   UNL     1       9.010  -1.274  16.543  1.00  0.00     0.135 A 
ATOM     85  C   UNL     1      11.147  -1.950  15.675  1.00  0.00     0.135 A 
ATOM     86  F   UNL     1       7.690  -1.076  16.403  1.00  0.00    -0.206 F 
ATOM     87  C   UNL     1       9.599  -0.950  17.762  1.00  0.00     0.059 A 
ATOM     88  C   UNL     1      11.751  -1.664  16.896  1.00  0.00     0.059 A 
ATOM     89  F   UNL     1      11.920  -2.431  14.688  1.00  0.00    -0.206 F 
ATOM     90  C   UNL     1      10.971  -1.149  17.929  1.00  0.00     0.060 A 
BRANCH  90  91
ATOM     91  S   UNL     1      11.717  -0.745  19.522  1.00  0.00     0.124 S 
ATOM     92  O   UNL     1      11.685   0.714  19.500  1.00  0.00    -0.237 OA
ATOM     93  O   UNL     1      10.806  -1.385  20.465  1.00  0.00    -0.237 OA
ATOM     94  O   UNL     1      13.046  -1.344  19.438  1.00  0.00    -0.744 OA
ENDBRANCH  90  91
ENDBRANCH  58  83
ENDBRANCH  32  33
ENDBRANCH  25  27
ENDBRANCH  24  25
ENDBRANCH  23  24
ENDBRANCH  22  23
ENDBRANCH  21  22
ENDBRANCH  20  21
ENDBRANCH  19  20
ENDBRANCH  18  19
ENDBRANCH   1  18
TORSDOF 27
