REMARK SMILES C/C(C(=O)NCc1cscc1C)=C(\C)C(=O)OCCOCCOCCOCCOC(=O)c1ccc(-c2c3nc(c(-c4c(F)cc(S(=O)(=O)[O-])cc4F)c4ccc([nH]4)c(-c4c(F)cc(S(=O)(=O)[O-])cc4F)c4nc(c(-c5c(F)cc(S(=O)(=O)[O-])cc5F)c5ccc2[nH]5)C=C4)C=C3)cc1
REMARK SMILES IDX 23 1 22 2 21 3 20 4 19 5 18 6 17 7 15 8 16 9 13 10 1 11 2 12
REMARK SMILES IDX 14 13 3 14 4 15 5 16 6 18 7 19 8 20 11 21 9 22 10 23 12 24
REMARK SMILES IDX 24 25 25 26 26 27 27 28 28 29 29 30 30 31 31 32 32 33 33 34
REMARK SMILES IDX 97 35 34 36 96 37 35 38 36 39 37 40 90 41 38 42 95 43 89 44
REMARK SMILES IDX 91 45 39 46 94 47 88 48 87 49 40 51 74 52 53 53 73 54 54 55
REMARK SMILES IDX 57 56 72 57 92 58 55 59 56 60 71 62 93 63 58 64 41 65 42 66
REMARK SMILES IDX 51 67 43 68 44 69 50 70 52 71 45 72 46 73 47 74 48 75 49 76
REMARK SMILES IDX 75 77 76 78 85 79 77 80 78 81 84 82 86 83 79 84 80 85 81 86
REMARK SMILES IDX 82 87 83 88 59 89 60 90 69 91 61 92 62 93 68 94 70 95 63 96
REMARK SMILES IDX 64 97 65 98 66 99 67 100
REMARK H PARENT 5 17 91 50 57 61
REMARK Flexibility Score: inf
ROOT
ATOM      1  O   UNL     1       2.765   4.475   2.848  1.00  0.00    -0.377 OA
ENDROOT
BRANCH   1   2
ATOM      2  C   UNL     1       1.895   4.142   1.779  1.00  0.00     0.188 C 
BRANCH   2   3
ATOM      3  C   UNL     1       0.500   4.785   1.672  1.00  0.00     0.188 C 
BRANCH   3   4
ATOM      4  O   UNL     1       0.040   5.467   2.835  1.00  0.00    -0.376 OA
BRANCH   4   5
ATOM      5  C   UNL     1      -1.108   4.890   3.453  1.00  0.00     0.202 C 
BRANCH   5   6
ATOM      6  C   UNL     1      -0.747   3.702   4.340  1.00  0.00     0.261 C 
BRANCH   6   7
ATOM      7  O   UNL     1      -0.096   2.668   3.589  1.00  0.00    -0.460 OA
BRANCH   7   8
ATOM      8  C   UNL     1      -0.860   1.754   2.945  1.00  0.00     0.334 C 
ATOM      9  O   UNL     1      -2.067   1.614   3.007  1.00  0.00    -0.247 OA
BRANCH   8  10
ATOM     10  C   UNL     1       0.096   0.880   2.200  1.00  0.00     0.042 C 
ATOM     11  C   UNL     1       1.298   0.059   0.199  1.00  0.00     0.051 C 
ATOM     12  C   UNL     1       0.146   0.781   0.844  1.00  0.00     0.024 C 
ATOM     13  C   UNL     1       1.069   0.212   3.141  1.00  0.00     0.053 C 
BRANCH  12  14
ATOM     14  C   UNL     1      -0.797   1.563  -0.033  1.00  0.00     0.247 C 
ATOM     15  O   UNL     1      -1.467   2.497   0.404  1.00  0.00    -0.270 OA
ATOM     16  N   UNL     1      -0.922   1.355  -1.367  1.00  0.00    -0.348 N 
ATOM     17  H   UNL     1      -1.297   2.125  -1.852  1.00  0.00     0.164 HD
BRANCH  16  18
ATOM     18  C   UNL     1      -0.616   0.232  -2.221  1.00  0.00     0.153 C 
BRANCH  18  19
ATOM     19  C   UNL     1       0.489   0.544  -3.198  1.00  0.00    -0.015 A 
ATOM     20  C   UNL     1       0.966   1.807  -3.513  1.00  0.00     0.070 A 
ATOM     21  C   UNL     1       1.189  -0.468  -3.969  1.00  0.00    -0.035 A 
ATOM     22  S   UNL     1       2.212   1.791  -4.679  1.00  0.00    -0.152 S 
ATOM     23  C   UNL     1       2.142   0.094  -4.800  1.00  0.00     0.068 A 
ATOM     24  C   UNL     1       0.938  -1.941  -3.911  1.00  0.00     0.045 C 
ENDBRANCH  18  19
ENDBRANCH  16  18
ENDBRANCH  12  14
ENDBRANCH   8  10
ENDBRANCH   7   8
ENDBRANCH   6   7
ENDBRANCH   5   6
ENDBRANCH   4   5
ENDBRANCH   3   4
ENDBRANCH   2   3
ENDBRANCH   1   2
BRANCH   1  25
ATOM     25  C   UNL     1       2.727   5.788   3.388  1.00  0.00     0.188 C 
BRANCH  25  26
ATOM     26  C   UNL     1       2.550   6.985   2.433  1.00  0.00     0.188 C 
BRANCH  26  27
ATOM     27  O   UNL     1       2.677   6.668   1.050  1.00  0.00    -0.376 OA
BRANCH  27  28
ATOM     28  C   UNL     1       3.878   7.082   0.417  1.00  0.00     0.202 C 
BRANCH  28  29
ATOM     29  C   UNL     1       5.111   6.255   0.799  1.00  0.00     0.261 C 
BRANCH  29  30
ATOM     30  O   UNL     1       5.506   6.355   2.175  1.00  0.00    -0.460 OA
BRANCH  30  31
ATOM     31  C   UNL     1       5.816   7.585   2.641  1.00  0.00     0.338 C 
ATOM     32  O   UNL     1       5.852   8.627   2.013  1.00  0.00    -0.246 OA
BRANCH  31  33
ATOM     33  C   UNL     1       5.930   7.485   4.107  1.00  0.00     0.060 A 
ATOM     34  C   UNL     1       5.112   8.292   4.908  1.00  0.00     0.016 A 
ATOM     35  C   UNL     1       6.831   6.586   4.682  1.00  0.00     0.016 A 
ATOM     36  C   UNL     1       5.221   8.226   6.296  1.00  0.00     0.010 A 
ATOM     37  C   UNL     1       6.955   6.537   6.070  1.00  0.00     0.010 A 
ATOM     38  C   UNL     1       6.175   7.381   6.879  1.00  0.00    -0.014 A 
BRANCH  38  39
ATOM     39  C   UNL     1       6.518   7.539   8.310  1.00  0.00     0.031 A 
ATOM     40  C   UNL     1       7.666   8.445   8.661  1.00  0.00     0.074 A 
ATOM     41  C   UNL     1       5.835   6.894   9.272  1.00  0.00     0.049 A 
ATOM     42  N   UNL     1       8.188   8.710   9.829  1.00  0.00    -0.248 NA
ATOM     43  C   UNL     1       8.317   9.142   7.537  1.00  0.00     0.031 C 
ATOM     44  C   UNL     1       4.694   6.007   9.052  1.00  0.00     0.029 A 
ATOM     45  N   UNL     1       6.019   6.878  10.632  1.00  0.00    -0.354 N 
ATOM     46  C   UNL     1       9.229   9.597   9.582  1.00  0.00     0.074 A 
ATOM     47  C   UNL     1       9.283   9.806   8.152  1.00  0.00     0.031 C 
ATOM     48  C   UNL     1       4.291   5.516  10.238  1.00  0.00     0.029 A 
ATOM     49  C   UNL     1       5.160   6.036  11.294  1.00  0.00     0.049 A 
ATOM     50  H   UNL     1       6.703   7.419  11.089  1.00  0.00     0.167 HD
ATOM     51  C   UNL     1      10.061  10.189  10.469  1.00  0.00     0.037 A 
ATOM     52  C   UNL     1       5.099   5.709  12.601  1.00  0.00     0.037 A 
ATOM     53  C   UNL     1      10.006   9.974  11.889  1.00  0.00     0.049 A 
ATOM     54  C   UNL     1       6.068   6.346  13.566  1.00  0.00     0.074 A 
ATOM     55  C   UNL     1      10.789  10.544  12.877  1.00  0.00     0.029 A 
ATOM     56  N   UNL     1       9.124   9.111  12.523  1.00  0.00    -0.354 N 
ATOM     57  N   UNL     1       7.022   7.215  13.326  1.00  0.00    -0.248 NA
ATOM     58  C   UNL     1       5.948   5.964  14.980  1.00  0.00     0.031 C 
ATOM     59  C   UNL     1      10.410   9.992  14.105  1.00  0.00     0.029 A 
ATOM     60  C   UNL     1       9.358   9.116  13.888  1.00  0.00     0.049 A 
ATOM     61  H   UNL     1       8.434   8.575  12.070  1.00  0.00     0.167 HD
ATOM     62  C   UNL     1       7.597   7.503  14.561  1.00  0.00     0.074 A 
ATOM     63  C   UNL     1       6.877   6.722  15.546  1.00  0.00     0.031 C 
ATOM     64  C   UNL     1       8.624   8.338  14.854  1.00  0.00     0.037 A 
BRANCH  51  65
ATOM     65  C   UNL     1      11.117  11.106   9.922  1.00  0.00     0.058 A 
ATOM     66  C   UNL     1      10.800  12.375   9.411  1.00  0.00     0.135 A 
ATOM     67  C   UNL     1      12.466  10.719   9.929  1.00  0.00     0.135 A 
ATOM     68  F   UNL     1       9.523  12.783   9.358  1.00  0.00    -0.206 F 
ATOM     69  C   UNL     1      11.784  13.221   8.908  1.00  0.00     0.059 A 
ATOM     70  C   UNL     1      13.469  11.559   9.455  1.00  0.00     0.059 A 
ATOM     71  F   UNL     1      12.820   9.512  10.398  1.00  0.00    -0.206 F 
ATOM     72  C   UNL     1      13.116  12.803   8.935  1.00  0.00     0.060 A 
BRANCH  72  73
ATOM     73  S   UNL     1      14.382  13.917   8.291  1.00  0.00     0.124 S 
ATOM     74  O   UNL     1      14.156  13.815   6.853  1.00  0.00    -0.237 OA
ATOM     75  O   UNL     1      14.017  15.191   8.901  1.00  0.00    -0.237 OA
ATOM     76  O   UNL     1      15.628  13.329   8.774  1.00  0.00    -0.744 OA
ENDBRANCH  72  73
ENDBRANCH  51  65
BRANCH  52  77
ATOM     77  C   UNL     1       4.096   4.719  13.077  1.00  0.00     0.058 A 
ATOM     78  C   UNL     1       3.014   5.108  13.880  1.00  0.00     0.135 A 
ATOM     79  C   UNL     1       4.208   3.359  12.745  1.00  0.00     0.135 A 
ATOM     80  F   UNL     1       2.871   6.394  14.235  1.00  0.00    -0.206 F 
ATOM     81  C   UNL     1       2.087   4.183  14.352  1.00  0.00     0.059 A 
ATOM     82  C   UNL     1       3.280   2.420  13.185  1.00  0.00     0.059 A 
ATOM     83  F   UNL     1       5.220   2.936  11.973  1.00  0.00    -0.206 F 
ATOM     84  C   UNL     1       2.229   2.841  13.998  1.00  0.00     0.060 A 
BRANCH  84  85
ATOM     85  S   UNL     1       0.997   1.654  14.579  1.00  0.00     0.124 S 
ATOM     86  O   UNL     1       1.363   1.516  15.984  1.00  0.00    -0.237 OA
ATOM     87  O   UNL     1      -0.255   2.354  14.311  1.00  0.00    -0.237 OA
ATOM     88  O   UNL     1       1.242   0.481  13.745  1.00  0.00    -0.744 OA
ENDBRANCH  84  85
ENDBRANCH  52  77
BRANCH  64  89
ATOM     89  C   UNL     1       9.012   8.484  16.300  1.00  0.00     0.058 A 
ATOM     90  C   UNL     1       9.702   7.473  16.986  1.00  0.00     0.135 A 
ATOM     91  C   UNL     1       8.740   9.678  16.989  1.00  0.00     0.135 A 
ATOM     92  F   UNL     1       9.983   6.312  16.374  1.00  0.00    -0.206 F 
ATOM     93  C   UNL     1      10.089   7.631  18.313  1.00  0.00     0.059 A 
ATOM     94  C   UNL     1       9.141   9.867  18.308  1.00  0.00     0.059 A 
ATOM     95  F   UNL     1       8.095  10.682  16.375  1.00  0.00    -0.206 F 
ATOM     96  C   UNL     1       9.804   8.832  18.966  1.00  0.00     0.060 A 
BRANCH  96  97
ATOM     97  S   UNL     1      10.339   9.037  20.678  1.00  0.00     0.124 S 
ATOM     98  O   UNL     1       9.362   8.221  21.390  1.00  0.00    -0.237 OA
ATOM     99  O   UNL     1      11.701   8.514  20.647  1.00  0.00    -0.237 OA
ATOM    100  O   UNL     1      10.233  10.477  20.896  1.00  0.00    -0.744 OA
ENDBRANCH  96  97
ENDBRANCH  64  89
ENDBRANCH  38  39
ENDBRANCH  31  33
ENDBRANCH  30  31
ENDBRANCH  29  30
ENDBRANCH  28  29
ENDBRANCH  27  28
ENDBRANCH  26  27
ENDBRANCH  25  26
ENDBRANCH   1  25
TORSDOF 26
