REMARK SMILES Cn1ncc(C(=O)OCCOCCOCCOCCOC(=O)c2ccc(-c3c4nc(c(-c5c(F)cc(S(=O)(=O)[O-])cc5F)c5ccc([nH]5)c(-c5c(F)cc(S(=O)(=O)[O-])cc5F)c5nc(c(-c6c(F)cc(S(=O)(=O)[O-])cc6F)c6ccc3[nH]6)C=C5)C=C4)cc2)c1NS(=O)(=O)[C@@H]1CCS(=O)(=O)C1
REMARK SMILES IDX 14 1 13 2 12 3 11 4 10 5 9 6 8 7 6 8 7 9 5 10 1 11 2 12 3 13
REMARK SMILES IDX 89 14 4 15 90 16 91 18 92 19 93 20 94 21 95 22 100 23 96 24
REMARK SMILES IDX 97 25 98 26 99 27 15 28 16 29 17 30 18 31 19 32 20 33 21 34
REMARK SMILES IDX 22 35 23 36 24 37 88 38 25 39 87 40 26 41 27 42 28 43 81 44
REMARK SMILES IDX 29 45 86 46 80 47 82 48 30 49 85 50 79 51 78 52 31 54 65 55
REMARK SMILES IDX 44 56 64 57 45 58 48 59 63 60 83 61 46 62 47 63 62 65 84 66
REMARK SMILES IDX 49 67 32 68 33 69 42 70 34 71 35 72 41 73 43 74 36 75 37 76
REMARK SMILES IDX 38 77 39 78 40 79 66 80 67 81 76 82 68 83 69 84 75 85 77 86
REMARK SMILES IDX 70 87 71 88 72 89 73 90 74 91 50 92 51 93 60 94 52 95 53 96
REMARK SMILES IDX 59 97 61 98 54 99 55 100 56 101 57 102 58 103
REMARK H PARENT 90 17 82 53 48 64
REMARK Flexibility Score: inf
ROOT
ATOM      1  O   UNL     1       3.295  -2.123  -3.412  1.00  0.00    -0.377 OA
ENDROOT
BRANCH   1   2
ATOM      2  C   UNL     1       3.249  -1.075  -2.469  1.00  0.00     0.188 C 
BRANCH   2   3
ATOM      3  C   UNL     1       4.464  -0.461  -1.770  1.00  0.00     0.188 C 
BRANCH   3   4
ATOM      4  O   UNL     1       5.552  -1.279  -1.383  1.00  0.00    -0.376 OA
BRANCH   4   5
ATOM      5  C   UNL     1       5.416  -2.278  -0.380  1.00  0.00     0.202 C 
BRANCH   5   6
ATOM      6  C   UNL     1       4.734  -1.893   0.928  1.00  0.00     0.261 C 
BRANCH   6   7
ATOM      7  O   UNL     1       3.331  -1.703   0.656  1.00  0.00    -0.460 OA
BRANCH   7   8
ATOM      8  C   UNL     1       2.627  -0.950   1.534  1.00  0.00     0.343 C 
ATOM      9  O   UNL     1       3.087  -0.480   2.564  1.00  0.00    -0.246 OA
BRANCH   8  10
ATOM     10  C   UNL     1       1.359  -0.542   0.979  1.00  0.00     0.123 A 
ATOM     11  C   UNL     1      -2.079  -0.068  -0.047  1.00  0.00     0.176 C 
ATOM     12  N   UNL     1      -0.668  -0.076   0.276  1.00  0.00    -0.251 N 
ATOM     13  N   UNL     1       0.003   1.064   0.072  1.00  0.00    -0.179 NA
ATOM     14  C   UNL     1       0.107  -1.126   0.769  1.00  0.00     0.152 A 
ATOM     15  C   UNL     1       1.212   0.800   0.540  1.00  0.00     0.153 A 
BRANCH  14  16
ATOM     16  N   UNL     1      -0.480  -2.376   0.985  1.00  0.00    -0.267 N 
ATOM     17  H   UNL     1      -1.457  -2.302   1.083  1.00  0.00     0.181 HD
BRANCH  16  18
ATOM     18  S   UNL     1       0.013  -3.921   1.118  1.00  0.00     0.237 S 
ATOM     19  O   UNL     1       0.015  -4.263   2.522  1.00  0.00    -0.206 OA
ATOM     20  O   UNL     1      -0.819  -4.666   0.197  1.00  0.00    -0.206 OA
BRANCH  18  21
ATOM     21  C   UNL     1       1.657  -4.111   0.551  1.00  0.00     0.145 C 
ATOM     22  C   UNL     1       1.823  -3.728  -0.915  1.00  0.00     0.039 C 
ATOM     23  C   UNL     1       2.220  -5.504   0.741  1.00  0.00     0.158 C 
ATOM     24  C   UNL     1       1.562  -4.933  -1.794  1.00  0.00     0.138 C 
ATOM     25  S   UNL     1       2.080  -6.317  -0.820  1.00  0.00     0.151 S 
ATOM     26  O   UNL     1       0.970  -7.242  -0.729  1.00  0.00    -0.229 OA
ATOM     27  O   UNL     1       3.410  -6.677  -1.241  1.00  0.00    -0.229 OA
ENDBRANCH  18  21
ENDBRANCH  16  18
ENDBRANCH  14  16
ENDBRANCH   8  10
ENDBRANCH   7   8
ENDBRANCH   6   7
ENDBRANCH   5   6
ENDBRANCH   4   5
ENDBRANCH   3   4
ENDBRANCH   2   3
ENDBRANCH   1   2
BRANCH   1  28
ATOM     28  C   UNL     1       4.373  -3.020  -3.572  1.00  0.00     0.188 C 
BRANCH  28  29
ATOM     29  C   UNL     1       5.576  -2.600  -4.429  1.00  0.00     0.188 C 
BRANCH  29  30
ATOM     30  O   UNL     1       5.440  -1.827  -5.615  1.00  0.00    -0.376 OA
BRANCH  30  31
ATOM     31  C   UNL     1       4.264  -1.075  -5.831  1.00  0.00     0.202 C 
BRANCH  31  32
ATOM     32  C   UNL     1       3.168  -1.827  -6.603  1.00  0.00     0.261 C 
BRANCH  32  33
ATOM     33  O   UNL     1       2.820  -3.135  -6.105  1.00  0.00    -0.460 OA
BRANCH  33  34
ATOM     34  C   UNL     1       3.473  -4.172  -6.693  1.00  0.00     0.338 C 
ATOM     35  O   UNL     1       4.339  -4.101  -7.547  1.00  0.00    -0.246 OA
BRANCH  34  36
ATOM     36  C   UNL     1       3.040  -5.465  -6.111  1.00  0.00     0.060 A 
ATOM     37  C   UNL     1       3.991  -6.267  -5.466  1.00  0.00     0.016 A 
ATOM     38  C   UNL     1       1.748  -5.952  -6.323  1.00  0.00     0.016 A 
ATOM     39  C   UNL     1       3.668  -7.571  -5.072  1.00  0.00     0.010 A 
ATOM     40  C   UNL     1       1.432  -7.266  -5.942  1.00  0.00     0.010 A 
ATOM     41  C   UNL     1       2.402  -8.103  -5.354  1.00  0.00    -0.014 A 
BRANCH  41  42
ATOM     42  C   UNL     1       2.146  -9.568  -5.203  1.00  0.00     0.031 A 
ATOM     43  C   UNL     1       2.171 -10.440  -6.424  1.00  0.00     0.074 A 
ATOM     44  C   UNL     1       1.911 -10.139  -4.007  1.00  0.00     0.049 A 
ATOM     45  N   UNL     1       1.914 -11.717  -6.530  1.00  0.00    -0.248 NA
ATOM     46  C   UNL     1       2.542  -9.790  -7.690  1.00  0.00     0.031 C 
ATOM     47  C   UNL     1       1.935  -9.424  -2.746  1.00  0.00     0.029 A 
ATOM     48  N   UNL     1       1.593 -11.427  -3.646  1.00  0.00    -0.354 N 
ATOM     49  C   UNL     1       2.095 -12.028  -7.870  1.00  0.00     0.074 A 
ATOM     50  C   UNL     1       2.443 -10.796  -8.546  1.00  0.00     0.031 C 
ATOM     51  C   UNL     1       1.599 -10.254  -1.746  1.00  0.00     0.029 A 
ATOM     52  C   UNL     1       1.321 -11.572  -2.302  1.00  0.00     0.049 A 
ATOM     53  H   UNL     1       1.563 -12.174  -4.286  1.00  0.00     0.167 HD
ATOM     54  C   UNL     1       1.997 -13.234  -8.476  1.00  0.00     0.037 A 
ATOM     55  C   UNL     1       0.878 -12.635  -1.599  1.00  0.00     0.037 A 
ATOM     56  C   UNL     1       1.647 -14.457  -7.800  1.00  0.00     0.049 A 
ATOM     57  C   UNL     1       0.674 -13.943  -2.314  1.00  0.00     0.074 A 
ATOM     58  C   UNL     1       1.535 -15.729  -8.334  1.00  0.00     0.029 A 
ATOM     59  N   UNL     1       1.342 -14.564  -6.450  1.00  0.00    -0.354 N 
ATOM     60  N   UNL     1       0.873 -14.225  -3.580  1.00  0.00    -0.248 NA
ATOM     61  C   UNL     1       0.201 -15.080  -1.512  1.00  0.00     0.031 C 
ATOM     62  C   UNL     1       1.101 -16.592  -7.322  1.00  0.00     0.029 A 
ATOM     63  C   UNL     1       1.008 -15.873  -6.142  1.00  0.00     0.049 A 
ATOM     64  H   UNL     1       1.360 -13.819  -5.807  1.00  0.00     0.167 HD
ATOM     65  C   UNL     1       0.585 -15.578  -3.717  1.00  0.00     0.074 A 
ATOM     66  C   UNL     1       0.207 -16.060  -2.405  1.00  0.00     0.031 C 
ATOM     67  C   UNL     1       0.636 -16.349  -4.832  1.00  0.00     0.037 A 
BRANCH  54  68
ATOM     68  C   UNL     1       2.244 -13.285  -9.957  1.00  0.00     0.058 A 
ATOM     69  C   UNL     1       3.527 -13.108 -10.500  1.00  0.00     0.135 A 
ATOM     70  C   UNL     1       1.187 -13.546 -10.843  1.00  0.00     0.135 A 
ATOM     71  F   UNL     1       4.569 -12.833  -9.699  1.00  0.00    -0.206 F 
ATOM     72  C   UNL     1       3.748 -13.165 -11.871  1.00  0.00     0.059 A 
ATOM     73  C   UNL     1       1.391 -13.638 -12.216  1.00  0.00     0.059 A 
ATOM     74  F   UNL     1      -0.060 -13.715 -10.376  1.00  0.00    -0.206 F 
ATOM     75  C   UNL     1       2.673 -13.434 -12.721  1.00  0.00     0.060 A 
BRANCH  75  76
ATOM     76  S   UNL     1       2.980 -13.514 -14.497  1.00  0.00     0.124 S 
ATOM     77  O   UNL     1       3.243 -12.112 -14.810  1.00  0.00    -0.237 OA
ATOM     78  O   UNL     1       4.132 -14.406 -14.572  1.00  0.00    -0.237 OA
ATOM     79  O   UNL     1       1.735 -14.053 -15.034  1.00  0.00    -0.744 OA
ENDBRANCH  75  76
ENDBRANCH  54  68
BRANCH  55  80
ATOM     80  C   UNL     1       0.587 -12.512  -0.141  1.00  0.00     0.058 A 
ATOM     81  C   UNL     1       1.363 -13.180   0.819  1.00  0.00     0.135 A 
ATOM     82  C   UNL     1      -0.491 -11.739   0.322  1.00  0.00     0.135 A 
ATOM     83  F   UNL     1       2.394 -13.946   0.431  1.00  0.00    -0.206 F 
ATOM     84  C   UNL     1       1.074 -13.101   2.179  1.00  0.00     0.059 A 
ATOM     85  C   UNL     1      -0.782 -11.621   1.679  1.00  0.00     0.059 A 
ATOM     86  F   UNL     1      -1.270 -11.079  -0.549  1.00  0.00    -0.206 F 
ATOM     87  C   UNL     1       0.001 -12.314   2.600  1.00  0.00     0.060 A 
BRANCH  87  88
ATOM     88  S   UNL     1      -0.331 -12.174   4.371  1.00  0.00     0.124 S 
ATOM     89  O   UNL     1      -0.842 -13.503   4.683  1.00  0.00    -0.237 OA
ATOM     90  O   UNL     1       0.990 -11.853   4.904  1.00  0.00    -0.237 OA
ATOM     91  O   UNL     1      -1.305 -11.089   4.446  1.00  0.00    -0.744 OA
ENDBRANCH  87  88
ENDBRANCH  55  80
BRANCH  67  92
ATOM     92  C   UNL     1       0.309 -17.811  -4.682  1.00  0.00     0.058 A 
ATOM     93  C   UNL     1      -0.999 -18.256  -4.436  1.00  0.00     0.135 A 
ATOM     94  C   UNL     1       1.312 -18.782  -4.841  1.00  0.00     0.135 A 
ATOM     95  F   UNL     1      -1.994 -17.371  -4.267  1.00  0.00    -0.206 F 
ATOM     96  C   UNL     1      -1.298 -19.611  -4.332  1.00  0.00     0.059 A 
ATOM     97  C   UNL     1       1.030 -20.142  -4.773  1.00  0.00     0.059 A 
ATOM     98  F   UNL     1       2.579 -18.412  -5.085  1.00  0.00    -0.206 F 
ATOM     99  C   UNL     1      -0.277 -20.547  -4.507  1.00  0.00     0.060 A 
BRANCH  99 100
ATOM    100  S   UNL     1      -0.688 -22.302  -4.408  1.00  0.00     0.124 S 
ATOM    101  O   UNL     1      -0.935 -22.465  -2.979  1.00  0.00    -0.237 OA
ATOM    102  O   UNL     1      -1.862 -22.394  -5.270  1.00  0.00    -0.237 OA
ATOM    103  O   UNL     1       0.511 -22.962  -4.917  1.00  0.00    -0.744 OA
ENDBRANCH  99 100
ENDBRANCH  67  92
ENDBRANCH  41  42
ENDBRANCH  34  36
ENDBRANCH  33  34
ENDBRANCH  32  33
ENDBRANCH  31  32
ENDBRANCH  30  31
ENDBRANCH  29  30
ENDBRANCH  28  29
ENDBRANCH   1  28
TORSDOF 26
