REMARK SMILES C[N@H+]1Cc2ccccc2C[C@@H]1C(=O)NCCC(=O)NCC(=O)OCCOCCOCCOCCOC(=O)c1ccc(-c2c3nc(c(-c4c(F)cc(S(=O)(=O)[O-])cc4F)c4ccc([nH]4)c(-c4c(F)cc(S(=O)(=O)[O-])cc4F)c4nc(c(-c5c(F)cc(S(=O)(=O)[O-])cc5F)c5ccc2[nH]5)C=C4)C=C3)cc1
REMARK SMILES IDX 28 1 27 2 26 3 25 4 24 5 23 6 21 7 22 8 20 9 19 10 17 11
REMARK SMILES IDX 18 12 16 14 15 15 14 16 12 17 13 18 11 20 1 21 2 22 3 23
REMARK SMILES IDX 4 25 10 26 5 27 9 28 6 29 8 30 7 31 29 32 30 33 31 34 32 35
REMARK SMILES IDX 33 36 34 37 35 38 36 39 37 40 38 41 39 42 103 43 40 44
REMARK SMILES IDX 102 45 41 46 42 47 43 48 96 49 44 50 101 51 95 52 97 53
REMARK SMILES IDX 45 54 100 55 94 56 93 57 46 59 80 60 59 61 79 62 60 63 63 64
REMARK SMILES IDX 78 65 98 66 61 67 62 68 77 70 99 71 64 72 47 73 48 74 57 75
REMARK SMILES IDX 49 76 50 77 56 78 58 79 51 80 52 81 53 82 54 83 55 84 81 85
REMARK SMILES IDX 82 86 91 87 83 88 84 89 90 90 92 91 85 92 86 93 87 94 88 95
REMARK SMILES IDX 89 96 65 97 66 98 75 99 67 100 68 101 74 102 76 103 69 104
REMARK SMILES IDX 70 105 71 106 72 107 73 108
REMARK H PARENT 19 13 14 19 2 24 97 58 63 69
REMARK Flexibility Score: inf
ROOT
ATOM      1  C   UNL     1      -7.725   4.372   0.919  1.00  0.00     0.188 C 
ENDROOT
BRANCH   1   2
ATOM      2  C   UNL     1      -8.290   3.113   0.237  1.00  0.00     0.188 C 
BRANCH   2   3
ATOM      3  O   UNL     1      -8.321   1.859   0.903  1.00  0.00    -0.376 OA
BRANCH   3   4
ATOM      4  C   UNL     1      -7.271   1.465   1.772  1.00  0.00     0.202 C 
BRANCH   4   5
ATOM      5  C   UNL     1      -5.806   1.564   1.331  1.00  0.00     0.261 C 
BRANCH   5   6
ATOM      6  O   UNL     1      -5.393   2.788   0.699  1.00  0.00    -0.462 OA
BRANCH   6   7
ATOM      7  C   UNL     1      -5.279   2.783  -0.657  1.00  0.00     0.325 C 
ATOM      8  O   UNL     1      -5.507   1.799  -1.357  1.00  0.00    -0.250 OA
BRANCH   7   9
ATOM      9  C   UNL     1      -4.971   4.178  -1.254  1.00  0.00     0.238 C 
BRANCH   9  10
ATOM     10  N   UNL     1      -4.733   5.343  -0.396  1.00  0.00    -0.345 N 
ATOM     11  C   UNL     1      -3.591   5.881   0.086  1.00  0.00     0.222 C 
ATOM     12  O   UNL     1      -3.666   6.932   0.727  1.00  0.00    -0.275 OA
ATOM     13  H   UNL     1      -5.551   5.819  -0.123  1.00  0.00     0.164 HD
BRANCH  11  14
ATOM     14  C   UNL     1      -2.270   5.217  -0.151  1.00  0.00     0.121 C 
BRANCH  14  15
ATOM     15  C   UNL     1      -2.023   4.154   0.905  1.00  0.00     0.126 C 
BRANCH  15  16
ATOM     16  N   UNL     1      -2.553   2.828   0.617  1.00  0.00    -0.350 N 
ATOM     17  C   UNL     1      -2.212   2.155  -0.534  1.00  0.00     0.278 C 
ATOM     18  O   UNL     1      -2.511   2.577  -1.652  1.00  0.00    -0.268 OA
ATOM     19  H   UNL     1      -3.169   2.405   1.258  1.00  0.00     0.163 HD
BRANCH  17  20
ATOM     20  C   UNL     1      -1.258   0.982  -0.412  1.00  0.00     0.278 C 
ATOM     21  C   UNL     1      -3.017  -0.690  -0.128  1.00  0.00     0.333 C 
ATOM     22  N   UNL     1      -1.722  -0.201   0.349  1.00  0.00    -0.323 N 
ATOM     23  C   UNL     1      -0.714  -1.285   0.147  1.00  0.00     0.299 C 
ATOM     24  H   UNL     1      -1.827   0.060   1.330  1.00  0.00     0.348 HD
ATOM     25  C   UNL     1       0.743  -0.842   0.160  1.00  0.00     0.010 A 
ATOM     26  C   UNL     1       0.006   1.538   0.247  1.00  0.00     0.111 C 
ATOM     27  C   UNL     1       1.770  -1.785   0.057  1.00  0.00     0.010 A 
ATOM     28  C   UNL     1       1.092   0.518   0.179  1.00  0.00    -0.033 A 
ATOM     29  C   UNL     1       3.106  -1.374  -0.005  1.00  0.00     0.001 A 
ATOM     30  C   UNL     1       2.427   0.929   0.144  1.00  0.00     0.004 A 
ATOM     31  C   UNL     1       3.434  -0.020   0.043  1.00  0.00     0.000 A 
ENDBRANCH  17  20
ENDBRANCH  15  16
ENDBRANCH  14  15
ENDBRANCH  11  14
ENDBRANCH   9  10
ENDBRANCH   7   9
ENDBRANCH   6   7
ENDBRANCH   5   6
ENDBRANCH   4   5
ENDBRANCH   3   4
ENDBRANCH   2   3
ENDBRANCH   1   2
BRANCH   1  32
ATOM     32  O   UNL     1      -7.099   4.165   2.168  1.00  0.00    -0.377 OA
BRANCH  32  33
ATOM     33  C   UNL     1      -7.898   4.400   3.321  1.00  0.00     0.188 C 
BRANCH  33  34
ATOM     34  C   UNL     1      -9.379   3.977   3.242  1.00  0.00     0.188 C 
BRANCH  34  35
ATOM     35  O   UNL     1     -10.057   4.429   2.078  1.00  0.00    -0.376 OA
BRANCH  35  36
ATOM     36  C   UNL     1     -10.773   5.654   2.094  1.00  0.00     0.202 C 
BRANCH  36  37
ATOM     37  C   UNL     1     -10.037   6.963   2.432  1.00  0.00     0.261 C 
BRANCH  37  38
ATOM     38  O   UNL     1      -9.328   7.008   3.676  1.00  0.00    -0.460 OA
BRANCH  38  39
ATOM     39  C   UNL     1     -10.016   6.738   4.803  1.00  0.00     0.338 C 
ATOM     40  O   UNL     1     -11.216   6.525   4.894  1.00  0.00    -0.246 OA
BRANCH  39  41
ATOM     41  C   UNL     1      -9.039   6.522   5.888  1.00  0.00     0.060 A 
ATOM     42  C   UNL     1      -9.058   5.304   6.582  1.00  0.00     0.016 A 
ATOM     43  C   UNL     1      -8.111   7.512   6.221  1.00  0.00     0.016 A 
ATOM     44  C   UNL     1      -8.187   5.094   7.648  1.00  0.00     0.010 A 
ATOM     45  C   UNL     1      -7.259   7.313   7.310  1.00  0.00     0.010 A 
ATOM     46  C   UNL     1      -7.327   6.121   8.054  1.00  0.00    -0.014 A 
BRANCH  46  47
ATOM     47  C   UNL     1      -6.697   6.047   9.393  1.00  0.00     0.031 A 
ATOM     48  C   UNL     1      -7.381   6.761  10.529  1.00  0.00     0.074 A 
ATOM     49  C   UNL     1      -5.577   5.335   9.606  1.00  0.00     0.049 A 
ATOM     50  N   UNL     1      -7.005   6.896  11.772  1.00  0.00    -0.248 NA
ATOM     51  C   UNL     1      -8.667   7.411  10.216  1.00  0.00     0.031 C 
ATOM     52  C   UNL     1      -4.862   4.557   8.597  1.00  0.00     0.029 A 
ATOM     53  N   UNL     1      -4.841   5.160  10.751  1.00  0.00    -0.354 N 
ATOM     54  C   UNL     1      -7.999   7.649  12.386  1.00  0.00     0.074 A 
ATOM     55  C   UNL     1      -8.979   7.971  11.374  1.00  0.00     0.031 C 
ATOM     56  C   UNL     1      -3.778   3.999   9.165  1.00  0.00     0.029 A 
ATOM     57  C   UNL     1      -3.704   4.411  10.566  1.00  0.00     0.049 A 
ATOM     58  H   UNL     1      -5.104   5.534  11.623  1.00  0.00     0.167 HD
ATOM     59  C   UNL     1      -8.091   8.029  13.682  1.00  0.00     0.037 A 
ATOM     60  C   UNL     1      -2.706   4.120  11.426  1.00  0.00     0.037 A 
ATOM     61  C   UNL     1      -7.110   7.704  14.682  1.00  0.00     0.049 A 
ATOM     62  C   UNL     1      -2.789   4.630  12.845  1.00  0.00     0.074 A 
ATOM     63  C   UNL     1      -7.107   8.041  16.024  1.00  0.00     0.029 A 
ATOM     64  N   UNL     1      -5.956   6.970  14.450  1.00  0.00    -0.354 N 
ATOM     65  N   UNL     1      -3.736   5.335  13.417  1.00  0.00    -0.248 NA
ATOM     66  C   UNL     1      -1.668   4.301  13.737  1.00  0.00     0.031 C 
ATOM     67  C   UNL     1      -5.924   7.559  16.591  1.00  0.00     0.029 A 
ATOM     68  C   UNL     1      -5.222   6.863  15.619  1.00  0.00     0.049 A 
ATOM     69  H   UNL     1      -5.697   6.584  13.582  1.00  0.00     0.167 HD
ATOM     70  C   UNL     1      -3.344   5.498  14.743  1.00  0.00     0.074 A 
ATOM     71  C   UNL     1      -2.079   4.810  14.890  1.00  0.00     0.031 C 
ATOM     72  C   UNL     1      -3.974   6.154  15.751  1.00  0.00     0.037 A 
BRANCH  59  73
ATOM     73  C   UNL     1      -9.278   8.859  14.087  1.00  0.00     0.058 A 
ATOM     74  C   UNL     1     -10.572   8.317  14.158  1.00  0.00     0.135 A 
ATOM     75  C   UNL     1      -9.111  10.203  14.457  1.00  0.00     0.135 A 
ATOM     76  F   UNL     1     -10.793   7.044  13.791  1.00  0.00    -0.206 F 
ATOM     77  C   UNL     1     -11.659   9.081  14.569  1.00  0.00     0.059 A 
ATOM     78  C   UNL     1     -10.179  10.978  14.901  1.00  0.00     0.059 A 
ATOM     79  F   UNL     1      -7.898  10.775  14.399  1.00  0.00    -0.206 F 
ATOM     80  C   UNL     1     -11.450  10.409  14.946  1.00  0.00     0.060 A 
BRANCH  80  81
ATOM     81  S   UNL     1     -12.867  11.375  15.509  1.00  0.00     0.124 S 
ATOM     82  O   UNL     1     -13.618  11.543  14.269  1.00  0.00    -0.237 OA
ATOM     83  O   UNL     1     -13.470  10.491  16.501  1.00  0.00    -0.237 OA
ATOM     84  O   UNL     1     -12.260  12.591  16.043  1.00  0.00    -0.744 OA
ENDBRANCH  80  81
ENDBRANCH  59  73
BRANCH  60  85
ATOM     85  C   UNL     1      -1.529   3.327  10.975  1.00  0.00     0.058 A 
ATOM     86  C   UNL     1      -1.266   2.053  11.500  1.00  0.00     0.135 A 
ATOM     87  C   UNL     1      -0.622   3.843  10.036  1.00  0.00     0.135 A 
ATOM     88  F   UNL     1      -2.095   1.517  12.408  1.00  0.00    -0.206 F 
ATOM     89  C   UNL     1      -0.131   1.333  11.137  1.00  0.00     0.059 A 
ATOM     90  C   UNL     1       0.502   3.130   9.633  1.00  0.00     0.059 A 
ATOM     91  F   UNL     1      -0.830   5.053   9.493  1.00  0.00    -0.206 F 
ATOM     92  C   UNL     1       0.748   1.882  10.202  1.00  0.00     0.060 A 
BRANCH  92  93
ATOM     93  S   UNL     1       2.208   0.932   9.726  1.00  0.00     0.124 S 
ATOM     94  O   UNL     1       3.024   1.023  10.931  1.00  0.00    -0.237 OA
ATOM     95  O   UNL     1       1.637  -0.380   9.437  1.00  0.00    -0.237 OA
ATOM     96  O   UNL     1       2.715   1.657   8.564  1.00  0.00    -0.744 OA
ENDBRANCH  92  93
ENDBRANCH  60  85
BRANCH  72  97
ATOM     97  C   UNL     1      -3.342   6.110  17.117  1.00  0.00     0.058 A 
ATOM     98  C   UNL     1      -2.161   6.806  17.415  1.00  0.00     0.135 A 
ATOM     99  C   UNL     1      -3.966   5.404  18.160  1.00  0.00     0.135 A 
ATOM    100  F   UNL     1      -1.521   7.494  16.456  1.00  0.00    -0.206 F 
ATOM    101  C   UNL     1      -1.605   6.780  18.690  1.00  0.00     0.059 A 
ATOM    102  C   UNL     1      -3.447   5.393  19.450  1.00  0.00     0.059 A 
ATOM    103  F   UNL     1      -5.106   4.731  17.934  1.00  0.00    -0.206 F 
ATOM    104  C   UNL     1      -2.257   6.073  19.703  1.00  0.00     0.060 A 
BRANCH 104 105
ATOM    105  S   UNL     1      -1.541   6.076  21.359  1.00  0.00     0.124 S 
ATOM    106  O   UNL     1      -0.372   5.222  21.176  1.00  0.00    -0.237 OA
ATOM    107  O   UNL     1      -1.264   7.492  21.577  1.00  0.00    -0.237 OA
ATOM    108  O   UNL     1      -2.603   5.515  22.191  1.00  0.00    -0.744 OA
ENDBRANCH 104 105
ENDBRANCH  72  97
ENDBRANCH  46  47
ENDBRANCH  39  41
ENDBRANCH  38  39
ENDBRANCH  37  38
ENDBRANCH  36  37
ENDBRANCH  35  36
ENDBRANCH  34  35
ENDBRANCH  33  34
ENDBRANCH  32  33
ENDBRANCH   1  32
TORSDOF 28
