REMARK SMILES COc1ccc(C(=O)N(C)C)cc1NC(=O)[C@H]1[C@@H](C(=O)OCCOCCOCCOCCOC(=O)c2ccc(-c3c4nc(c(-c5c(F)cc(S(=O)(=O)[O-])cc5F)c5ccc([nH]5)c(-c5c(F)cc(S(=O)(=O)[O-])cc5F)c5nc(c(-c6c(F)cc(S(=O)(=O)[O-])cc6F)c6ccc3[nH]6)C=C5)C=C4)cc2)[C@H]2C=C[C@@H]1C2
REMARK SMILES IDX 27 1 26 2 25 3 24 4 23 5 22 6 21 7 19 8 20 9 18 10 17 11
REMARK SMILES IDX 105 12 102 13 104 14 106 15 103 16 15 17 14 18 16 20 13 21
REMARK SMILES IDX 3 22 4 23 5 24 12 25 6 26 2 27 1 28 7 29 8 30 9 31 10 32
REMARK SMILES IDX 11 33 28 34 29 35 30 36 31 37 32 38 33 39 34 40 35 41 36 42
REMARK SMILES IDX 37 43 101 44 38 45 100 46 39 47 40 48 41 49 94 50 42 51
REMARK SMILES IDX 99 52 93 53 95 54 43 55 98 56 92 57 91 58 44 60 78 61 57 62
REMARK SMILES IDX 77 63 58 64 61 65 76 66 96 67 59 68 60 69 75 71 97 72 62 73
REMARK SMILES IDX 45 74 46 75 55 76 47 77 48 78 54 79 56 80 49 81 50 82 51 83
REMARK SMILES IDX 52 84 53 85 79 86 80 87 89 88 81 89 82 90 88 91 90 92 83 93
REMARK SMILES IDX 84 94 85 95 86 96 87 97 63 98 64 99 73 100 65 101 66 102
REMARK SMILES IDX 72 103 74 104 67 105 68 106 69 107 70 108 71 109
REMARK H PARENT 14 19 95 59 61 70
REMARK Flexibility Score: inf
ROOT
ATOM      1  O   UNL     1       7.411  -0.141  -4.115  1.00  0.00    -0.377 OA
ENDROOT
BRANCH   1   2
ATOM      2  C   UNL     1       6.253   0.669  -4.072  1.00  0.00     0.188 C 
BRANCH   2   3
ATOM      3  C   UNL     1       6.194   1.957  -4.925  1.00  0.00     0.188 C 
BRANCH   3   4
ATOM      4  O   UNL     1       7.330   2.165  -5.751  1.00  0.00    -0.376 OA
BRANCH   4   5
ATOM      5  C   UNL     1       8.285   3.115  -5.291  1.00  0.00     0.202 C 
BRANCH   5   6
ATOM      6  C   UNL     1       8.804   3.002  -3.843  1.00  0.00     0.261 C 
BRANCH   6   7
ATOM      7  O   UNL     1       7.779   2.546  -2.933  1.00  0.00    -0.463 OA
BRANCH   7   8
ATOM      8  C   UNL     1       7.456   3.245  -1.825  1.00  0.00     0.310 C 
ATOM      9  O   UNL     1       8.098   4.217  -1.480  1.00  0.00    -0.252 OA
BRANCH   8  10
ATOM     10  C   UNL     1       6.259   2.594  -1.093  1.00  0.00     0.119 C 
ATOM     11  C   UNL     1       4.807   2.653  -1.661  1.00  0.00     0.100 C 
ATOM     12  C   UNL     1       3.900   2.681  -0.412  1.00  0.00     0.025 C 
ATOM     13  C   UNL     1       5.984   2.775   0.439  1.00  0.00     0.027 C 
ATOM     14  C   UNL     1       4.017   4.010   0.248  1.00  0.00    -0.027 C 
ATOM     15  C   UNL     1       4.748   1.859   0.577  1.00  0.00     0.017 C 
ATOM     16  C   UNL     1       5.234   4.043   0.803  1.00  0.00    -0.027 C 
BRANCH  11  17
ATOM     17  C   UNL     1       4.266   3.492  -2.797  1.00  0.00     0.229 C 
ATOM     18  N   UNL     1       4.594   4.717  -3.236  1.00  0.00    -0.323 N 
ATOM     19  H   UNL     1       4.151   4.878  -4.101  1.00  0.00     0.170 HD
ATOM     20  O   UNL     1       3.363   2.964  -3.477  1.00  0.00    -0.274 OA
BRANCH  18  21
ATOM     21  C   UNL     1       5.350   5.851  -2.890  1.00  0.00     0.084 A 
ATOM     22  C   UNL     1       5.441   6.917  -3.810  1.00  0.00     0.142 A 
ATOM     23  C   UNL     1       6.187   8.041  -3.445  1.00  0.00     0.049 A 
ATOM     24  C   UNL     1       6.814   8.138  -2.198  1.00  0.00     0.018 A 
ATOM     25  C   UNL     1       5.996   5.995  -1.633  1.00  0.00     0.044 A 
ATOM     26  C   UNL     1       6.739   7.118  -1.240  1.00  0.00     0.042 A 
BRANCH  22  27
ATOM     27  O   UNL     1       4.990   7.038  -5.098  1.00  0.00    -0.495 OA
ATOM     28  C   UNL     1       3.802   6.439  -5.587  1.00  0.00     0.278 C 
ENDBRANCH  22  27
BRANCH  26  29
ATOM     29  C   UNL     1       7.277   7.481   0.141  1.00  0.00     0.253 C 
ATOM     30  O   UNL     1       7.431   8.705   0.296  1.00  0.00    -0.269 OA
ATOM     31  N   UNL     1       7.508   6.665   1.273  1.00  0.00    -0.345 N 
ATOM     32  C   UNL     1       8.094   5.335   1.367  1.00  0.00     0.146 C 
ATOM     33  C   UNL     1       7.577   7.365   2.549  1.00  0.00     0.146 C 
ENDBRANCH  26  29
ENDBRANCH  18  21
ENDBRANCH  11  17
ENDBRANCH   8  10
ENDBRANCH   7   8
ENDBRANCH   6   7
ENDBRANCH   5   6
ENDBRANCH   4   5
ENDBRANCH   3   4
ENDBRANCH   2   3
ENDBRANCH   1   2
BRANCH   1  34
ATOM     34  C   UNL     1       7.953  -0.444  -5.389  1.00  0.00     0.188 C 
BRANCH  34  35
ATOM     35  C   UNL     1       7.002  -0.572  -6.603  1.00  0.00     0.188 C 
BRANCH  35  36
ATOM     36  O   UNL     1       5.614  -0.449  -6.326  1.00  0.00    -0.376 OA
BRANCH  36  37
ATOM     37  C   UNL     1       4.841  -1.630  -6.172  1.00  0.00     0.202 C 
BRANCH  37  38
ATOM     38  C   UNL     1       5.200  -2.611  -5.041  1.00  0.00     0.261 C 
BRANCH  38  39
ATOM     39  O   UNL     1       6.557  -3.069  -5.005  1.00  0.00    -0.460 OA
BRANCH  39  40
ATOM     40  C   UNL     1       7.007  -3.743  -6.084  1.00  0.00     0.338 C 
ATOM     41  O   UNL     1       6.367  -4.050  -7.078  1.00  0.00    -0.246 OA
BRANCH  40  42
ATOM     42  C   UNL     1       8.474  -3.849  -5.961  1.00  0.00     0.060 A 
ATOM     43  C   UNL     1       9.275  -3.261  -6.952  1.00  0.00     0.016 A 
ATOM     44  C   UNL     1       9.054  -4.462  -4.848  1.00  0.00     0.016 A 
ATOM     45  C   UNL     1      10.661  -3.304  -6.844  1.00  0.00     0.010 A 
ATOM     46  C   UNL     1      10.445  -4.551  -4.767  1.00  0.00     0.010 A 
ATOM     47  C   UNL     1      11.248  -4.005  -5.785  1.00  0.00    -0.014 A 
BRANCH  47  48
ATOM     48  C   UNL     1      12.665  -4.411  -5.912  1.00  0.00     0.031 A 
ATOM     49  C   UNL     1      12.941  -5.756  -6.528  1.00  0.00     0.074 A 
ATOM     50  C   UNL     1      13.672  -3.601  -5.546  1.00  0.00     0.049 A 
ATOM     51  N   UNL     1      14.081  -6.357  -6.737  1.00  0.00    -0.248 NA
ATOM     52  C   UNL     1      11.764  -6.529  -6.968  1.00  0.00     0.031 C 
ATOM     53  C   UNL     1      13.522  -2.259  -4.986  1.00  0.00     0.029 A 
ATOM     54  N   UNL     1      15.029  -3.800  -5.589  1.00  0.00    -0.354 N 
ATOM     55  C   UNL     1      13.760  -7.577  -7.318  1.00  0.00     0.074 A 
ATOM     56  C   UNL     1      12.320  -7.646  -7.409  1.00  0.00     0.031 C 
ATOM     57  C   UNL     1      14.743  -1.763  -4.716  1.00  0.00     0.029 A 
ATOM     58  C   UNL     1      15.755  -2.762  -5.057  1.00  0.00     0.049 A 
ATOM     59  H   UNL     1      15.443  -4.610  -5.965  1.00  0.00     0.167 HD
ATOM     60  C   UNL     1      14.594  -8.553  -7.743  1.00  0.00     0.037 A 
ATOM     61  C   UNL     1      17.083  -2.650  -4.849  1.00  0.00     0.037 A 
ATOM     62  C   UNL     1      16.027  -8.475  -7.649  1.00  0.00     0.049 A 
ATOM     63  C   UNL     1      17.990  -3.777  -5.279  1.00  0.00     0.074 A 
ATOM     64  C   UNL     1      16.966  -9.399  -8.069  1.00  0.00     0.029 A 
ATOM     65  N   UNL     1      16.726  -7.417  -7.086  1.00  0.00    -0.354 N 
ATOM     66  N   UNL     1      17.680  -4.917  -5.853  1.00  0.00    -0.248 NA
ATOM     67  C   UNL     1      19.430  -3.600  -5.041  1.00  0.00     0.031 C 
ATOM     68  C   UNL     1      18.231  -8.928  -7.704  1.00  0.00     0.029 A 
ATOM     69  C   UNL     1      18.085  -7.679  -7.122  1.00  0.00     0.049 A 
ATOM     70  H   UNL     1      16.317  -6.602  -6.717  1.00  0.00     0.167 HD
ATOM     71  C   UNL     1      18.886  -5.575  -6.074  1.00  0.00     0.074 A 
ATOM     72  C   UNL     1      19.931  -4.701  -5.584  1.00  0.00     0.031 C 
ATOM     73  C   UNL     1      19.112  -6.790  -6.635  1.00  0.00     0.037 A 
BRANCH  60  74
ATOM     74  C   UNL     1      13.979  -9.803  -8.307  1.00  0.00     0.058 A 
ATOM     75  C   UNL     1      13.335  -9.820  -9.554  1.00  0.00     0.135 A 
ATOM     76  C   UNL     1      14.068 -11.012  -7.599  1.00  0.00     0.135 A 
ATOM     77  F   UNL     1      13.196  -8.686 -10.261  1.00  0.00    -0.206 F 
ATOM     78  C   UNL     1      12.789 -10.989 -10.074  1.00  0.00     0.059 A 
ATOM     79  C   UNL     1      13.556 -12.199  -8.112  1.00  0.00     0.059 A 
ATOM     80  F   UNL     1      14.661 -11.049  -6.395  1.00  0.00    -0.206 F 
ATOM     81  C   UNL     1      12.911 -12.176  -9.347  1.00  0.00     0.060 A 
BRANCH  81  82
ATOM     82  S   UNL     1      12.225 -13.690 -10.049  1.00  0.00     0.124 S 
ATOM     83  O   UNL     1      10.791 -13.445  -9.929  1.00  0.00    -0.237 OA
ATOM     84  O   UNL     1      12.759 -13.672 -11.407  1.00  0.00    -0.237 OA
ATOM     85  O   UNL     1      12.756 -14.738  -9.183  1.00  0.00    -0.744 OA
ENDBRANCH  81  82
ENDBRANCH  60  74
BRANCH  61  86
ATOM     86  C   UNL     1      17.636  -1.441  -4.179  1.00  0.00     0.058 A 
ATOM     87  C   UNL     1      18.463  -0.538  -4.863  1.00  0.00     0.135 A 
ATOM     88  C   UNL     1      17.360  -1.176  -2.828  1.00  0.00     0.135 A 
ATOM     89  F   UNL     1      18.768  -0.752  -6.152  1.00  0.00    -0.206 F 
ATOM     90  C   UNL     1      19.015   0.571  -4.229  1.00  0.00     0.059 A 
ATOM     91  C   UNL     1      17.875  -0.058  -2.179  1.00  0.00     0.059 A 
ATOM     92  F   UNL     1      16.568  -2.002  -2.127  1.00  0.00    -0.206 F 
ATOM     93  C   UNL     1      18.713   0.804  -2.886  1.00  0.00     0.060 A 
BRANCH  93  94
ATOM     94  S   UNL     1      19.402   2.267  -2.082  1.00  0.00     0.124 S 
ATOM     95  O   UNL     1      20.808   1.901  -1.961  1.00  0.00    -0.237 OA
ATOM     96  O   UNL     1      19.096   3.317  -3.048  1.00  0.00    -0.237 OA
ATOM     97  O   UNL     1      18.659   2.343  -0.828  1.00  0.00    -0.744 OA
ENDBRANCH  93  94
ENDBRANCH  61  86
BRANCH  73  98
ATOM     98  C   UNL     1      20.544  -7.229  -6.797  1.00  0.00     0.058 A 
ATOM     99  C   UNL     1      21.342  -7.586  -5.700  1.00  0.00     0.135 A 
ATOM    100  C   UNL     1      21.108  -7.338  -8.080  1.00  0.00     0.135 A 
ATOM    101  F   UNL     1      20.854  -7.500  -4.452  1.00  0.00    -0.206 F 
ATOM    102  C   UNL     1      22.661  -7.999  -5.864  1.00  0.00     0.059 A 
ATOM    103  C   UNL     1      22.412  -7.782  -8.270  1.00  0.00     0.059 A 
ATOM    104  F   UNL     1      20.384  -7.026  -9.166  1.00  0.00    -0.206 F 
ATOM    105  C   UNL     1      23.187  -8.094  -7.154  1.00  0.00     0.060 A 
BRANCH 105 106
ATOM    106  S   UNL     1      24.894  -8.644  -7.355  1.00  0.00     0.124 S 
ATOM    107  O   UNL     1      25.635  -7.478  -6.887  1.00  0.00    -0.237 OA
ATOM    108  O   UNL     1      24.947  -9.819  -6.490  1.00  0.00    -0.237 OA
ATOM    109  O   UNL     1      24.997  -8.921  -8.785  1.00  0.00    -0.744 OA
ENDBRANCH 105 106
ENDBRANCH  73  98
ENDBRANCH  47  48
ENDBRANCH  40  42
ENDBRANCH  39  40
ENDBRANCH  38  39
ENDBRANCH  37  38
ENDBRANCH  36  37
ENDBRANCH  35  36
ENDBRANCH  34  35
ENDBRANCH   1  34
TORSDOF 27
