REMARK SMILES O=C(OCCOCCOCCOCCOC(=O)c1c(-c2ccc(Cl)cc2)noc1CO[C@@H]1CCCCO1)c1ccc(-c2c3nc(c(-c4c(F)cc(S(=O)(=O)[O-])cc4F)c4ccc([nH]4)c(-c4c(F)cc(S(=O)(=O)[O-])cc4F)c4nc(c(-c5c(F)cc(S(=O)(=O)[O-])cc5F)c5ccc2[nH]5)C=C4)C=C3)cc1
REMARK SMILES IDX 9 1 8 2 7 3 6 4 5 5 4 6 3 7 2 8 1 9 38 10 39 11 103 12 40 13
REMARK SMILES IDX 102 14 41 15 42 16 43 17 96 18 44 19 101 20 95 21 97 22
REMARK SMILES IDX 45 23 100 24 94 25 93 26 46 28 80 29 59 30 79 31 60 32 63 33
REMARK SMILES IDX 78 34 98 35 61 36 62 37 77 39 99 40 64 41 47 42 48 43 57 44
REMARK SMILES IDX 49 45 50 46 56 47 58 48 51 49 52 50 53 51 54 52 55 53 81 54
REMARK SMILES IDX 82 55 91 56 83 57 84 58 90 59 92 60 85 61 86 62 87 63 88 64
REMARK SMILES IDX 89 65 65 66 66 67 75 68 67 69 68 70 74 71 76 72 69 73 70 74
REMARK SMILES IDX 71 75 72 76 73 77 10 78 11 79 12 80 13 81 14 82 15 83 16 84
REMARK SMILES IDX 17 85 18 86 19 87 29 88 27 89 28 90 20 91 21 92 26 93 22 94
REMARK SMILES IDX 25 95 23 96 24 97 30 98 31 99 32 100 33 101 37 102 34 103
REMARK SMILES IDX 36 104 35 105
REMARK H PARENT 97 27 63 38
REMARK Flexibility Score: inf
ROOT
ATOM      1  O   UNL     1       2.055  -2.473  -2.235  1.00  0.00    -0.377 OA
ENDROOT
BRANCH   1   2
ATOM      2  C   UNL     1       1.292  -1.423  -1.647  1.00  0.00     0.188 C 
BRANCH   2   3
ATOM      3  C   UNL     1       1.683  -1.111  -0.200  1.00  0.00     0.188 C 
BRANCH   3   4
ATOM      4  O   UNL     1       2.960  -0.490  -0.213  1.00  0.00    -0.376 OA
BRANCH   4   5
ATOM      5  C   UNL     1       3.918  -0.785   0.792  1.00  0.00     0.202 C 
BRANCH   5   6
ATOM      6  C   UNL     1       3.670  -0.111   2.126  1.00  0.00     0.261 C 
BRANCH   6   7
ATOM      7  O   UNL     1       2.380   0.500   2.250  1.00  0.00    -0.460 OA
BRANCH   7   8
ATOM      8  C   UNL     1       1.840   1.526   1.552  1.00  0.00     0.338 C 
ATOM      9  O   UNL     1       0.626   1.709   1.634  1.00  0.00    -0.246 OA
BRANCH   8  10
ATOM     10  C   UNL     1       2.629   2.522   0.776  1.00  0.00     0.060 A 
ATOM     11  C   UNL     1       3.632   2.247  -0.155  1.00  0.00     0.016 A 
ATOM     12  C   UNL     1       2.217   3.853   0.921  1.00  0.00     0.016 A 
ATOM     13  C   UNL     1       4.292   3.249  -0.839  1.00  0.00     0.010 A 
ATOM     14  C   UNL     1       2.840   4.872   0.205  1.00  0.00     0.010 A 
ATOM     15  C   UNL     1       3.913   4.565  -0.641  1.00  0.00    -0.014 A 
BRANCH  15  16
ATOM     16  C   UNL     1       4.820   5.608  -1.126  1.00  0.00     0.031 A 
ATOM     17  C   UNL     1       5.624   6.319  -0.086  1.00  0.00     0.074 A 
ATOM     18  C   UNL     1       5.006   5.795  -2.442  1.00  0.00     0.049 A 
ATOM     19  N   UNL     1       6.314   7.416  -0.179  1.00  0.00    -0.248 NA
ATOM     20  C   UNL     1       5.639   5.707   1.258  1.00  0.00     0.031 C 
ATOM     21  C   UNL     1       4.403   4.989  -3.509  1.00  0.00     0.029 A 
ATOM     22  N   UNL     1       5.770   6.710  -3.107  1.00  0.00    -0.354 N 
ATOM     23  C   UNL     1       6.774   7.670   1.107  1.00  0.00     0.074 A 
ATOM     24  C   UNL     1       6.303   6.609   1.961  1.00  0.00     0.031 C 
ATOM     25  C   UNL     1       4.826   5.448  -4.697  1.00  0.00     0.029 A 
ATOM     26  C   UNL     1       5.633   6.639  -4.472  1.00  0.00     0.049 A 
ATOM     27  H   UNL     1       6.360   7.356  -2.654  1.00  0.00     0.167 HD
ATOM     28  C   UNL     1       7.508   8.727   1.517  1.00  0.00     0.037 A 
ATOM     29  C   UNL     1       6.056   7.501  -5.414  1.00  0.00     0.037 A 
ATOM     30  C   UNL     1       7.958   9.735   0.598  1.00  0.00     0.049 A 
ATOM     31  C   UNL     1       6.791   8.723  -4.933  1.00  0.00     0.074 A 
ATOM     32  C   UNL     1       8.643  10.904   0.852  1.00  0.00     0.029 A 
ATOM     33  N   UNL     1       7.762   9.668  -0.780  1.00  0.00    -0.354 N 
ATOM     34  N   UNL     1       7.117   9.054  -3.702  1.00  0.00    -0.248 NA
ATOM     35  C   UNL     1       7.193   9.700  -5.948  1.00  0.00     0.031 C 
ATOM     36  C   UNL     1       8.820  11.567  -0.368  1.00  0.00     0.029 A 
ATOM     37  C   UNL     1       8.302  10.781  -1.391  1.00  0.00     0.049 A 
ATOM     38  H   UNL     1       7.305   8.934  -1.249  1.00  0.00     0.167 HD
ATOM     39  C   UNL     1       7.782  10.268  -3.793  1.00  0.00     0.074 A 
ATOM     40  C   UNL     1       7.818  10.605  -5.206  1.00  0.00     0.031 C 
ATOM     41  C   UNL     1       8.315  11.040  -2.812  1.00  0.00     0.037 A 
BRANCH  28  42
ATOM     42  C   UNL     1       7.743   8.867   2.994  1.00  0.00     0.058 A 
ATOM     43  C   UNL     1       8.568   7.988   3.715  1.00  0.00     0.135 A 
ATOM     44  C   UNL     1       7.061   9.859   3.717  1.00  0.00     0.135 A 
ATOM     45  F   UNL     1       9.210   6.991   3.085  1.00  0.00    -0.206 F 
ATOM     46  C   UNL     1       8.679   8.064   5.102  1.00  0.00     0.059 A 
ATOM     47  C   UNL     1       7.180   9.973   5.099  1.00  0.00     0.059 A 
ATOM     48  F   UNL     1       6.240  10.713   3.085  1.00  0.00    -0.206 F 
ATOM     49  C   UNL     1       7.976   9.059   5.785  1.00  0.00     0.060 A 
BRANCH  49  50
ATOM     50  S   UNL     1       8.110   9.132   7.584  1.00  0.00     0.124 S 
ATOM     51  O   UNL     1       7.331   7.964   7.983  1.00  0.00    -0.237 OA
ATOM     52  O   UNL     1       9.551   9.033   7.793  1.00  0.00    -0.237 OA
ATOM     53  O   UNL     1       7.519  10.424   7.917  1.00  0.00    -0.744 OA
ENDBRANCH  49  50
ENDBRANCH  28  42
BRANCH  29  54
ATOM     54  C   UNL     1       5.726   7.273  -6.847  1.00  0.00     0.058 A 
ATOM     55  C   UNL     1       6.726   7.007  -7.793  1.00  0.00     0.135 A 
ATOM     56  C   UNL     1       4.394   7.277  -7.298  1.00  0.00     0.135 A 
ATOM     57  F   UNL     1       8.014   6.994  -7.420  1.00  0.00    -0.206 F 
ATOM     58  C   UNL     1       6.421   6.761  -9.130  1.00  0.00     0.059 A 
ATOM     59  C   UNL     1       4.061   7.004  -8.622  1.00  0.00     0.059 A 
ATOM     60  F   UNL     1       3.391   7.514  -6.437  1.00  0.00    -0.206 F 
ATOM     61  C   UNL     1       5.084   6.755  -9.534  1.00  0.00     0.060 A 
BRANCH  61  62
ATOM     62  S   UNL     1       4.699   6.384 -11.259  1.00  0.00     0.124 S 
ATOM     63  O   UNL     1       5.177   7.586 -11.933  1.00  0.00    -0.237 OA
ATOM     64  O   UNL     1       5.476   5.170 -11.490  1.00  0.00    -0.237 OA
ATOM     65  O   UNL     1       3.251   6.199 -11.249  1.00  0.00    -0.744 OA
ENDBRANCH  61  62
ENDBRANCH  29  54
BRANCH  41  66
ATOM     66  C   UNL     1       9.026  12.284  -3.249  1.00  0.00     0.058 A 
ATOM     67  C   UNL     1       8.328  13.418  -3.684  1.00  0.00     0.135 A 
ATOM     68  C   UNL     1      10.424  12.357  -3.146  1.00  0.00     0.135 A 
ATOM     69  F   UNL     1       6.992  13.387  -3.805  1.00  0.00    -0.206 F 
ATOM     70  C   UNL     1       8.998  14.588  -4.017  1.00  0.00     0.059 A 
ATOM     71  C   UNL     1      11.110  13.526  -3.442  1.00  0.00     0.059 A 
ATOM     72  F   UNL     1      11.129  11.296  -2.721  1.00  0.00    -0.206 F 
ATOM     73  C   UNL     1      10.388  14.633  -3.885  1.00  0.00     0.060 A 
BRANCH  73  74
ATOM     74  S   UNL     1      11.239  16.176  -4.264  1.00  0.00     0.124 S 
ATOM     75  O   UNL     1      11.164  16.200  -5.721  1.00  0.00    -0.237 OA
ATOM     76  O   UNL     1      10.418  17.163  -3.569  1.00  0.00    -0.237 OA
ATOM     77  O   UNL     1      12.573  15.974  -3.707  1.00  0.00    -0.744 OA
ENDBRANCH  73  74
ENDBRANCH  41  66
ENDBRANCH  15  16
ENDBRANCH   8  10
ENDBRANCH   7   8
ENDBRANCH   6   7
ENDBRANCH   5   6
ENDBRANCH   4   5
ENDBRANCH   3   4
ENDBRANCH   2   3
ENDBRANCH   1   2
BRANCH   1  78
ATOM     78  C   UNL     1       3.460  -2.375  -2.049  1.00  0.00     0.188 C 
BRANCH  78  79
ATOM     79  C   UNL     1       4.211  -1.160  -2.643  1.00  0.00     0.188 C 
BRANCH  79  80
ATOM     80  O   UNL     1       3.405  -0.337  -3.470  1.00  0.00    -0.376 OA
BRANCH  80  81
ATOM     81  C   UNL     1       3.615  -0.484  -4.869  1.00  0.00     0.202 C 
BRANCH  81  82
ATOM     82  C   UNL     1       3.030  -1.771  -5.461  1.00  0.00     0.261 C 
BRANCH  82  83
ATOM     83  O   UNL     1       3.503  -3.025  -4.928  1.00  0.00    -0.459 OA
BRANCH  83  84
ATOM     84  C   UNL     1       4.831  -3.267  -4.776  1.00  0.00     0.344 C 
ATOM     85  O   UNL     1       5.730  -2.530  -5.157  1.00  0.00    -0.246 OA
BRANCH  84  86
ATOM     86  C   UNL     1       5.055  -4.495  -4.045  1.00  0.00     0.133 A 
ATOM     87  C   UNL     1       5.923  -4.756  -2.941  1.00  0.00     0.128 A 
ATOM     88  C   UNL     1       4.371  -5.676  -4.230  1.00  0.00     0.177 A 
ATOM     89  N   UNL     1       5.688  -5.977  -2.436  1.00  0.00    -0.079 NA
ATOM     90  O   UNL     1       4.729  -6.552  -3.252  1.00  0.00    -0.357 OA
BRANCH  87  91
ATOM     91  C   UNL     1       6.871  -3.846  -2.307  1.00  0.00     0.005 A 
ATOM     92  C   UNL     1       6.657  -3.384  -1.000  1.00  0.00     0.012 A 
ATOM     93  C   UNL     1       7.975  -3.377  -3.028  1.00  0.00     0.012 A 
ATOM     94  C   UNL     1       7.502  -2.414  -0.448  1.00  0.00     0.021 A 
ATOM     95  C   UNL     1       8.828  -2.422  -2.470  1.00  0.00     0.021 A 
ATOM     96  C   UNL     1       8.578  -1.931  -1.191  1.00  0.00     0.041 A 
ATOM     97  Cl  UNL     1       9.599  -0.718  -0.526  1.00  0.00    -0.084 Cl
ENDBRANCH  87  91
BRANCH  88  98
ATOM     98  C   UNL     1       3.417  -6.163  -5.253  1.00  0.00     0.242 C 
BRANCH  98  99
ATOM     99  O   UNL     1       4.007  -7.282  -5.896  1.00  0.00    -0.345 OA
BRANCH  99 100
ATOM    100  C   UNL     1       4.717  -7.110  -7.124  1.00  0.00     0.250 C 
ATOM    101  C   UNL     1       6.158  -7.587  -6.986  1.00  0.00     0.062 C 
ATOM    102  O   UNL     1       4.635  -5.879  -7.819  1.00  0.00    -0.353 OA
ATOM    103  C   UNL     1       6.976  -6.586  -6.200  1.00  0.00     0.008 C 
ATOM    104  C   UNL     1       5.540  -4.846  -7.470  1.00  0.00     0.163 C 
ATOM    105  C   UNL     1       6.885  -5.212  -6.839  1.00  0.00     0.029 C 
ENDBRANCH  99 100
ENDBRANCH  98  99
ENDBRANCH  88  98
ENDBRANCH  84  86
ENDBRANCH  83  84
ENDBRANCH  82  83
ENDBRANCH  81  82
ENDBRANCH  80  81
ENDBRANCH  79  80
ENDBRANCH  78  79
ENDBRANCH   1  78
TORSDOF 27
