REMARK SMILES Cc1occc1C(=O)N[C@@H](C)CC(=O)OCCOCCOCCOCCOC(=O)c1ccc(-c2c3nc(c(-c4c(F)cc(S(=O)(=O)[O-])cc4F)c4ccc([nH]4)c(-c4c(F)cc(S(=O)(=O)[O-])cc4F)c4nc(c(-c5c(F)cc(S(=O)(=O)[O-])cc5F)c5ccc2[nH]5)C=C4)C=C3)cc1
REMARK SMILES IDX 21 1 20 2 19 3 18 4 17 5 16 6 15 7 13 8 14 9 12 10 10 11
REMARK SMILES IDX 11 12 9 13 7 14 8 15 6 17 1 18 2 19 3 20 4 21 5 22 22 23
REMARK SMILES IDX 23 24 24 25 25 26 26 27 27 28 28 29 29 30 30 31 31 32 95 33
REMARK SMILES IDX 32 34 94 35 33 36 34 37 35 38 88 39 36 40 93 41 87 42 89 43
REMARK SMILES IDX 37 44 92 45 86 46 85 47 38 49 72 50 51 51 71 52 52 53 55 54
REMARK SMILES IDX 70 55 90 56 53 57 54 58 69 60 91 61 56 62 39 63 40 64 49 65
REMARK SMILES IDX 41 66 42 67 48 68 50 69 43 70 44 71 45 72 46 73 47 74 73 75
REMARK SMILES IDX 74 76 83 77 75 78 76 79 82 80 84 81 77 82 78 83 79 84 80 85
REMARK SMILES IDX 81 86 57 87 58 88 67 89 59 90 60 91 66 92 68 93 61 94 62 95
REMARK SMILES IDX 63 96 64 97 65 98
REMARK H PARENT 9 16 89 48 55 59
REMARK Flexibility Score: inf
ROOT
ATOM      1  O   UNL     1       0.016  -1.414  -2.782  1.00  0.00    -0.377 OA
ENDROOT
BRANCH   1   2
ATOM      2  C   UNL     1       1.172  -0.728  -2.371  1.00  0.00     0.188 C 
BRANCH   2   3
ATOM      3  C   UNL     1       2.108  -0.252  -3.484  1.00  0.00     0.188 C 
BRANCH   3   4
ATOM      4  O   UNL     1       2.153  -0.884  -4.758  1.00  0.00    -0.376 OA
BRANCH   4   5
ATOM      5  C   UNL     1       1.386  -2.051  -5.001  1.00  0.00     0.202 C 
BRANCH   5   6
ATOM      6  C   UNL     1       1.908  -3.360  -4.383  1.00  0.00     0.261 C 
BRANCH   6   7
ATOM      7  O   UNL     1       2.280  -3.341  -2.987  1.00  0.00    -0.463 OA
BRANCH   7   8
ATOM      8  C   UNL     1       3.593  -3.148  -2.712  1.00  0.00     0.307 C 
ATOM      9  O   UNL     1       4.453  -2.897  -3.550  1.00  0.00    -0.252 OA
BRANCH   8  10
ATOM     10  C   UNL     1       3.957  -3.413  -1.259  1.00  0.00     0.147 C 
BRANCH  10  11
ATOM     11  C   UNL     1       3.136  -2.765  -0.127  1.00  0.00     0.090 C 
ATOM     12  C   UNL     1       3.866  -2.989   1.203  1.00  0.00     0.031 C 
BRANCH  11  13
ATOM     13  N   UNL     1       1.798  -3.316  -0.010  1.00  0.00    -0.349 N 
ATOM     14  C   UNL     1       0.608  -2.897   0.518  1.00  0.00     0.255 C 
ATOM     15  O   UNL     1      -0.275  -3.761   0.495  1.00  0.00    -0.269 OA
ATOM     16  H   UNL     1       1.730  -4.213  -0.410  1.00  0.00     0.164 HD
BRANCH  14  17
ATOM     17  C   UNL     1       0.291  -1.578   1.080  1.00  0.00     0.080 A 
ATOM     18  C   UNL     1       2.312   0.196   1.153  1.00  0.00     0.088 C 
ATOM     19  C   UNL     1       0.961  -0.378   1.318  1.00  0.00     0.113 A 
ATOM     20  O   UNL     1       0.101   0.550   1.847  1.00  0.00    -0.469 OA
ATOM     21  C   UNL     1      -1.109  -0.021   1.986  1.00  0.00     0.196 A 
ATOM     22  C   UNL     1      -1.058  -1.310   1.539  1.00  0.00     0.056 A 
ENDBRANCH  14  17
ENDBRANCH  11  13
ENDBRANCH  10  11
ENDBRANCH   8  10
ENDBRANCH   7   8
ENDBRANCH   6   7
ENDBRANCH   5   6
ENDBRANCH   4   5
ENDBRANCH   3   4
ENDBRANCH   2   3
ENDBRANCH   1   2
BRANCH   1  23
ATOM     23  C   UNL     1      -1.198  -0.722  -2.580  1.00  0.00     0.188 C 
BRANCH  23  24
ATOM     24  C   UNL     1      -1.355   0.541  -3.437  1.00  0.00     0.188 C 
BRANCH  24  25
ATOM     25  O   UNL     1      -0.527   1.664  -3.162  1.00  0.00    -0.376 OA
BRANCH  25  26
ATOM     26  C   UNL     1      -0.474   2.276  -1.881  1.00  0.00     0.202 C 
BRANCH  26  27
ATOM     27  C   UNL     1      -1.698   2.423  -0.968  1.00  0.00     0.261 C 
BRANCH  27  28
ATOM     28  O   UNL     1      -2.444   1.219  -0.752  1.00  0.00    -0.460 OA
BRANCH  28  29
ATOM     29  C   UNL     1      -3.709   1.228  -1.225  1.00  0.00     0.338 C 
ATOM     30  O   UNL     1      -4.281   2.169  -1.765  1.00  0.00    -0.246 OA
BRANCH  29  31
ATOM     31  C   UNL     1      -4.280  -0.130  -1.192  1.00  0.00     0.060 A 
ATOM     32  C   UNL     1      -4.677  -0.697  -2.410  1.00  0.00     0.016 A 
ATOM     33  C   UNL     1      -4.505  -0.806   0.009  1.00  0.00     0.016 A 
ATOM     34  C   UNL     1      -5.347  -1.916  -2.429  1.00  0.00     0.010 A 
ATOM     35  C   UNL     1      -5.194  -2.026  -0.011  1.00  0.00     0.010 A 
ATOM     36  C   UNL     1      -5.661  -2.561  -1.226  1.00  0.00    -0.014 A 
BRANCH  36  37
ATOM     37  C   UNL     1      -6.663  -3.658  -1.246  1.00  0.00     0.031 A 
ATOM     38  C   UNL     1      -8.089  -3.332  -0.879  1.00  0.00     0.074 A 
ATOM     39  C   UNL     1      -6.342  -4.897  -1.659  1.00  0.00     0.049 A 
ATOM     40  N   UNL     1      -9.140  -4.109  -0.850  1.00  0.00    -0.248 NA
ATOM     41  C   UNL     1      -8.364  -1.937  -0.495  1.00  0.00     0.031 C 
ATOM     42  C   UNL     1      -5.013  -5.327  -2.088  1.00  0.00     0.029 A 
ATOM     43  N   UNL     1      -7.119  -6.022  -1.790  1.00  0.00    -0.354 N 
ATOM     44  C   UNL     1     -10.198  -3.302  -0.446  1.00  0.00     0.074 A 
ATOM     45  C   UNL     1      -9.654  -1.985  -0.198  1.00  0.00     0.031 C 
ATOM     46  C   UNL     1      -5.068  -6.625  -2.438  1.00  0.00     0.029 A 
ATOM     47  C   UNL     1      -6.427  -7.125  -2.229  1.00  0.00     0.049 A 
ATOM     48  H   UNL     1      -8.083  -6.037  -1.588  1.00  0.00     0.167 HD
ATOM     49  C   UNL     1     -11.507  -3.621  -0.309  1.00  0.00     0.037 A 
ATOM     50  C   UNL     1      -6.840  -8.394  -2.426  1.00  0.00     0.037 A 
ATOM     51  C   UNL     1     -12.046  -4.933  -0.553  1.00  0.00     0.049 A 
ATOM     52  C   UNL     1      -8.286  -8.749  -2.181  1.00  0.00     0.074 A 
ATOM     53  C   UNL     1     -13.359  -5.357  -0.447  1.00  0.00     0.029 A 
ATOM     54  N   UNL     1     -11.302  -6.037  -0.944  1.00  0.00    -0.354 N 
ATOM     55  N   UNL     1      -9.279  -7.972  -1.817  1.00  0.00    -0.248 NA
ATOM     56  C   UNL     1      -8.668 -10.155  -2.377  1.00  0.00     0.031 C 
ATOM     57  C   UNL     1     -13.400  -6.728  -0.717  1.00  0.00     0.029 A 
ATOM     58  C   UNL     1     -12.123  -7.147  -1.056  1.00  0.00     0.049 A 
ATOM     59  H   UNL     1     -10.332  -6.032  -1.117  1.00  0.00     0.167 HD
ATOM     60  C   UNL     1     -10.407  -8.787  -1.774  1.00  0.00     0.074 A 
ATOM     61  C   UNL     1      -9.976 -10.114  -2.159  1.00  0.00     0.031 C 
ATOM     62  C   UNL     1     -11.685  -8.464  -1.449  1.00  0.00     0.037 A 
BRANCH  49  63
ATOM     63  C   UNL     1     -12.441  -2.536   0.155  1.00  0.00     0.058 A 
ATOM     64  C   UNL     1     -12.771  -1.442  -0.662  1.00  0.00     0.135 A 
ATOM     65  C   UNL     1     -13.029  -2.599   1.429  1.00  0.00     0.135 A 
ATOM     66  F   UNL     1     -12.224  -1.320  -1.883  1.00  0.00    -0.206 F 
ATOM     67  C   UNL     1     -13.621  -0.433  -0.220  1.00  0.00     0.059 A 
ATOM     68  C   UNL     1     -13.908  -1.619   1.879  1.00  0.00     0.059 A 
ATOM     69  F   UNL     1     -12.749  -3.621   2.252  1.00  0.00    -0.206 F 
ATOM     70  C   UNL     1     -14.184  -0.530   1.053  1.00  0.00     0.060 A 
BRANCH  70  71
ATOM     71  S   UNL     1     -15.279   0.790   1.615  1.00  0.00     0.124 S 
ATOM     72  O   UNL     1     -14.334   1.883   1.823  1.00  0.00    -0.237 OA
ATOM     73  O   UNL     1     -16.186   0.945   0.482  1.00  0.00    -0.237 OA
ATOM     74  O   UNL     1     -15.880   0.243   2.827  1.00  0.00    -0.744 OA
ENDBRANCH  70  71
ENDBRANCH  49  63
BRANCH  50  75
ATOM     75  C   UNL     1      -5.872  -9.432  -2.877  1.00  0.00     0.058 A 
ATOM     76  C   UNL     1      -5.974 -10.018  -4.148  1.00  0.00     0.135 A 
ATOM     77  C   UNL     1      -4.833  -9.869  -2.041  1.00  0.00     0.135 A 
ATOM     78  F   UNL     1      -6.960  -9.648  -4.979  1.00  0.00    -0.206 F 
ATOM     79  C   UNL     1      -5.091 -11.008  -4.569  1.00  0.00     0.059 A 
ATOM     80  C   UNL     1      -3.919 -10.836  -2.450  1.00  0.00     0.059 A 
ATOM     81  F   UNL     1      -4.687  -9.341  -0.816  1.00  0.00    -0.206 F 
ATOM     82  C   UNL     1      -4.062 -11.406  -3.714  1.00  0.00     0.060 A 
BRANCH  82  83
ATOM     83  S   UNL     1      -2.892 -12.655  -4.291  1.00  0.00     0.124 S 
ATOM     84  O   UNL     1      -3.717 -13.858  -4.285  1.00  0.00    -0.237 OA
ATOM     85  O   UNL     1      -2.522 -12.141  -5.606  1.00  0.00    -0.237 OA
ATOM     86  O   UNL     1      -1.832 -12.612  -3.288  1.00  0.00    -0.744 OA
ENDBRANCH  82  83
ENDBRANCH  50  75
BRANCH  62  87
ATOM     87  C   UNL     1     -12.726  -9.551  -1.532  1.00  0.00     0.058 A 
ATOM     88  C   UNL     1     -12.770 -10.610  -0.613  1.00  0.00     0.135 A 
ATOM     89  C   UNL     1     -13.730  -9.496  -2.513  1.00  0.00     0.135 A 
ATOM     90  F   UNL     1     -11.833 -10.715   0.344  1.00  0.00    -0.206 F 
ATOM     91  C   UNL     1     -13.757 -11.590  -0.677  1.00  0.00     0.059 A 
ATOM     92  C   UNL     1     -14.745 -10.447  -2.577  1.00  0.00     0.059 A 
ATOM     93  F   UNL     1     -13.746  -8.498  -3.411  1.00  0.00    -0.206 F 
ATOM     94  C   UNL     1     -14.743 -11.498  -1.662  1.00  0.00     0.060 A 
BRANCH  94  95
ATOM     95  S   UNL     1     -16.037 -12.756  -1.712  1.00  0.00     0.124 S 
ATOM     96  O   UNL     1     -15.303 -13.914  -2.210  1.00  0.00    -0.237 OA
ATOM     97  O   UNL     1     -16.458 -12.825  -0.316  1.00  0.00    -0.237 OA
ATOM     98  O   UNL     1     -17.023 -12.195  -2.630  1.00  0.00    -0.744 OA
ENDBRANCH  94  95
ENDBRANCH  62  87
ENDBRANCH  36  37
ENDBRANCH  29  31
ENDBRANCH  28  29
ENDBRANCH  27  28
ENDBRANCH  26  27
ENDBRANCH  25  26
ENDBRANCH  24  25
ENDBRANCH  23  24
ENDBRANCH   1  23
TORSDOF 26
