REMARK SMILES O=C(C[C@H](c1ccsc1)n1cccc1)OCCOCCOCCOCCOC(=O)c1ccc(-c2c3nc(c(-c4c(F)cc(S(=O)(=O)[O-])cc4F)c4ccc([nH]4)c(-c4c(F)cc(S(=O)(=O)[O-])cc4F)c4nc(c(-c5c(F)cc(S(=O)(=O)[O-])cc5F)c5ccc2[nH]5)C=C4)C=C3)cc1
REMARK SMILES IDX 22 1 21 2 20 3 19 4 18 5 17 6 16 7 15 8 2 9 1 10 3 11 4 12
REMARK SMILES IDX 10 13 11 14 14 15 12 16 13 17 5 18 6 19 9 20 7 21 8 22 23 23
REMARK SMILES IDX 24 24 25 25 26 26 27 27 28 28 29 29 30 30 31 31 95 32 32 33
REMARK SMILES IDX 94 34 33 35 34 36 35 37 88 38 36 39 93 40 87 41 89 42 37 43
REMARK SMILES IDX 92 44 86 45 85 46 38 48 72 49 51 50 71 51 52 52 55 53 70 54
REMARK SMILES IDX 90 55 53 56 54 57 69 59 91 60 56 61 39 62 40 63 49 64 41 65
REMARK SMILES IDX 42 66 48 67 50 68 43 69 44 70 45 71 46 72 47 73 73 74 74 75
REMARK SMILES IDX 83 76 75 77 76 78 82 79 84 80 77 81 78 82 79 83 80 84 81 85
REMARK SMILES IDX 57 86 58 87 67 88 59 89 60 90 66 91 68 92 61 93 62 94 63 95
REMARK SMILES IDX 64 96 65 97
REMARK H PARENT 89 47 55 58
REMARK Flexibility Score: inf
ROOT
ATOM      1  C   UNL     1       5.772   3.132   4.648  1.00  0.00     0.188 C 
ENDROOT
BRANCH   1   2
ATOM      2  O   UNL     1       6.015   1.815   5.095  1.00  0.00    -0.377 OA
BRANCH   2   3
ATOM      3  C   UNL     1       5.851   0.741   4.179  1.00  0.00     0.188 C 
BRANCH   3   4
ATOM      4  C   UNL     1       4.843   0.903   3.039  1.00  0.00     0.188 C 
BRANCH   4   5
ATOM      5  O   UNL     1       5.205   1.902   2.087  1.00  0.00    -0.376 OA
BRANCH   5   6
ATOM      6  C   UNL     1       4.247   2.883   1.689  1.00  0.00     0.202 C 
BRANCH   6   7
ATOM      7  C   UNL     1       2.773   2.495   1.729  1.00  0.00     0.261 C 
BRANCH   7   8
ATOM      8  O   UNL     1       2.390   1.180   1.260  1.00  0.00    -0.463 OA
BRANCH   8   9
ATOM      9  C   UNL     1       3.109   0.302   0.530  1.00  0.00     0.308 C 
ATOM     10  O   UNL     1       2.969  -0.904   0.717  1.00  0.00    -0.252 OA
BRANCH   9  11
ATOM     11  C   UNL     1       4.011   0.813  -0.553  1.00  0.00     0.153 C 
BRANCH  11  12
ATOM     12  C   UNL     1       3.212   1.658  -1.539  1.00  0.00     0.128 C 
BRANCH  12  13
ATOM     13  N   UNL     1       4.082   2.527  -2.345  1.00  0.00    -0.346 N 
ATOM     14  C   UNL     1       3.998   3.902  -2.353  1.00  0.00     0.086 A 
ATOM     15  C   UNL     1       5.219   2.151  -3.018  1.00  0.00     0.086 A 
ATOM     16  C   UNL     1       5.088   4.398  -3.032  1.00  0.00     0.019 A 
ATOM     17  C   UNL     1       5.857   3.291  -3.457  1.00  0.00     0.019 A 
ENDBRANCH  12  13
BRANCH  12  18
ATOM     18  C   UNL     1       2.287   0.795  -2.366  1.00  0.00    -0.014 A 
ATOM     19  C   UNL     1       2.692  -0.293  -3.213  1.00  0.00     0.017 A 
ATOM     20  C   UNL     1       0.905   0.845  -2.275  1.00  0.00     0.070 A 
ATOM     21  C   UNL     1       1.628  -1.034  -3.673  1.00  0.00     0.065 A 
ATOM     22  S   UNL     1       0.132  -0.399  -3.154  1.00  0.00    -0.152 S 
ENDBRANCH  12  18
ENDBRANCH  11  12
ENDBRANCH   9  11
ENDBRANCH   8   9
ENDBRANCH   7   8
ENDBRANCH   6   7
ENDBRANCH   5   6
ENDBRANCH   4   5
ENDBRANCH   3   4
ENDBRANCH   2   3
ENDBRANCH   1   2
BRANCH   1  23
ATOM     23  C   UNL     1       6.860   3.918   3.883  1.00  0.00     0.188 C 
BRANCH  23  24
ATOM     24  O   UNL     1       7.580   3.457   2.755  1.00  0.00    -0.376 OA
BRANCH  24  25
ATOM     25  C   UNL     1       8.344   2.264   2.696  1.00  0.00     0.202 C 
BRANCH  25  26
ATOM     26  C   UNL     1       9.280   1.766   3.806  1.00  0.00     0.261 C 
BRANCH  26  27
ATOM     27  O   UNL     1       8.788   1.934   5.121  1.00  0.00    -0.460 OA
BRANCH  27  28
ATOM     28  C   UNL     1       9.188   3.108   5.649  1.00  0.00     0.338 C 
ATOM     29  O   UNL     1       9.863   3.966   5.106  1.00  0.00    -0.246 OA
BRANCH  28  30
ATOM     30  C   UNL     1       8.656   3.281   6.998  1.00  0.00     0.060 A 
ATOM     31  C   UNL     1       8.466   4.607   7.404  1.00  0.00     0.016 A 
ATOM     32  C   UNL     1       8.698   2.212   7.895  1.00  0.00     0.016 A 
ATOM     33  C   UNL     1       8.564   4.902   8.741  1.00  0.00     0.010 A 
ATOM     34  C   UNL     1       8.829   2.510   9.235  1.00  0.00     0.010 A 
ATOM     35  C   UNL     1       8.859   3.859   9.621  1.00  0.00    -0.014 A 
BRANCH  35  36
ATOM     36  C   UNL     1       9.308   4.227  10.967  1.00  0.00     0.031 A 
ATOM     37  C   UNL     1       8.156   4.373  11.934  1.00  0.00     0.074 A 
ATOM     38  C   UNL     1      10.657   4.412  11.086  1.00  0.00     0.049 A 
ATOM     39  N   UNL     1       8.078   5.062  13.029  1.00  0.00    -0.248 NA
ATOM     40  C   UNL     1       6.857   3.731  11.590  1.00  0.00     0.031 C 
ATOM     41  C   UNL     1      11.619   4.259   9.971  1.00  0.00     0.029 A 
ATOM     42  N   UNL     1      11.496   4.758  12.123  1.00  0.00    -0.354 N 
ATOM     43  C   UNL     1       6.845   4.734  13.614  1.00  0.00     0.074 A 
ATOM     44  C   UNL     1       6.075   4.054  12.618  1.00  0.00     0.031 C 
ATOM     45  C   UNL     1      12.869   4.561  10.368  1.00  0.00     0.029 A 
ATOM     46  C   UNL     1      12.862   4.916  11.771  1.00  0.00     0.049 A 
ATOM     47  H   UNL     1      11.171   4.886  13.043  1.00  0.00     0.167 HD
ATOM     48  C   UNL     1       6.588   4.876  14.941  1.00  0.00     0.037 A 
ATOM     49  C   UNL     1      13.912   5.329  12.546  1.00  0.00     0.037 A 
ATOM     50  C   UNL     1       7.700   5.453  15.623  1.00  0.00     0.049 A 
ATOM     51  C   UNL     1      13.378   5.403  13.921  1.00  0.00     0.074 A 
ATOM     52  C   UNL     1       8.209   6.724  15.677  1.00  0.00     0.029 A 
ATOM     53  N   UNL     1       8.632   4.585  16.142  1.00  0.00    -0.354 N 
ATOM     54  N   UNL     1      13.025   4.377  14.638  1.00  0.00    -0.248 NA
ATOM     55  C   UNL     1      13.120   6.720  14.513  1.00  0.00     0.031 C 
ATOM     56  C   UNL     1       9.593   6.549  15.904  1.00  0.00     0.029 A 
ATOM     57  C   UNL     1       9.868   5.185  16.049  1.00  0.00     0.049 A 
ATOM     58  H   UNL     1       8.448   3.692  16.514  1.00  0.00     0.167 HD
ATOM     59  C   UNL     1      12.208   4.931  15.597  1.00  0.00     0.074 A 
ATOM     60  C   UNL     1      12.529   6.340  15.642  1.00  0.00     0.031 C 
ATOM     61  C   UNL     1      11.032   4.329  15.912  1.00  0.00     0.037 A 
BRANCH  48  62
ATOM     62  C   UNL     1       5.477   4.293  15.759  1.00  0.00     0.058 A 
ATOM     63  C   UNL     1       5.128   4.947  16.960  1.00  0.00     0.135 A 
ATOM     64  C   UNL     1       4.992   2.986  15.588  1.00  0.00     0.135 A 
ATOM     65  F   UNL     1       5.506   6.216  17.183  1.00  0.00    -0.206 F 
ATOM     66  C   UNL     1       4.455   4.297  17.987  1.00  0.00     0.059 A 
ATOM     67  C   UNL     1       4.276   2.331  16.588  1.00  0.00     0.059 A 
ATOM     68  F   UNL     1       5.275   2.277  14.487  1.00  0.00    -0.206 F 
ATOM     69  C   UNL     1       4.070   2.973  17.806  1.00  0.00     0.060 A 
BRANCH  69  70
ATOM     70  S   UNL     1       3.359   2.081  19.202  1.00  0.00     0.124 S 
ATOM     71  O   UNL     1       4.552   1.743  19.970  1.00  0.00    -0.237 OA
ATOM     72  O   UNL     1       2.483   3.084  19.803  1.00  0.00    -0.237 OA
ATOM     73  O   UNL     1       2.671   0.962  18.567  1.00  0.00    -0.744 OA
ENDBRANCH  69  70
ENDBRANCH  48  62
BRANCH  49  74
ATOM     74  C   UNL     1      15.339   5.796  12.329  1.00  0.00     0.058 A 
ATOM     75  C   UNL     1      15.986   5.952  11.093  1.00  0.00     0.135 A 
ATOM     76  C   UNL     1      16.088   6.291  13.435  1.00  0.00     0.135 A 
ATOM     77  F   UNL     1      15.479   5.448   9.964  1.00  0.00    -0.206 F 
ATOM     78  C   UNL     1      17.186   6.668  10.945  1.00  0.00     0.059 A 
ATOM     79  C   UNL     1      17.254   7.046  13.311  1.00  0.00     0.059 A 
ATOM     80  F   UNL     1      15.680   6.102  14.698  1.00  0.00    -0.206 F 
ATOM     81  C   UNL     1      17.783   7.260  12.052  1.00  0.00     0.060 A 
BRANCH  81  82
ATOM     82  S   UNL     1      19.153   8.418  11.857  1.00  0.00     0.124 S 
ATOM     83  O   UNL     1      20.312   7.554  12.049  1.00  0.00    -0.237 OA
ATOM     84  O   UNL     1      18.958   8.927  10.502  1.00  0.00    -0.237 OA
ATOM     85  O   UNL     1      18.906   9.392  12.917  1.00  0.00    -0.744 OA
ENDBRANCH  81  82
ENDBRANCH  49  74
BRANCH  61  86
ATOM     86  C   UNL     1      11.011   2.835  15.633  1.00  0.00     0.058 A 
ATOM     87  C   UNL     1      11.844   1.962  16.350  1.00  0.00     0.135 A 
ATOM     88  C   UNL     1      10.263   2.254  14.595  1.00  0.00     0.135 A 
ATOM     89  F   UNL     1      12.593   2.431  17.360  1.00  0.00    -0.206 F 
ATOM     90  C   UNL     1      11.928   0.597  16.049  1.00  0.00     0.059 A 
ATOM     91  C   UNL     1      10.317   0.896  14.278  1.00  0.00     0.059 A 
ATOM     92  F   UNL     1       9.453   3.004  13.850  1.00  0.00    -0.206 F 
ATOM     93  C   UNL     1      11.161   0.072  15.008  1.00  0.00     0.060 A 
BRANCH  93  94
ATOM     94  S   UNL     1      11.278  -1.690  14.622  1.00  0.00     0.124 S 
ATOM     95  O   UNL     1      12.693  -1.846  14.301  1.00  0.00    -0.237 OA
ATOM     96  O   UNL     1      10.843  -2.306  15.871  1.00  0.00    -0.237 OA
ATOM     97  O   UNL     1      10.366  -1.859  13.493  1.00  0.00    -0.744 OA
ENDBRANCH  93  94
ENDBRANCH  61  86
ENDBRANCH  35  36
ENDBRANCH  28  30
ENDBRANCH  27  28
ENDBRANCH  26  27
ENDBRANCH  25  26
ENDBRANCH  24  25
ENDBRANCH  23  24
ENDBRANCH   1  23
TORSDOF 26
