REMARK SMILES O=C(OCCOCCOCCOCCOC(=O)c1ccc(-c2c3nc(c(-c4c(F)cc(S(=O)(=O)[O-])cc4F)c4ccc([nH]4)c(-c4c(F)cc(S(=O)(=O)[O-])cc4F)c4nc(c(-c5c(F)cc(S(=O)(=O)[O-])cc5F)c5ccc2[nH]5)C=C4)C=C3)cc1)C1=Cc2cc(C(F)(F)F)ccc2O[C@@H]1C(F)(F)F
REMARK SMILES IDX 10 1 9 2 8 3 7 4 6 5 5 6 4 7 3 8 2 9 1 10 84 11 85 12 97 13
REMARK SMILES IDX 86 14 96 15 87 16 95 17 88 18 94 19 93 20 98 21 99 22 100 23
REMARK SMILES IDX 101 24 89 25 90 26 91 27 92 28 11 29 12 30 13 31 14 32 15 33
REMARK SMILES IDX 16 34 17 35 18 36 19 37 83 38 20 39 82 40 21 41 22 42 23 43
REMARK SMILES IDX 76 44 24 45 81 46 75 47 77 48 25 49 80 50 74 51 73 52 26 54
REMARK SMILES IDX 60 55 39 56 59 57 40 58 43 59 58 60 78 61 41 62 42 63 57 65
REMARK SMILES IDX 79 66 44 67 27 68 28 69 37 70 29 71 30 72 36 73 38 74 31 75
REMARK SMILES IDX 32 76 33 77 34 78 35 79 61 80 62 81 71 82 63 83 64 84 70 85
REMARK SMILES IDX 72 86 65 87 66 88 67 89 68 90 69 91 45 92 46 93 55 94 47 95
REMARK SMILES IDX 48 96 54 97 56 98 49 99 50 100 51 101 52 102 53 103
REMARK H PARENT 77 53 43 64
REMARK Flexibility Score: inf
ROOT
ATOM      1  C   UNL     1       3.026   1.575  -4.107  1.00  0.00     0.188 C 
ENDROOT
BRANCH   1   2
ATOM      2  O   UNL     1       1.730   2.060  -3.781  1.00  0.00    -0.377 OA
BRANCH   2   3
ATOM      3  C   UNL     1       0.969   1.224  -2.919  1.00  0.00     0.188 C 
BRANCH   3   4
ATOM      4  C   UNL     1       1.370   1.389  -1.461  1.00  0.00     0.188 C 
BRANCH   4   5
ATOM      5  O   UNL     1       2.733   1.089  -1.207  1.00  0.00    -0.376 OA
BRANCH   5   6
ATOM      6  C   UNL     1       3.168  -0.259  -1.294  1.00  0.00     0.202 C 
BRANCH   6   7
ATOM      7  C   UNL     1       2.640  -1.206  -0.217  1.00  0.00     0.261 C 
BRANCH   7   8
ATOM      8  O   UNL     1       2.024  -0.509   0.884  1.00  0.00    -0.460 OA
BRANCH   8   9
ATOM      9  C   UNL     1       2.542  -0.701   2.120  1.00  0.00     0.338 C 
ATOM     10  O   UNL     1       1.994  -1.389   2.968  1.00  0.00    -0.246 OA
BRANCH   9  11
ATOM     11  C   UNL     1       3.730   0.145   2.418  1.00  0.00     0.087 C 
ATOM     12  C   UNL     1       4.777  -0.590   2.830  1.00  0.00     0.027 C 
ATOM     13  C   UNL     1       3.911   1.382   1.578  1.00  0.00     0.316 C 
ATOM     14  C   UNL     1       5.899  -0.614   1.892  1.00  0.00     0.018 A 
ATOM     15  O   UNL     1       5.110   1.392   0.766  1.00  0.00    -0.475 OA
ATOM     16  C   UNL     1       6.859  -1.631   1.971  1.00  0.00     0.025 A 
ATOM     17  C   UNL     1       5.941   0.307   0.844  1.00  0.00     0.128 A 
ATOM     18  C   UNL     1       7.818  -1.777   0.956  1.00  0.00     0.056 A 
ATOM     19  C   UNL     1       6.844   0.127  -0.200  1.00  0.00     0.048 A 
ATOM     20  C   UNL     1       7.756  -0.929  -0.162  1.00  0.00     0.017 A 
BRANCH  13  21
ATOM     21  C   UNL     1       3.766   2.659   2.411  1.00  0.00     0.430 C 
ATOM     22  F   UNL     1       3.489   3.730   1.629  1.00  0.00    -0.167 F 
ATOM     23  F   UNL     1       2.737   2.554   3.291  1.00  0.00    -0.167 F 
ATOM     24  F   UNL     1       4.875   2.947   3.127  1.00  0.00    -0.167 F 
ENDBRANCH  13  21
BRANCH  18  25
ATOM     25  C   UNL     1       8.954  -2.763   1.082  1.00  0.00     0.416 C 
ATOM     26  F   UNL     1      10.128  -2.131   1.367  1.00  0.00    -0.166 F 
ATOM     27  F   UNL     1       8.778  -3.678   2.075  1.00  0.00    -0.166 F 
ATOM     28  F   UNL     1       9.179  -3.473  -0.056  1.00  0.00    -0.166 F 
ENDBRANCH  18  25
ENDBRANCH   9  11
ENDBRANCH   8   9
ENDBRANCH   7   8
ENDBRANCH   6   7
ENDBRANCH   5   6
ENDBRANCH   4   5
ENDBRANCH   3   4
ENDBRANCH   2   3
ENDBRANCH   1   2
BRANCH   1  29
ATOM     29  C   UNL     1       4.224   2.294  -3.441  1.00  0.00     0.188 C 
BRANCH  29  30
ATOM     30  O   UNL     1       4.236   3.685  -3.141  1.00  0.00    -0.376 OA
BRANCH  30  31
ATOM     31  C   UNL     1       3.184   4.509  -3.599  1.00  0.00     0.202 C 
BRANCH  31  32
ATOM     32  C   UNL     1       3.183   4.841  -5.100  1.00  0.00     0.261 C 
BRANCH  32  33
ATOM     33  O   UNL     1       3.531   3.747  -5.966  1.00  0.00    -0.460 OA
BRANCH  33  34
ATOM     34  C   UNL     1       4.846   3.652  -6.318  1.00  0.00     0.338 C 
ATOM     35  O   UNL     1       5.712   4.464  -6.109  1.00  0.00    -0.246 OA
BRANCH  34  36
ATOM     36  C   UNL     1       5.114   2.271  -6.830  1.00  0.00     0.060 A 
ATOM     37  C   UNL     1       6.251   1.604  -6.348  1.00  0.00     0.016 A 
ATOM     38  C   UNL     1       4.242   1.605  -7.696  1.00  0.00     0.016 A 
ATOM     39  C   UNL     1       6.519   0.282  -6.724  1.00  0.00     0.010 A 
ATOM     40  C   UNL     1       4.526   0.290  -8.095  1.00  0.00     0.010 A 
ATOM     41  C   UNL     1       5.676  -0.374  -7.629  1.00  0.00    -0.014 A 
BRANCH  41  42
ATOM     42  C   UNL     1       6.103  -1.649  -8.268  1.00  0.00     0.031 A 
ATOM     43  C   UNL     1       6.797  -1.560  -9.602  1.00  0.00     0.074 A 
ATOM     44  C   UNL     1       5.873  -2.856  -7.713  1.00  0.00     0.049 A 
ATOM     45  N   UNL     1       7.133  -2.513 -10.430  1.00  0.00    -0.248 NA
ATOM     46  C   UNL     1       7.154  -0.207 -10.064  1.00  0.00     0.031 C 
ATOM     47  C   UNL     1       5.265  -3.089  -6.404  1.00  0.00     0.029 A 
ATOM     48  N   UNL     1       6.104  -4.122  -8.202  1.00  0.00    -0.354 N 
ATOM     49  C   UNL     1       7.713  -1.876 -11.521  1.00  0.00     0.074 A 
ATOM     50  C   UNL     1       7.685  -0.456 -11.252  1.00  0.00     0.031 C 
ATOM     51  C   UNL     1       5.136  -4.415  -6.212  1.00  0.00     0.029 A 
ATOM     52  C   UNL     1       5.611  -5.126  -7.399  1.00  0.00     0.049 A 
ATOM     53  H   UNL     1       6.579  -4.293  -9.048  1.00  0.00     0.167 HD
ATOM     54  C   UNL     1       8.217  -2.424 -12.650  1.00  0.00     0.037 A 
ATOM     55  C   UNL     1       5.510  -6.456  -7.619  1.00  0.00     0.037 A 
ATOM     56  C   UNL     1       8.261  -3.837 -12.913  1.00  0.00     0.049 A 
ATOM     57  C   UNL     1       6.012  -7.036  -8.924  1.00  0.00     0.074 A 
ATOM     58  C   UNL     1       8.801  -4.487 -14.009  1.00  0.00     0.029 A 
ATOM     59  N   UNL     1       7.736  -4.815 -12.085  1.00  0.00    -0.354 N 
ATOM     60  N   UNL     1       6.598  -6.427  -9.928  1.00  0.00    -0.248 NA
ATOM     61  C   UNL     1       5.830  -8.482  -9.131  1.00  0.00     0.031 C 
ATOM     62  C   UNL     1       8.543  -5.853 -13.875  1.00  0.00     0.029 A 
ATOM     63  C   UNL     1       7.898  -6.060 -12.667  1.00  0.00     0.049 A 
ATOM     64  H   UNL     1       7.311  -4.649 -11.212  1.00  0.00     0.167 HD
ATOM     65  C   UNL     1       6.868  -7.417 -10.871  1.00  0.00     0.074 A 
ATOM     66  C   UNL     1       6.405  -8.667 -10.312  1.00  0.00     0.031 C 
ATOM     67  C   UNL     1       7.442  -7.301 -12.094  1.00  0.00     0.037 A 
BRANCH  54  68
ATOM     68  C   UNL     1       8.735  -1.501 -13.715  1.00  0.00     0.058 A 
ATOM     69  C   UNL     1       9.959  -0.830 -13.586  1.00  0.00     0.135 A 
ATOM     70  C   UNL     1       8.031  -1.362 -14.923  1.00  0.00     0.135 A 
ATOM     71  F   UNL     1      10.657  -0.910 -12.442  1.00  0.00    -0.206 F 
ATOM     72  C   UNL     1      10.473  -0.056 -14.621  1.00  0.00     0.059 A 
ATOM     73  C   UNL     1       8.538  -0.615 -15.980  1.00  0.00     0.059 A 
ATOM     74  F   UNL     1       6.849  -1.976 -15.091  1.00  0.00    -0.206 F 
ATOM     75  C   UNL     1       9.760   0.035 -15.819  1.00  0.00     0.060 A 
BRANCH  75  76
ATOM     76  S   UNL     1      10.474   0.989 -17.174  1.00  0.00     0.124 S 
ATOM     77  O   UNL     1      10.343   2.353 -16.672  1.00  0.00    -0.237 OA
ATOM     78  O   UNL     1      11.835   0.466 -17.238  1.00  0.00    -0.237 OA
ATOM     79  O   UNL     1       9.623   0.656 -18.312  1.00  0.00    -0.744 OA
ENDBRANCH  75  76
ENDBRANCH  54  68
BRANCH  55  80
ATOM     80  C   UNL     1       4.841  -7.345  -6.624  1.00  0.00     0.058 A 
ATOM     81  C   UNL     1       5.543  -8.364  -5.961  1.00  0.00     0.135 A 
ATOM     82  C   UNL     1       3.463  -7.237  -6.371  1.00  0.00     0.135 A 
ATOM     83  F   UNL     1       6.856  -8.525  -6.182  1.00  0.00    -0.206 F 
ATOM     84  C   UNL     1       4.902  -9.260  -5.109  1.00  0.00     0.059 A 
ATOM     85  C   UNL     1       2.806  -8.101  -5.499  1.00  0.00     0.059 A 
ATOM     86  F   UNL     1       2.740  -6.280  -6.973  1.00  0.00    -0.206 F 
ATOM     87  C   UNL     1       3.531  -9.121  -4.886  1.00  0.00     0.060 A 
BRANCH  87  88
ATOM     88  S   UNL     1       2.709 -10.275  -3.765  1.00  0.00     0.124 S 
ATOM     89  O   UNL     1       2.676 -11.492  -4.568  1.00  0.00    -0.237 OA
ATOM     90  O   UNL     1       3.615 -10.287  -2.621  1.00  0.00    -0.237 OA
ATOM     91  O   UNL     1       1.416  -9.641  -3.524  1.00  0.00    -0.744 OA
ENDBRANCH  87  88
ENDBRANCH  55  80
BRANCH  67  92
ATOM     92  C   UNL     1       7.628  -8.552 -12.911  1.00  0.00     0.058 A 
ATOM     93  C   UNL     1       6.544  -9.198 -13.524  1.00  0.00     0.135 A 
ATOM     94  C   UNL     1       8.916  -9.060 -13.155  1.00  0.00     0.135 A 
ATOM     95  F   UNL     1       5.292  -8.757 -13.321  1.00  0.00    -0.206 F 
ATOM     96  C   UNL     1       6.727 -10.311 -14.340  1.00  0.00     0.059 A 
ATOM     97  C   UNL     1       9.125 -10.153 -13.990  1.00  0.00     0.059 A 
ATOM     98  F   UNL     1       9.990  -8.473 -12.603  1.00  0.00    -0.206 F 
ATOM     99  C   UNL     1       8.023 -10.777 -14.572  1.00  0.00     0.060 A 
BRANCH  99 100
ATOM    100  S   UNL     1       8.248 -12.188 -15.675  1.00  0.00     0.124 S 
ATOM    101  O   UNL     1       7.734 -13.284 -14.861  1.00  0.00    -0.237 OA
ATOM    102  O   UNL     1       7.431 -11.817 -16.827  1.00  0.00    -0.237 OA
ATOM    103  O   UNL     1       9.688 -12.208 -15.915  1.00  0.00    -0.744 OA
ENDBRANCH  99 100
ENDBRANCH  67  92
ENDBRANCH  41  42
ENDBRANCH  34  36
ENDBRANCH  33  34
ENDBRANCH  32  33
ENDBRANCH  31  32
ENDBRANCH  30  31
ENDBRANCH  29  30
ENDBRANCH   1  29
TORSDOF 25
