REMARK SMILES O=C1CC[C@@H](CC(=O)N2CCC(Oc3ccccc3)(C(=O)OCCOCCOCCOCCOC(=O)c3ccc(-c4c5nc(c(-c6c(F)cc(S(=O)(=O)[O-])cc6F)c6ccc([nH]6)c(-c6c(F)cc(S(=O)(=O)[O-])cc6F)c6nc(c(-c7c(F)cc(S(=O)(=O)[O-])cc7F)c7ccc4[nH]7)C=C6)C=C5)cc3)CC2)N1
REMARK SMILES IDX 29 1 28 2 27 3 26 4 25 5 24 6 23 7 22 8 20 9 21 10 12 11
REMARK SMILES IDX 7 12 8 13 9 14 10 15 104 16 11 17 103 18 6 19 5 20 1 21 2 22
REMARK SMILES IDX 3 23 105 24 4 25 13 27 14 28 15 29 19 30 16 31 18 32 17 33
REMARK SMILES IDX 30 34 31 35 32 36 33 37 34 38 35 39 36 40 37 41 38 42 102 43
REMARK SMILES IDX 39 44 101 45 40 46 41 47 42 48 95 49 43 50 100 51 94 52
REMARK SMILES IDX 96 53 44 54 99 55 93 56 92 57 45 59 79 60 58 61 78 62 59 63
REMARK SMILES IDX 62 64 77 65 97 66 60 67 61 68 76 70 98 71 63 72 46 73 47 74
REMARK SMILES IDX 56 75 48 76 49 77 55 78 57 79 50 80 51 81 52 82 53 83 54 84
REMARK SMILES IDX 80 85 81 86 90 87 82 88 83 89 89 90 91 91 84 92 85 93 86 94
REMARK SMILES IDX 87 95 88 96 64 97 65 98 74 99 66 100 67 101 73 102 75 103
REMARK SMILES IDX 68 104 69 105 70 106 71 107 72 108
REMARK H PARENT 105 26 96 58 62 69
REMARK Flexibility Score: inf
ROOT
ATOM      1  C   UNL     1      -2.375   2.948  -6.407  1.00  0.00     0.188 C 
ENDROOT
BRANCH   1   2
ATOM      2  O   UNL     1      -1.149   2.531  -5.834  1.00  0.00    -0.377 OA
BRANCH   2   3
ATOM      3  C   UNL     1      -1.155   2.141  -4.483  1.00  0.00     0.188 C 
BRANCH   3   4
ATOM      4  C   UNL     1      -0.875   3.242  -3.458  1.00  0.00     0.188 C 
BRANCH   4   5
ATOM      5  O   UNL     1      -0.472   4.530  -3.888  1.00  0.00    -0.376 OA
BRANCH   5   6
ATOM      6  C   UNL     1       0.345   4.681  -5.043  1.00  0.00     0.202 C 
BRANCH   6   7
ATOM      7  C   UNL     1       1.673   3.906  -5.174  1.00  0.00     0.261 C 
BRANCH   7   8
ATOM      8  O   UNL     1       1.608   2.459  -5.208  1.00  0.00    -0.460 OA
BRANCH   8   9
ATOM      9  C   UNL     1       2.048   1.807  -4.096  1.00  0.00     0.350 C 
ATOM     10  O   UNL     1       2.403   2.401  -3.078  1.00  0.00    -0.247 OA
BRANCH   9  11
ATOM     11  C   UNL     1       2.077   0.247  -4.202  1.00  0.00     0.209 C 
ATOM     12  C   UNL     1      -1.342  -1.799  -2.350  1.00  0.00     0.224 C 
ATOM     13  O   UNL     1      -1.835  -2.734  -3.004  1.00  0.00    -0.275 OA
ATOM     14  N   UNL     1      -0.361  -1.014  -2.938  1.00  0.00    -0.342 N 
ATOM     15  C   UNL     1      -0.201  -1.119  -4.393  1.00  0.00     0.124 C 
ATOM     16  C   UNL     1       0.572  -0.179  -2.227  1.00  0.00     0.124 C 
ATOM     17  C   UNL     1       1.009  -0.444  -5.081  1.00  0.00     0.082 C 
ATOM     18  C   UNL     1       1.984  -0.291  -2.764  1.00  0.00     0.082 C 
BRANCH  12  19
ATOM     19  C   UNL     1      -2.032  -1.517  -1.000  1.00  0.00     0.125 C 
BRANCH  19  20
ATOM     20  C   UNL     1      -1.545  -0.799   0.254  1.00  0.00     0.091 C 
ATOM     21  O   UNL     1       1.586  -0.145   1.690  1.00  0.00    -0.275 OA
ATOM     22  C   UNL     1       0.477  -0.075   1.190  1.00  0.00     0.220 C 
ATOM     23  C   UNL     1      -0.289   1.188   0.891  1.00  0.00     0.102 C 
ATOM     24  N   UNL     1      -0.261  -1.158   0.765  1.00  0.00    -0.353 N 
ATOM     25  C   UNL     1      -1.562   0.724   0.188  1.00  0.00     0.035 C 
ATOM     26  H   UNL     1       0.064  -2.086   0.811  1.00  0.00     0.163 HD
ENDBRANCH  19  20
ENDBRANCH  12  19
BRANCH  11  27
ATOM     27  O   UNL     1       3.391   0.112  -4.831  1.00  0.00    -0.475 OA
BRANCH  27  28
ATOM     28  C   UNL     1       4.048  -1.055  -4.573  1.00  0.00     0.121 A 
ATOM     29  C   UNL     1       4.913  -1.124  -3.483  1.00  0.00     0.046 A 
ATOM     30  C   UNL     1       3.894  -2.148  -5.422  1.00  0.00     0.046 A 
ATOM     31  C   UNL     1       5.541  -2.330  -3.180  1.00  0.00     0.004 A 
ATOM     32  C   UNL     1       4.510  -3.357  -5.111  1.00  0.00     0.004 A 
ATOM     33  C   UNL     1       5.324  -3.451  -3.983  1.00  0.00     0.000 A 
ENDBRANCH  27  28
ENDBRANCH  11  27
ENDBRANCH   9  11
ENDBRANCH   8   9
ENDBRANCH   7   8
ENDBRANCH   6   7
ENDBRANCH   5   6
ENDBRANCH   4   5
ENDBRANCH   3   4
ENDBRANCH   2   3
ENDBRANCH   1   2
BRANCH   1  34
ATOM     34  C   UNL     1      -3.472   3.481  -5.473  1.00  0.00     0.188 C 
BRANCH  34  35
ATOM     35  O   UNL     1      -3.753   2.632  -4.364  1.00  0.00    -0.376 OA
BRANCH  35  36
ATOM     36  C   UNL     1      -4.802   1.680  -4.473  1.00  0.00     0.202 C 
BRANCH  36  37
ATOM     37  C   UNL     1      -4.632   0.508  -5.458  1.00  0.00     0.261 C 
BRANCH  37  38
ATOM     38  O   UNL     1      -4.476   0.834  -6.847  1.00  0.00    -0.460 OA
BRANCH  38  39
ATOM     39  C   UNL     1      -5.409   1.625  -7.430  1.00  0.00     0.338 C 
ATOM     40  O   UNL     1      -6.427   2.038  -6.930  1.00  0.00    -0.246 OA
BRANCH  39  41
ATOM     41  C   UNL     1      -4.847   2.088  -8.724  1.00  0.00     0.060 A 
ATOM     42  C   UNL     1      -4.699   3.466  -8.930  1.00  0.00     0.016 A 
ATOM     43  C   UNL     1      -4.440   1.181  -9.705  1.00  0.00     0.016 A 
ATOM     44  C   UNL     1      -4.166   3.940 -10.129  1.00  0.00     0.010 A 
ATOM     45  C   UNL     1      -3.933   1.659 -10.918  1.00  0.00     0.010 A 
ATOM     46  C   UNL     1      -3.821   3.042 -11.146  1.00  0.00    -0.014 A 
BRANCH  46  47
ATOM     47  C   UNL     1      -3.525   3.567 -12.502  1.00  0.00     0.031 A 
ATOM     48  C   UNL     1      -4.639   3.604 -13.513  1.00  0.00     0.074 A 
ATOM     49  C   UNL     1      -2.311   4.051 -12.815  1.00  0.00     0.049 A 
ATOM     50  N   UNL     1      -4.631   4.045 -14.744  1.00  0.00    -0.248 NA
ATOM     51  C   UNL     1      -5.939   3.073 -13.072  1.00  0.00     0.031 C 
ATOM     52  C   UNL     1      -1.164   4.106 -11.911  1.00  0.00     0.029 A 
ATOM     53  N   UNL     1      -1.843   4.594 -13.986  1.00  0.00    -0.354 N 
ATOM     54  C   UNL     1      -5.921   3.847 -15.224  1.00  0.00     0.074 A 
ATOM     55  C   UNL     1      -6.673   3.211 -14.164  1.00  0.00     0.031 C 
ATOM     56  C   UNL     1      -0.121   4.651 -12.562  1.00  0.00     0.029 A 
ATOM     57  C   UNL     1      -0.519   4.960 -13.935  1.00  0.00     0.049 A 
ATOM     58  H   UNL     1      -2.403   4.711 -14.787  1.00  0.00     0.167 HD
ATOM     59  C   UNL     1      -6.435   4.174 -16.434  1.00  0.00     0.037 A 
ATOM     60  C   UNL     1       0.281   5.472 -14.893  1.00  0.00     0.037 A 
ATOM     61  C   UNL     1      -5.675   4.792 -17.490  1.00  0.00     0.049 A 
ATOM     62  C   UNL     1      -0.290   5.757 -16.258  1.00  0.00     0.074 A 
ATOM     63  C   UNL     1      -6.105   5.177 -18.747  1.00  0.00     0.029 A 
ATOM     64  N   UNL     1      -4.323   5.098 -17.419  1.00  0.00    -0.354 N 
ATOM     65  N   UNL     1      -1.520   5.596 -16.690  1.00  0.00    -0.248 NA
ATOM     66  C   UNL     1       0.633   6.298 -17.265  1.00  0.00     0.031 C 
ATOM     67  C   UNL     1      -5.000   5.659 -19.458  1.00  0.00     0.029 A 
ATOM     68  C   UNL     1      -3.894   5.636 -18.622  1.00  0.00     0.049 A 
ATOM     69  H   UNL     1      -3.752   4.955 -16.630  1.00  0.00     0.167 HD
ATOM     70  C   UNL     1      -1.523   6.038 -18.010  1.00  0.00     0.074 A 
ATOM     71  C   UNL     1      -0.176   6.489 -18.298  1.00  0.00     0.031 C 
ATOM     72  C   UNL     1      -2.546   6.070 -18.901  1.00  0.00     0.037 A 
BRANCH  59  73
ATOM     73  C   UNL     1      -7.878   3.830 -16.687  1.00  0.00     0.058 A 
ATOM     74  C   UNL     1      -8.928   4.488 -16.026  1.00  0.00     0.135 A 
ATOM     75  C   UNL     1      -8.217   2.825 -17.608  1.00  0.00     0.135 A 
ATOM     76  F   UNL     1      -8.664   5.444 -15.120  1.00  0.00    -0.206 F 
ATOM     77  C   UNL     1     -10.258   4.137 -16.238  1.00  0.00     0.059 A 
ATOM     78  C   UNL     1      -9.541   2.479 -17.861  1.00  0.00     0.059 A 
ATOM     79  F   UNL     1      -7.256   2.160 -18.268  1.00  0.00    -0.206 F 
ATOM     80  C   UNL     1     -10.554   3.128 -17.156  1.00  0.00     0.060 A 
BRANCH  80  81
ATOM     81  S   UNL     1     -12.282   2.671 -17.408  1.00  0.00     0.124 S 
ATOM     82  O   UNL     1     -12.586   1.986 -16.155  1.00  0.00    -0.237 OA
ATOM     83  O   UNL     1     -12.924   3.969 -17.592  1.00  0.00    -0.237 OA
ATOM     84  O   UNL     1     -12.241   1.821 -18.593  1.00  0.00    -0.744 OA
ENDBRANCH  80  81
ENDBRANCH  59  73
BRANCH  60  85
ATOM     85  C   UNL     1       1.712   5.750 -14.591  1.00  0.00     0.058 A 
ATOM     86  C   UNL     1       2.198   7.064 -14.523  1.00  0.00     0.135 A 
ATOM     87  C   UNL     1       2.620   4.706 -14.350  1.00  0.00     0.135 A 
ATOM     88  F   UNL     1       1.375   8.097 -14.762  1.00  0.00    -0.206 F 
ATOM     89  C   UNL     1       3.531   7.335 -14.228  1.00  0.00     0.059 A 
ATOM     90  C   UNL     1       3.950   4.952 -14.026  1.00  0.00     0.059 A 
ATOM     91  F   UNL     1       2.205   3.431 -14.399  1.00  0.00    -0.206 F 
ATOM     92  C   UNL     1       4.398   6.271 -13.971  1.00  0.00     0.060 A 
BRANCH  92  93
ATOM     93  S   UNL     1       6.106   6.639 -13.514  1.00  0.00     0.124 S 
ATOM     94  O   UNL     1       6.651   7.128 -14.774  1.00  0.00    -0.237 OA
ATOM     95  O   UNL     1       5.929   7.637 -12.463  1.00  0.00    -0.237 OA
ATOM     96  O   UNL     1       6.618   5.348 -13.062  1.00  0.00    -0.744 OA
ENDBRANCH  92  93
ENDBRANCH  60  85
BRANCH  72  97
ATOM     97  C   UNL     1      -2.256   6.631 -20.270  1.00  0.00     0.058 A 
ATOM     98  C   UNL     1      -1.448   5.950 -21.194  1.00  0.00     0.135 A 
ATOM     99  C   UNL     1      -2.821   7.853 -20.674  1.00  0.00     0.135 A 
ATOM    100  F   UNL     1      -0.879   4.780 -20.861  1.00  0.00    -0.206 F 
ATOM    101  C   UNL     1      -1.180   6.476 -22.454  1.00  0.00     0.059 A 
ATOM    102  C   UNL     1      -2.594   8.381 -21.941  1.00  0.00     0.059 A 
ATOM    103  F   UNL     1      -3.614   8.541 -19.837  1.00  0.00    -0.206 F 
ATOM    104  C   UNL     1      -1.757   7.694 -22.818  1.00  0.00     0.060 A 
BRANCH 104 105
ATOM    105  S   UNL     1      -1.408   8.361 -24.459  1.00  0.00     0.124 S 
ATOM    106  O   UNL     1      -0.022   8.793 -24.313  1.00  0.00    -0.237 OA
ATOM    107  O   UNL     1      -1.624   7.202 -25.320  1.00  0.00    -0.237 OA
ATOM    108  O   UNL     1      -2.387   9.434 -24.606  1.00  0.00    -0.744 OA
ENDBRANCH 104 105
ENDBRANCH  72  97
ENDBRANCH  46  47
ENDBRANCH  39  41
ENDBRANCH  38  39
ENDBRANCH  37  38
ENDBRANCH  36  37
ENDBRANCH  35  36
ENDBRANCH  34  35
ENDBRANCH   1  34
TORSDOF 27
