REMARK SMILES C[NH+](C)[C@H]1CCN(C(=O)C(=O)c2ccccc2)C[C@H]1CCC(=O)OCCOCCOCCOCCOC(=O)c1ccc(-c2c3nc(c(-c4c(F)cc(S(=O)(=O)[O-])cc4F)c4ccc([nH]4)c(-c4c(F)cc(S(=O)(=O)[O-])cc4F)c4nc(c(-c5c(F)cc(S(=O)(=O)[O-])cc5F)c5ccc2[nH]5)C=C4)C=C3)cc1
REMARK SMILES IDX 29 1 28 2 27 3 26 4 25 5 24 6 22 7 23 8 21 9 20 10 19 11
REMARK SMILES IDX 4 12 5 13 6 14 18 15 7 16 2 17 1 18 3 19 8 21 9 22 10 23
REMARK SMILES IDX 11 24 12 25 13 26 17 27 14 28 16 29 15 30 30 31 31 32 32 33
REMARK SMILES IDX 33 34 34 35 35 36 36 37 37 38 38 39 39 40 40 41 104 42 41 43
REMARK SMILES IDX 103 44 42 45 43 46 44 47 97 48 45 49 102 50 96 51 98 52
REMARK SMILES IDX 46 53 101 54 95 55 94 56 47 58 81 59 60 60 80 61 61 62 64 63
REMARK SMILES IDX 79 64 99 65 62 66 63 67 78 69 100 70 65 71 48 72 49 73 58 74
REMARK SMILES IDX 50 75 51 76 57 77 59 78 52 79 53 80 54 81 55 82 56 83 82 84
REMARK SMILES IDX 83 85 92 86 84 87 85 88 91 89 93 90 86 91 87 92 88 93 89 94
REMARK SMILES IDX 90 95 66 96 67 97 76 98 68 99 69 100 75 101 77 102 70 103
REMARK SMILES IDX 71 104 72 105 73 106 74 107
REMARK H PARENT 2 20 98 57 64 68
REMARK Flexibility Score: inf
ROOT
ATOM      1  C   UNL     1       3.173  -5.777  -3.028  1.00  0.00     0.188 C 
ENDROOT
BRANCH   1   2
ATOM      2  C   UNL     1       4.705  -5.844  -2.988  1.00  0.00     0.188 C 
BRANCH   2   3
ATOM      3  O   UNL     1       5.359  -6.168  -1.779  1.00  0.00    -0.376 OA
BRANCH   3   4
ATOM      4  C   UNL     1       5.303  -5.293  -0.662  1.00  0.00     0.202 C 
BRANCH   4   5
ATOM      5  C   UNL     1       4.966  -3.792  -0.743  1.00  0.00     0.261 C 
BRANCH   5   6
ATOM      6  O   UNL     1       4.016  -3.398  -1.741  1.00  0.00    -0.463 OA
BRANCH   6   7
ATOM      7  C   UNL     1       4.418  -2.481  -2.647  1.00  0.00     0.305 C 
ATOM      8  O   UNL     1       5.556  -2.017  -2.692  1.00  0.00    -0.252 OA
BRANCH   7   9
ATOM      9  C   UNL     1       3.399  -2.145  -3.720  1.00  0.00     0.123 C 
BRANCH   9  10
ATOM     10  C   UNL     1       1.913  -2.526  -3.668  1.00  0.00     0.023 C 
BRANCH  10  11
ATOM     11  C   UNL     1       1.127  -2.475  -2.335  1.00  0.00     0.067 C 
ATOM     12  C   UNL     1       0.911  -1.040  -1.786  1.00  0.00     0.190 C 
ATOM     13  C   UNL     1      -0.017  -0.263  -2.747  1.00  0.00     0.087 C 
ATOM     14  C   UNL     1      -1.320  -1.022  -3.024  1.00  0.00     0.126 C 
ATOM     15  C   UNL     1      -0.235  -3.174  -2.531  1.00  0.00     0.129 C 
ATOM     16  N   UNL     1      -1.100  -2.409  -3.429  1.00  0.00    -0.335 N 
BRANCH  12  17
ATOM     17  N   UNL     1       2.242  -0.451  -1.525  1.00  0.00    -0.337 N 
ATOM     18  C   UNL     1       2.749  -0.822  -0.196  1.00  0.00     0.332 C 
ATOM     19  C   UNL     1       2.372   0.987  -1.714  1.00  0.00     0.332 C 
ATOM     20  H   UNL     1       2.815  -0.864  -2.260  1.00  0.00     0.347 HD
ENDBRANCH  12  17
BRANCH  16  21
ATOM     21  C   UNL     1      -1.827  -2.918  -4.516  1.00  0.00     0.294 C 
ATOM     22  O   UNL     1      -2.489  -2.193  -5.258  1.00  0.00    -0.265 OA
BRANCH  21  23
ATOM     23  C   UNL     1      -1.860  -4.437  -4.803  1.00  0.00     0.250 C 
ATOM     24  O   UNL     1      -1.627  -5.263  -3.929  1.00  0.00    -0.283 OA
BRANCH  23  25
ATOM     25  C   UNL     1      -2.315  -4.931  -6.136  1.00  0.00     0.028 A 
ATOM     26  C   UNL     1      -3.014  -6.149  -6.177  1.00  0.00     0.012 A 
ATOM     27  C   UNL     1      -2.078  -4.239  -7.329  1.00  0.00     0.012 A 
ATOM     28  C   UNL     1      -3.502  -6.648  -7.387  1.00  0.00     0.001 A 
ATOM     29  C   UNL     1      -2.563  -4.746  -8.540  1.00  0.00     0.001 A 
ATOM     30  C   UNL     1      -3.279  -5.944  -8.568  1.00  0.00     0.000 A 
ENDBRANCH  23  25
ENDBRANCH  21  23
ENDBRANCH  16  21
ENDBRANCH  10  11
ENDBRANCH   9  10
ENDBRANCH   7   9
ENDBRANCH   6   7
ENDBRANCH   5   6
ENDBRANCH   4   5
ENDBRANCH   3   4
ENDBRANCH   2   3
ENDBRANCH   1   2
BRANCH   1  31
ATOM     31  O   UNL     1       2.498  -5.531  -1.812  1.00  0.00    -0.377 OA
BRANCH  31  32
ATOM     32  C   UNL     1       2.278  -6.600  -0.902  1.00  0.00     0.188 C 
BRANCH  32  33
ATOM     33  C   UNL     1       2.912  -7.984  -1.141  1.00  0.00     0.188 C 
BRANCH  33  34
ATOM     34  O   UNL     1       3.026  -8.372  -2.501  1.00  0.00    -0.376 OA
BRANCH  34  35
ATOM     35  C   UNL     1       1.984  -9.142  -3.082  1.00  0.00     0.202 C 
BRANCH  35  36
ATOM     36  C   UNL     1       0.569  -8.541  -3.123  1.00  0.00     0.261 C 
BRANCH  36  37
ATOM     37  O   UNL     1      -0.032  -8.247  -1.854  1.00  0.00    -0.460 OA
BRANCH  37  38
ATOM     38  C   UNL     1      -0.148  -9.253  -0.961  1.00  0.00     0.338 C 
ATOM     39  O   UNL     1       0.164 -10.415  -1.112  1.00  0.00    -0.246 OA
BRANCH  38  40
ATOM     40  C   UNL     1      -0.558  -8.652   0.325  1.00  0.00     0.060 A 
ATOM     41  C   UNL     1       0.298  -8.760   1.428  1.00  0.00     0.016 A 
ATOM     42  C   UNL     1      -1.787  -8.000   0.439  1.00  0.00     0.016 A 
ATOM     43  C   UNL     1      -0.098  -8.258   2.666  1.00  0.00     0.010 A 
ATOM     44  C   UNL     1      -2.192  -7.517   1.685  1.00  0.00     0.010 A 
ATOM     45  C   UNL     1      -1.366  -7.680   2.811  1.00  0.00    -0.014 A 
BRANCH  45  46
ATOM     46  C   UNL     1      -1.909  -7.442   4.170  1.00  0.00     0.031 A 
ATOM     47  C   UNL     1      -2.837  -8.473   4.754  1.00  0.00     0.074 A 
ATOM     48  C   UNL     1      -1.563  -6.356   4.882  1.00  0.00     0.049 A 
ATOM     49  N   UNL     1      -3.469  -8.470   5.898  1.00  0.00    -0.248 NA
ATOM     50  C   UNL     1      -3.087  -9.670   3.932  1.00  0.00     0.031 C 
ATOM     51  C   UNL     1      -0.636  -5.315   4.441  1.00  0.00     0.029 A 
ATOM     52  N   UNL     1      -1.960  -5.946   6.130  1.00  0.00    -0.354 N 
ATOM     53  C   UNL     1      -4.195  -9.655   5.931  1.00  0.00     0.074 A 
ATOM     54  C   UNL     1      -3.953 -10.337   4.679  1.00  0.00     0.031 C 
ATOM     55  C   UNL     1      -0.547  -4.377   5.401  1.00  0.00     0.029 A 
ATOM     56  C   UNL     1      -1.434  -4.733   6.507  1.00  0.00     0.049 A 
ATOM     57  H   UNL     1      -2.566  -6.471   6.702  1.00  0.00     0.167 HD
ATOM     58  C   UNL     1      -4.986 -10.135   6.920  1.00  0.00     0.037 A 
ATOM     59  C   UNL     1      -1.664  -3.988   7.607  1.00  0.00     0.037 A 
ATOM     60  C   UNL     1      -5.225  -9.446   8.161  1.00  0.00     0.049 A 
ATOM     61  C   UNL     1      -2.609  -4.507   8.663  1.00  0.00     0.074 A 
ATOM     62  C   UNL     1      -6.000  -9.850   9.233  1.00  0.00     0.029 A 
ATOM     63  N   UNL     1      -4.699  -8.205   8.493  1.00  0.00    -0.354 N 
ATOM     64  N   UNL     1      -3.276  -5.638   8.692  1.00  0.00    -0.248 NA
ATOM     65  C   UNL     1      -2.830  -3.652   9.837  1.00  0.00     0.031 C 
ATOM     66  C   UNL     1      -5.992  -8.827  10.187  1.00  0.00     0.029 A 
ATOM     67  C   UNL     1      -5.157  -7.815   9.741  1.00  0.00     0.049 A 
ATOM     68  H   UNL     1      -4.091  -7.679   7.924  1.00  0.00     0.167 HD
ATOM     69  C   UNL     1      -3.968  -5.643   9.900  1.00  0.00     0.074 A 
ATOM     70  C   UNL     1      -3.630  -4.408  10.577  1.00  0.00     0.031 C 
ATOM     71  C   UNL     1      -4.804  -6.584  10.405  1.00  0.00     0.037 A 
BRANCH  58  72
ATOM     72  C   UNL     1      -5.676 -11.451   6.685  1.00  0.00     0.058 A 
ATOM     73  C   UNL     1      -4.970 -12.664   6.643  1.00  0.00     0.135 A 
ATOM     74  C   UNL     1      -7.071 -11.502   6.528  1.00  0.00     0.135 A 
ATOM     75  F   UNL     1      -3.633 -12.673   6.766  1.00  0.00    -0.206 F 
ATOM     76  C   UNL     1      -5.618 -13.877   6.428  1.00  0.00     0.059 A 
ATOM     77  C   UNL     1      -7.744 -12.706   6.344  1.00  0.00     0.059 A 
ATOM     78  F   UNL     1      -7.796 -10.373   6.554  1.00  0.00    -0.206 F 
ATOM     79  C   UNL     1      -7.006 -13.887   6.282  1.00  0.00     0.060 A 
BRANCH  79  80
ATOM     80  S   UNL     1      -7.832 -15.470   6.015  1.00  0.00     0.124 S 
ATOM     81  O   UNL     1      -7.410 -15.793   4.655  1.00  0.00    -0.237 OA
ATOM     82  O   UNL     1      -7.261 -16.300   7.070  1.00  0.00    -0.237 OA
ATOM     83  O   UNL     1      -9.247 -15.147   6.171  1.00  0.00    -0.744 OA
ENDBRANCH  79  80
ENDBRANCH  58  72
BRANCH  59  84
ATOM     84  C   UNL     1      -1.002  -2.664   7.763  1.00  0.00     0.058 A 
ATOM     85  C   UNL     1      -0.037  -2.445   8.758  1.00  0.00     0.135 A 
ATOM     86  C   UNL     1      -1.324  -1.588   6.921  1.00  0.00     0.135 A 
ATOM     87  F   UNL     1       0.297  -3.437   9.598  1.00  0.00    -0.206 F 
ATOM     88  C   UNL     1       0.573  -1.206   8.923  1.00  0.00     0.059 A 
ATOM     89  C   UNL     1      -0.707  -0.348   7.047  1.00  0.00     0.059 A 
ATOM     90  F   UNL     1      -2.234  -1.745   5.947  1.00  0.00    -0.206 F 
ATOM     91  C   UNL     1       0.235  -0.164   8.057  1.00  0.00     0.060 A 
BRANCH  91  92
ATOM     92  S   UNL     1       1.074   1.425   8.244  1.00  0.00     0.124 S 
ATOM     93  O   UNL     1       0.491   1.922   9.484  1.00  0.00    -0.237 OA
ATOM     94  O   UNL     1       2.475   1.022   8.312  1.00  0.00    -0.237 OA
ATOM     95  O   UNL     1       0.696   2.148   7.033  1.00  0.00    -0.744 OA
ENDBRANCH  91  92
ENDBRANCH  59  84
BRANCH  71  96
ATOM     96  C   UNL     1      -5.380  -6.343  11.776  1.00  0.00     0.058 A 
ATOM     97  C   UNL     1      -6.354  -5.360  12.012  1.00  0.00     0.135 A 
ATOM     98  C   UNL     1      -4.989  -7.148  12.860  1.00  0.00     0.135 A 
ATOM     99  F   UNL     1      -6.762  -4.560  11.014  1.00  0.00    -0.206 F 
ATOM    100  C   UNL     1      -6.898  -5.164  13.278  1.00  0.00     0.059 A 
ATOM    101  C   UNL     1      -5.544  -6.992  14.126  1.00  0.00     0.059 A 
ATOM    102  F   UNL     1      -4.071  -8.113  12.689  1.00  0.00    -0.206 F 
ATOM    103  C   UNL     1      -6.488  -5.987  14.328  1.00  0.00     0.060 A 
BRANCH 103 104
ATOM    104  S   UNL     1      -7.223  -5.739  15.959  1.00  0.00     0.124 S 
ATOM    105  O   UNL     1      -6.602  -4.486  16.373  1.00  0.00    -0.237 OA
ATOM    106  O   UNL     1      -8.648  -5.671  15.651  1.00  0.00    -0.237 OA
ATOM    107  O   UNL     1      -6.805  -6.923  16.704  1.00  0.00    -0.744 OA
ENDBRANCH 103 104
ENDBRANCH  71  96
ENDBRANCH  45  46
ENDBRANCH  38  40
ENDBRANCH  37  38
ENDBRANCH  36  37
ENDBRANCH  35  36
ENDBRANCH  34  35
ENDBRANCH  33  34
ENDBRANCH  32  33
ENDBRANCH  31  32
ENDBRANCH   1  31
TORSDOF 29
