REMARK SMILES CC(C)[C@H](C[NH+](C)C)NC(=O)c1csc(/C=C/C(=O)OCCOCCOCCOCCOC(=O)c2ccc(-c3c4nc(c(-c5c(F)cc(S(=O)(=O)[O-])cc5F)c5ccc([nH]5)c(-c5c(F)cc(S(=O)(=O)[O-])cc5F)c5nc(c(-c6c(F)cc(S(=O)(=O)[O-])cc6F)c6ccc3[nH]6)C=C5)C=C4)cc2)c1
REMARK SMILES IDX 25 1 24 2 23 3 22 4 21 5 20 6 18 7 19 8 17 9 16 10 15 11
REMARK SMILES IDX 12 12 13 13 101 14 14 15 10 16 9 17 11 19 4 20 2 21 1 22
REMARK SMILES IDX 3 23 5 24 6 25 7 26 8 27 26 29 27 30 28 31 29 32 30 33 31 34
REMARK SMILES IDX 32 35 33 36 34 37 35 38 36 39 100 40 37 41 99 42 38 43 39 44
REMARK SMILES IDX 40 45 93 46 41 47 98 48 92 49 94 50 42 51 97 52 91 53 90 54
REMARK SMILES IDX 43 56 77 57 56 58 76 59 57 60 60 61 75 62 95 63 58 64 59 65
REMARK SMILES IDX 74 67 96 68 61 69 44 70 45 71 54 72 46 73 47 74 53 75 55 76
REMARK SMILES IDX 48 77 49 78 50 79 51 80 52 81 78 82 79 83 88 84 80 85 81 86
REMARK SMILES IDX 87 87 89 88 82 89 83 90 84 91 85 92 86 93 62 94 63 95 72 96
REMARK SMILES IDX 64 97 65 98 71 99 73 100 66 101 67 102 68 103 69 104 70 105
REMARK H PARENT 9 18 6 28 94 55 60 66
REMARK Flexibility Score: inf
ROOT
ATOM      1  C   UNL     1      -2.187   4.331  -7.240  1.00  0.00     0.188 C 
ENDROOT
BRANCH   1   2
ATOM      2  C   UNL     1      -3.359   4.085  -8.204  1.00  0.00     0.188 C 
BRANCH   2   3
ATOM      3  O   UNL     1      -3.593   5.171  -9.097  1.00  0.00    -0.376 OA
BRANCH   3   4
ATOM      4  C   UNL     1      -4.707   6.013  -8.816  1.00  0.00     0.202 C 
BRANCH   4   5
ATOM      5  C   UNL     1      -4.642   6.863  -7.538  1.00  0.00     0.261 C 
BRANCH   5   6
ATOM      6  O   UNL     1      -4.500   6.119  -6.319  1.00  0.00    -0.460 OA
BRANCH   6   7
ATOM      7  C   UNL     1      -5.519   5.321  -5.949  1.00  0.00     0.330 C 
ATOM      8  O   UNL     1      -6.586   5.189  -6.526  1.00  0.00    -0.247 OA
BRANCH   7   9
ATOM      9  C   UNL     1      -5.134   4.480  -4.794  1.00  0.00     0.095 C 
ATOM     10  C   UNL     1      -4.053   4.704  -4.029  1.00  0.00     0.026 C 
BRANCH  10  11
ATOM     11  C   UNL     1      -3.702   3.860  -2.933  1.00  0.00     0.028 A 
ATOM     12  C   UNL     1      -2.963   3.158  -0.791  1.00  0.00     0.051 A 
ATOM     13  C   UNL     1      -3.440   1.984  -1.340  1.00  0.00     0.079 A 
ATOM     14  C   UNL     1      -3.101   4.231  -1.742  1.00  0.00     0.033 A 
ATOM     15  S   UNL     1      -3.951   2.157  -2.957  1.00  0.00    -0.144 S 
BRANCH  12  16
ATOM     16  C   UNL     1      -2.528   3.345   0.592  1.00  0.00     0.252 C 
ATOM     17  N   UNL     1      -1.921   2.333   1.284  1.00  0.00    -0.343 N 
ATOM     18  H   UNL     1      -2.004   2.400   2.263  1.00  0.00     0.164 HD
ATOM     19  O   UNL     1      -2.729   4.404   1.183  1.00  0.00    -0.269 OA
BRANCH  17  20
ATOM     20  C   UNL     1      -1.171   1.170   0.819  1.00  0.00     0.139 C 
BRANCH  20  21
ATOM     21  C   UNL     1      -1.552  -0.127   1.594  1.00  0.00     0.011 C 
ATOM     22  C   UNL     1      -2.949  -0.085   2.231  1.00  0.00     0.010 C 
ATOM     23  C   UNL     1      -1.484  -1.340   0.656  1.00  0.00     0.010 C 
ENDBRANCH  20  21
BRANCH  20  24
ATOM     24  C   UNL     1       0.371   1.444   0.824  1.00  0.00     0.287 C 
BRANCH  24  25
ATOM     25  N   UNL     1       1.008   1.700   2.141  1.00  0.00    -0.338 N 
ATOM     26  C   UNL     1       2.446   1.400   2.050  1.00  0.00     0.332 C 
ATOM     27  C   UNL     1       0.871   3.104   2.557  1.00  0.00     0.332 C 
ATOM     28  H   UNL     1       0.541   1.106   2.826  1.00  0.00     0.347 HD
ENDBRANCH  24  25
ENDBRANCH  20  24
ENDBRANCH  17  20
ENDBRANCH  12  16
ENDBRANCH  10  11
ENDBRANCH   7   9
ENDBRANCH   6   7
ENDBRANCH   5   6
ENDBRANCH   4   5
ENDBRANCH   3   4
ENDBRANCH   2   3
ENDBRANCH   1   2
BRANCH   1  29
ATOM     29  O   UNL     1      -1.797   5.691  -7.164  1.00  0.00    -0.377 OA
BRANCH  29  30
ATOM     30  C   UNL     1      -0.938   6.206  -8.182  1.00  0.00     0.188 C 
BRANCH  30  31
ATOM     31  C   UNL     1      -0.776   5.512  -9.554  1.00  0.00     0.188 C 
BRANCH  31  32
ATOM     32  O   UNL     1      -0.604   4.097  -9.483  1.00  0.00    -0.376 OA
BRANCH  32  33
ATOM     33  C   UNL     1       0.697   3.605  -9.779  1.00  0.00     0.202 C 
BRANCH  33  34
ATOM     34  C   UNL     1       1.688   3.763  -8.620  1.00  0.00     0.261 C 
BRANCH  34  35
ATOM     35  O   UNL     1       1.998   5.121  -8.274  1.00  0.00    -0.460 OA
BRANCH  35  36
ATOM     36  C   UNL     1       2.553   5.885  -9.237  1.00  0.00     0.338 C 
ATOM     37  O   UNL     1       2.880   5.529 -10.362  1.00  0.00    -0.246 OA
BRANCH  36  38
ATOM     38  C   UNL     1       2.545   7.284  -8.779  1.00  0.00     0.060 A 
ATOM     39  C   UNL     1       1.956   8.259  -9.594  1.00  0.00     0.016 A 
ATOM     40  C   UNL     1       3.139   7.634  -7.564  1.00  0.00     0.016 A 
ATOM     41  C   UNL     1       2.011   9.601  -9.219  1.00  0.00     0.010 A 
ATOM     42  C   UNL     1       3.205   8.978  -7.196  1.00  0.00     0.010 A 
ATOM     43  C   UNL     1       2.682   9.969  -8.044  1.00  0.00    -0.014 A 
BRANCH  43  44
ATOM     44  C   UNL     1       3.040  11.389  -7.817  1.00  0.00     0.031 A 
ATOM     45  C   UNL     1       4.407  11.848  -8.251  1.00  0.00     0.074 A 
ATOM     46  C   UNL     1       2.180  12.250  -7.248  1.00  0.00     0.049 A 
ATOM     47  N   UNL     1       4.968  13.021  -8.123  1.00  0.00    -0.248 NA
ATOM     48  C   UNL     1       5.254  10.844  -8.917  1.00  0.00     0.031 C 
ATOM     49  C   UNL     1       0.822  11.930  -6.813  1.00  0.00     0.029 A 
ATOM     50  N   UNL     1       2.332  13.577  -6.931  1.00  0.00    -0.354 N 
ATOM     51  C   UNL     1       6.232  12.896  -8.688  1.00  0.00     0.074 A 
ATOM     52  C   UNL     1       6.368  11.527  -9.130  1.00  0.00     0.031 C 
ATOM     53  C   UNL     1       0.267  13.030  -6.272  1.00  0.00     0.029 A 
ATOM     54  C   UNL     1       1.239  14.123  -6.301  1.00  0.00     0.049 A 
ATOM     55  H   UNL     1       3.147  14.090  -7.136  1.00  0.00     0.167 HD
ATOM     56  C   UNL     1       7.190  13.841  -8.836  1.00  0.00     0.037 A 
ATOM     57  C   UNL     1       1.056  15.357  -5.792  1.00  0.00     0.037 A 
ATOM     58  C   UNL     1       7.054  15.201  -8.390  1.00  0.00     0.049 A 
ATOM     59  C   UNL     1       2.161  16.378  -5.914  1.00  0.00     0.074 A 
ATOM     60  C   UNL     1       7.963  16.238  -8.499  1.00  0.00     0.029 A 
ATOM     61  N   UNL     1       5.938  15.711  -7.742  1.00  0.00    -0.354 N 
ATOM     62  N   UNL     1       3.342  16.255  -6.473  1.00  0.00    -0.248 NA
ATOM     63  C   UNL     1       1.907  17.706  -5.338  1.00  0.00     0.031 C 
ATOM     64  C   UNL     1       7.413  17.366  -7.880  1.00  0.00     0.029 A 
ATOM     65  C   UNL     1       6.143  17.044  -7.429  1.00  0.00     0.049 A 
ATOM     66  H   UNL     1       5.122  15.201  -7.536  1.00  0.00     0.167 HD
ATOM     67  C   UNL     1       3.957  17.497  -6.345  1.00  0.00     0.074 A 
ATOM     68  C   UNL     1       3.016  18.359  -5.660  1.00  0.00     0.031 C 
ATOM     69  C   UNL     1       5.187  17.891  -6.759  1.00  0.00     0.037 A 
BRANCH  56  70
ATOM     70  C   UNL     1       8.477  13.423  -9.489  1.00  0.00     0.058 A 
ATOM     71  C   UNL     1       8.552  13.154 -10.864  1.00  0.00     0.135 A 
ATOM     72  C   UNL     1       9.654  13.306  -8.732  1.00  0.00     0.135 A 
ATOM     73  F   UNL     1       7.450  13.229 -11.629  1.00  0.00    -0.206 F 
ATOM     74  C   UNL     1       9.743  12.758 -11.463  1.00  0.00     0.059 A 
ATOM     75  C   UNL     1      10.862  12.936  -9.315  1.00  0.00     0.059 A 
ATOM     76  F   UNL     1       9.635  13.545  -7.412  1.00  0.00    -0.206 F 
ATOM     77  C   UNL     1      10.893  12.650 -10.679  1.00  0.00     0.060 A 
BRANCH  77  78
ATOM     78  S   UNL     1      12.431  12.136 -11.470  1.00  0.00     0.124 S 
ATOM     79  O   UNL     1      12.185  10.713 -11.686  1.00  0.00    -0.237 OA
ATOM     80  O   UNL     1      12.457  12.963 -12.672  1.00  0.00    -0.237 OA
ATOM     81  O   UNL     1      13.449  12.451 -10.473  1.00  0.00    -0.744 OA
ENDBRANCH  77  78
ENDBRANCH  56  70
BRANCH  57  82
ATOM     82  C   UNL     1      -0.221  15.704  -5.114  1.00  0.00     0.058 A 
ATOM     83  C   UNL     1      -1.126  16.608  -5.691  1.00  0.00     0.135 A 
ATOM     84  C   UNL     1      -0.557  15.149  -3.869  1.00  0.00     0.135 A 
ATOM     85  F   UNL     1      -0.845  17.175  -6.873  1.00  0.00    -0.206 F 
ATOM     86  C   UNL     1      -2.309  16.963  -5.051  1.00  0.00     0.059 A 
ATOM     87  C   UNL     1      -1.746  15.469  -3.221  1.00  0.00     0.059 A 
ATOM     88  F   UNL     1       0.271  14.273  -3.279  1.00  0.00    -0.206 F 
ATOM     89  C   UNL     1      -2.611  16.387  -3.816  1.00  0.00     0.060 A 
BRANCH  89  90
ATOM     90  S   UNL     1      -4.169  16.823  -3.013  1.00  0.00     0.124 S 
ATOM     91  O   UNL     1      -3.888  18.173  -2.540  1.00  0.00    -0.237 OA
ATOM     92  O   UNL     1      -5.122  16.717  -4.114  1.00  0.00    -0.237 OA
ATOM     93  O   UNL     1      -4.307  15.805  -1.975  1.00  0.00    -0.744 OA
ENDBRANCH  89  90
ENDBRANCH  57  82
BRANCH  69  94
ATOM     94  C   UNL     1       5.576  19.325  -6.526  1.00  0.00     0.058 A 
ATOM     95  C   UNL     1       5.912  19.803  -5.251  1.00  0.00     0.135 A 
ATOM     96  C   UNL     1       5.676  20.215  -7.608  1.00  0.00     0.135 A 
ATOM     97  F   UNL     1       5.830  18.993  -4.183  1.00  0.00    -0.206 F 
ATOM     98  C   UNL     1       6.314  21.120  -5.051  1.00  0.00     0.059 A 
ATOM     99  C   UNL     1       6.101  21.529  -7.436  1.00  0.00     0.059 A 
ATOM    100  F   UNL     1       5.380  19.805  -8.851  1.00  0.00    -0.206 F 
ATOM    101  C   UNL     1       6.407  21.976  -6.151  1.00  0.00     0.060 A 
BRANCH 101 102
ATOM    102  S   UNL     1       6.966  23.672  -5.886  1.00  0.00     0.124 S 
ATOM    103  O   UNL     1       5.782  24.281  -5.289  1.00  0.00    -0.237 OA
ATOM    104  O   UNL     1       8.106  23.491  -4.993  1.00  0.00    -0.237 OA
ATOM    105  O   UNL     1       7.299  24.134  -7.231  1.00  0.00    -0.744 OA
ENDBRANCH 101 102
ENDBRANCH  69  94
ENDBRANCH  43  44
ENDBRANCH  36  38
ENDBRANCH  35  36
ENDBRANCH  34  35
ENDBRANCH  33  34
ENDBRANCH  32  33
ENDBRANCH  31  32
ENDBRANCH  30  31
ENDBRANCH  29  30
ENDBRANCH   1  29
TORSDOF 29
