REMARK SMILES C[C@@H](OCc1ccccc1Cl)c1ccc(C(=O)OCCOCCOCCOCCOC(=O)c2ccc(-c3c4nc(c(-c5c(F)cc(S(=O)(=O)[O-])cc5F)c5ccc([nH]5)c(-c5c(F)cc(S(=O)(=O)[O-])cc5F)c5nc(c(-c6c(F)cc(S(=O)(=O)[O-])cc6F)c6ccc3[nH]6)C=C5)C=C4)cc2)o1
REMARK SMILES IDX 23 1 22 2 21 3 20 4 19 5 18 6 16 7 17 8 15 9 12 10 13 11
REMARK SMILES IDX 99 12 14 13 2 14 1 15 3 16 4 17 5 18 6 19 10 20 7 21 9 22
REMARK SMILES IDX 11 23 8 24 24 25 25 26 26 27 27 28 28 29 29 30 30 31 31 32
REMARK SMILES IDX 32 33 33 34 34 35 98 36 35 37 97 38 36 39 37 40 38 41 91 42
REMARK SMILES IDX 39 43 96 44 90 45 92 46 40 47 95 48 89 49 88 50 41 52 75 53
REMARK SMILES IDX 54 54 74 55 55 56 58 57 73 58 93 59 56 60 57 61 72 63 94 64
REMARK SMILES IDX 59 65 42 66 43 67 52 68 44 69 45 70 51 71 53 72 46 73 47 74
REMARK SMILES IDX 48 75 49 76 50 77 76 78 77 79 86 80 78 81 79 82 85 83 87 84
REMARK SMILES IDX 80 85 81 86 82 87 83 88 84 89 60 90 61 91 70 92 62 93 63 94
REMARK SMILES IDX 69 95 71 96 64 97 65 98 66 99 67 100 68 101
REMARK H PARENT 92 51 58 62
REMARK Flexibility Score: inf
ROOT
ATOM      1  C   UNL     1      -4.337   1.465   3.220  1.00  0.00     0.188 C 
ENDROOT
BRANCH   1   2
ATOM      2  C   UNL     1      -4.304   2.774   2.416  1.00  0.00     0.188 C 
BRANCH   2   3
ATOM      3  O   UNL     1      -5.603   3.243   2.050  1.00  0.00    -0.376 OA
BRANCH   3   4
ATOM      4  C   UNL     1      -5.957   3.112   0.676  1.00  0.00     0.202 C 
BRANCH   4   5
ATOM      5  C   UNL     1      -6.340   1.698   0.212  1.00  0.00     0.261 C 
BRANCH   5   6
ATOM      6  O   UNL     1      -5.307   0.711   0.337  1.00  0.00    -0.457 OA
BRANCH   6   7
ATOM      7  C   UNL     1      -4.148   0.897  -0.344  1.00  0.00     0.374 C 
ATOM      8  O   UNL     1      -3.958   1.781  -1.173  1.00  0.00    -0.242 OA
BRANCH   7   9
ATOM      9  C   UNL     1      -3.163  -0.024   0.176  1.00  0.00     0.211 A 
ATOM     10  C   UNL     1      -1.122  -0.676   0.710  1.00  0.00     0.133 A 
ATOM     11  C   UNL     1      -1.985  -1.583   1.289  1.00  0.00     0.049 A 
ATOM     12  O   UNL     1      -1.833   0.273   0.031  1.00  0.00    -0.451 OA
ATOM     13  C   UNL     1      -3.291  -1.179   0.929  1.00  0.00     0.058 A 
BRANCH  10  14
ATOM     14  C   UNL     1       0.374  -0.609   0.661  1.00  0.00     0.181 C 
ATOM     15  C   UNL     1       0.874   0.150  -0.563  1.00  0.00     0.047 C 
BRANCH  14  16
ATOM     16  O   UNL     1       0.806  -0.076   1.914  1.00  0.00    -0.366 OA
BRANCH  16  17
ATOM     17  C   UNL     1       2.210   0.122   2.110  1.00  0.00     0.198 C 
BRANCH  17  18
ATOM     18  C   UNL     1       2.935  -1.051   2.747  1.00  0.00    -0.004 A 
ATOM     19  C   UNL     1       2.849  -2.333   2.174  1.00  0.00     0.007 A 
ATOM     20  C   UNL     1       3.778  -0.909   3.866  1.00  0.00     0.046 A 
ATOM     21  C   UNL     1       3.491  -3.440   2.735  1.00  0.00     0.000 A 
ATOM     22  C   UNL     1       4.434  -2.018   4.421  1.00  0.00     0.021 A 
ATOM     23  Cl  UNL     1       4.103   0.624   4.601  1.00  0.00    -0.084 Cl
ATOM     24  C   UNL     1       4.277  -3.285   3.867  1.00  0.00     0.002 A 
ENDBRANCH  17  18
ENDBRANCH  16  17
ENDBRANCH  14  16
ENDBRANCH  10  14
ENDBRANCH   7   9
ENDBRANCH   6   7
ENDBRANCH   5   6
ENDBRANCH   4   5
ENDBRANCH   3   4
ENDBRANCH   2   3
ENDBRANCH   1   2
BRANCH   1  25
ATOM     25  O   UNL     1      -5.613   0.848   3.203  1.00  0.00    -0.377 OA
BRANCH  25  26
ATOM     26  C   UNL     1      -6.545   1.250   4.207  1.00  0.00     0.188 C 
BRANCH  26  27
ATOM     27  C   UNL     1      -6.478   2.660   4.833  1.00  0.00     0.188 C 
BRANCH  27  28
ATOM     28  O   UNL     1      -5.195   3.004   5.361  1.00  0.00    -0.376 OA
BRANCH  28  29
ATOM     29  C   UNL     1      -5.068   2.994   6.779  1.00  0.00     0.202 C 
BRANCH  29  30
ATOM     30  C   UNL     1      -4.910   1.590   7.376  1.00  0.00     0.261 C 
BRANCH  30  31
ATOM     31  O   UNL     1      -6.071   0.754   7.256  1.00  0.00    -0.460 OA
BRANCH  31  32
ATOM     32  C   UNL     1      -7.208   1.202   7.832  1.00  0.00     0.338 C 
ATOM     33  O   UNL     1      -7.346   2.202   8.511  1.00  0.00    -0.246 OA
BRANCH  32  34
ATOM     34  C   UNL     1      -8.319   0.363   7.347  1.00  0.00     0.060 A 
ATOM     35  C   UNL     1      -9.425   0.987   6.756  1.00  0.00     0.016 A 
ATOM     36  C   UNL     1      -8.275  -1.026   7.490  1.00  0.00     0.016 A 
ATOM     37  C   UNL     1     -10.515   0.220   6.347  1.00  0.00     0.010 A 
ATOM     38  C   UNL     1      -9.372  -1.790   7.095  1.00  0.00     0.010 A 
ATOM     39  C   UNL     1     -10.510  -1.166   6.556  1.00  0.00    -0.014 A 
BRANCH  39  40
ATOM     40  C   UNL     1     -11.761  -1.942   6.398  1.00  0.00     0.031 A 
ATOM     41  C   UNL     1     -12.617  -2.164   7.614  1.00  0.00     0.074 A 
ATOM     42  C   UNL     1     -12.123  -2.447   5.207  1.00  0.00     0.049 A 
ATOM     43  N   UNL     1     -13.729  -2.840   7.734  1.00  0.00    -0.248 NA
ATOM     44  C   UNL     1     -12.150  -1.542   8.865  1.00  0.00     0.031 C 
ATOM     45  C   UNL     1     -11.385  -2.279   3.957  1.00  0.00     0.029 A 
ATOM     46  N   UNL     1     -13.205  -3.216   4.862  1.00  0.00    -0.354 N 
ATOM     47  C   UNL     1     -14.097  -2.725   9.069  1.00  0.00     0.074 A 
ATOM     48  C   UNL     1     -13.073  -1.941   9.726  1.00  0.00     0.031 C 
ATOM     49  C   UNL     1     -12.032  -2.940   2.979  1.00  0.00     0.029 A 
ATOM     50  C   UNL     1     -13.213  -3.594   3.541  1.00  0.00     0.049 A 
ATOM     51  H   UNL     1     -13.909  -3.474   5.500  1.00  0.00     0.167 HD
ATOM     52  C   UNL     1     -15.192  -3.221   9.691  1.00  0.00     0.037 A 
ATOM     53  C   UNL     1     -14.069  -4.391   2.871  1.00  0.00     0.037 A 
ATOM     54  C   UNL     1     -16.198  -4.013   9.038  1.00  0.00     0.049 A 
ATOM     55  C   UNL     1     -15.248  -4.986   3.597  1.00  0.00     0.074 A 
ATOM     56  C   UNL     1     -17.355  -4.551   9.575  1.00  0.00     0.029 A 
ATOM     57  N   UNL     1     -16.161  -4.394   7.704  1.00  0.00    -0.354 N 
ATOM     58  N   UNL     1     -15.604  -4.841   4.851  1.00  0.00    -0.248 NA
ATOM     59  C   UNL     1     -16.142  -5.853   2.815  1.00  0.00     0.031 C 
ATOM     60  C   UNL     1     -17.996  -5.290   8.575  1.00  0.00     0.029 A 
ATOM     61  C   UNL     1     -17.261  -5.178   7.405  1.00  0.00     0.049 A 
ATOM     62  H   UNL     1     -15.456  -4.142   7.065  1.00  0.00     0.167 HD
ATOM     63  C   UNL     1     -16.775  -5.578   5.003  1.00  0.00     0.074 A 
ATOM     64  C   UNL     1     -17.070  -6.162   3.711  1.00  0.00     0.031 C 
ATOM     65  C   UNL     1     -17.540  -5.750   6.111  1.00  0.00     0.037 A 
BRANCH  52  66
ATOM     66  C   UNL     1     -15.331  -2.938  11.159  1.00  0.00     0.058 A 
ATOM     67  C   UNL     1     -15.664  -1.659  11.632  1.00  0.00     0.135 A 
ATOM     68  C   UNL     1     -15.119  -3.954  12.103  1.00  0.00     0.135 A 
ATOM     69  F   UNL     1     -15.855  -0.647  10.770  1.00  0.00    -0.206 F 
ATOM     70  C   UNL     1     -15.748  -1.388  12.994  1.00  0.00     0.059 A 
ATOM     71  C   UNL     1     -15.221  -3.711  13.470  1.00  0.00     0.059 A 
ATOM     72  F   UNL     1     -14.793  -5.193  11.703  1.00  0.00    -0.206 F 
ATOM     73  C   UNL     1     -15.517  -2.420  13.905  1.00  0.00     0.060 A 
BRANCH  73  74
ATOM     74  S   UNL     1     -15.606  -2.051  15.670  1.00  0.00     0.124 S 
ATOM     75  O   UNL     1     -14.344  -1.350  15.883  1.00  0.00    -0.237 OA
ATOM     76  O   UNL     1     -16.809  -1.230  15.760  1.00  0.00    -0.237 OA
ATOM     77  O   UNL     1     -15.704  -3.370  16.287  1.00  0.00    -0.744 OA
ENDBRANCH  73  74
ENDBRANCH  52  66
BRANCH  53  78
ATOM     78  C   UNL     1     -13.843  -4.671   1.429  1.00  0.00     0.058 A 
ATOM     79  C   UNL     1     -14.671  -4.111   0.446  1.00  0.00     0.135 A 
ATOM     80  C   UNL     1     -12.787  -5.493   1.006  1.00  0.00     0.135 A 
ATOM     81  F   UNL     1     -15.701  -3.330   0.804  1.00  0.00    -0.206 F 
ATOM     82  C   UNL     1     -14.464  -4.358  -0.907  1.00  0.00     0.059 A 
ATOM     83  C   UNL     1     -12.547  -5.738  -0.342  1.00  0.00     0.059 A 
ATOM     84  F   UNL     1     -11.962  -6.046   1.909  1.00  0.00    -0.206 F 
ATOM     85  C   UNL     1     -13.396  -5.171  -1.291  1.00  0.00     0.060 A 
BRANCH  85  86
ATOM     86  S   UNL     1     -13.095  -5.432  -3.053  1.00  0.00     0.124 S 
ATOM     87  O   UNL     1     -14.160  -6.367  -3.397  1.00  0.00    -0.237 OA
ATOM     88  O   UNL     1     -13.230  -4.082  -3.592  1.00  0.00    -0.237 OA
ATOM     89  O   UNL     1     -11.741  -5.977  -3.084  1.00  0.00    -0.744 OA
ENDBRANCH  85  86
ENDBRANCH  53  78
BRANCH  65  90
ATOM     90  C   UNL     1     -18.784  -6.582   5.972  1.00  0.00     0.058 A 
ATOM     91  C   UNL     1     -18.727  -7.981   5.879  1.00  0.00     0.135 A 
ATOM     92  C   UNL     1     -20.050  -5.976   5.996  1.00  0.00     0.135 A 
ATOM     93  F   UNL     1     -17.541  -8.609   5.847  1.00  0.00    -0.206 F 
ATOM     94  C   UNL     1     -19.884  -8.750   5.796  1.00  0.00     0.059 A 
ATOM     95  C   UNL     1     -21.220  -6.726   5.937  1.00  0.00     0.059 A 
ATOM     96  F   UNL     1     -20.159  -4.641   6.095  1.00  0.00    -0.206 F 
ATOM     97  C   UNL     1     -21.127  -8.113   5.827  1.00  0.00     0.060 A 
BRANCH  97  98
ATOM     98  S   UNL     1     -22.622  -9.122   5.758  1.00  0.00     0.124 S 
ATOM     99  O   UNL     1     -22.674  -9.475   4.343  1.00  0.00    -0.237 OA
ATOM    100  O   UNL     1     -22.307 -10.216   6.673  1.00  0.00    -0.237 OA
ATOM    101  O   UNL     1     -23.667  -8.212   6.218  1.00  0.00    -0.744 OA
ENDBRANCH  97  98
ENDBRANCH  65  90
ENDBRANCH  39  40
ENDBRANCH  32  34
ENDBRANCH  31  32
ENDBRANCH  30  31
ENDBRANCH  29  30
ENDBRANCH  28  29
ENDBRANCH  27  28
ENDBRANCH  26  27
ENDBRANCH  25  26
ENDBRANCH   1  25
TORSDOF 27
