REMARK SMILES Cc1cccc(-c2cc(C(=O)OCCOCCOCCOCCOC(=O)c3ccc(-c4c5nc(c(-c6c(F)cc(S(=O)(=O)[O-])cc6F)c6ccc([nH]6)c(-c6c(F)cc(S(=O)(=O)[O-])cc6F)c6nc(c(-c7c(F)cc(S(=O)(=O)[O-])cc7F)c7ccc4[nH]7)C=C6)C=C5)cc3)ccn2)c1
REMARK SMILES IDX 19 1 18 2 17 3 16 4 15 5 14 6 13 7 12 8 10 9 11 10 9 11 7 12
REMARK SMILES IDX 8 13 95 14 94 15 93 16 6 17 1 18 2 19 3 20 96 21 4 22 5 23
REMARK SMILES IDX 20 24 21 25 22 26 23 27 24 28 25 29 26 30 27 31 28 32 92 33
REMARK SMILES IDX 29 34 91 35 30 36 31 37 32 38 85 39 33 40 90 41 84 42 86 43
REMARK SMILES IDX 34 44 89 45 83 46 82 47 35 49 69 50 48 51 68 52 49 53 52 54
REMARK SMILES IDX 67 55 87 56 50 57 51 58 66 60 88 61 53 62 36 63 37 64 46 65
REMARK SMILES IDX 38 66 39 67 45 68 47 69 40 70 41 71 42 72 43 73 44 74 70 75
REMARK SMILES IDX 71 76 80 77 72 78 73 79 79 80 81 81 74 82 75 83 76 84 77 85
REMARK SMILES IDX 78 86 54 87 55 88 64 89 56 90 57 91 63 92 65 93 58 94 59 95
REMARK SMILES IDX 60 96 61 97 62 98
REMARK H PARENT 86 48 52 59
REMARK Flexibility Score: inf
ROOT
ATOM      1  C   UNL     1      -5.055   2.256  -4.644  1.00  0.00     0.188 C 
ENDROOT
BRANCH   1   2
ATOM      2  O   UNL     1      -4.684   2.835  -3.393  1.00  0.00    -0.377 OA
BRANCH   2   3
ATOM      3  C   UNL     1      -5.649   3.205  -2.423  1.00  0.00     0.188 C 
BRANCH   3   4
ATOM      4  C   UNL     1      -5.930   4.707  -2.229  1.00  0.00     0.188 C 
BRANCH   4   5
ATOM      5  O   UNL     1      -4.829   5.578  -2.290  1.00  0.00    -0.376 OA
BRANCH   5   6
ATOM      6  C   UNL     1      -4.128   5.557  -3.513  1.00  0.00     0.202 C 
BRANCH   6   7
ATOM      7  C   UNL     1      -2.865   4.733  -3.552  1.00  0.00     0.261 C 
BRANCH   7   8
ATOM      8  O   UNL     1      -2.293   4.382  -2.307  1.00  0.00    -0.460 OA
BRANCH   8   9
ATOM      9  C   UNL     1      -2.482   5.130  -1.198  1.00  0.00     0.338 C 
ATOM     10  O   UNL     1      -2.755   6.296  -1.043  1.00  0.00    -0.246 OA
BRANCH   9  11
ATOM     11  C   UNL     1      -2.473   4.160  -0.106  1.00  0.00     0.063 A 
ATOM     12  C   UNL     1      -1.935   2.013   0.738  1.00  0.00     0.071 A 
ATOM     13  C   UNL     1      -1.803   2.958  -0.254  1.00  0.00     0.044 A 
ATOM     14  N   UNL     1      -2.702   2.208   1.839  1.00  0.00    -0.256 NA
ATOM     15  C   UNL     1      -3.320   3.411   1.955  1.00  0.00     0.112 A 
ATOM     16  C   UNL     1      -3.235   4.420   1.020  1.00  0.00     0.036 A 
BRANCH  12  17
ATOM     17  C   UNL     1      -1.187   0.769   0.601  1.00  0.00     0.000 A 
ATOM     18  C   UNL     1       2.463  -0.187   0.070  1.00  0.00     0.044 C 
ATOM     19  C   UNL     1       0.975  -0.300   0.200  1.00  0.00    -0.050 A 
ATOM     20  C   UNL     1       0.318  -1.519   0.015  1.00  0.00     0.003 A 
ATOM     21  C   UNL     1       0.216   0.830   0.508  1.00  0.00     0.013 A 
ATOM     22  C   UNL     1      -1.074  -1.598   0.113  1.00  0.00     0.001 A 
ATOM     23  C   UNL     1      -1.825  -0.458   0.402  1.00  0.00     0.010 A 
ENDBRANCH  12  17
ENDBRANCH   9  11
ENDBRANCH   8   9
ENDBRANCH   7   8
ENDBRANCH   6   7
ENDBRANCH   5   6
ENDBRANCH   4   5
ENDBRANCH   3   4
ENDBRANCH   2   3
ENDBRANCH   1   2
BRANCH   1  24
ATOM     24  C   UNL     1      -5.010   3.187  -5.874  1.00  0.00     0.188 C 
BRANCH  24  25
ATOM     25  O   UNL     1      -5.750   4.383  -5.718  1.00  0.00    -0.376 OA
BRANCH  25  26
ATOM     26  C   UNL     1      -7.153   4.358  -5.777  1.00  0.00     0.202 C 
BRANCH  26  27
ATOM     27  C   UNL     1      -7.566   4.683  -7.207  1.00  0.00     0.261 C 
BRANCH  27  28
ATOM     28  O   UNL     1      -6.982   5.961  -7.553  1.00  0.00    -0.460 OA
BRANCH  28  29
ATOM     29  C   UNL     1      -5.813   5.880  -8.257  1.00  0.00     0.338 C 
ATOM     30  O   UNL     1      -5.660   5.189  -9.249  1.00  0.00    -0.246 OA
BRANCH  29  31
ATOM     31  C   UNL     1      -4.740   6.682  -7.587  1.00  0.00     0.060 A 
ATOM     32  C   UNL     1      -3.386   6.476  -7.902  1.00  0.00     0.016 A 
ATOM     33  C   UNL     1      -5.053   7.521  -6.525  1.00  0.00     0.016 A 
ATOM     34  C   UNL     1      -2.353   7.027  -7.109  1.00  0.00     0.010 A 
ATOM     35  C   UNL     1      -4.032   8.047  -5.740  1.00  0.00     0.010 A 
ATOM     36  C   UNL     1      -2.664   7.793  -5.985  1.00  0.00    -0.014 A 
BRANCH  36  37
ATOM     37  C   UNL     1      -1.722   8.204  -4.902  1.00  0.00     0.031 A 
ATOM     38  C   UNL     1      -1.920   9.501  -4.175  1.00  0.00     0.074 A 
ATOM     39  C   UNL     1      -0.976   7.272  -4.255  1.00  0.00     0.049 A 
ATOM     40  N   UNL     1      -1.320   9.835  -3.083  1.00  0.00    -0.248 NA
ATOM     41  C   UNL     1      -2.800  10.570  -4.634  1.00  0.00     0.031 C 
ATOM     42  C   UNL     1      -0.743   7.237  -2.812  1.00  0.00     0.029 A 
ATOM     43  N   UNL     1      -0.399   6.089  -4.676  1.00  0.00    -0.354 N 
ATOM     44  C   UNL     1      -2.042  10.835  -2.480  1.00  0.00     0.074 A 
ATOM     45  C   UNL     1      -2.820  11.376  -3.565  1.00  0.00     0.031 C 
ATOM     46  C   UNL     1       0.000   6.182  -2.466  1.00  0.00     0.029 A 
ATOM     47  C   UNL     1       0.399   5.527  -3.685  1.00  0.00     0.049 A 
ATOM     48  H   UNL     1      -0.535   5.692  -5.566  1.00  0.00     0.167 HD
ATOM     49  C   UNL     1      -1.968  10.972  -1.117  1.00  0.00     0.037 A 
ATOM     50  C   UNL     1       1.608   4.950  -3.860  1.00  0.00     0.037 A 
ATOM     51  C   UNL     1      -0.912  10.080  -0.546  1.00  0.00     0.049 A 
ATOM     52  C   UNL     1       2.562   5.926  -3.194  1.00  0.00     0.074 A 
ATOM     53  C   UNL     1      -0.885   9.070   0.403  1.00  0.00     0.029 A 
ATOM     54  N   UNL     1       0.353  10.026  -1.162  1.00  0.00    -0.354 N 
ATOM     55  N   UNL     1       2.240   7.197  -3.049  1.00  0.00    -0.248 NA
ATOM     56  C   UNL     1       3.714   5.558  -2.369  1.00  0.00     0.031 C 
ATOM     57  C   UNL     1       0.364   8.369   0.283  1.00  0.00     0.029 A 
ATOM     58  C   UNL     1       1.118   8.947  -0.734  1.00  0.00     0.049 A 
ATOM     59  H   UNL     1       0.663  10.683  -1.826  1.00  0.00     0.167 HD
ATOM     60  C   UNL     1       2.882   7.689  -1.951  1.00  0.00     0.074 A 
ATOM     61  C   UNL     1       3.882   6.676  -1.633  1.00  0.00     0.031 C 
ATOM     62  C   UNL     1       2.500   8.767  -1.198  1.00  0.00     0.037 A 
BRANCH  49  63
ATOM     63  C   UNL     1      -2.933  11.826  -0.263  1.00  0.00     0.058 A 
ATOM     64  C   UNL     1      -2.757  11.964   1.135  1.00  0.00     0.135 A 
ATOM     65  C   UNL     1      -4.075  12.517  -0.744  1.00  0.00     0.135 A 
ATOM     66  F   UNL     1      -1.765  11.330   1.776  1.00  0.00    -0.206 F 
ATOM     67  C   UNL     1      -3.592  12.749   1.955  1.00  0.00     0.059 A 
ATOM     68  C   UNL     1      -4.891  13.345   0.042  1.00  0.00     0.059 A 
ATOM     69  F   UNL     1      -4.513  12.394  -1.999  1.00  0.00    -0.206 F 
ATOM     70  C   UNL     1      -4.644  13.462   1.395  1.00  0.00     0.060 A 
BRANCH  70  71
ATOM     71  S   UNL     1      -5.666  14.535   2.428  1.00  0.00     0.124 S 
ATOM     72  O   UNL     1      -6.305  13.580   3.328  1.00  0.00    -0.237 OA
ATOM     73  O   UNL     1      -4.676  15.417   3.035  1.00  0.00    -0.237 OA
ATOM     74  O   UNL     1      -6.564  15.180   1.472  1.00  0.00    -0.744 OA
ENDBRANCH  70  71
ENDBRANCH  49  63
BRANCH  50  75
ATOM     75  C   UNL     1       1.595   4.028  -5.030  1.00  0.00     0.058 A 
ATOM     76  C   UNL     1       0.936   2.793  -4.785  1.00  0.00     0.135 A 
ATOM     77  C   UNL     1       1.506   4.528  -6.340  1.00  0.00     0.135 A 
ATOM     78  F   UNL     1       0.990   2.244  -3.558  1.00  0.00    -0.206 F 
ATOM     79  C   UNL     1       0.070   2.202  -5.711  1.00  0.00     0.059 A 
ATOM     80  C   UNL     1       0.620   3.964  -7.274  1.00  0.00     0.059 A 
ATOM     81  F   UNL     1       2.043   5.720  -6.635  1.00  0.00    -0.206 F 
ATOM     82  C   UNL     1      -0.128   2.831  -6.934  1.00  0.00     0.060 A 
BRANCH  82  83
ATOM     83  S   UNL     1      -1.504   2.313  -8.003  1.00  0.00     0.124 S 
ATOM     84  O   UNL     1      -0.815   1.523  -9.016  1.00  0.00    -0.237 OA
ATOM     85  O   UNL     1      -2.379   1.565  -7.103  1.00  0.00    -0.237 OA
ATOM     86  O   UNL     1      -2.040   3.593  -8.452  1.00  0.00    -0.744 OA
ENDBRANCH  82  83
ENDBRANCH  50  75
BRANCH  62  87
ATOM     87  C   UNL     1       3.542   9.803  -0.882  1.00  0.00     0.058 A 
ATOM     88  C   UNL     1       4.781   9.853  -1.550  1.00  0.00     0.135 A 
ATOM     89  C   UNL     1       3.260  10.880  -0.014  1.00  0.00     0.135 A 
ATOM     90  F   UNL     1       5.125   8.946  -2.478  1.00  0.00    -0.206 F 
ATOM     91  C   UNL     1       5.714  10.847  -1.302  1.00  0.00     0.059 A 
ATOM     92  C   UNL     1       4.156  11.917   0.202  1.00  0.00     0.059 A 
ATOM     93  F   UNL     1       2.101  10.972   0.653  1.00  0.00    -0.206 F 
ATOM     94  C   UNL     1       5.398  11.865  -0.412  1.00  0.00     0.060 A 
BRANCH  94  95
ATOM     95  S   UNL     1       6.639  13.105  -0.044  1.00  0.00     0.124 S 
ATOM     96  O   UNL     1       7.461  12.397   0.933  1.00  0.00    -0.237 OA
ATOM     97  O   UNL     1       7.260  13.330  -1.347  1.00  0.00    -0.237 OA
ATOM     98  O   UNL     1       5.859  14.223   0.474  1.00  0.00    -0.744 OA
ENDBRANCH  94  95
ENDBRANCH  62  87
ENDBRANCH  36  37
ENDBRANCH  29  31
ENDBRANCH  28  29
ENDBRANCH  27  28
ENDBRANCH  26  27
ENDBRANCH  25  26
ENDBRANCH  24  25
ENDBRANCH   1  24
TORSDOF 24
