REMARK SMILES C#Cc1cc(Cl)cc2c1O[C@H](C(F)(F)F)C(C(=O)OCCOCCOCCOCCOC(=O)c1ccc(-c3c4nc(c(-c5c(F)cc(S(=O)(=O)[O-])cc5F)c5ccc([nH]5)c(-c5c(F)cc(S(=O)(=O)[O-])cc5F)c5nc(c(-c6c(F)cc(S(=O)(=O)[O-])cc6F)c6ccc3[nH]6)C=C5)C=C4)cc1)=C2
REMARK SMILES IDX 26 1 25 2 24 3 23 4 22 5 21 6 20 7 19 8 17 9 18 10 16 11
REMARK SMILES IDX 3 12 4 13 9 14 5 15 8 16 10 17 6 18 7 19 100 20 11 21 2 22
REMARK SMILES IDX 1 23 12 24 13 25 14 26 15 27 27 28 28 29 29 30 30 31 31 32
REMARK SMILES IDX 32 33 33 34 34 35 35 36 99 37 36 38 98 39 37 40 38 41 39 42
REMARK SMILES IDX 92 43 40 44 97 45 91 46 93 47 41 48 96 49 90 50 89 51 42 53
REMARK SMILES IDX 76 54 55 55 75 56 56 57 59 58 74 59 94 60 57 61 58 62 73 64
REMARK SMILES IDX 95 65 60 66 43 67 44 68 53 69 45 70 46 71 52 72 54 73 47 74
REMARK SMILES IDX 48 75 49 76 50 77 51 78 77 79 78 80 87 81 79 82 80 83 86 84
REMARK SMILES IDX 88 85 81 86 82 87 83 88 84 89 85 90 61 91 62 92 71 93 63 94
REMARK SMILES IDX 64 95 70 96 72 97 65 98 66 99 67 100 68 101 69 102
REMARK H PARENT 93 52 59 63
REMARK Flexibility Score: inf
ROOT
ATOM      1  C   UNL     1      -4.573  -7.289   2.830  1.00  0.00     0.188 C 
ENDROOT
BRANCH   1   2
ATOM      2  O   UNL     1      -4.162  -6.151   2.073  1.00  0.00    -0.377 OA
BRANCH   2   3
ATOM      3  C   UNL     1      -4.956  -4.983   2.102  1.00  0.00     0.188 C 
BRANCH   3   4
ATOM      4  C   UNL     1      -6.287  -5.054   1.324  1.00  0.00     0.188 C 
BRANCH   4   5
ATOM      5  O   UNL     1      -6.825  -6.333   1.065  1.00  0.00    -0.376 OA
BRANCH   5   6
ATOM      6  C   UNL     1      -6.370  -7.193   0.035  1.00  0.00     0.202 C 
BRANCH   6   7
ATOM      7  C   UNL     1      -5.110  -7.014  -0.829  1.00  0.00     0.261 C 
BRANCH   7   8
ATOM      8  O   UNL     1      -4.351  -5.825  -0.650  1.00  0.00    -0.460 OA
BRANCH   8   9
ATOM      9  C   UNL     1      -4.721  -4.766  -1.393  1.00  0.00     0.338 C 
ATOM     10  O   UNL     1      -5.629  -4.718  -2.205  1.00  0.00    -0.246 OA
BRANCH   9  11
ATOM     11  C   UNL     1      -3.965  -3.589  -0.917  1.00  0.00     0.087 C 
ATOM     12  C   UNL     1      -1.853  -0.131   0.056  1.00  0.00     0.068 A 
ATOM     13  C   UNL     1      -2.540   1.084   0.158  1.00  0.00     0.041 A 
ATOM     14  C   UNL     1      -2.562  -1.323  -0.157  1.00  0.00     0.143 A 
ATOM     15  C   UNL     1      -3.929   1.103   0.074  1.00  0.00     0.043 A 
ATOM     16  C   UNL     1      -3.952  -1.282  -0.299  1.00  0.00     0.020 A 
ATOM     17  O   UNL     1      -1.843  -2.484  -0.228  1.00  0.00    -0.474 OA
ATOM     18  Cl  UNL     1      -4.774   2.598   0.191  1.00  0.00    -0.084 Cl
ATOM     19  C   UNL     1      -4.640  -0.073  -0.147  1.00  0.00     0.032 A 
ATOM     20  C   UNL     1      -4.673  -2.473  -0.706  1.00  0.00     0.027 C 
ATOM     21  C   UNL     1      -2.490  -3.715  -0.651  1.00  0.00     0.316 C 
BRANCH  12  22
ATOM     22  C   UNL     1      -0.418  -0.117   0.100  1.00  0.00    -0.067 C 
ATOM     23  C   UNL     1       0.779  -0.109   0.097  1.00  0.00     0.010 C 
ENDBRANCH  12  22
BRANCH  21  24
ATOM     24  C   UNL     1      -1.735  -4.257  -1.872  1.00  0.00     0.430 C 
ATOM     25  F   UNL     1      -0.399  -4.271  -1.663  1.00  0.00    -0.167 F 
ATOM     26  F   UNL     1      -2.102  -5.523  -2.172  1.00  0.00    -0.167 F 
ATOM     27  F   UNL     1      -1.968  -3.498  -2.969  1.00  0.00    -0.167 F 
ENDBRANCH  21  24
ENDBRANCH   9  11
ENDBRANCH   8   9
ENDBRANCH   7   8
ENDBRANCH   6   7
ENDBRANCH   5   6
ENDBRANCH   4   5
ENDBRANCH   3   4
ENDBRANCH   2   3
ENDBRANCH   1   2
BRANCH   1  28
ATOM     28  C   UNL     1      -5.945  -7.369   3.548  1.00  0.00     0.188 C 
BRANCH  28  29
ATOM     29  O   UNL     1      -6.529  -6.123   3.873  1.00  0.00    -0.376 OA
BRANCH  29  30
ATOM     30  C   UNL     1      -6.458  -5.608   5.185  1.00  0.00     0.202 C 
BRANCH  30  31
ATOM     31  C   UNL     1      -5.109  -5.516   5.914  1.00  0.00     0.261 C 
BRANCH  31  32
ATOM     32  O   UNL     1      -4.201  -6.610   5.749  1.00  0.00    -0.460 OA
BRANCH  32  33
ATOM     33  C   UNL     1      -4.499  -7.760   6.395  1.00  0.00     0.338 C 
ATOM     34  O   UNL     1      -5.471  -7.974   7.094  1.00  0.00    -0.246 OA
BRANCH  33  35
ATOM     35  C   UNL     1      -3.531  -8.784   5.940  1.00  0.00     0.060 A 
ATOM     36  C   UNL     1      -3.989  -9.874   5.186  1.00  0.00     0.016 A 
ATOM     37  C   UNL     1      -2.173  -8.649   6.234  1.00  0.00     0.016 A 
ATOM     38  C   UNL     1      -3.091 -10.846   4.745  1.00  0.00     0.010 A 
ATOM     39  C   UNL     1      -1.280  -9.642   5.821  1.00  0.00     0.010 A 
ATOM     40  C   UNL     1      -1.740 -10.761   5.103  1.00  0.00    -0.014 A 
BRANCH  40  41
ATOM     41  C   UNL     1      -0.859 -11.940   4.919  1.00  0.00     0.031 A 
ATOM     42  C   UNL     1      -0.630 -12.838   6.105  1.00  0.00     0.074 A 
ATOM     43  C   UNL     1      -0.309 -12.232   3.727  1.00  0.00     0.049 A 
ATOM     44  N   UNL     1       0.138 -13.889   6.213  1.00  0.00    -0.248 NA
ATOM     45  C   UNL     1      -1.369 -12.505   7.336  1.00  0.00     0.031 C 
ATOM     46  C   UNL     1      -0.509 -11.473   2.493  1.00  0.00     0.029 A 
ATOM     47  N   UNL     1       0.537 -13.250   3.361  1.00  0.00    -0.354 N 
ATOM     48  C   UNL     1      -0.025 -14.342   7.517  1.00  0.00     0.074 A 
ATOM     49  C   UNL     1      -0.932 -13.430   8.176  1.00  0.00     0.031 C 
ATOM     50  C   UNL     1       0.201 -12.051   1.507  1.00  0.00     0.029 A 
ATOM     51  C   UNL     1       0.935 -13.195   2.046  1.00  0.00     0.049 A 
ATOM     52  H   UNL     1       0.832 -13.954   3.983  1.00  0.00     0.167 HD
ATOM     53  C   UNL     1       0.519 -15.432   8.106  1.00  0.00     0.037 A 
ATOM     54  C   UNL     1       1.807 -13.968   1.365  1.00  0.00     0.037 A 
ATOM     55  C   UNL     1       1.418 -16.337   7.442  1.00  0.00     0.049 A 
ATOM     56  C   UNL     1       2.484 -15.115   2.078  1.00  0.00     0.074 A 
ATOM     57  C   UNL     1       2.026 -17.469   7.955  1.00  0.00     0.029 A 
ATOM     58  N   UNL     1       1.838 -16.217   6.126  1.00  0.00    -0.354 N 
ATOM     59  N   UNL     1       2.318 -15.537   3.310  1.00  0.00    -0.248 NA
ATOM     60  C   UNL     1       3.468 -15.892   1.309  1.00  0.00     0.031 C 
ATOM     61  C   UNL     1       2.862 -17.998   6.969  1.00  0.00     0.029 A 
ATOM     62  C   UNL     1       2.721 -17.239   5.819  1.00  0.00     0.049 A 
ATOM     63  H   UNL     1       1.552 -15.511   5.503  1.00  0.00     0.167 HD
ATOM     64  C   UNL     1       3.149 -16.645   3.450  1.00  0.00     0.074 A 
ATOM     65  C   UNL     1       3.805 -16.839   2.175  1.00  0.00     0.031 C 
ATOM     66  C   UNL     1       3.354 -17.430   4.538  1.00  0.00     0.037 A 
BRANCH  53  67
ATOM     67  C   UNL     1       0.166 -15.713   9.540  1.00  0.00     0.058 A 
ATOM     68  C   UNL     1      -1.109 -16.169   9.906  1.00  0.00     0.135 A 
ATOM     69  C   UNL     1       1.141 -15.612  10.546  1.00  0.00     0.135 A 
ATOM     70  F   UNL     1      -2.085 -16.262   8.989  1.00  0.00    -0.206 F 
ATOM     71  C   UNL     1      -1.407 -16.516  11.220  1.00  0.00     0.059 A 
ATOM     72  C   UNL     1       0.875 -15.982  11.861  1.00  0.00     0.059 A 
ATOM     73  F   UNL     1       2.374 -15.172  10.251  1.00  0.00    -0.206 F 
ATOM     74  C   UNL     1      -0.404 -16.431  12.187  1.00  0.00     0.060 A 
BRANCH  74  75
ATOM     75  S   UNL     1      -0.798 -16.934  13.875  1.00  0.00     0.124 S 
ATOM     76  O   UNL     1      -1.774 -15.920  14.263  1.00  0.00    -0.237 OA
ATOM     77  O   UNL     1      -1.327 -18.280  13.678  1.00  0.00    -0.237 OA
ATOM     78  O   UNL     1       0.487 -16.860  14.563  1.00  0.00    -0.744 OA
ENDBRANCH  74  75
ENDBRANCH  53  67
BRANCH  54  79
ATOM     79  C   UNL     1       2.103 -13.689  -0.068  1.00  0.00     0.058 A 
ATOM     80  C   UNL     1       1.756 -14.607  -1.071  1.00  0.00     0.135 A 
ATOM     81  C   UNL     1       2.759 -12.512  -0.466  1.00  0.00     0.135 A 
ATOM     82  F   UNL     1       1.141 -15.755  -0.744  1.00  0.00    -0.206 F 
ATOM     83  C   UNL     1       2.065 -14.383  -2.408  1.00  0.00     0.059 A 
ATOM     84  C   UNL     1       3.049 -12.248  -1.802  1.00  0.00     0.059 A 
ATOM     85  F   UNL     1       3.111 -11.595   0.449  1.00  0.00    -0.206 F 
ATOM     86  C   UNL     1       2.709 -13.197  -2.765  1.00  0.00     0.060 A 
BRANCH  86  87
ATOM     87  S   UNL     1       3.076 -12.907  -4.509  1.00  0.00     0.124 S 
ATOM     88  O   UNL     1       4.073 -13.937  -4.776  1.00  0.00    -0.237 OA
ATOM     89  O   UNL     1       1.770 -13.105  -5.129  1.00  0.00    -0.237 OA
ATOM     90  O   UNL     1       3.570 -11.533  -4.526  1.00  0.00    -0.744 OA
ENDBRANCH  86  87
ENDBRANCH  54  79
BRANCH  66  91
ATOM     91  C   UNL     1       4.299 -18.596   4.403  1.00  0.00     0.058 A 
ATOM     92  C   UNL     1       5.684 -18.413   4.281  1.00  0.00     0.135 A 
ATOM     93  C   UNL     1       3.819 -19.914   4.488  1.00  0.00     0.135 A 
ATOM     94  F   UNL     1       6.198 -17.176   4.194  1.00  0.00    -0.206 F 
ATOM     95  C   UNL     1       6.559 -19.494   4.228  1.00  0.00     0.059 A 
ATOM     96  C   UNL     1       4.678 -21.009   4.474  1.00  0.00     0.059 A 
ATOM     97  F   UNL     1       2.503 -20.148   4.621  1.00  0.00    -0.206 F 
ATOM     98  C   UNL     1       6.046 -20.788   4.334  1.00  0.00     0.060 A 
BRANCH  98  99
ATOM     99  S   UNL     1       7.201 -22.175   4.306  1.00  0.00     0.124 S 
ATOM    100  O   UNL     1       7.699 -22.118   2.935  1.00  0.00    -0.237 OA
ATOM    101  O   UNL     1       8.157 -21.802   5.344  1.00  0.00    -0.237 OA
ATOM    102  O   UNL     1       6.361 -23.328   4.619  1.00  0.00    -0.744 OA
ENDBRANCH  98  99
ENDBRANCH  66  91
ENDBRANCH  40  41
ENDBRANCH  33  35
ENDBRANCH  32  33
ENDBRANCH  31  32
ENDBRANCH  30  31
ENDBRANCH  29  30
ENDBRANCH  28  29
ENDBRANCH   1  28
TORSDOF 25
