REMARK SMILES CC(C)N(c1cc2c(cc1Cl)C=C(C(=O)OCCOCCOCCOCCOC(=O)c1ccc(-c3c4nc(c(-c5c(F)cc(S(=O)(=O)[O-])cc5F)c5ccc([nH]5)c(-c5c(F)cc(S(=O)(=O)[O-])cc5F)c5nc(c(-c6c(F)cc(S(=O)(=O)[O-])cc6F)c6ccc3[nH]6)C=C5)C=C4)cc1)[C@@H](C(F)(F)F)O2)C(C)C
REMARK SMILES IDX 23 1 22 2 21 3 20 4 19 5 18 6 17 7 16 8 14 9 15 10 13 11
REMARK SMILES IDX 5 12 6 13 10 14 7 15 9 16 11 17 8 18 102 19 12 20 97 21 4 22
REMARK SMILES IDX 2 23 1 24 3 25 103 26 104 27 105 28 98 29 99 30 100 31
REMARK SMILES IDX 101 32 24 33 25 34 26 35 27 36 28 37 29 38 30 39 31 40 32 41
REMARK SMILES IDX 96 42 33 43 95 44 34 45 35 46 36 47 89 48 37 49 94 50 88 51
REMARK SMILES IDX 90 52 38 53 93 54 87 55 86 56 39 58 73 59 52 60 72 61 53 62
REMARK SMILES IDX 56 63 71 64 91 65 54 66 55 67 70 69 92 70 57 71 40 72 41 73
REMARK SMILES IDX 50 74 42 75 43 76 49 77 51 78 44 79 45 80 46 81 47 82 48 83
REMARK SMILES IDX 74 84 75 85 84 86 76 87 77 88 83 89 85 90 78 91 79 92 80 93
REMARK SMILES IDX 81 94 82 95 58 96 59 97 68 98 60 99 61 100 67 101 69 102
REMARK SMILES IDX 62 103 63 104 64 105 65 106 66 107
REMARK H PARENT 90 57 56 68
REMARK Flexibility Score: inf
ROOT
ATOM      1  C   UNL     1      -5.455  -4.878   8.392  1.00  0.00     0.188 C 
ENDROOT
BRANCH   1   2
ATOM      2  O   UNL     1      -5.357  -3.818   7.439  1.00  0.00    -0.377 OA
BRANCH   2   3
ATOM      3  C   UNL     1      -4.271  -2.914   7.549  1.00  0.00     0.188 C 
BRANCH   3   4
ATOM      4  C   UNL     1      -4.482  -1.841   8.633  1.00  0.00     0.188 C 
BRANCH   4   5
ATOM      5  O   UNL     1      -5.524  -2.170   9.541  1.00  0.00    -0.376 OA
BRANCH   5   6
ATOM      6  C   UNL     1      -6.810  -1.597   9.352  1.00  0.00     0.202 C 
BRANCH   6   7
ATOM      7  C   UNL     1      -7.549  -1.740   8.008  1.00  0.00     0.261 C 
BRANCH   7   8
ATOM      8  O   UNL     1      -6.774  -1.504   6.825  1.00  0.00    -0.460 OA
BRANCH   8   9
ATOM      9  C   UNL     1      -6.408  -0.240   6.557  1.00  0.00     0.338 C 
ATOM     10  O   UNL     1      -6.679   0.755   7.207  1.00  0.00    -0.246 OA
BRANCH   9  11
ATOM     11  C   UNL     1      -5.439  -0.278   5.437  1.00  0.00     0.087 C 
ATOM     12  C   UNL     1      -1.696   0.798   2.218  1.00  0.00     0.060 A 
ATOM     13  C   UNL     1      -2.780  -0.112   2.232  1.00  0.00     0.074 A 
ATOM     14  C   UNL     1      -1.433   1.472   3.434  1.00  0.00     0.065 A 
ATOM     15  C   UNL     1      -3.626  -0.257   3.340  1.00  0.00     0.130 A 
ATOM     16  C   UNL     1      -2.255   1.294   4.557  1.00  0.00     0.034 A 
ATOM     17  Cl  UNL     1      -0.196   2.668   3.638  1.00  0.00    -0.082 Cl
ATOM     18  C   UNL     1      -3.381   0.475   4.493  1.00  0.00     0.019 A 
ATOM     19  O   UNL     1      -4.686  -1.105   3.196  1.00  0.00    -0.475 OA
ATOM     20  C   UNL     1      -4.333   0.461   5.586  1.00  0.00     0.027 C 
ATOM     21  C   UNL     1      -5.701  -1.166   4.245  1.00  0.00     0.316 C 
BRANCH  12  22
ATOM     22  N   UNL     1      -1.008   1.020   1.004  1.00  0.00    -0.365 N 
BRANCH  22  23
ATOM     23  C   UNL     1       0.470   0.954   1.003  1.00  0.00     0.076 C 
ATOM     24  C   UNL     1       1.014  -0.205   0.169  1.00  0.00     0.030 C 
ATOM     25  C   UNL     1       1.141   2.264   0.589  1.00  0.00     0.030 C 
ENDBRANCH  22  23
BRANCH  22  26
ATOM     26  C   UNL     1      -1.863   1.325  -0.172  1.00  0.00     0.076 C 
ATOM     27  C   UNL     1      -1.688   2.752  -0.685  1.00  0.00     0.030 C 
ATOM     28  C   UNL     1      -1.731   0.305  -1.298  1.00  0.00     0.030 C 
ENDBRANCH  22  26
ENDBRANCH  12  22
BRANCH  21  29
ATOM     29  C   UNL     1      -7.072  -0.888   3.611  1.00  0.00     0.430 C 
ATOM     30  F   UNL     1      -7.263  -1.642   2.503  1.00  0.00    -0.167 F 
ATOM     31  F   UNL     1      -8.086  -1.166   4.460  1.00  0.00    -0.167 F 
ATOM     32  F   UNL     1      -7.193   0.410   3.245  1.00  0.00    -0.167 F 
ENDBRANCH  21  29
ENDBRANCH   9  11
ENDBRANCH   8   9
ENDBRANCH   7   8
ENDBRANCH   6   7
ENDBRANCH   5   6
ENDBRANCH   4   5
ENDBRANCH   3   4
ENDBRANCH   2   3
ENDBRANCH   1   2
BRANCH   1  33
ATOM     33  C   UNL     1      -4.697  -4.852   9.743  1.00  0.00     0.188 C 
BRANCH  33  34
ATOM     34  O   UNL     1      -3.370  -4.341   9.665  1.00  0.00    -0.376 OA
BRANCH  34  35
ATOM     35  C   UNL     1      -2.305  -5.269   9.796  1.00  0.00     0.202 C 
BRANCH  35  36
ATOM     36  C   UNL     1      -2.075  -6.161   8.571  1.00  0.00     0.261 C 
BRANCH  36  37
ATOM     37  O   UNL     1      -3.178  -6.999   8.202  1.00  0.00    -0.460 OA
BRANCH  37  38
ATOM     38  C   UNL     1      -3.615  -7.905   9.115  1.00  0.00     0.338 C 
ATOM     39  O   UNL     1      -3.161  -8.118  10.209  1.00  0.00    -0.246 OA
BRANCH  38  40
ATOM     40  C   UNL     1      -4.891  -8.448   8.587  1.00  0.00     0.060 A 
ATOM     41  C   UNL     1      -4.949  -8.962   7.290  1.00  0.00     0.016 A 
ATOM     42  C   UNL     1      -6.042  -8.388   9.381  1.00  0.00     0.016 A 
ATOM     43  C   UNL     1      -6.162  -9.438   6.792  1.00  0.00     0.010 A 
ATOM     44  C   UNL     1      -7.258  -8.861   8.878  1.00  0.00     0.010 A 
ATOM     45  C   UNL     1      -7.321  -9.407   7.587  1.00  0.00    -0.014 A 
BRANCH  45  46
ATOM     46  C   UNL     1      -8.540 -10.112   7.123  1.00  0.00     0.031 A 
ATOM     47  C   UNL     1      -9.720  -9.383   6.557  1.00  0.00     0.074 A 
ATOM     48  C   UNL     1      -8.559 -11.455   7.226  1.00  0.00     0.049 A 
ATOM     49  N   UNL     1     -10.814  -9.878   6.037  1.00  0.00    -0.248 NA
ATOM     50  C   UNL     1      -9.675  -7.915   6.582  1.00  0.00     0.031 C 
ATOM     51  C   UNL     1      -7.478 -12.264   7.795  1.00  0.00     0.029 A 
ATOM     52  N   UNL     1      -9.506 -12.374   6.857  1.00  0.00    -0.354 N 
ATOM     53  C   UNL     1     -11.586  -8.788   5.655  1.00  0.00     0.074 A 
ATOM     54  C   UNL     1     -10.848  -7.602   6.044  1.00  0.00     0.031 C 
ATOM     55  C   UNL     1      -7.814 -13.559   7.718  1.00  0.00     0.029 A 
ATOM     56  C   UNL     1      -9.140 -13.672   7.118  1.00  0.00     0.049 A 
ATOM     57  H   UNL     1     -10.365 -12.128   6.444  1.00  0.00     0.167 HD
ATOM     58  C   UNL     1     -12.788  -8.785   5.028  1.00  0.00     0.037 A 
ATOM     59  C   UNL     1      -9.796 -14.828   6.900  1.00  0.00     0.037 A 
ATOM     60  C   UNL     1     -13.517  -9.976   4.661  1.00  0.00     0.049 A 
ATOM     61  C   UNL     1     -11.138 -14.795   6.230  1.00  0.00     0.074 A 
ATOM     62  C   UNL     1     -14.714 -10.073   3.971  1.00  0.00     0.029 A 
ATOM     63  N   UNL     1     -13.134 -11.275   4.970  1.00  0.00    -0.354 N 
ATOM     64  N   UNL     1     -11.814 -13.759   5.794  1.00  0.00    -0.248 NA
ATOM     65  C   UNL     1     -11.805 -16.086   6.014  1.00  0.00     0.031 C 
ATOM     66  C   UNL     1     -15.083 -11.422   3.915  1.00  0.00     0.029 A 
ATOM     67  C   UNL     1     -14.089 -12.174   4.519  1.00  0.00     0.049 A 
ATOM     68  H   UNL     1     -12.305 -11.521   5.440  1.00  0.00     0.167 HD
ATOM     69  C   UNL     1     -12.982 -14.272   5.243  1.00  0.00     0.074 A 
ATOM     70  C   UNL     1     -12.909 -15.713   5.380  1.00  0.00     0.031 C 
ATOM     71  C   UNL     1     -14.021 -13.607   4.678  1.00  0.00     0.037 A 
BRANCH  58  72
ATOM     72  C   UNL     1     -13.405  -7.453   4.692  1.00  0.00     0.058 A 
ATOM     73  C   UNL     1     -12.882  -6.635   3.678  1.00  0.00     0.135 A 
ATOM     74  C   UNL     1     -14.578  -7.024   5.336  1.00  0.00     0.135 A 
ATOM     75  F   UNL     1     -11.761  -6.993   3.032  1.00  0.00    -0.206 F 
ATOM     76  C   UNL     1     -13.485  -5.431   3.329  1.00  0.00     0.059 A 
ATOM     77  C   UNL     1     -15.212  -5.834   4.986  1.00  0.00     0.059 A 
ATOM     78  F   UNL     1     -15.125  -7.768   6.310  1.00  0.00    -0.206 F 
ATOM     79  C   UNL     1     -14.652  -5.039   3.988  1.00  0.00     0.060 A 
BRANCH  79  80
ATOM     80  S   UNL     1     -15.425  -3.477   3.516  1.00  0.00     0.124 S 
ATOM     81  O   UNL     1     -14.454  -2.509   4.018  1.00  0.00    -0.237 OA
ATOM     82  O   UNL     1     -15.507  -3.598   2.064  1.00  0.00    -0.237 OA
ATOM     83  O   UNL     1     -16.703  -3.502   4.219  1.00  0.00    -0.744 OA
ENDBRANCH  79  80
ENDBRANCH  58  72
BRANCH  59  84
ATOM     84  C   UNL     1      -9.160 -16.109   7.303  1.00  0.00     0.058 A 
ATOM     85  C   UNL     1      -8.656 -16.997   6.344  1.00  0.00     0.135 A 
ATOM     86  C   UNL     1      -8.989 -16.438   8.658  1.00  0.00     0.135 A 
ATOM     87  F   UNL     1      -8.800 -16.727   5.038  1.00  0.00    -0.206 F 
ATOM     88  C   UNL     1      -8.003 -18.168   6.712  1.00  0.00     0.059 A 
ATOM     89  C   UNL     1      -8.317 -17.590   9.050  1.00  0.00     0.059 A 
ATOM     90  F   UNL     1      -9.439 -15.609   9.613  1.00  0.00    -0.206 F 
ATOM     91  C   UNL     1      -7.829 -18.450   8.068  1.00  0.00     0.060 A 
BRANCH  91  92
ATOM     92  S   UNL     1      -6.910 -19.934   8.529  1.00  0.00     0.124 S 
ATOM     93  O   UNL     1      -7.835 -20.989   8.134  1.00  0.00    -0.237 OA
ATOM     94  O   UNL     1      -5.702 -19.806   7.719  1.00  0.00    -0.237 OA
ATOM     95  O   UNL     1      -6.711 -19.774   9.967  1.00  0.00    -0.744 OA
ENDBRANCH  91  92
ENDBRANCH  59  84
BRANCH  71  96
ATOM     96  C   UNL     1     -15.175 -14.430   4.170  1.00  0.00     0.058 A 
ATOM     97  C   UNL     1     -16.065 -15.066   5.050  1.00  0.00     0.135 A 
ATOM     98  C   UNL     1     -15.424 -14.544   2.792  1.00  0.00     0.135 A 
ATOM     99  F   UNL     1     -15.868 -14.998   6.376  1.00  0.00    -0.206 F 
ATOM    100  C   UNL     1     -17.149 -15.802   4.583  1.00  0.00     0.059 A 
ATOM    101  C   UNL     1     -16.519 -15.252   2.304  1.00  0.00     0.059 A 
ATOM    102  F   UNL     1     -14.609 -13.951   1.906  1.00  0.00    -0.206 F 
ATOM    103  C   UNL     1     -17.371 -15.886   3.207  1.00  0.00     0.060 A 
BRANCH 103 104
ATOM    104  S   UNL     1     -18.802 -16.817   2.619  1.00  0.00     0.124 S 
ATOM    105  O   UNL     1     -18.402 -18.189   2.917  1.00  0.00    -0.237 OA
ATOM    106  O   UNL     1     -19.881 -16.279   3.441  1.00  0.00    -0.237 OA
ATOM    107  O   UNL     1     -18.871 -16.478   1.201  1.00  0.00    -0.744 OA
ENDBRANCH 103 104
ENDBRANCH  71  96
ENDBRANCH  45  46
ENDBRANCH  38  40
ENDBRANCH  37  38
ENDBRANCH  36  37
ENDBRANCH  35  36
ENDBRANCH  34  35
ENDBRANCH  33  34
ENDBRANCH   1  33
TORSDOF 27
