REMARK SMILES CC(=O)NCCNC(=O)C[N@H+]1CC[C@@H](C(=O)OCCOCCOCCOCCOC(=O)c2ccc(-c3c4nc(c(-c5c(F)cc(S(=O)(=O)[O-])cc5F)c5ccc([nH]5)c(-c5c(F)cc(S(=O)(=O)[O-])cc5F)c5nc(c(-c6c(F)cc(S(=O)(=O)[O-])cc6F)c6ccc3[nH]6)C=C5)C=C4)cc2)[C@H]1C
REMARK SMILES IDX 22 1 21 2 20 3 19 4 18 5 17 6 15 7 16 8 14 9 11 10 12 11
REMARK SMILES IDX 98 12 13 14 99 15 10 16 8 17 7 18 9 20 6 21 5 22 4 23 1 24
REMARK SMILES IDX 2 25 3 26 23 28 24 29 25 30 26 31 27 32 28 33 29 34 30 35
REMARK SMILES IDX 31 36 32 37 33 38 97 39 34 40 96 41 35 42 36 43 37 44 90 45
REMARK SMILES IDX 38 46 95 47 89 48 91 49 39 50 94 51 88 52 87 53 40 55 74 56
REMARK SMILES IDX 53 57 73 58 54 59 57 60 72 61 92 62 55 63 56 64 71 66 93 67
REMARK SMILES IDX 58 68 41 69 42 70 51 71 43 72 44 73 50 74 52 75 45 76 46 77
REMARK SMILES IDX 47 78 48 79 49 80 75 81 76 82 85 83 77 84 78 85 84 86 86 87
REMARK SMILES IDX 79 88 80 89 81 90 82 91 83 92 59 93 60 94 69 95 61 96 62 97
REMARK SMILES IDX 68 98 70 99 63 100 64 101 65 102 66 103 67 104
REMARK H PARENT 11 13 7 19 4 27 91 54 57 65
REMARK Flexibility Score: inf
ROOT
ATOM      1  C   UNL     1       1.369   8.425  -5.069  1.00  0.00     0.188 C 
ENDROOT
BRANCH   1   2
ATOM      2  C   UNL     1       1.549   9.627  -4.121  1.00  0.00     0.188 C 
BRANCH   2   3
ATOM      3  O   UNL     1       2.135  10.765  -4.706  1.00  0.00    -0.376 OA
BRANCH   3   4
ATOM      4  C   UNL     1       3.491  11.097  -4.470  1.00  0.00     0.202 C 
BRANCH   4   5
ATOM      5  C   UNL     1       4.598  10.063  -4.198  1.00  0.00     0.261 C 
BRANCH   5   6
ATOM      6  O   UNL     1       4.216   8.684  -4.195  1.00  0.00    -0.463 OA
BRANCH   6   7
ATOM      7  C   UNL     1       4.178   8.083  -2.991  1.00  0.00     0.315 C 
ATOM      8  O   UNL     1       4.340   8.678  -1.926  1.00  0.00    -0.252 OA
BRANCH   7   9
ATOM      9  C   UNL     1       3.860   6.603  -3.013  1.00  0.00     0.162 C 
ATOM     10  N   UNL     1       3.924   4.353  -3.720  1.00  0.00    -0.324 N 
ATOM     11  C   UNL     1       4.696   4.438  -2.482  1.00  0.00     0.264 C 
ATOM     12  C   UNL     1       3.695   5.722  -4.267  1.00  0.00     0.195 C 
ATOM     13  H   UNL     1       2.988   3.997  -3.525  1.00  0.00     0.348 HD
ATOM     14  C   UNL     1       4.967   5.900  -2.247  1.00  0.00     0.083 C 
ATOM     15  C   UNL     1       4.537   6.088  -5.489  1.00  0.00     0.076 C 
BRANCH  10  16
ATOM     16  C   UNL     1       4.392   3.306  -4.639  1.00  0.00     0.363 C 
BRANCH  16  17
ATOM     17  C   UNL     1       3.215   2.494  -5.181  1.00  0.00     0.275 C 
ATOM     18  N   UNL     1       2.665   1.521  -4.386  1.00  0.00    -0.349 N 
ATOM     19  H   UNL     1       2.051   0.893  -4.832  1.00  0.00     0.163 HD
ATOM     20  O   UNL     1       2.768   2.650  -6.318  1.00  0.00    -0.269 OA
BRANCH  18  21
ATOM     21  C   UNL     1       2.881   1.306  -2.964  1.00  0.00     0.137 C 
BRANCH  21  22
ATOM     22  C   UNL     1       1.647   1.719  -2.156  1.00  0.00     0.137 C 
BRANCH  22  23
ATOM     23  N   UNL     1       0.626   0.681  -2.212  1.00  0.00    -0.355 N 
ATOM     24  C   UNL     1       0.936  -0.074   0.110  1.00  0.00     0.114 C 
ATOM     25  C   UNL     1       0.310  -0.232  -1.249  1.00  0.00     0.216 C 
ATOM     26  O   UNL     1      -0.477  -1.141  -1.501  1.00  0.00    -0.275 OA
ATOM     27  H   UNL     1       0.102   0.633  -3.044  1.00  0.00     0.163 HD
ENDBRANCH  22  23
ENDBRANCH  21  22
ENDBRANCH  18  21
ENDBRANCH  16  17
ENDBRANCH  10  16
ENDBRANCH   7   9
ENDBRANCH   6   7
ENDBRANCH   5   6
ENDBRANCH   4   5
ENDBRANCH   3   4
ENDBRANCH   2   3
ENDBRANCH   1   2
BRANCH   1  28
ATOM     28  O   UNL     1       2.195   8.274  -6.212  1.00  0.00    -0.377 OA
BRANCH  28  29
ATOM     29  C   UNL     1       2.402   9.366  -7.103  1.00  0.00     0.188 C 
BRANCH  29  30
ATOM     30  C   UNL     1       1.279  10.395  -7.346  1.00  0.00     0.188 C 
BRANCH  30  31
ATOM     31  O   UNL     1       0.025  10.045  -6.785  1.00  0.00    -0.376 OA
BRANCH  31  32
ATOM     32  C   UNL     1      -0.917   9.437  -7.658  1.00  0.00     0.202 C 
BRANCH  32  33
ATOM     33  C   UNL     1      -0.511   8.108  -8.317  1.00  0.00     0.261 C 
BRANCH  33  34
ATOM     34  O   UNL     1       0.634   8.148  -9.187  1.00  0.00    -0.460 OA
BRANCH  34  35
ATOM     35  C   UNL     1       0.608   8.998 -10.234  1.00  0.00     0.338 C 
ATOM     36  O   UNL     1      -0.303   9.739 -10.563  1.00  0.00    -0.246 OA
BRANCH  35  37
ATOM     37  C   UNL     1       1.962   9.023 -10.822  1.00  0.00     0.060 A 
ATOM     38  C   UNL     1       2.693  10.218 -10.807  1.00  0.00     0.016 A 
ATOM     39  C   UNL     1       2.503   7.867 -11.389  1.00  0.00     0.016 A 
ATOM     40  C   UNL     1       3.957  10.269 -11.396  1.00  0.00     0.010 A 
ATOM     41  C   UNL     1       3.760   7.926 -11.996  1.00  0.00     0.010 A 
ATOM     42  C   UNL     1       4.477   9.135 -12.034  1.00  0.00    -0.014 A 
BRANCH  42  43
ATOM     43  C   UNL     1       5.665   9.265 -12.914  1.00  0.00     0.031 A 
ATOM     44  C   UNL     1       5.438   9.398 -14.397  1.00  0.00     0.074 A 
ATOM     45  C   UNL     1       6.914   9.287 -12.415  1.00  0.00     0.049 A 
ATOM     46  N   UNL     1       6.310   9.473 -15.368  1.00  0.00    -0.248 NA
ATOM     47  C   UNL     1       4.035   9.450 -14.842  1.00  0.00     0.031 C 
ATOM     48  C   UNL     1       7.260   9.210 -10.997  1.00  0.00     0.029 A 
ATOM     49  N   UNL     1       8.127   9.371 -13.054  1.00  0.00    -0.354 N 
ATOM     50  C   UNL     1       5.564   9.573 -16.537  1.00  0.00     0.074 A 
ATOM     51  C   UNL     1       4.169   9.516 -16.157  1.00  0.00     0.031 C 
ATOM     52  C   UNL     1       8.599   9.236 -10.874  1.00  0.00     0.029 A 
ATOM     53  C   UNL     1       9.205   9.295 -12.204  1.00  0.00     0.049 A 
ATOM     54  H   UNL     1       8.216   9.475 -14.029  1.00  0.00     0.167 HD
ATOM     55  C   UNL     1       6.001   9.708 -17.811  1.00  0.00     0.037 A 
ATOM     56  C   UNL     1      10.526   9.253 -12.474  1.00  0.00     0.037 A 
ATOM     57  C   UNL     1       7.391   9.759 -18.183  1.00  0.00     0.049 A 
ATOM     58  C   UNL     1      10.990   9.327 -13.908  1.00  0.00     0.074 A 
ATOM     59  C   UNL     1       7.938   9.909 -19.444  1.00  0.00     0.029 A 
ATOM     60  N   UNL     1       8.453   9.650 -17.297  1.00  0.00    -0.354 N 
ATOM     61  N   UNL     1      10.277   9.446 -15.003  1.00  0.00    -0.248 NA
ATOM     62  C   UNL     1      12.440   9.266 -14.144  1.00  0.00     0.031 C 
ATOM     63  C   UNL     1       9.329   9.829 -19.329  1.00  0.00     0.029 A 
ATOM     64  C   UNL     1       9.652   9.700 -17.988  1.00  0.00     0.049 A 
ATOM     65  H   UNL     1       8.367   9.552 -16.321  1.00  0.00     0.167 HD
ATOM     66  C   UNL     1      11.191   9.506 -16.052  1.00  0.00     0.074 A 
ATOM     67  C   UNL     1      12.509   9.422 -15.459  1.00  0.00     0.031 C 
ATOM     68  C   UNL     1      10.960   9.625 -17.384  1.00  0.00     0.037 A 
BRANCH  55  69
ATOM     69  C   UNL     1       4.966   9.777 -18.901  1.00  0.00     0.058 A 
ATOM     70  C   UNL     1       4.125  10.892 -19.058  1.00  0.00     0.135 A 
ATOM     71  C   UNL     1       4.835   8.726 -19.823  1.00  0.00     0.135 A 
ATOM     72  F   UNL     1       4.192  11.917 -18.194  1.00  0.00    -0.206 F 
ATOM     73  C   UNL     1       3.177  10.950 -20.074  1.00  0.00     0.059 A 
ATOM     74  C   UNL     1       3.915   8.777 -20.866  1.00  0.00     0.059 A 
ATOM     75  F   UNL     1       5.609   7.634 -19.718  1.00  0.00    -0.206 F 
ATOM     76  C   UNL     1       3.081   9.888 -20.975  1.00  0.00     0.060 A 
BRANCH  76  77
ATOM     77  S   UNL     1       1.854   9.986 -22.295  1.00  0.00     0.124 S 
ATOM     78  O   UNL     1       0.609   9.830 -21.548  1.00  0.00    -0.237 OA
ATOM     79  O   UNL     1       2.098  11.314 -22.848  1.00  0.00    -0.237 OA
ATOM     80  O   UNL     1       2.203   8.871 -23.170  1.00  0.00    -0.744 OA
ENDBRANCH  76  77
ENDBRANCH  55  69
BRANCH  56  81
ATOM     81  C   UNL     1      11.511   9.117 -11.364  1.00  0.00     0.058 A 
ATOM     82  C   UNL     1      12.397  10.157 -11.046  1.00  0.00     0.135 A 
ATOM     83  C   UNL     1      11.591   7.938 -10.605  1.00  0.00     0.135 A 
ATOM     84  F   UNL     1      12.373  11.298 -11.750  1.00  0.00    -0.206 F 
ATOM     85  C   UNL     1      13.336  10.030 -10.025  1.00  0.00     0.059 A 
ATOM     86  C   UNL     1      12.500   7.798  -9.561  1.00  0.00     0.059 A 
ATOM     87  F   UNL     1      10.763   6.914 -10.863  1.00  0.00    -0.206 F 
ATOM     88  C   UNL     1      13.375   8.847  -9.285  1.00  0.00     0.060 A 
BRANCH  88  89
ATOM     89  S   UNL     1      14.559   8.714  -7.927  1.00  0.00     0.124 S 
ATOM     90  O   UNL     1      15.823   8.612  -8.646  1.00  0.00    -0.237 OA
ATOM     91  O   UNL     1      14.333   9.962  -7.204  1.00  0.00    -0.237 OA
ATOM     92  O   UNL     1      14.132   7.507  -7.225  1.00  0.00    -0.744 OA
ENDBRANCH  88  89
ENDBRANCH  56  81
BRANCH  68  93
ATOM     93  C   UNL     1      12.155   9.718 -18.297  1.00  0.00     0.058 A 
ATOM     94  C   UNL     1      12.987   8.617 -18.550  1.00  0.00     0.135 A 
ATOM     95  C   UNL     1      12.434  10.916 -18.977  1.00  0.00     0.135 A 
ATOM     96  F   UNL     1      12.771   7.449 -17.924  1.00  0.00    -0.206 F 
ATOM     97  C   UNL     1      14.067   8.706 -19.423  1.00  0.00     0.059 A 
ATOM     98  C   UNL     1      13.488  11.019 -19.880  1.00  0.00     0.059 A 
ATOM     99  F   UNL     1      11.664  11.999 -18.784  1.00  0.00    -0.206 F 
ATOM    100  C   UNL     1      14.307   9.911 -20.087  1.00  0.00     0.060 A 
BRANCH 100 101
ATOM    101  S   UNL     1      15.691  10.002 -21.243  1.00  0.00     0.124 S 
ATOM    102  O   UNL     1      16.834   9.984 -20.336  1.00  0.00    -0.237 OA
ATOM    103  O   UNL     1      15.502   8.800 -22.050  1.00  0.00    -0.237 OA
ATOM    104  O   UNL     1      15.467  11.262 -21.945  1.00  0.00    -0.744 OA
ENDBRANCH 100 101
ENDBRANCH  68  93
ENDBRANCH  42  43
ENDBRANCH  35  37
ENDBRANCH  34  35
ENDBRANCH  33  34
ENDBRANCH  32  33
ENDBRANCH  31  32
ENDBRANCH  30  31
ENDBRANCH  29  30
ENDBRANCH  28  29
ENDBRANCH   1  28
TORSDOF 28
