REMARK SMILES COc1ccc(NC(=O)NCc2ccc(C(=O)OCCOCCOCCOCCOC(=O)c3ccc(-c4c5nc(c(-c6c(F)cc(S(=O)(=O)[O-])cc6F)c6ccc([nH]6)c(-c6c(F)cc(S(=O)(=O)[O-])cc6F)c6nc(c(-c7c(F)cc(S(=O)(=O)[O-])cc7F)c7ccc4[nH]7)C=C6)C=C5)cc3)cc2)c(OC)c1
REMARK SMILES IDX 23 1 22 2 21 3 20 4 19 5 18 6 16 7 17 8 15 9 12 10 13 11
REMARK SMILES IDX 100 12 14 13 99 14 11 15 10 16 7 17 8 18 9 20 6 22 3 23 4 24
REMARK SMILES IDX 104 25 5 26 101 27 2 28 1 29 102 30 103 31 24 32 25 33 26 34
REMARK SMILES IDX 27 35 28 36 29 37 30 38 31 39 32 40 33 41 34 42 98 43 35 44
REMARK SMILES IDX 97 45 36 46 37 47 38 48 91 49 39 50 96 51 90 52 92 53 40 54
REMARK SMILES IDX 95 55 89 56 88 57 41 59 75 60 54 61 74 62 55 63 58 64 73 65
REMARK SMILES IDX 93 66 56 67 57 68 72 70 94 71 59 72 42 73 43 74 52 75 44 76
REMARK SMILES IDX 45 77 51 78 53 79 46 80 47 81 48 82 49 83 50 84 76 85 77 86
REMARK SMILES IDX 86 87 78 88 79 89 85 90 87 91 80 92 81 93 82 94 83 95 84 96
REMARK SMILES IDX 60 97 61 98 70 99 62 100 63 101 69 102 71 103 64 104 65 105
REMARK SMILES IDX 66 106 67 107 68 108
REMARK H PARENT 7 19 10 21 92 58 58 69
REMARK Flexibility Score: inf
ROOT
ATOM      1  C   UNL     1      -3.494   4.995   1.665  1.00  0.00     0.188 C 
ENDROOT
BRANCH   1   2
ATOM      2  C   UNL     1      -4.544   6.129   1.658  1.00  0.00     0.188 C 
BRANCH   2   3
ATOM      3  O   UNL     1      -5.705   5.872   2.425  1.00  0.00    -0.376 OA
BRANCH   3   4
ATOM      4  C   UNL     1      -6.934   5.623   1.768  1.00  0.00     0.202 C 
BRANCH   4   5
ATOM      5  C   UNL     1      -7.008   4.395   0.855  1.00  0.00     0.261 C 
BRANCH   5   6
ATOM      6  O   UNL     1      -5.990   4.329  -0.150  1.00  0.00    -0.460 OA
BRANCH   6   7
ATOM      7  C   UNL     1      -6.000   5.280  -1.112  1.00  0.00     0.338 C 
ATOM      8  O   UNL     1      -6.806   6.182  -1.250  1.00  0.00    -0.246 OA
BRANCH   7   9
ATOM      9  C   UNL     1      -4.718   5.170  -1.846  1.00  0.00     0.060 A 
ATOM     10  C   UNL     1      -2.187   4.990  -3.029  1.00  0.00    -0.029 A 
ATOM     11  C   UNL     1      -2.707   6.242  -2.709  1.00  0.00     0.006 A 
ATOM     12  C   UNL     1      -2.945   3.833  -2.740  1.00  0.00     0.006 A 
ATOM     13  C   UNL     1      -3.981   6.332  -2.131  1.00  0.00     0.016 A 
ATOM     14  C   UNL     1      -4.196   3.916  -2.148  1.00  0.00     0.016 A 
BRANCH  10  15
ATOM     15  C   UNL     1      -0.809   4.711  -3.554  1.00  0.00     0.153 C 
BRANCH  15  16
ATOM     16  N   UNL     1       0.027   5.752  -4.077  1.00  0.00    -0.334 N 
ATOM     17  N   UNL     1       2.205   4.810  -3.736  1.00  0.00    -0.305 N 
ATOM     18  C   UNL     1       1.377   5.791  -4.182  1.00  0.00     0.319 C 
ATOM     19  H   UNL     1       3.143   5.101  -3.680  1.00  0.00     0.172 HD
ATOM     20  O   UNL     1       1.882   6.833  -4.614  1.00  0.00    -0.248 OA
ATOM     21  H   UNL     1      -0.447   6.550  -4.407  1.00  0.00     0.165 HD
BRANCH  17  22
ATOM     22  C   UNL     1       2.025   3.471  -3.334  1.00  0.00     0.085 A 
ATOM     23  C   UNL     1       1.301   1.092  -2.046  1.00  0.00     0.122 A 
ATOM     24  C   UNL     1       0.718   1.440  -3.263  1.00  0.00     0.049 A 
ATOM     25  C   UNL     1       2.385   1.832  -1.581  1.00  0.00     0.095 A 
ATOM     26  C   UNL     1       1.109   2.607  -3.926  1.00  0.00     0.034 A 
ATOM     27  C   UNL     1       2.789   2.988  -2.262  1.00  0.00     0.146 A 
BRANCH  23  28
ATOM     28  O   UNL     1       0.759   0.001  -1.427  1.00  0.00    -0.497 OA
ATOM     29  C   UNL     1       1.026  -0.127  -0.032  1.00  0.00     0.278 C 
ENDBRANCH  23  28
BRANCH  27  30
ATOM     30  O   UNL     1       3.882   3.724  -1.868  1.00  0.00    -0.494 OA
ATOM     31  C   UNL     1       5.011   2.899  -1.564  1.00  0.00     0.278 C 
ENDBRANCH  27  30
ENDBRANCH  17  22
ENDBRANCH  15  16
ENDBRANCH  10  15
ENDBRANCH   7   9
ENDBRANCH   6   7
ENDBRANCH   5   6
ENDBRANCH   4   5
ENDBRANCH   3   4
ENDBRANCH   2   3
ENDBRANCH   1   2
BRANCH   1  32
ATOM     32  O   UNL     1      -3.761   3.766   2.327  1.00  0.00    -0.377 OA
BRANCH  32  33
ATOM     33  C   UNL     1      -4.475   3.746   3.559  1.00  0.00     0.188 C 
BRANCH  33  34
ATOM     34  C   UNL     1      -4.343   4.905   4.574  1.00  0.00     0.188 C 
BRANCH  34  35
ATOM     35  O   UNL     1      -3.402   5.897   4.201  1.00  0.00    -0.376 OA
BRANCH  35  36
ATOM     36  C   UNL     1      -2.196   5.971   4.933  1.00  0.00     0.202 C 
BRANCH  36  37
ATOM     37  C   UNL     1      -1.267   4.750   4.888  1.00  0.00     0.261 C 
BRANCH  37  38
ATOM     38  O   UNL     1      -1.865   3.479   5.178  1.00  0.00    -0.460 OA
BRANCH  38  39
ATOM     39  C   UNL     1      -2.306   3.276   6.438  1.00  0.00     0.338 C 
ATOM     40  O   UNL     1      -2.253   4.065   7.369  1.00  0.00    -0.246 OA
BRANCH  39  41
ATOM     41  C   UNL     1      -3.045   1.997   6.452  1.00  0.00     0.060 A 
ATOM     42  C   UNL     1      -4.398   1.990   6.818  1.00  0.00     0.016 A 
ATOM     43  C   UNL     1      -2.398   0.810   6.100  1.00  0.00     0.016 A 
ATOM     44  C   UNL     1      -5.095   0.784   6.881  1.00  0.00     0.010 A 
ATOM     45  C   UNL     1      -3.091  -0.399   6.185  1.00  0.00     0.010 A 
ATOM     46  C   UNL     1      -4.428  -0.420   6.622  1.00  0.00    -0.014 A 
BRANCH  46  47
ATOM     47  C   UNL     1      -5.042  -1.701   7.051  1.00  0.00     0.031 A 
ATOM     48  C   UNL     1      -4.611  -2.273   8.376  1.00  0.00     0.074 A 
ATOM     49  C   UNL     1      -5.972  -2.326   6.309  1.00  0.00     0.049 A 
ATOM     50  N   UNL     1      -4.958  -3.393   8.952  1.00  0.00    -0.248 NA
ATOM     51  C   UNL     1      -3.650  -1.470   9.153  1.00  0.00     0.031 C 
ATOM     52  C   UNL     1      -6.501  -1.847   5.034  1.00  0.00     0.029 A 
ATOM     53  N   UNL     1      -6.633  -3.509   6.526  1.00  0.00    -0.354 N 
ATOM     54  C   UNL     1      -4.253  -3.434  10.150  1.00  0.00     0.074 A 
ATOM     55  C   UNL     1      -3.431  -2.247  10.202  1.00  0.00     0.031 C 
ATOM     56  C   UNL     1      -7.398  -2.738   4.574  1.00  0.00     0.029 A 
ATOM     57  C   UNL     1      -7.483  -3.862   5.506  1.00  0.00     0.049 A 
ATOM     58  H   UNL     1      -6.509  -4.054   7.337  1.00  0.00     0.167 HD
ATOM     59  C   UNL     1      -4.295  -4.372  11.125  1.00  0.00     0.037 A 
ATOM     60  C   UNL     1      -8.225  -4.976   5.338  1.00  0.00     0.037 A 
ATOM     61  C   UNL     1      -5.116  -5.553  11.065  1.00  0.00     0.049 A 
ATOM     62  C   UNL     1      -8.208  -6.040   6.408  1.00  0.00     0.074 A 
ATOM     63  C   UNL     1      -5.239  -6.563  12.002  1.00  0.00     0.029 A 
ATOM     64  N   UNL     1      -5.949  -5.885  10.006  1.00  0.00    -0.354 N 
ATOM     65  N   UNL     1      -7.547  -6.064   7.542  1.00  0.00    -0.248 NA
ATOM     66  C   UNL     1      -9.047  -7.225   6.180  1.00  0.00     0.031 C 
ATOM     67  C   UNL     1      -6.101  -7.535  11.484  1.00  0.00     0.029 A 
ATOM     68  C   UNL     1      -6.572  -7.096  10.257  1.00  0.00     0.049 A 
ATOM     69  H   UNL     1      -6.077  -5.340   9.196  1.00  0.00     0.167 HD
ATOM     70  C   UNL     1      -7.924  -7.243   8.180  1.00  0.00     0.074 A 
ATOM     71  C   UNL     1      -8.874  -7.901   7.307  1.00  0.00     0.031 C 
ATOM     72  C   UNL     1      -7.528  -7.732   9.383  1.00  0.00     0.037 A 
BRANCH  59  73
ATOM     73  C   UNL     1      -3.404  -4.173  12.321  1.00  0.00     0.058 A 
ATOM     74  C   UNL     1      -3.631  -3.151  13.258  1.00  0.00     0.135 A 
ATOM     75  C   UNL     1      -2.315  -5.032  12.543  1.00  0.00     0.135 A 
ATOM     76  F   UNL     1      -4.643  -2.286  13.084  1.00  0.00    -0.206 F 
ATOM     77  C   UNL     1      -2.794  -2.971  14.355  1.00  0.00     0.059 A 
ATOM     78  C   UNL     1      -1.485  -4.891  13.651  1.00  0.00     0.059 A 
ATOM     79  F   UNL     1      -2.046  -6.021  11.677  1.00  0.00    -0.206 F 
ATOM     80  C   UNL     1      -1.725  -3.847  14.543  1.00  0.00     0.060 A 
BRANCH  80  81
ATOM     81  S   UNL     1      -0.653  -3.604  15.975  1.00  0.00     0.124 S 
ATOM     82  O   UNL     1       0.057  -2.384  15.603  1.00  0.00    -0.237 OA
ATOM     83  O   UNL     1      -1.615  -3.470  17.064  1.00  0.00    -0.237 OA
ATOM     84  O   UNL     1       0.158  -4.817  16.004  1.00  0.00    -0.744 OA
ENDBRANCH  80  81
ENDBRANCH  59  73
BRANCH  60  85
ATOM     85  C   UNL     1      -9.045  -5.148   4.107  1.00  0.00     0.058 A 
ATOM     86  C   UNL     1     -10.447  -5.147   4.160  1.00  0.00     0.135 A 
ATOM     87  C   UNL     1      -8.441  -5.327   2.852  1.00  0.00     0.135 A 
ATOM     88  F   UNL     1     -11.073  -4.994   5.337  1.00  0.00    -0.206 F 
ATOM     89  C   UNL     1     -11.221  -5.334   3.019  1.00  0.00     0.059 A 
ATOM     90  C   UNL     1      -9.194  -5.485   1.692  1.00  0.00     0.059 A 
ATOM     91  F   UNL     1      -7.104  -5.328   2.743  1.00  0.00    -0.206 F 
ATOM     92  C   UNL     1     -10.585  -5.498   1.788  1.00  0.00     0.060 A 
BRANCH  92  93
ATOM     93  S   UNL     1     -11.600  -5.688   0.307  1.00  0.00     0.124 S 
ATOM     94  O   UNL     1     -12.152  -7.025   0.497  1.00  0.00    -0.237 OA
ATOM     95  O   UNL     1     -12.543  -4.582   0.440  1.00  0.00    -0.237 OA
ATOM     96  O   UNL     1     -10.636  -5.553  -0.781  1.00  0.00    -0.744 OA
ENDBRANCH  92  93
ENDBRANCH  60  85
BRANCH  72  97
ATOM     97  C   UNL     1      -8.168  -9.009   9.862  1.00  0.00     0.058 A 
ATOM     98  C   UNL     1      -7.903 -10.251   9.265  1.00  0.00     0.135 A 
ATOM     99  C   UNL     1      -9.031  -8.989  10.971  1.00  0.00     0.135 A 
ATOM    100  F   UNL     1      -7.086 -10.330   8.202  1.00  0.00    -0.206 F 
ATOM    101  C   UNL     1      -8.502 -11.421   9.723  1.00  0.00     0.059 A 
ATOM    102  C   UNL     1      -9.613 -10.151  11.469  1.00  0.00     0.059 A 
ATOM    103  F   UNL     1      -9.308  -7.832  11.593  1.00  0.00    -0.206 F 
ATOM    104  C   UNL     1      -9.357 -11.360  10.826  1.00  0.00     0.060 A 
BRANCH 104 105
ATOM    105  S   UNL     1     -10.119 -12.886  11.417  1.00  0.00     0.124 S 
ATOM    106  O   UNL     1     -11.101 -13.149  10.370  1.00  0.00    -0.237 OA
ATOM    107  O   UNL     1      -8.985 -13.803  11.467  1.00  0.00    -0.237 OA
ATOM    108  O   UNL     1     -10.672 -12.510  12.715  1.00  0.00    -0.744 OA
ENDBRANCH 104 105
ENDBRANCH  72  97
ENDBRANCH  46  47
ENDBRANCH  39  41
ENDBRANCH  38  39
ENDBRANCH  37  38
ENDBRANCH  36  37
ENDBRANCH  35  36
ENDBRANCH  34  35
ENDBRANCH  33  34
ENDBRANCH  32  33
ENDBRANCH   1  32
TORSDOF 28
