REMARK SMILES COC[C@H](C)[C@@](C)(O)C(=O)OCCOCCOCCOCCOC(=O)c1ccc(-c2c3nc(c(-c4c(F)cc(S(=O)(=O)[O-])cc4F)c4ccc([nH]4)c(-c4c(F)cc(S(=O)(=O)[O-])cc4F)c4nc(c(-c5c(F)cc(S(=O)(=O)[O-])cc5F)c5ccc2[nH]5)C=C4)C=C3)cc1
REMARK SMILES IDX 17 1 16 2 15 3 14 4 13 5 12 6 11 7 9 8 10 9 6 10 7 11 4 12
REMARK SMILES IDX 5 13 3 14 2 15 1 16 8 17 18 19 19 20 20 21 21 22 22 23 23 24
REMARK SMILES IDX 24 25 25 26 26 27 27 28 91 29 28 30 90 31 29 32 30 33 31 34
REMARK SMILES IDX 84 35 32 36 89 37 83 38 85 39 33 40 88 41 82 42 81 43 34 45
REMARK SMILES IDX 68 46 47 47 67 48 48 49 51 50 66 51 86 52 49 53 50 54 65 56
REMARK SMILES IDX 87 57 52 58 35 59 36 60 45 61 37 62 38 63 44 64 46 65 39 66
REMARK SMILES IDX 40 67 41 68 42 69 43 70 69 71 70 72 79 73 71 74 72 75 78 76
REMARK SMILES IDX 80 77 73 78 74 79 75 80 76 81 77 82 53 83 54 84 63 85 55 86
REMARK SMILES IDX 56 87 62 88 64 89 57 90 58 91 59 92 60 93 61 94
REMARK H PARENT 8 18 85 44 51 55
REMARK Flexibility Score: inf
ROOT
ATOM      1  O   UNL     1       3.824   5.501   2.198  1.00  0.00    -0.377 OA
ENDROOT
BRANCH   1   2
ATOM      2  C   UNL     1       3.040   4.325   2.253  1.00  0.00     0.188 C 
BRANCH   2   3
ATOM      3  C   UNL     1       3.665   3.157   1.467  1.00  0.00     0.188 C 
BRANCH   3   4
ATOM      4  O   UNL     1       5.002   3.338   1.038  1.00  0.00    -0.376 OA
BRANCH   4   5
ATOM      5  C   UNL     1       5.330   4.312   0.057  1.00  0.00     0.202 C 
BRANCH   5   6
ATOM      6  C   UNL     1       4.351   5.292  -0.636  1.00  0.00     0.261 C 
BRANCH   6   7
ATOM      7  O   UNL     1       2.946   5.153  -0.400  1.00  0.00    -0.461 OA
BRANCH   7   8
ATOM      8  C   UNL     1       2.256   4.289  -1.181  1.00  0.00     0.338 C 
ATOM      9  O   UNL     1       2.764   3.651  -2.095  1.00  0.00    -0.249 OA
BRANCH   8  10
ATOM     10  C   UNL     1       0.729   4.262  -0.799  1.00  0.00     0.163 C 
ATOM     11  C   UNL     1       0.051   5.061  -1.924  1.00  0.00     0.055 C 
BRANCH  10  12
ATOM     12  C   UNL     1       0.148   2.811  -0.682  1.00  0.00     0.055 C 
ATOM     13  C   UNL     1       0.575   1.879  -1.818  1.00  0.00     0.014 C 
BRANCH  12  14
ATOM     14  C   UNL     1       0.311   2.182   0.732  1.00  0.00     0.166 C 
BRANCH  14  15
ATOM     15  O   UNL     1       0.812   0.847   0.723  1.00  0.00    -0.384 OA
ATOM     16  C   UNL     1      -0.207  -0.140   0.713  1.00  0.00     0.194 C 
ENDBRANCH  14  15
ENDBRANCH  12  14
ENDBRANCH  10  12
BRANCH  10  17
ATOM     17  O   UNL     1       0.371   4.934   0.415  1.00  0.00    -0.378 OA
ATOM     18  H   UNL     1      -0.586   4.859   0.556  1.00  0.00     0.212 HD
ENDBRANCH  10  17
ENDBRANCH   8  10
ENDBRANCH   7   8
ENDBRANCH   6   7
ENDBRANCH   5   6
ENDBRANCH   4   5
ENDBRANCH   3   4
ENDBRANCH   2   3
ENDBRANCH   1   2
BRANCH   1  19
ATOM     19  C   UNL     1       4.777   5.677   3.232  1.00  0.00     0.188 C 
BRANCH  19  20
ATOM     20  C   UNL     1       5.473   4.442   3.843  1.00  0.00     0.188 C 
BRANCH  20  21
ATOM     21  O   UNL     1       4.598   3.374   4.191  1.00  0.00    -0.376 OA
BRANCH  21  22
ATOM     22  C   UNL     1       4.212   3.214   5.546  1.00  0.00     0.202 C 
BRANCH  22  23
ATOM     23  C   UNL     1       3.249   4.260   6.129  1.00  0.00     0.261 C 
BRANCH  23  24
ATOM     24  O   UNL     1       3.688   5.625   6.080  1.00  0.00    -0.460 OA
BRANCH  24  25
ATOM     25  C   UNL     1       4.843   5.936   6.707  1.00  0.00     0.338 C 
ATOM     26  O   UNL     1       5.537   5.190   7.377  1.00  0.00    -0.246 OA
BRANCH  25  27
ATOM     27  C   UNL     1       5.237   7.291   6.266  1.00  0.00     0.060 A 
ATOM     28  C   UNL     1       6.469   7.460   5.619  1.00  0.00     0.016 A 
ATOM     29  C   UNL     1       4.377   8.378   6.445  1.00  0.00     0.016 A 
ATOM     30  C   UNL     1       6.857   8.723   5.173  1.00  0.00     0.010 A 
ATOM     31  C   UNL     1       4.781   9.648   6.027  1.00  0.00     0.010 A 
ATOM     32  C   UNL     1       6.036   9.831   5.420  1.00  0.00    -0.014 A 
BRANCH  32  33
ATOM     33  C   UNL     1       6.587  11.198   5.256  1.00  0.00     0.031 A 
ATOM     34  C   UNL     1       7.152  11.875   6.476  1.00  0.00     0.074 A 
ATOM     35  C   UNL     1       6.609  11.815   4.062  1.00  0.00     0.049 A 
ATOM     36  N   UNL     1       7.644  13.079   6.606  1.00  0.00    -0.248 NA
ATOM     37  C   UNL     1       7.159  11.084   7.718  1.00  0.00     0.031 C 
ATOM     38  C   UNL     1       6.135  11.244   2.804  1.00  0.00     0.029 A 
ATOM     39  N   UNL     1       7.046  13.071   3.719  1.00  0.00    -0.354 N 
ATOM     40  C   UNL     1       8.011  13.191   7.942  1.00  0.00     0.074 A 
ATOM     41  C   UNL     1       7.657  11.947   8.588  1.00  0.00     0.031 C 
ATOM     42  C   UNL     1       6.291  12.155   1.826  1.00  0.00     0.029 A 
ATOM     43  C   UNL     1       6.846  13.383   2.396  1.00  0.00     0.049 A 
ATOM     44  H   UNL     1       7.463  13.690   4.361  1.00  0.00     0.167 HD
ATOM     45  C   UNL     1       8.598  14.235   8.572  1.00  0.00     0.037 A 
ATOM     46  C   UNL     1       7.062  14.537   1.731  1.00  0.00     0.037 A 
ATOM     47  C   UNL     1       8.942  15.473   7.923  1.00  0.00     0.049 A 
ATOM     48  C   UNL     1       7.644  15.717   2.472  1.00  0.00     0.074 A 
ATOM     49  C   UNL     1       9.552  16.588   8.468  1.00  0.00     0.029 A 
ATOM     50  N   UNL     1       8.694  15.764   6.590  1.00  0.00    -0.354 N 
ATOM     51  N   UNL     1       8.010  15.805   3.729  1.00  0.00    -0.248 NA
ATOM     52  C   UNL     1       7.844  16.954   1.703  1.00  0.00     0.031 C 
ATOM     53  C   UNL     1       9.618  17.575   7.480  1.00  0.00     0.029 A 
ATOM     54  C   UNL     1       9.110  17.052   6.301  1.00  0.00     0.049 A 
ATOM     55  H   UNL     1       8.282  15.145   5.944  1.00  0.00     0.167 HD
ATOM     56  C   UNL     1       8.511  17.094   3.893  1.00  0.00     0.074 A 
ATOM     57  C   UNL     1       8.411  17.745   2.603  1.00  0.00     0.031 C 
ATOM     58  C   UNL     1       9.010  17.685   5.008  1.00  0.00     0.037 A 
BRANCH  45  59
ATOM     59  C   UNL     1       8.873  14.094  10.044  1.00  0.00     0.058 A 
ATOM     60  C   UNL     1       9.861  13.225  10.535  1.00  0.00     0.135 A 
ATOM     61  C   UNL     1       8.152  14.857  10.976  1.00  0.00     0.135 A 
ATOM     62  F   UNL     1      10.565  12.454   9.691  1.00  0.00    -0.206 F 
ATOM     63  C   UNL     1      10.106  13.100  11.899  1.00  0.00     0.059 A 
ATOM     64  C   UNL     1       8.401  14.771  12.342  1.00  0.00     0.059 A 
ATOM     65  F   UNL     1       7.191  15.698  10.562  1.00  0.00    -0.206 F 
ATOM     66  C   UNL     1       9.372  13.879  12.794  1.00  0.00     0.060 A 
BRANCH  66  67
ATOM     67  S   UNL     1       9.708  13.710  14.560  1.00  0.00     0.124 S 
ATOM     68  O   UNL     1       9.157  12.387  14.836  1.00  0.00    -0.237 OA
ATOM     69  O   UNL     1      11.163  13.814  14.610  1.00  0.00    -0.237 OA
ATOM     70  O   UNL     1       8.982  14.828  15.154  1.00  0.00    -0.744 OA
ENDBRANCH  66  67
ENDBRANCH  45  59
BRANCH  46  71
ATOM     71  C   UNL     1       6.712  14.645   0.288  1.00  0.00     0.058 A 
ATOM     72  C   UNL     1       7.704  14.793  -0.693  1.00  0.00     0.135 A 
ATOM     73  C   UNL     1       5.374  14.613  -0.139  1.00  0.00     0.135 A 
ATOM     74  F   UNL     1       8.996  14.847  -0.337  1.00  0.00    -0.206 F 
ATOM     75  C   UNL     1       7.384  14.919  -2.042  1.00  0.00     0.059 A 
ATOM     76  C   UNL     1       5.031  14.707  -1.485  1.00  0.00     0.059 A 
ATOM     77  F   UNL     1       4.385  14.469   0.756  1.00  0.00    -0.206 F 
ATOM     78  C   UNL     1       6.043  14.869  -2.429  1.00  0.00     0.060 A 
BRANCH  78  79
ATOM     79  S   UNL     1       5.644  14.982  -4.186  1.00  0.00     0.124 S 
ATOM     80  O   UNL     1       5.942  16.381  -4.468  1.00  0.00    -0.237 OA
ATOM     81  O   UNL     1       6.557  14.004  -4.770  1.00  0.00    -0.237 OA
ATOM     82  O   UNL     1       4.231  14.616  -4.234  1.00  0.00    -0.744 OA
ENDBRANCH  78  79
ENDBRANCH  46  71
BRANCH  58  83
ATOM     83  C   UNL     1       9.525  19.095   4.883  1.00  0.00     0.058 A 
ATOM     84  C   UNL     1       8.662  20.187   4.705  1.00  0.00     0.135 A 
ATOM     85  C   UNL     1      10.899  19.362   5.005  1.00  0.00     0.135 A 
ATOM     86  F   UNL     1       7.340  19.991   4.578  1.00  0.00    -0.206 F 
ATOM     87  C   UNL     1       9.144  21.491   4.627  1.00  0.00     0.059 A 
ATOM     88  C   UNL     1      11.400  20.659   4.963  1.00  0.00     0.059 A 
ATOM     89  F   UNL     1      11.769  18.356   5.190  1.00  0.00    -0.206 F 
ATOM     90  C   UNL     1      10.515  21.717   4.761  1.00  0.00     0.060 A 
BRANCH  90  91
ATOM     91  S   UNL     1      11.123  23.415   4.692  1.00  0.00     0.124 S 
ATOM     92  O   UNL     1      10.961  23.729   3.276  1.00  0.00    -0.237 OA
ATOM     93  O   UNL     1      10.216  24.107   5.603  1.00  0.00    -0.237 OA
ATOM     94  O   UNL     1      12.503  23.303   5.156  1.00  0.00    -0.744 OA
ENDBRANCH  90  91
ENDBRANCH  58  83
ENDBRANCH  32  33
ENDBRANCH  25  27
ENDBRANCH  24  25
ENDBRANCH  23  24
ENDBRANCH  22  23
ENDBRANCH  21  22
ENDBRANCH  20  21
ENDBRANCH  19  20
ENDBRANCH   1  19
TORSDOF 27
