REMARK SMILES CN1N[C@H](C(=O)N[C@@H](CC2=c3ccccc3=NC2)C(=O)OCCOCCOCCOCCOC(=O)c2ccc(-c3c4nc(c(-c5c(F)cc(S(=O)(=O)[O-])cc5F)c5ccc([nH]5)c(-c5c(F)cc(S(=O)(=O)[O-])cc5F)c5nc(c(-c6c(F)cc(S(=O)(=O)[O-])cc6F)c6ccc3[nH]6)C=C5)C=C4)cc2)c2ccccc2C1=O
REMARK SMILES IDX 28 1 27 2 26 3 25 4 24 5 23 6 22 7 21 8 19 9 20 10 8 11 7 12
REMARK SMILES IDX 5 13 6 14 4 16 1 17 2 18 3 19 108 20 107 22 109 23 102 24
REMARK SMILES IDX 106 25 103 26 105 27 104 28 9 29 10 30 11 31 18 32 12 33
REMARK SMILES IDX 16 34 17 35 13 36 15 37 14 38 29 39 30 40 31 41 32 42 33 43
REMARK SMILES IDX 34 44 35 45 36 46 37 47 101 48 38 49 100 50 39 51 40 52
REMARK SMILES IDX 41 53 94 54 42 55 99 56 93 57 95 58 43 59 98 60 92 61 91 62
REMARK SMILES IDX 44 64 78 65 57 66 77 67 58 68 61 69 76 70 96 71 59 72 60 73
REMARK SMILES IDX 75 75 97 76 62 77 45 78 46 79 55 80 47 81 48 82 54 83 56 84
REMARK SMILES IDX 49 85 50 86 51 87 52 88 53 89 79 90 80 91 89 92 81 93 82 94
REMARK SMILES IDX 88 95 90 96 83 97 84 98 85 99 86 100 87 101 63 102 64 103
REMARK SMILES IDX 73 104 65 105 66 106 72 107 74 108 67 109 68 110 69 111
REMARK SMILES IDX 70 112 71 113
REMARK H PARENT 7 15 3 21 95 63 61 74
REMARK Flexibility Score: inf
ROOT
ATOM      1  C   UNL     1      -2.248   9.274  -1.207  1.00  0.00     0.188 C 
ENDROOT
BRANCH   1   2
ATOM      2  O   UNL     1      -2.522   7.951  -1.629  1.00  0.00    -0.377 OA
BRANCH   2   3
ATOM      3  C   UNL     1      -1.452   7.045  -1.469  1.00  0.00     0.188 C 
BRANCH   3   4
ATOM      4  C   UNL     1      -0.666   6.732  -2.757  1.00  0.00     0.188 C 
BRANCH   4   5
ATOM      5  O   UNL     1      -1.078   7.210  -4.032  1.00  0.00    -0.376 OA
BRANCH   5   6
ATOM      6  C   UNL     1      -2.454   7.420  -4.300  1.00  0.00     0.202 C 
BRANCH   6   7
ATOM      7  C   UNL     1      -3.419   6.240  -4.143  1.00  0.00     0.261 C 
BRANCH   7   8
ATOM      8  O   UNL     1      -3.239   5.454  -2.952  1.00  0.00    -0.462 OA
BRANCH   8   9
ATOM      9  C   UNL     1      -2.736   4.207  -3.130  1.00  0.00     0.329 C 
ATOM     10  O   UNL     1      -2.443   3.724  -4.220  1.00  0.00    -0.250 OA
BRANCH   9  11
ATOM     11  C   UNL     1      -2.738   3.363  -1.843  1.00  0.00     0.196 C 
BRANCH  11  12
ATOM     12  N   UNL     1      -2.475   3.992  -0.532  1.00  0.00    -0.341 N 
ATOM     13  C   UNL     1      -1.459   3.879   0.375  1.00  0.00     0.244 C 
ATOM     14  O   UNL     1      -1.538   4.581   1.393  1.00  0.00    -0.273 OA
ATOM     15  H   UNL     1      -3.177   4.623  -0.254  1.00  0.00     0.164 HD
BRANCH  13  16
ATOM     16  C   UNL     1      -0.206   2.990   0.171  1.00  0.00     0.195 C 
ATOM     17  C   UNL     1       0.638  -0.497  -0.338  1.00  0.00     0.169 C 
ATOM     18  N   UNL     1       0.419   0.870  -0.760  1.00  0.00    -0.276 N 
ATOM     19  N   UNL     1      -0.630   1.625  -0.187  1.00  0.00    -0.215 NA
ATOM     20  C   UNL     1       1.106   1.374  -1.867  1.00  0.00     0.268 C 
ATOM     21  H   UNL     1      -0.953   1.149   0.656  1.00  0.00     0.149 HD
ATOM     22  C   UNL     1       1.249   2.856  -1.892  1.00  0.00     0.046 A 
ATOM     23  O   UNL     1       1.702   0.675  -2.681  1.00  0.00    -0.268 OA
ATOM     24  C   UNL     1       0.772   3.605  -0.807  1.00  0.00    -0.007 A 
ATOM     25  C   UNL     1       2.065   3.448  -2.863  1.00  0.00     0.014 A 
ATOM     26  C   UNL     1       1.290   4.894  -0.605  1.00  0.00     0.007 A 
ATOM     27  C   UNL     1       2.512   4.755  -2.688  1.00  0.00     0.001 A 
ATOM     28  C   UNL     1       2.172   5.455  -1.531  1.00  0.00     0.000 A 
ENDBRANCH  13  16
ENDBRANCH  11  12
BRANCH  11  29
ATOM     29  C   UNL     1      -4.096   2.619  -1.846  1.00  0.00     0.070 C 
BRANCH  29  30
ATOM     30  C   UNL     1      -5.409   3.325  -1.434  1.00  0.00    -0.037 C 
ATOM     31  C   UNL     1      -5.452   4.245  -0.461  1.00  0.00     0.001 A 
ATOM     32  C   UNL     1      -6.442   2.275  -1.063  1.00  0.00     0.174 C 
ATOM     33  C   UNL     1      -5.806   5.642  -0.447  1.00  0.00     0.010 A 
ATOM     34  C   UNL     1      -5.972   3.449   0.675  1.00  0.00     0.065 A 
ATOM     35  N   UNL     1      -6.462   2.276   0.419  1.00  0.00    -0.280 NA
ATOM     36  C   UNL     1      -6.021   6.216   0.754  1.00  0.00     0.001 A 
ATOM     37  C   UNL     1      -5.841   4.108   1.989  1.00  0.00     0.028 A 
ATOM     38  C   UNL     1      -5.846   5.453   1.986  1.00  0.00     0.002 A 
ENDBRANCH  29  30
ENDBRANCH  11  29
ENDBRANCH   9  11
ENDBRANCH   8   9
ENDBRANCH   7   8
ENDBRANCH   6   7
ENDBRANCH   5   6
ENDBRANCH   4   5
ENDBRANCH   3   4
ENDBRANCH   2   3
ENDBRANCH   1   2
BRANCH   1  39
ATOM     39  C   UNL     1      -0.933   9.882  -1.725  1.00  0.00     0.188 C 
BRANCH  39  40
ATOM     40  O   UNL     1       0.230   9.172  -1.293  1.00  0.00    -0.376 OA
BRANCH  40  41
ATOM     41  C   UNL     1       0.960   9.704  -0.194  1.00  0.00     0.202 C 
BRANCH  41  42
ATOM     42  C   UNL     1       0.356   9.435   1.193  1.00  0.00     0.261 C 
BRANCH  42  43
ATOM     43  O   UNL     1      -0.914  10.048   1.453  1.00  0.00    -0.460 OA
BRANCH  43  44
ATOM     44  C   UNL     1      -1.043  11.377   1.254  1.00  0.00     0.338 C 
ATOM     45  O   UNL     1      -0.161  12.171   0.978  1.00  0.00    -0.246 OA
BRANCH  44  46
ATOM     46  C   UNL     1      -2.492  11.657   1.181  1.00  0.00     0.060 A 
ATOM     47  C   UNL     1      -3.361  11.165   2.159  1.00  0.00     0.016 A 
ATOM     48  C   UNL     1      -2.989  12.344   0.065  1.00  0.00     0.016 A 
ATOM     49  C   UNL     1      -4.731  11.395   2.038  1.00  0.00     0.010 A 
ATOM     50  C   UNL     1      -4.361  12.555  -0.066  1.00  0.00     0.010 A 
ATOM     51  C   UNL     1      -5.233  12.110   0.937  1.00  0.00    -0.014 A 
BRANCH  51  52
ATOM     52  C   UNL     1      -6.623  12.615   0.975  1.00  0.00     0.031 A 
ATOM     53  C   UNL     1      -7.747  11.934   0.266  1.00  0.00     0.074 A 
ATOM     54  C   UNL     1      -6.835  13.732   1.693  1.00  0.00     0.049 A 
ATOM     55  N   UNL     1      -9.024  12.210   0.311  1.00  0.00    -0.248 NA
ATOM     56  C   UNL     1      -7.398  10.805  -0.607  1.00  0.00     0.031 C 
ATOM     57  C   UNL     1      -5.790  14.474   2.404  1.00  0.00     0.029 A 
ATOM     58  N   UNL     1      -7.982  14.426   1.964  1.00  0.00    -0.354 N 
ATOM     59  C   UNL     1      -9.646  11.270  -0.498  1.00  0.00     0.074 A 
ATOM     60  C   UNL     1      -8.592  10.451  -1.069  1.00  0.00     0.031 C 
ATOM     61  C   UNL     1      -6.351  15.495   3.064  1.00  0.00     0.029 A 
ATOM     62  C   UNL     1      -7.786  15.493   2.805  1.00  0.00     0.049 A 
ATOM     63  H   UNL     1      -8.862  14.184   1.592  1.00  0.00     0.167 HD
ATOM     64  C   UNL     1     -10.973  11.101  -0.722  1.00  0.00     0.037 A 
ATOM     65  C   UNL     1      -8.667  16.364   3.328  1.00  0.00     0.037 A 
ATOM     66  C   UNL     1     -11.997  11.965  -0.183  1.00  0.00     0.049 A 
ATOM     67  C   UNL     1     -10.122  16.199   3.010  1.00  0.00     0.074 A 
ATOM     68  C   UNL     1     -13.370  11.883  -0.345  1.00  0.00     0.029 A 
ATOM     69  N   UNL     1     -11.760  13.082   0.610  1.00  0.00    -0.354 N 
ATOM     70  N   UNL     1     -10.704  15.272   2.288  1.00  0.00    -0.248 NA
ATOM     71  C   UNL     1     -11.039  17.193   3.578  1.00  0.00     0.031 C 
ATOM     72  C   UNL     1     -13.956  12.975   0.306  1.00  0.00     0.029 A 
ATOM     73  C   UNL     1     -12.956  13.713   0.920  1.00  0.00     0.049 A 
ATOM     74  H   UNL     1     -10.871  13.383   0.908  1.00  0.00     0.167 HD
ATOM     75  C   UNL     1     -12.062  15.560   2.324  1.00  0.00     0.074 A 
ATOM     76  C   UNL     1     -12.212  16.741   3.153  1.00  0.00     0.031 C 
ATOM     77  C   UNL     1     -13.088  14.903   1.728  1.00  0.00     0.037 A 
BRANCH  64  78
ATOM     78  C   UNL     1     -11.385   9.941  -1.588  1.00  0.00     0.058 A 
ATOM     79  C   UNL     1     -11.238   8.615  -1.147  1.00  0.00     0.135 A 
ATOM     80  C   UNL     1     -11.945  10.145  -2.859  1.00  0.00     0.135 A 
ATOM     81  F   UNL     1     -10.701   8.359   0.058  1.00  0.00    -0.206 F 
ATOM     82  C   UNL     1     -11.586   7.535  -1.951  1.00  0.00     0.059 A 
ATOM     83  C   UNL     1     -12.326   9.079  -3.671  1.00  0.00     0.059 A 
ATOM     84  F   UNL     1     -12.117  11.389  -3.331  1.00  0.00    -0.206 F 
ATOM     85  C   UNL     1     -12.122   7.777  -3.216  1.00  0.00     0.060 A 
BRANCH  85  86
ATOM     86  S   UNL     1     -12.517   6.362  -4.266  1.00  0.00     0.124 S 
ATOM     87  O   UNL     1     -11.183   5.870  -4.601  1.00  0.00    -0.237 OA
ATOM     88  O   UNL     1     -13.298   5.517  -3.370  1.00  0.00    -0.237 OA
ATOM     89  O   UNL     1     -13.261   6.956  -5.373  1.00  0.00    -0.744 OA
ENDBRANCH  85  86
ENDBRANCH  64  78
BRANCH  65  90
ATOM     90  C   UNL     1      -8.176  17.406   4.263  1.00  0.00     0.058 A 
ATOM     91  C   UNL     1      -8.403  17.285   5.641  1.00  0.00     0.135 A 
ATOM     92  C   UNL     1      -7.381  18.473   3.817  1.00  0.00     0.135 A 
ATOM     93  F   UNL     1      -9.154  16.279   6.112  1.00  0.00    -0.206 F 
ATOM     94  C   UNL     1      -7.847  18.180   6.548  1.00  0.00     0.059 A 
ATOM     95  C   UNL     1      -6.796  19.368   4.706  1.00  0.00     0.059 A 
ATOM     96  F   UNL     1      -7.117  18.613   2.508  1.00  0.00    -0.206 F 
ATOM     97  C   UNL     1      -7.033  19.209   6.072  1.00  0.00     0.060 A 
BRANCH  97  98
ATOM     98  S   UNL     1      -6.237  20.299   7.271  1.00  0.00     0.124 S 
ATOM     99  O   UNL     1      -7.377  21.035   7.802  1.00  0.00    -0.237 OA
ATOM    100  O   UNL     1      -5.613  19.342   8.181  1.00  0.00    -0.237 OA
ATOM    101  O   UNL     1      -5.307  21.075   6.456  1.00  0.00    -0.744 OA
ENDBRANCH  97  98
ENDBRANCH  65  90
BRANCH  77 102
ATOM    102  C   UNL     1     -14.470  15.456   1.944  1.00  0.00     0.058 A 
ATOM    103  C   UNL     1     -14.891  16.641   1.320  1.00  0.00     0.135 A 
ATOM    104  C   UNL     1     -15.399  14.767   2.740  1.00  0.00     0.135 A 
ATOM    105  F   UNL     1     -14.038  17.344   0.559  1.00  0.00    -0.206 F 
ATOM    106  C   UNL     1     -16.181  17.131   1.490  1.00  0.00     0.059 A 
ATOM    107  C   UNL     1     -16.703  15.226   2.902  1.00  0.00     0.059 A 
ATOM    108  F   UNL     1     -15.049  13.627   3.356  1.00  0.00    -0.206 F 
ATOM    109  C   UNL     1     -17.082  16.413   2.278  1.00  0.00     0.060 A 
BRANCH 109 110
ATOM    110  S   UNL     1     -18.766  17.041   2.450  1.00  0.00     0.124 S 
ATOM    111  O   UNL     1     -18.558  18.219   3.286  1.00  0.00    -0.237 OA
ATOM    112  O   UNL     1     -19.141  17.305   1.064  1.00  0.00    -0.237 OA
ATOM    113  O   UNL     1     -19.478  15.937   3.087  1.00  0.00    -0.744 OA
ENDBRANCH 109 110
ENDBRANCH  77 102
ENDBRANCH  51  52
ENDBRANCH  44  46
ENDBRANCH  43  44
ENDBRANCH  42  43
ENDBRANCH  41  42
ENDBRANCH  40  41
ENDBRANCH  39  40
ENDBRANCH   1  39
TORSDOF 27
