REMARK SMILES Cc1c(C(=O)OCCOCCOCCOCCOC(=O)c2ccc(-c3c4nc(c(-c5c(F)cc(S(=O)(=O)[O-])cc5F)c5ccc([nH]5)c(-c5c(F)cc(S(=O)(=O)[O-])cc5F)c5nc(c(-c6c(F)cc(S(=O)(=O)[O-])cc6F)c6ccc3[nH]6)C=C5)C=C4)cc2)sc2ncnc(NCc3cn4c(n3)SCC4)c12
REMARK SMILES IDX 12 1 11 2 10 3 9 4 8 5 7 6 6 7 4 8 5 9 3 10 1 11 2 12 103 13
REMARK SMILES IDX 87 14 88 15 92 16 89 17 91 18 90 19 93 20 94 22 95 23 96 24
REMARK SMILES IDX 99 25 97 26 98 27 102 28 100 29 101 30 13 31 14 32 15 33
REMARK SMILES IDX 16 34 17 35 18 36 19 37 20 38 21 39 22 40 86 41 23 42 85 43
REMARK SMILES IDX 24 44 25 45 26 46 79 47 27 48 84 49 78 50 80 51 28 52 83 53
REMARK SMILES IDX 77 54 76 55 29 57 63 58 42 59 62 60 43 61 46 62 61 63 81 64
REMARK SMILES IDX 44 65 45 66 60 68 82 69 47 70 30 71 31 72 40 73 32 74 33 75
REMARK SMILES IDX 39 76 41 77 34 78 35 79 36 80 37 81 38 82 64 83 65 84 74 85
REMARK SMILES IDX 66 86 67 87 73 88 75 89 68 90 69 91 70 92 71 93 72 94 48 95
REMARK SMILES IDX 49 96 58 97 50 98 51 99 57 100 59 101 52 102 53 103 54 104
REMARK SMILES IDX 55 105 56 106
REMARK H PARENT 93 21 80 56 46 67
REMARK Flexibility Score: inf
ROOT
ATOM      1  O   UNL     1      -2.099   4.088  -1.733  1.00  0.00    -0.377 OA
ENDROOT
BRANCH   1   2
ATOM      2  C   UNL     1      -1.488   3.053  -0.981  1.00  0.00     0.188 C 
BRANCH   2   3
ATOM      3  C   UNL     1      -0.244   3.390  -0.135  1.00  0.00     0.188 C 
BRANCH   3   4
ATOM      4  O   UNL     1       0.067   4.770  -0.096  1.00  0.00    -0.376 OA
BRANCH   4   5
ATOM      5  C   UNL     1       1.226   5.231  -0.753  1.00  0.00     0.202 C 
BRANCH   5   6
ATOM      6  C   UNL     1       1.399   4.920  -2.246  1.00  0.00     0.261 C 
BRANCH   6   7
ATOM      7  O   UNL     1       1.113   3.575  -2.657  1.00  0.00    -0.459 OA
BRANCH   7   8
ATOM      8  C   UNL     1       1.992   2.596  -2.318  1.00  0.00     0.348 C 
ATOM      9  O   UNL     1       3.056   2.797  -1.728  1.00  0.00    -0.245 OA
BRANCH   8  10
ATOM     10  C   UNL     1       1.406   1.292  -2.582  1.00  0.00     0.118 A 
ATOM     11  C   UNL     1       1.627   0.273  -0.272  1.00  0.00     0.047 C 
ATOM     12  C   UNL     1       1.266   0.202  -1.720  1.00  0.00    -0.012 A 
ATOM     13  C   UNL     1       0.666  -0.961  -2.386  1.00  0.00     0.058 A 
ATOM     14  S   UNL     1       0.716   0.994  -4.107  1.00  0.00    -0.108 S 
ATOM     15  C   UNL     1       0.282  -0.587  -3.674  1.00  0.00     0.129 A 
ATOM     16  C   UNL     1       0.362  -2.312  -2.049  1.00  0.00     0.138 A 
ATOM     17  N   UNL     1      -0.359  -1.329  -4.589  1.00  0.00    -0.225 NA
ATOM     18  N   UNL     1      -0.311  -3.061  -2.963  1.00  0.00    -0.219 NA
ATOM     19  C   UNL     1      -0.638  -2.546  -4.151  1.00  0.00     0.225 A 
BRANCH  16  20
ATOM     20  N   UNL     1       0.647  -3.082  -0.960  1.00  0.00    -0.364 N 
ATOM     21  H   UNL     1       0.230  -3.972  -1.014  1.00  0.00     0.162 HD
BRANCH  20  22
ATOM     22  C   UNL     1       1.411  -2.911   0.250  1.00  0.00     0.172 C 
BRANCH  22  23
ATOM     23  C   UNL     1       0.607  -2.655   1.491  1.00  0.00     0.079 A 
ATOM     24  C   UNL     1      -0.513  -3.354   1.935  1.00  0.00     0.113 A 
ATOM     25  N   UNL     1       0.875  -1.573   2.324  1.00  0.00    -0.226 NA
ATOM     26  N   UNL     1      -0.947  -2.637   2.993  1.00  0.00    -0.325 N 
ATOM     27  C   UNL     1      -0.110  -1.587   3.178  1.00  0.00     0.168 A 
ATOM     28  C   UNL     1      -2.161  -2.659   3.779  1.00  0.00     0.135 C 
ATOM     29  S   UNL     1      -0.728  -0.439   4.300  1.00  0.00    -0.086 SA
ATOM     30  C   UNL     1      -2.403  -1.206   4.193  1.00  0.00     0.100 C 
ENDBRANCH  22  23
ENDBRANCH  20  22
ENDBRANCH  16  20
ENDBRANCH   8  10
ENDBRANCH   7   8
ENDBRANCH   6   7
ENDBRANCH   5   6
ENDBRANCH   4   5
ENDBRANCH   3   4
ENDBRANCH   2   3
ENDBRANCH   1   2
BRANCH   1  31
ATOM     31  C   UNL     1      -2.357   5.350  -1.122  1.00  0.00     0.188 C 
BRANCH  31  32
ATOM     32  C   UNL     1      -2.494   5.534   0.421  1.00  0.00     0.188 C 
BRANCH  32  33
ATOM     33  O   UNL     1      -2.260   4.380   1.212  1.00  0.00    -0.376 OA
BRANCH  33  34
ATOM     34  C   UNL     1      -3.269   3.729   1.958  1.00  0.00     0.202 C 
BRANCH  34  35
ATOM     35  C   UNL     1      -4.425   3.085   1.200  1.00  0.00     0.261 C 
BRANCH  35  36
ATOM     36  O   UNL     1      -4.802   3.811   0.053  1.00  0.00    -0.460 OA
BRANCH  36  37
ATOM     37  C   UNL     1      -5.396   4.984   0.328  1.00  0.00     0.338 C 
ATOM     38  O   UNL     1      -5.546   5.494   1.431  1.00  0.00    -0.246 OA
BRANCH  37  39
ATOM     39  C   UNL     1      -5.920   5.531  -0.923  1.00  0.00     0.060 A 
ATOM     40  C   UNL     1      -6.602   6.735  -0.777  1.00  0.00     0.016 A 
ATOM     41  C   UNL     1      -6.183   4.615  -1.954  1.00  0.00     0.016 A 
ATOM     42  C   UNL     1      -7.818   6.819  -1.393  1.00  0.00     0.010 A 
ATOM     43  C   UNL     1      -7.410   4.686  -2.546  1.00  0.00     0.010 A 
ATOM     44  C   UNL     1      -8.246   5.723  -2.152  1.00  0.00    -0.014 A 
BRANCH  44  45
ATOM     45  C   UNL     1      -9.620   5.716  -2.570  1.00  0.00     0.031 A 
ATOM     46  C   UNL     1      -9.849   6.659  -3.674  1.00  0.00     0.074 A 
ATOM     47  C   UNL     1     -10.530   4.899  -2.013  1.00  0.00     0.049 A 
ATOM     48  N   UNL     1     -10.455   7.794  -3.612  1.00  0.00    -0.248 NA
ATOM     49  C   UNL     1      -9.098   6.432  -4.919  1.00  0.00     0.031 C 
ATOM     50  C   UNL     1     -10.328   3.781  -1.089  1.00  0.00     0.029 A 
ATOM     51  N   UNL     1     -11.862   4.863  -2.251  1.00  0.00    -0.354 N 
ATOM     52  C   UNL     1     -10.361   8.320  -4.891  1.00  0.00     0.074 A 
ATOM     53  C   UNL     1      -9.340   7.569  -5.571  1.00  0.00     0.031 C 
ATOM     54  C   UNL     1     -11.463   3.044  -1.036  1.00  0.00     0.029 A 
ATOM     55  C   UNL     1     -12.493   3.706  -1.818  1.00  0.00     0.049 A 
ATOM     56  H   UNL     1     -12.344   5.598  -2.694  1.00  0.00     0.167 HD
ATOM     57  C   UNL     1     -11.320   9.150  -5.375  1.00  0.00     0.037 A 
ATOM     58  C   UNL     1     -13.737   3.315  -2.193  1.00  0.00     0.037 A 
ATOM     59  C   UNL     1     -12.127   9.694  -4.313  1.00  0.00     0.049 A 
ATOM     60  C   UNL     1     -14.440   4.541  -2.680  1.00  0.00     0.074 A 
ATOM     61  C   UNL     1     -11.856  10.490  -3.216  1.00  0.00     0.029 A 
ATOM     62  N   UNL     1     -13.341   9.098  -4.062  1.00  0.00    -0.354 N 
ATOM     63  N   UNL     1     -14.762   5.543  -1.903  1.00  0.00    -0.248 NA
ATOM     64  C   UNL     1     -14.336   4.871  -4.097  1.00  0.00     0.031 C 
ATOM     65  C   UNL     1     -12.688   9.987  -2.175  1.00  0.00     0.029 A 
ATOM     66  C   UNL     1     -13.462   8.951  -2.702  1.00  0.00     0.049 A 
ATOM     67  H   UNL     1     -14.005   8.825  -4.736  1.00  0.00     0.167 HD
ATOM     68  C   UNL     1     -14.505   6.684  -2.654  1.00  0.00     0.074 A 
ATOM     69  C   UNL     1     -14.317   6.205  -4.021  1.00  0.00     0.031 C 
ATOM     70  C   UNL     1     -14.179   7.870  -2.057  1.00  0.00     0.037 A 
BRANCH  57  71
ATOM     71  C   UNL     1     -11.744   9.159  -6.816  1.00  0.00     0.058 A 
ATOM     72  C   UNL     1     -12.588  10.185  -7.276  1.00  0.00     0.135 A 
ATOM     73  C   UNL     1     -11.575   8.060  -7.691  1.00  0.00     0.135 A 
ATOM     74  F   UNL     1     -12.825  11.266  -6.516  1.00  0.00    -0.206 F 
ATOM     75  C   UNL     1     -13.269  10.094  -8.488  1.00  0.00     0.059 A 
ATOM     76  C   UNL     1     -12.194   7.979  -8.929  1.00  0.00     0.059 A 
ATOM     77  F   UNL     1     -10.889   6.963  -7.350  1.00  0.00    -0.206 F 
ATOM     78  C   UNL     1     -13.075   8.978  -9.299  1.00  0.00     0.060 A 
BRANCH  78  79
ATOM     79  S   UNL     1     -14.045   8.797 -10.802  1.00  0.00     0.124 S 
ATOM     80  O   UNL     1     -15.385   8.604 -10.259  1.00  0.00    -0.237 OA
ATOM     81  O   UNL     1     -13.801  10.069 -11.473  1.00  0.00    -0.237 OA
ATOM     82  O   UNL     1     -13.451   7.629 -11.447  1.00  0.00    -0.744 OA
ENDBRANCH  78  79
ENDBRANCH  57  71
BRANCH  58  83
ATOM     83  C   UNL     1     -14.194   1.932  -2.505  1.00  0.00     0.058 A 
ATOM     84  C   UNL     1     -15.554   1.646  -2.722  1.00  0.00     0.135 A 
ATOM     85  C   UNL     1     -13.288   0.909  -2.857  1.00  0.00     0.135 A 
ATOM     86  F   UNL     1     -16.490   2.565  -2.438  1.00  0.00    -0.206 F 
ATOM     87  C   UNL     1     -15.984   0.442  -3.295  1.00  0.00     0.059 A 
ATOM     88  C   UNL     1     -13.693  -0.301  -3.417  1.00  0.00     0.059 A 
ATOM     89  F   UNL     1     -11.963   1.086  -2.753  1.00  0.00    -0.206 F 
ATOM     90  C   UNL     1     -15.041  -0.519  -3.659  1.00  0.00     0.060 A 
BRANCH  90  91
ATOM     91  S   UNL     1     -15.571  -1.999  -4.552  1.00  0.00     0.124 S 
ATOM     92  O   UNL     1     -16.362  -2.695  -3.543  1.00  0.00    -0.237 OA
ATOM     93  O   UNL     1     -16.319  -1.432  -5.669  1.00  0.00    -0.237 OA
ATOM     94  O   UNL     1     -14.313  -2.647  -4.914  1.00  0.00    -0.744 OA
ENDBRANCH  90  91
ENDBRANCH  58  83
BRANCH  70  95
ATOM     95  C   UNL     1     -14.346   7.989  -0.562  1.00  0.00     0.058 A 
ATOM     96  C   UNL     1     -13.567   7.282   0.372  1.00  0.00     0.135 A 
ATOM     97  C   UNL     1     -15.173   9.007  -0.066  1.00  0.00     0.135 A 
ATOM     98  F   UNL     1     -12.680   6.362  -0.028  1.00  0.00    -0.206 F 
ATOM     99  C   UNL     1     -13.621   7.564   1.739  1.00  0.00     0.059 A 
ATOM    100  C   UNL     1     -15.221   9.325   1.289  1.00  0.00     0.059 A 
ATOM    101  F   UNL     1     -15.894   9.759  -0.914  1.00  0.00    -0.206 F 
ATOM    102  C   UNL     1     -14.445   8.596   2.188  1.00  0.00     0.060 A 
BRANCH 102 103
ATOM    103  S   UNL     1     -14.425   9.038   3.939  1.00  0.00     0.124 S 
ATOM    104  O   UNL     1     -15.098   7.897   4.552  1.00  0.00    -0.237 OA
ATOM    105  O   UNL     1     -12.997   9.158   4.220  1.00  0.00    -0.237 OA
ATOM    106  O   UNL     1     -15.167  10.296   3.983  1.00  0.00    -0.744 OA
ENDBRANCH 102 103
ENDBRANCH  70  95
ENDBRANCH  44  45
ENDBRANCH  37  39
ENDBRANCH  36  37
ENDBRANCH  35  36
ENDBRANCH  34  35
ENDBRANCH  33  34
ENDBRANCH  32  33
ENDBRANCH  31  32
ENDBRANCH   1  31
TORSDOF 26
