REMARK SMILES CCC[C@@H](Oc1ccc(-c2ccccc2)cc1)C(=O)OCCOCCOCCOCCOC(=O)c1ccc(-c2c3nc(c(-c4c(F)cc(S(=O)(=O)[O-])cc4F)c4ccc([nH]4)c(-c4c(F)cc(S(=O)(=O)[O-])cc4F)c4nc(c(-c5c(F)cc(S(=O)(=O)[O-])cc5F)c5ccc2[nH]5)C=C4)C=C3)cc1
REMARK SMILES IDX 26 1 25 2 24 3 23 4 22 5 21 6 20 7 18 8 19 9 4 10 3 11 2 12
REMARK SMILES IDX 1 13 5 14 6 15 7 16 17 17 8 18 16 19 9 20 10 21 11 22 15 23
REMARK SMILES IDX 12 24 14 25 13 26 27 27 28 28 29 29 30 30 31 31 32 32 33 33
REMARK SMILES IDX 34 34 35 35 36 36 100 37 37 38 99 39 38 40 39 41 40 42 93 43
REMARK SMILES IDX 41 44 98 45 92 46 94 47 42 48 97 49 91 50 90 51 43 53 77 54
REMARK SMILES IDX 56 55 76 56 57 57 60 58 75 59 95 60 58 61 59 62 74 64 96 65
REMARK SMILES IDX 61 66 44 67 45 68 54 69 46 70 47 71 53 72 55 73 48 74 49 75
REMARK SMILES IDX 50 76 51 77 52 78 78 79 79 80 88 81 80 82 81 83 87 84 89 85
REMARK SMILES IDX 82 86 83 87 84 88 85 89 86 90 62 91 63 92 72 93 64 94 65 95
REMARK SMILES IDX 71 96 73 97 66 98 67 99 68 100 69 101 70 102
REMARK H PARENT 94 52 60 63
REMARK Flexibility Score: inf
ROOT
ATOM      1  O   UNL     1       2.701   4.692   1.713  1.00  0.00    -0.377 OA
ENDROOT
BRANCH   1   2
ATOM      2  C   UNL     1       3.206   4.116   0.526  1.00  0.00     0.188 C 
BRANCH   2   3
ATOM      3  C   UNL     1       3.082   4.999  -0.719  1.00  0.00     0.188 C 
BRANCH   3   4
ATOM      4  O   UNL     1       2.934   6.402  -0.593  1.00  0.00    -0.376 OA
BRANCH   4   5
ATOM      5  C   UNL     1       1.920   6.960   0.238  1.00  0.00     0.202 C 
BRANCH   5   6
ATOM      6  C   UNL     1       0.476   6.435   0.224  1.00  0.00     0.261 C 
BRANCH   6   7
ATOM      7  O   UNL     1       0.281   5.082   0.679  1.00  0.00    -0.461 OA
BRANCH   7   8
ATOM      8  C   UNL     1      -0.103   4.184  -0.262  1.00  0.00     0.347 C 
ATOM      9  O   UNL     1      -0.187   4.436  -1.464  1.00  0.00    -0.248 OA
BRANCH   8  10
ATOM     10  C   UNL     1      -0.507   2.820   0.296  1.00  0.00     0.282 C 
BRANCH  10  11
ATOM     11  C   UNL     1       0.339   2.228   1.443  1.00  0.00     0.057 C 
BRANCH  11  12
ATOM     12  C   UNL     1       0.726   0.739   1.284  1.00  0.00     0.001 C 
ATOM     13  C   UNL     1       1.452   0.355   0.002  1.00  0.00     0.004 C 
ENDBRANCH  11  12
ENDBRANCH  10  11
BRANCH  10  14
ATOM     14  O   UNL     1      -1.881   3.001   0.702  1.00  0.00    -0.479 OA
BRANCH  14  15
ATOM     15  C   UNL     1      -2.553   1.822   0.569  1.00  0.00     0.120 A 
ATOM     16  C   UNL     1      -3.112   1.462  -0.650  1.00  0.00     0.047 A 
ATOM     17  C   UNL     1      -2.627   0.978   1.666  1.00  0.00     0.047 A 
ATOM     18  C   UNL     1      -3.703   0.203  -0.782  1.00  0.00     0.012 A 
ATOM     19  C   UNL     1      -3.157  -0.295   1.510  1.00  0.00     0.012 A 
ATOM     20  C   UNL     1      -3.723  -0.712   0.290  1.00  0.00    -0.018 A 
BRANCH  20  21
ATOM     21  C   UNL     1      -4.339  -2.053   0.174  1.00  0.00    -0.018 A 
ATOM     22  C   UNL     1      -4.364  -2.765  -1.037  1.00  0.00     0.009 A 
ATOM     23  C   UNL     1      -4.936  -2.666   1.292  1.00  0.00     0.009 A 
ATOM     24  C   UNL     1      -4.972  -4.022  -1.127  1.00  0.00     0.001 A 
ATOM     25  C   UNL     1      -5.526  -3.927   1.212  1.00  0.00     0.001 A 
ATOM     26  C   UNL     1      -5.551  -4.602  -0.001  1.00  0.00     0.000 A 
ENDBRANCH  20  21
ENDBRANCH  14  15
ENDBRANCH  10  14
ENDBRANCH   8  10
ENDBRANCH   7   8
ENDBRANCH   6   7
ENDBRANCH   5   6
ENDBRANCH   4   5
ENDBRANCH   3   4
ENDBRANCH   2   3
ENDBRANCH   1   2
BRANCH   1  27
ATOM     27  C   UNL     1       3.617   5.314   2.610  1.00  0.00     0.188 C 
BRANCH  27  28
ATOM     28  C   UNL     1       4.912   5.915   2.037  1.00  0.00     0.188 C 
BRANCH  28  29
ATOM     29  O   UNL     1       5.683   4.999   1.268  1.00  0.00    -0.376 OA
BRANCH  29  30
ATOM     30  C   UNL     1       6.683   4.235   1.931  1.00  0.00     0.202 C 
BRANCH  30  31
ATOM     31  C   UNL     1       6.219   3.273   3.039  1.00  0.00     0.261 C 
BRANCH  31  32
ATOM     32  O   UNL     1       5.694   3.885   4.231  1.00  0.00    -0.460 OA
BRANCH  32  33
ATOM     33  C   UNL     1       6.450   4.822   4.842  1.00  0.00     0.338 C 
ATOM     34  O   UNL     1       7.593   5.131   4.572  1.00  0.00    -0.246 OA
BRANCH  33  35
ATOM     35  C   UNL     1       5.588   5.571   5.780  1.00  0.00     0.060 A 
ATOM     36  C   UNL     1       5.500   6.959   5.629  1.00  0.00     0.016 A 
ATOM     37  C   UNL     1       4.917   4.926   6.822  1.00  0.00     0.016 A 
ATOM     38  C   UNL     1       4.798   7.716   6.563  1.00  0.00     0.010 A 
ATOM     39  C   UNL     1       4.224   5.690   7.768  1.00  0.00     0.010 A 
ATOM     40  C   UNL     1       4.206   7.092   7.669  1.00  0.00    -0.014 A 
BRANCH  40  41
ATOM     41  C   UNL     1       3.767   7.937   8.808  1.00  0.00     0.031 A 
ATOM     42  C   UNL     1       4.702   8.109   9.977  1.00  0.00     0.074 A 
ATOM     43  C   UNL     1       2.604   8.611   8.765  1.00  0.00     0.049 A 
ATOM     44  N   UNL     1       4.572   8.857  11.042  1.00  0.00    -0.248 NA
ATOM     45  C   UNL     1       5.954   7.335   9.937  1.00  0.00     0.031 C 
ATOM     46  C   UNL     1       1.633   8.552   7.674  1.00  0.00     0.029 A 
ATOM     47  N   UNL     1       2.050   9.488   9.663  1.00  0.00    -0.354 N 
ATOM     48  C   UNL     1       5.724   8.650  11.793  1.00  0.00     0.074 A 
ATOM     49  C   UNL     1       6.521   7.673  11.084  1.00  0.00     0.031 C 
ATOM     50  C   UNL     1       0.602   9.365   7.965  1.00  0.00     0.029 A 
ATOM     51  C   UNL     1       0.831   9.986   9.269  1.00  0.00     0.049 A 
ATOM     52  H   UNL     1       2.486   9.738  10.510  1.00  0.00     0.167 HD
ATOM     53  C   UNL     1       6.093   9.232  12.959  1.00  0.00     0.037 A 
ATOM     54  C   UNL     1      -0.003  10.841   9.893  1.00  0.00     0.037 A 
ATOM     55  C   UNL     1       5.293  10.199  13.665  1.00  0.00     0.049 A 
ATOM     56  C   UNL     1       0.404  11.436  11.217  1.00  0.00     0.074 A 
ATOM     57  C   UNL     1       5.578  10.851  14.851  1.00  0.00     0.029 A 
ATOM     58  N   UNL     1       4.046  10.649  13.253  1.00  0.00    -0.354 N 
ATOM     59  N   UNL     1       1.507  11.249  11.904  1.00  0.00    -0.248 NA
ATOM     60  C   UNL     1      -0.540  12.371  11.842  1.00  0.00     0.031 C 
ATOM     61  C   UNL     1       4.482  11.655  15.184  1.00  0.00     0.029 A 
ATOM     62  C   UNL     1       3.541  11.553  14.172  1.00  0.00     0.049 A 
ATOM     63  H   UNL     1       3.589  10.366  12.428  1.00  0.00     0.167 HD
ATOM     64  C   UNL     1       1.402  12.068  13.025  1.00  0.00     0.074 A 
ATOM     65  C   UNL     1       0.135  12.761  12.914  1.00  0.00     0.031 C 
ATOM     66  C   UNL     1       2.276  12.237  14.050  1.00  0.00     0.037 A 
BRANCH  53  67
ATOM     67  C   UNL     1       7.409   8.814  13.557  1.00  0.00     0.058 A 
ATOM     68  C   UNL     1       8.636   9.173  12.976  1.00  0.00     0.135 A 
ATOM     69  C   UNL     1       7.444   8.059  14.741  1.00  0.00     0.135 A 
ATOM     70  F   UNL     1       8.663   9.876  11.832  1.00  0.00    -0.206 F 
ATOM     71  C   UNL     1       9.849   8.776  13.530  1.00  0.00     0.059 A 
ATOM     72  C   UNL     1       8.646   7.676  15.329  1.00  0.00     0.059 A 
ATOM     73  F   UNL     1       6.302   7.683  15.337  1.00  0.00    -0.206 F 
ATOM     74  C   UNL     1       9.843   8.027  14.708  1.00  0.00     0.060 A 
BRANCH  74  75
ATOM     75  S   UNL     1      11.424   7.519  15.416  1.00  0.00     0.124 S 
ATOM     76  O   UNL     1      11.852   6.494  14.469  1.00  0.00    -0.237 OA
ATOM     77  O   UNL     1      12.189   8.761  15.394  1.00  0.00    -0.237 OA
ATOM     78  O   UNL     1      11.062   7.032  16.744  1.00  0.00    -0.744 OA
ENDBRANCH  74  75
ENDBRANCH  53  67
BRANCH  54  79
ATOM     79  C   UNL     1      -1.307  11.196   9.268  1.00  0.00     0.058 A 
ATOM     80  C   UNL     1      -1.556  12.488   8.782  1.00  0.00     0.135 A 
ATOM     81  C   UNL     1      -2.334  10.246   9.151  1.00  0.00     0.135 A 
ATOM     82  F   UNL     1      -0.612  13.436   8.882  1.00  0.00    -0.206 F 
ATOM     83  C   UNL     1      -2.781  12.831   8.217  1.00  0.00     0.059 A 
ATOM     84  C   UNL     1      -3.556  10.556   8.563  1.00  0.00     0.059 A 
ATOM     85  F   UNL     1      -2.144   8.992   9.592  1.00  0.00    -0.206 F 
ATOM     86  C   UNL     1      -3.773  11.856   8.108  1.00  0.00     0.060 A 
BRANCH  86  87
ATOM     87  S   UNL     1      -5.340  12.297   7.325  1.00  0.00     0.124 S 
ATOM     88  O   UNL     1      -5.951  13.141   8.345  1.00  0.00    -0.237 OA
ATOM     89  O   UNL     1      -4.894  12.978   6.114  1.00  0.00    -0.237 OA
ATOM     90  O   UNL     1      -5.982  11.004   7.108  1.00  0.00    -0.744 OA
ENDBRANCH  86  87
ENDBRANCH  54  79
BRANCH  66  91
ATOM     91  C   UNL     1       1.913  13.244  15.109  1.00  0.00     0.058 A 
ATOM     92  C   UNL     1       0.863  13.027  16.016  1.00  0.00     0.135 A 
ATOM     93  C   UNL     1       2.638  14.442  15.227  1.00  0.00     0.135 A 
ATOM     94  F   UNL     1       0.136  11.899  15.950  1.00  0.00    -0.206 F 
ATOM     95  C   UNL     1       0.512  13.981  16.966  1.00  0.00     0.059 A 
ATOM     96  C   UNL     1       2.327  15.395  16.191  1.00  0.00     0.059 A 
ATOM     97  F   UNL     1       3.665  14.695  14.400  1.00  0.00    -0.206 F 
ATOM     98  C   UNL     1       1.247  15.166  17.041  1.00  0.00     0.060 A 
BRANCH  98  99
ATOM     99  S   UNL     1       0.775  16.404  18.268  1.00  0.00     0.124 S 
ATOM    100  O   UNL     1      -0.436  16.959  17.673  1.00  0.00    -0.237 OA
ATOM    101  O   UNL     1       0.578  15.597  19.468  1.00  0.00    -0.237 OA
ATOM    102  O   UNL     1       1.926  17.301  18.306  1.00  0.00    -0.744 OA
ENDBRANCH  98  99
ENDBRANCH  66  91
ENDBRANCH  40  41
ENDBRANCH  33  35
ENDBRANCH  32  33
ENDBRANCH  31  32
ENDBRANCH  30  31
ENDBRANCH  29  30
ENDBRANCH  28  29
ENDBRANCH  27  28
ENDBRANCH   1  27
TORSDOF 28
