REMARK SMILES C[C@@H](C(=O)OCCOCCOCCOCCOC(=O)c1ccc(-c2c3nc(c(-c4c(F)cc(S(=O)(=O)[O-])cc4F)c4ccc([nH]4)c(-c4c(F)cc(S(=O)(=O)[O-])cc4F)c4nc(c(-c5c(F)cc(S(=O)(=O)[O-])cc5F)c5ccc2[nH]5)C=C4)C=C3)cc1)c1ccc(C[C@H]2CCC[C@@H]2O)cc1
REMARK SMILES IDX 10 1 9 2 8 3 7 4 6 5 5 6 3 7 4 8 2 9 1 10 86 11 87 12 98 13
REMARK SMILES IDX 88 14 97 15 89 16 90 17 91 18 92 19 95 20 93 21 94 22 96 23
REMARK SMILES IDX 11 25 12 26 13 27 14 28 15 29 16 30 17 31 18 32 19 33 20 34
REMARK SMILES IDX 21 35 85 36 22 37 84 38 23 39 24 40 25 41 78 42 26 43 83 44
REMARK SMILES IDX 77 45 79 46 27 47 82 48 76 49 75 50 28 52 62 53 41 54 61 55
REMARK SMILES IDX 42 56 45 57 60 58 80 59 43 60 44 61 59 63 81 64 46 65 29 66
REMARK SMILES IDX 30 67 39 68 31 69 32 70 38 71 40 72 33 73 34 74 35 75 36 76
REMARK SMILES IDX 37 77 63 78 64 79 73 80 65 81 66 82 72 83 74 84 67 85 68 86
REMARK SMILES IDX 69 87 70 88 71 89 47 90 48 91 57 92 49 93 50 94 56 95 58 96
REMARK SMILES IDX 51 97 52 98 53 99 54 100 55 101
REMARK H PARENT 96 24 79 51 45 62
REMARK Flexibility Score: inf
ROOT
ATOM      1  C   UNL     1       1.075   2.774   0.829  1.00  0.00     0.188 C 
ENDROOT
BRANCH   1   2
ATOM      2  C   UNL     1       0.258   3.146   2.082  1.00  0.00     0.188 C 
BRANCH   2   3
ATOM      3  O   UNL     1       0.912   3.704   3.209  1.00  0.00    -0.376 OA
BRANCH   3   4
ATOM      4  C   UNL     1       2.125   3.131   3.675  1.00  0.00     0.202 C 
BRANCH   4   5
ATOM      5  C   UNL     1       2.352   1.604   3.746  1.00  0.00     0.261 C 
BRANCH   5   6
ATOM      6  O   UNL     1       1.892   0.797   2.643  1.00  0.00    -0.463 OA
BRANCH   6   7
ATOM      7  C   UNL     1       0.810   0.004   2.865  1.00  0.00     0.313 C 
ATOM      8  O   UNL     1       0.213  -0.040   3.937  1.00  0.00    -0.252 OA
BRANCH   7   9
ATOM      9  C   UNL     1       0.388  -0.850   1.646  1.00  0.00     0.126 C 
ATOM     10  C   UNL     1       1.203  -0.750   0.352  1.00  0.00     0.025 C 
BRANCH   9  11
ATOM     11  C   UNL     1      -1.118  -0.733   1.393  1.00  0.00    -0.034 A 
ATOM     12  C   UNL     1      -1.719   0.445   0.923  1.00  0.00     0.005 A 
ATOM     13  C   UNL     1      -1.958  -1.795   1.738  1.00  0.00     0.005 A 
ATOM     14  C   UNL     1      -3.105   0.615   0.939  1.00  0.00     0.004 A 
ATOM     15  C   UNL     1      -3.347  -1.639   1.728  1.00  0.00     0.004 A 
ATOM     16  C   UNL     1      -3.931  -0.409   1.397  1.00  0.00    -0.048 A 
BRANCH  16  17
ATOM     17  C   UNL     1      -5.409  -0.183   1.599  1.00  0.00     0.041 C 
BRANCH  17  18
ATOM     18  C   UNL     1      -5.807   0.504   2.921  1.00  0.00     0.022 C 
ATOM     19  C   UNL     1      -5.257  -0.132   4.209  1.00  0.00     0.007 C 
ATOM     20  C   UNL     1      -5.443   1.987   3.048  1.00  0.00     0.117 C 
ATOM     21  C   UNL     1      -5.002   1.022   5.183  1.00  0.00     0.003 C 
ATOM     22  C   UNL     1      -5.625   2.248   4.537  1.00  0.00     0.032 C 
BRANCH  20  23
ATOM     23  O   UNL     1      -6.318   2.811   2.297  1.00  0.00    -0.393 OA
ATOM     24  H   UNL     1      -7.231   2.660   2.585  1.00  0.00     0.210 HD
ENDBRANCH  20  23
ENDBRANCH  17  18
ENDBRANCH  16  17
ENDBRANCH   9  11
ENDBRANCH   7   9
ENDBRANCH   6   7
ENDBRANCH   5   6
ENDBRANCH   4   5
ENDBRANCH   3   4
ENDBRANCH   2   3
ENDBRANCH   1   2
BRANCH   1  25
ATOM     25  O   UNL     1       2.467   2.953   0.953  1.00  0.00    -0.377 OA
BRANCH  25  26
ATOM     26  C   UNL     1       2.990   4.200   0.529  1.00  0.00     0.188 C 
BRANCH  26  27
ATOM     27  C   UNL     1       2.104   5.454   0.664  1.00  0.00     0.188 C 
BRANCH  27  28
ATOM     28  O   UNL     1       0.795   5.312   0.118  1.00  0.00    -0.376 OA
BRANCH  28  29
ATOM     29  C   UNL     1       0.544   5.806  -1.190  1.00  0.00     0.202 C 
BRANCH  29  30
ATOM     30  C   UNL     1       1.188   5.048  -2.362  1.00  0.00     0.261 C 
BRANCH  30  31
ATOM     31  O   UNL     1       2.621   4.987  -2.374  1.00  0.00    -0.460 OA
BRANCH  31  32
ATOM     32  C   UNL     1       3.303   6.157  -2.339  1.00  0.00     0.338 C 
ATOM     33  O   UNL     1       2.840   7.273  -2.373  1.00  0.00    -0.246 OA
BRANCH  32  34
ATOM     34  C   UNL     1       4.716   5.832  -2.035  1.00  0.00     0.060 A 
ATOM     35  C   UNL     1       5.298   6.373  -0.880  1.00  0.00     0.016 A 
ATOM     36  C   UNL     1       5.448   4.981  -2.865  1.00  0.00     0.016 A 
ATOM     37  C   UNL     1       6.628   6.090  -0.571  1.00  0.00     0.010 A 
ATOM     38  C   UNL     1       6.789   4.721  -2.570  1.00  0.00     0.010 A 
ATOM     39  C   UNL     1       7.393   5.303  -1.441  1.00  0.00    -0.014 A 
BRANCH  39  40
ATOM     40  C   UNL     1       8.868   5.274  -1.294  1.00  0.00     0.031 A 
ATOM     41  C   UNL     1       9.678   6.212  -2.148  1.00  0.00     0.074 A 
ATOM     42  C   UNL     1       9.475   4.456  -0.416  1.00  0.00     0.049 A 
ATOM     43  N   UNL     1      10.975   6.339  -2.244  1.00  0.00    -0.248 NA
ATOM     44  C   UNL     1       8.918   7.129  -3.015  1.00  0.00     0.031 C 
ATOM     45  C   UNL     1       8.796   3.540   0.498  1.00  0.00     0.029 A 
ATOM     46  N   UNL     1      10.809   4.262  -0.157  1.00  0.00    -0.354 N 
ATOM     47  C   UNL     1      11.186   7.339  -3.187  1.00  0.00     0.074 A 
ATOM     48  C   UNL     1       9.886   7.765  -3.655  1.00  0.00     0.031 C 
ATOM     49  C   UNL     1       9.720   2.871   1.210  1.00  0.00     0.029 A 
ATOM     50  C   UNL     1      11.054   3.284   0.778  1.00  0.00     0.049 A 
ATOM     51  H   UNL     1      11.524   4.774  -0.600  1.00  0.00     0.167 HD
ATOM     52  C   UNL     1      12.359   7.858  -3.620  1.00  0.00     0.037 A 
ATOM     53  C   UNL     1      12.223   2.769   1.213  1.00  0.00     0.037 A 
ATOM     54  C   UNL     1      13.649   7.427  -3.149  1.00  0.00     0.049 A 
ATOM     55  C   UNL     1      13.518   3.312   0.660  1.00  0.00     0.074 A 
ATOM     56  C   UNL     1      14.897   7.903  -3.508  1.00  0.00     0.029 A 
ATOM     57  N   UNL     1      13.857   6.413  -2.226  1.00  0.00    -0.354 N 
ATOM     58  N   UNL     1      13.706   4.274  -0.213  1.00  0.00    -0.248 NA
ATOM     59  C   UNL     1      14.761   2.699   1.152  1.00  0.00     0.031 C 
ATOM     60  C   UNL     1      15.862   7.134  -2.850  1.00  0.00     0.029 A 
ATOM     61  C   UNL     1      15.214   6.226  -2.027  1.00  0.00     0.049 A 
ATOM     62  H   UNL     1      13.145   5.901  -1.778  1.00  0.00     0.167 HD
ATOM     63  C   UNL     1      15.086   4.405  -0.347  1.00  0.00     0.074 A 
ATOM     64  C   UNL     1      15.684   3.429   0.541  1.00  0.00     0.031 C 
ATOM     65  C   UNL     1      15.795   5.257  -1.129  1.00  0.00     0.037 A 
BRANCH  52  66
ATOM     66  C   UNL     1      12.303   8.922  -4.681  1.00  0.00     0.058 A 
ATOM     67  C   UNL     1      11.824  10.215  -4.416  1.00  0.00     0.135 A 
ATOM     68  C   UNL     1      12.768   8.651  -5.979  1.00  0.00     0.135 A 
ATOM     69  F   UNL     1      11.345  10.523  -3.200  1.00  0.00    -0.206 F 
ATOM     70  C   UNL     1      11.787  11.193  -5.404  1.00  0.00     0.059 A 
ATOM     71  C   UNL     1      12.770   9.623  -6.974  1.00  0.00     0.059 A 
ATOM     72  F   UNL     1      13.230   7.429  -6.290  1.00  0.00    -0.206 F 
ATOM     73  C   UNL     1      12.266  10.889  -6.680  1.00  0.00     0.060 A 
BRANCH  73  74
ATOM     74  S   UNL     1      12.224  12.174  -7.946  1.00  0.00     0.124 S 
ATOM     75  O   UNL     1      10.792  12.279  -8.208  1.00  0.00    -0.237 OA
ATOM     76  O   UNL     1      12.827  13.309  -7.255  1.00  0.00    -0.237 OA
ATOM     77  O   UNL     1      13.020  11.610  -9.031  1.00  0.00    -0.744 OA
ENDBRANCH  73  74
ENDBRANCH  52  66
BRANCH  53  78
ATOM     78  C   UNL     1      12.229   1.670   2.218  1.00  0.00     0.058 A 
ATOM     79  C   UNL     1      12.732   1.872   3.513  1.00  0.00     0.135 A 
ATOM     80  C   UNL     1      11.748   0.390   1.900  1.00  0.00     0.135 A 
ATOM     81  F   UNL     1      13.218   3.073   3.863  1.00  0.00    -0.206 F 
ATOM     82  C   UNL     1      12.774   0.844   4.449  1.00  0.00     0.059 A 
ATOM     83  C   UNL     1      11.752  -0.647   2.829  1.00  0.00     0.059 A 
ATOM     84  F   UNL     1      11.251   0.142   0.678  1.00  0.00    -0.206 F 
ATOM     85  C   UNL     1      12.277  -0.412   4.098  1.00  0.00     0.060 A 
BRANCH  85  86
ATOM     86  S   UNL     1      12.293  -1.727   5.337  1.00  0.00     0.124 S 
ATOM     87  O   UNL     1      13.718  -2.026   5.430  1.00  0.00    -0.237 OA
ATOM     88  O   UNL     1      11.703  -1.061   6.494  1.00  0.00    -0.237 OA
ATOM     89  O   UNL     1      11.467  -2.768   4.733  1.00  0.00    -0.744 OA
ENDBRANCH  85  86
ENDBRANCH  53  78
BRANCH  65  90
ATOM     90  C   UNL     1      17.297   5.214  -1.032  1.00  0.00     0.058 A 
ATOM     91  C   UNL     1      18.046   4.143  -1.543  1.00  0.00     0.135 A 
ATOM     92  C   UNL     1      18.000   6.294  -0.471  1.00  0.00     0.135 A 
ATOM     93  F   UNL     1      17.426   3.083  -2.086  1.00  0.00    -0.206 F 
ATOM     94  C   UNL     1      19.436   4.131  -1.480  1.00  0.00     0.059 A 
ATOM     95  C   UNL     1      19.391   6.319  -0.427  1.00  0.00     0.059 A 
ATOM     96  F   UNL     1      17.336   7.352   0.021  1.00  0.00    -0.206 F 
ATOM     97  C   UNL     1      20.100   5.227  -0.923  1.00  0.00     0.060 A 
BRANCH  97  98
ATOM     98  S   UNL     1      21.904   5.214  -0.879  1.00  0.00     0.124 S 
ATOM     99  O   UNL     1      22.167   4.218   0.154  1.00  0.00    -0.237 OA
ATOM    100  O   UNL     1      22.246   4.819  -2.242  1.00  0.00    -0.237 OA
ATOM    101  O   UNL     1      22.247   6.588  -0.527  1.00  0.00    -0.744 OA
ENDBRANCH  97  98
ENDBRANCH  65  90
ENDBRANCH  39  40
ENDBRANCH  32  34
ENDBRANCH  31  32
ENDBRANCH  30  31
ENDBRANCH  29  30
ENDBRANCH  28  29
ENDBRANCH  27  28
ENDBRANCH  26  27
ENDBRANCH  25  26
ENDBRANCH   1  25
TORSDOF 27
