REMARK SMILES NS(=O)(=O)c1ccc(-n2nc(C(=O)NCCCC(=O)OCCOCCOCCOCCOC(=O)c3ccc(-c4c5nc(c(-c6c(F)cc(S(=O)(=O)[O-])cc6F)c6ccc([nH]6)c(-c6c(F)cc(S(=O)(=O)[O-])cc6F)c6nc(c(-c7c(F)cc(S(=O)(=O)[O-])cc7F)c7ccc4[nH]7)C=C6)C=C5)cc3)cc2-c2ccccc2)cc1
REMARK SMILES IDX 24 1 23 2 22 3 21 4 20 5 18 6 19 7 17 8 16 9 15 10 14 11
REMARK SMILES IDX 12 12 13 13 11 15 9 16 10 17 102 18 101 19 8 20 5 21 6 22
REMARK SMILES IDX 110 23 7 24 109 25 2 26 3 27 4 28 1 29 103 32 104 33 108 34
REMARK SMILES IDX 105 35 107 36 106 37 25 38 26 39 27 40 28 41 29 42 30 43
REMARK SMILES IDX 31 44 32 45 33 46 34 47 35 48 36 49 100 50 37 51 99 52 38 53
REMARK SMILES IDX 39 54 40 55 93 56 41 57 98 58 92 59 94 60 42 61 97 62 91 63
REMARK SMILES IDX 90 64 43 66 77 67 56 68 76 69 57 70 60 71 75 72 95 73 58 74
REMARK SMILES IDX 59 75 74 77 96 78 61 79 44 80 45 81 54 82 46 83 47 84 53 85
REMARK SMILES IDX 55 86 48 87 49 88 50 89 51 90 52 91 78 92 79 93 88 94 80 95
REMARK SMILES IDX 81 96 87 97 89 98 82 99 83 100 84 101 85 102 86 103 62 104
REMARK SMILES IDX 63 105 72 106 64 107 65 108 71 109 73 110 66 111 67 112
REMARK SMILES IDX 68 113 69 114 70 115
REMARK H PARENT 14 14 1 30 1 31 94 65 60 76
REMARK Flexibility Score: inf
ROOT
ATOM      1  C   UNL     1       1.621 -11.950  -9.585  1.00  0.00     0.188 C 
ENDROOT
BRANCH   1   2
ATOM      2  O   UNL     1       1.858 -13.353  -9.534  1.00  0.00    -0.376 OA
BRANCH   2   3
ATOM      3  C   UNL     1       2.305 -13.957  -8.330  1.00  0.00     0.202 C 
BRANCH   3   4
ATOM      4  C   UNL     1       3.575 -13.433  -7.650  1.00  0.00     0.261 C 
BRANCH   4   5
ATOM      5  O   UNL     1       3.738 -12.002  -7.653  1.00  0.00    -0.463 OA
BRANCH   5   6
ATOM      6  C   UNL     1       4.729 -11.516  -8.430  1.00  0.00     0.305 C 
ATOM      7  O   UNL     1       5.473 -12.208  -9.119  1.00  0.00    -0.252 OA
BRANCH   6   8
ATOM      8  C   UNL     1       4.901 -10.010  -8.370  1.00  0.00     0.124 C 
BRANCH   8   9
ATOM      9  C   UNL     1       3.860  -9.059  -7.777  1.00  0.00     0.033 C 
BRANCH   9  10
ATOM     10  C   UNL     1       3.304  -9.323  -6.376  1.00  0.00     0.117 C 
BRANCH  10  11
ATOM     11  N   UNL     1       4.262  -9.038  -5.335  1.00  0.00    -0.351 N 
ATOM     12  C   UNL     1       4.236  -8.150  -4.282  1.00  0.00     0.271 C 
ATOM     13  O   UNL     1       5.294  -8.054  -3.652  1.00  0.00    -0.267 OA
ATOM     14  H   UNL     1       5.085  -9.577  -5.387  1.00  0.00     0.163 HD
BRANCH  12  15
ATOM     15  C   UNL     1       3.031  -7.364  -3.921  1.00  0.00     0.151 A 
ATOM     16  N   UNL     1       1.937  -5.844  -2.880  1.00  0.00    -0.232 N 
ATOM     17  N   UNL     1       3.183  -6.194  -3.265  1.00  0.00    -0.162 NA
ATOM     18  C   UNL     1       0.965  -6.536  -3.588  1.00  0.00     0.075 A 
ATOM     19  C   UNL     1       1.639  -7.624  -4.115  1.00  0.00     0.065 A 
BRANCH  16  20
ATOM     20  C   UNL     1       1.721  -4.851  -1.892  1.00  0.00     0.065 A 
ATOM     21  C   UNL     1       1.075  -2.785  -0.154  1.00  0.00     0.082 A 
ATOM     22  C   UNL     1       0.354  -3.979  -0.095  1.00  0.00     0.024 A 
ATOM     23  C   UNL     1       2.144  -2.633  -1.047  1.00  0.00     0.024 A 
ATOM     24  C   UNL     1       0.675  -5.013  -0.968  1.00  0.00     0.030 A 
ATOM     25  C   UNL     1       2.490  -3.684  -1.903  1.00  0.00     0.030 A 
BRANCH  21  26
ATOM     26  S   UNL     1       0.561  -1.455   0.889  1.00  0.00     0.238 S 
ATOM     27  O   UNL     1       1.304  -1.510   2.107  1.00  0.00    -0.207 OA
ATOM     28  O   UNL     1      -0.893  -1.364   0.837  1.00  0.00    -0.207 OA
BRANCH  26  29
ATOM     29  N   UNL     1       1.087  -0.070   0.086  1.00  0.00    -0.225 NA
ATOM     30  H   UNL     1       0.829   0.755   0.626  1.00  0.00     0.137 HD
ATOM     31  H   UNL     1       0.650  -0.025  -0.835  1.00  0.00     0.137 HD
ENDBRANCH  26  29
ENDBRANCH  21  26
ENDBRANCH  16  20
BRANCH  18  32
ATOM     32  C   UNL     1      -0.427  -6.079  -3.709  1.00  0.00     0.000 A 
ATOM     33  C   UNL     1      -0.693  -4.738  -4.051  1.00  0.00     0.010 A 
ATOM     34  C   UNL     1      -1.505  -6.917  -3.427  1.00  0.00     0.010 A 
ATOM     35  C   UNL     1      -1.997  -4.239  -4.074  1.00  0.00     0.001 A 
ATOM     36  C   UNL     1      -2.813  -6.408  -3.454  1.00  0.00     0.001 A 
ATOM     37  C   UNL     1      -3.059  -5.078  -3.776  1.00  0.00     0.000 A 
ENDBRANCH  18  32
ENDBRANCH  12  15
ENDBRANCH  10  11
ENDBRANCH   9  10
ENDBRANCH   8   9
ENDBRANCH   6   8
ENDBRANCH   5   6
ENDBRANCH   4   5
ENDBRANCH   3   4
ENDBRANCH   2   3
ENDBRANCH   1   2
BRANCH   1  38
ATOM     38  C   UNL     1       0.998 -11.198  -8.392  1.00  0.00     0.188 C 
BRANCH  38  39
ATOM     39  O   UNL     1       0.868 -11.948  -7.199  1.00  0.00    -0.377 OA
BRANCH  39  40
ATOM     40  C   UNL     1      -0.456 -12.406  -6.940  1.00  0.00     0.188 C 
BRANCH  40  41
ATOM     41  C   UNL     1      -1.188 -13.132  -8.095  1.00  0.00     0.188 C 
BRANCH  41  42
ATOM     42  O   UNL     1      -1.156 -12.434  -9.343  1.00  0.00    -0.376 OA
BRANCH  42  43
ATOM     43  C   UNL     1      -2.330 -11.780  -9.814  1.00  0.00     0.202 C 
BRANCH  43  44
ATOM     44  C   UNL     1      -2.649 -10.453  -9.123  1.00  0.00     0.261 C 
BRANCH  44  45
ATOM     45  O   UNL     1      -2.767 -10.594  -7.716  1.00  0.00    -0.460 OA
BRANCH  45  46
ATOM     46  C   UNL     1      -3.699 -11.476  -7.298  1.00  0.00     0.338 C 
ATOM     47  O   UNL     1      -4.471 -12.115  -7.990  1.00  0.00    -0.246 OA
BRANCH  46  48
ATOM     48  C   UNL     1      -3.686 -11.517  -5.833  1.00  0.00     0.060 A 
ATOM     49  C   UNL     1      -4.695 -12.286  -5.250  1.00  0.00     0.016 A 
ATOM     50  C   UNL     1      -3.041 -10.484  -5.154  1.00  0.00     0.016 A 
ATOM     51  C   UNL     1      -5.354 -11.746  -4.173  1.00  0.00     0.010 A 
ATOM     52  C   UNL     1      -3.705  -9.955  -4.092  1.00  0.00     0.010 A 
ATOM     53  C   UNL     1      -4.927 -10.503  -3.722  1.00  0.00    -0.014 A 
BRANCH  53  54
ATOM     54  C   UNL     1      -5.830  -9.673  -2.961  1.00  0.00     0.031 A 
ATOM     55  C   UNL     1      -5.587  -9.722  -1.511  1.00  0.00     0.074 A 
ATOM     56  C   UNL     1      -6.655  -8.803  -3.577  1.00  0.00     0.049 A 
ATOM     57  N   UNL     1      -6.275 -10.356  -0.623  1.00  0.00    -0.248 NA
ATOM     58  C   UNL     1      -4.304  -9.197  -1.014  1.00  0.00     0.031 C 
ATOM     59  C   UNL     1      -6.690  -8.433  -4.998  1.00  0.00     0.029 A 
ATOM     60  N   UNL     1      -7.577  -7.971  -3.027  1.00  0.00    -0.354 N 
ATOM     61  C   UNL     1      -5.633 -10.078   0.575  1.00  0.00     0.074 A 
ATOM     62  C   UNL     1      -4.306  -9.650   0.238  1.00  0.00     0.031 C 
ATOM     63  C   UNL     1      -7.437  -7.314  -5.149  1.00  0.00     0.029 A 
ATOM     64  C   UNL     1      -8.007  -6.947  -3.863  1.00  0.00     0.049 A 
ATOM     65  H   UNL     1      -7.915  -8.084  -2.109  1.00  0.00     0.167 HD
ATOM     66  C   UNL     1      -6.328  -9.880   1.725  1.00  0.00     0.037 A 
ATOM     67  C   UNL     1      -8.689  -5.838  -3.471  1.00  0.00     0.037 A 
ATOM     68  C   UNL     1      -7.689 -10.336   1.601  1.00  0.00     0.049 A 
ATOM     69  C   UNL     1      -9.259  -6.133  -2.123  1.00  0.00     0.074 A 
ATOM     70  C   UNL     1      -8.268 -11.543   1.255  1.00  0.00     0.029 A 
ATOM     71  N   UNL     1      -8.672  -9.385   1.455  1.00  0.00    -0.354 N 
ATOM     72  N   UNL     1     -10.202  -7.012  -1.904  1.00  0.00    -0.248 NA
ATOM     73  C   UNL     1      -8.451  -5.797  -0.957  1.00  0.00     0.031 C 
ATOM     74  C   UNL     1      -9.416 -11.198   0.488  1.00  0.00     0.029 A 
ATOM     75  C   UNL     1      -9.512  -9.806   0.455  1.00  0.00     0.049 A 
ATOM     76  H   UNL     1      -8.757  -8.553   1.974  1.00  0.00     0.167 HD
ATOM     77  C   UNL     1      -9.853  -7.631  -0.709  1.00  0.00     0.074 A 
ATOM     78  C   UNL     1      -8.815  -6.783  -0.131  1.00  0.00     0.031 C 
ATOM     79  C   UNL     1     -10.222  -8.919  -0.444  1.00  0.00     0.037 A 
BRANCH  66  80
ATOM     80  C   UNL     1      -5.876  -8.940   2.811  1.00  0.00     0.058 A 
ATOM     81  C   UNL     1      -6.485  -9.023   4.074  1.00  0.00     0.135 A 
ATOM     82  C   UNL     1      -5.049  -7.811   2.599  1.00  0.00     0.135 A 
ATOM     83  F   UNL     1      -7.305 -10.043   4.370  1.00  0.00    -0.206 F 
ATOM     84  C   UNL     1      -6.331  -8.027   5.036  1.00  0.00     0.059 A 
ATOM     85  C   UNL     1      -4.823  -6.846   3.568  1.00  0.00     0.059 A 
ATOM     86  F   UNL     1      -4.500  -7.528   1.411  1.00  0.00    -0.206 F 
ATOM     87  C   UNL     1      -5.508  -6.936   4.766  1.00  0.00     0.060 A 
BRANCH  87  88
ATOM     88  S   UNL     1      -5.404  -5.588   5.951  1.00  0.00     0.124 S 
ATOM     89  O   UNL     1      -6.715  -4.970   5.792  1.00  0.00    -0.237 OA
ATOM     90  O   UNL     1      -5.177  -6.302   7.203  1.00  0.00    -0.237 OA
ATOM     91  O   UNL     1      -4.271  -4.806   5.466  1.00  0.00    -0.744 OA
ENDBRANCH  87  88
ENDBRANCH  66  80
BRANCH  67  92
ATOM     92  C   UNL     1      -8.592  -4.457  -4.026  1.00  0.00     0.058 A 
ATOM     93  C   UNL     1      -9.509  -3.453  -3.664  1.00  0.00     0.135 A 
ATOM     94  C   UNL     1      -7.450  -4.019  -4.729  1.00  0.00     0.135 A 
ATOM     95  F   UNL     1     -10.612  -3.767  -2.967  1.00  0.00    -0.206 F 
ATOM     96  C   UNL     1      -9.288  -2.098  -3.947  1.00  0.00     0.059 A 
ATOM     97  C   UNL     1      -7.219  -2.680  -5.040  1.00  0.00     0.059 A 
ATOM     98  F   UNL     1      -6.465  -4.867  -5.057  1.00  0.00    -0.206 F 
ATOM     99  C   UNL     1      -8.129  -1.720  -4.624  1.00  0.00     0.060 A 
BRANCH  99 100
ATOM    100  S   UNL     1      -7.747   0.034  -4.848  1.00  0.00     0.124 S 
ATOM    101  O   UNL     1      -8.753   0.441  -5.822  1.00  0.00    -0.237 OA
ATOM    102  O   UNL     1      -7.913   0.561  -3.498  1.00  0.00    -0.237 OA
ATOM    103  O   UNL     1      -6.372   0.019  -5.341  1.00  0.00    -0.744 OA
ENDBRANCH  99 100
ENDBRANCH  67  92
BRANCH  79 104
ATOM    104  C   UNL     1     -11.269  -9.561  -1.318  1.00  0.00     0.058 A 
ATOM    105  C   UNL     1     -11.097  -9.825  -2.689  1.00  0.00     0.135 A 
ATOM    106  C   UNL     1     -12.410 -10.097  -0.701  1.00  0.00     0.135 A 
ATOM    107  F   UNL     1      -9.982  -9.443  -3.328  1.00  0.00    -0.206 F 
ATOM    108  C   UNL     1     -12.033 -10.559  -3.419  1.00  0.00     0.059 A 
ATOM    109  C   UNL     1     -13.339 -10.861  -1.402  1.00  0.00     0.059 A 
ATOM    110  F   UNL     1     -12.598  -9.936   0.619  1.00  0.00    -0.206 F 
ATOM    111  C   UNL     1     -13.148 -11.080  -2.764  1.00  0.00     0.060 A 
BRANCH 111 112
ATOM    112  S   UNL     1     -14.299 -12.123  -3.686  1.00  0.00     0.124 S 
ATOM    113  O   UNL     1     -15.006 -11.146  -4.507  1.00  0.00    -0.237 OA
ATOM    114  O   UNL     1     -13.404 -13.026  -4.405  1.00  0.00    -0.237 OA
ATOM    115  O   UNL     1     -15.098 -12.756  -2.640  1.00  0.00    -0.744 OA
ENDBRANCH 111 112
ENDBRANCH  79 104
ENDBRANCH  53  54
ENDBRANCH  46  48
ENDBRANCH  45  46
ENDBRANCH  44  45
ENDBRANCH  43  44
ENDBRANCH  42  43
ENDBRANCH  41  42
ENDBRANCH  40  41
ENDBRANCH  39  40
ENDBRANCH  38  39
ENDBRANCH   1  38
TORSDOF 31
