REMARK SMILES O=C(OCCOCCOCCOCCOC(=O)c1cccc(Nc2ccc([N+](=O)[O-])cc2)c1)c1ccc(-c2c3nc(c(-c4c(F)cc(S(=O)(=O)[O-])cc4F)c4ccc([nH]4)c(-c4c(F)cc(S(=O)(=O)[O-])cc4F)c4nc(c(-c5c(F)cc(S(=O)(=O)[O-])cc5F)c5ccc2[nH]5)C=C4)C=C3)cc1
REMARK SMILES IDX 9 1 8 2 7 3 6 4 5 5 4 6 3 7 2 8 1 9 34 10 35 11 99 12 36 13
REMARK SMILES IDX 98 14 37 15 38 16 39 17 92 18 40 19 97 20 91 21 93 22 41 23
REMARK SMILES IDX 96 24 90 25 89 26 42 28 76 29 55 30 75 31 56 32 59 33 74 34
REMARK SMILES IDX 94 35 57 36 58 37 73 39 95 40 60 41 43 42 44 43 53 44 45 45
REMARK SMILES IDX 46 46 52 47 54 48 47 49 48 50 49 51 50 52 51 53 77 54 78 55
REMARK SMILES IDX 87 56 79 57 80 58 86 59 88 60 81 61 82 62 83 63 84 64 85 65
REMARK SMILES IDX 61 66 62 67 71 68 63 69 64 70 70 71 72 72 65 73 66 74 67 75
REMARK SMILES IDX 68 76 69 77 10 78 11 79 12 80 13 81 14 82 15 83 16 84 17 85
REMARK SMILES IDX 18 86 19 87 33 88 20 89 22 90 21 91 23 92 24 94 25 95 32 96
REMARK SMILES IDX 26 97 31 98 27 99 28 100 29 101 30 102
REMARK H PARENT 93 27 59 38 23 93
REMARK Flexibility Score: inf
ROOT
ATOM      1  O   UNL     1       2.499  -3.020  -2.646  1.00  0.00    -0.377 OA
ENDROOT
BRANCH   1   2
ATOM      2  C   UNL     1       1.798  -1.894  -2.124  1.00  0.00     0.188 C 
BRANCH   2   3
ATOM      3  C   UNL     1       2.296  -1.362  -0.779  1.00  0.00     0.188 C 
BRANCH   3   4
ATOM      4  O   UNL     1       3.629  -0.865  -0.856  1.00  0.00    -0.376 OA
BRANCH   4   5
ATOM      5  C   UNL     1       4.516  -1.174   0.217  1.00  0.00     0.202 C 
BRANCH   5   6
ATOM      6  C   UNL     1       4.210  -0.496   1.552  1.00  0.00     0.261 C 
BRANCH   6   7
ATOM      7  O   UNL     1       2.840  -0.105   1.707  1.00  0.00    -0.460 OA
BRANCH   7   8
ATOM      8  C   UNL     1       2.226   1.028   1.287  1.00  0.00     0.338 C 
ATOM      9  O   UNL     1       1.031   1.165   1.551  1.00  0.00    -0.246 OA
BRANCH   8  10
ATOM     10  C   UNL     1       2.892   2.119   0.511  1.00  0.00     0.060 A 
ATOM     11  C   UNL     1       3.993   1.969  -0.331  1.00  0.00     0.016 A 
ATOM     12  C   UNL     1       2.296   3.389   0.580  1.00  0.00     0.016 A 
ATOM     13  C   UNL     1       4.537   3.030  -1.032  1.00  0.00     0.010 A 
ATOM     14  C   UNL     1       2.827   4.471  -0.126  1.00  0.00     0.010 A 
ATOM     15  C   UNL     1       3.976   4.290  -0.902  1.00  0.00    -0.014 A 
BRANCH  15  16
ATOM     16  C   UNL     1       4.776   5.425  -1.378  1.00  0.00     0.031 A 
ATOM     17  C   UNL     1       5.524   6.203  -0.340  1.00  0.00     0.074 A 
ATOM     18  C   UNL     1       4.947   5.628  -2.695  1.00  0.00     0.049 A 
ATOM     19  N   UNL     1       6.207   7.303  -0.461  1.00  0.00    -0.248 NA
ATOM     20  C   UNL     1       5.502   5.653   1.030  1.00  0.00     0.031 C 
ATOM     21  C   UNL     1       4.394   4.784  -3.759  1.00  0.00     0.029 A 
ATOM     22  N   UNL     1       5.652   6.589  -3.361  1.00  0.00    -0.354 N 
ATOM     23  C   UNL     1       6.649   7.606   0.821  1.00  0.00     0.074 A 
ATOM     24  C   UNL     1       6.163   6.576   1.706  1.00  0.00     0.031 C 
ATOM     25  C   UNL     1       4.780   5.273  -4.948  1.00  0.00     0.029 A 
ATOM     26  C   UNL     1       5.532   6.503  -4.727  1.00  0.00     0.049 A 
ATOM     27  H   UNL     1       6.192   7.276  -2.908  1.00  0.00     0.167 HD
ATOM     28  C   UNL     1       7.386   8.670   1.210  1.00  0.00     0.037 A 
ATOM     29  C   UNL     1       5.940   7.366  -5.676  1.00  0.00     0.037 A 
ATOM     30  C   UNL     1       7.846   9.662   0.278  1.00  0.00     0.049 A 
ATOM     31  C   UNL     1       6.660   8.604  -5.215  1.00  0.00     0.074 A 
ATOM     32  C   UNL     1       8.538  10.829   0.524  1.00  0.00     0.029 A 
ATOM     33  N   UNL     1       7.647   9.588  -1.098  1.00  0.00    -0.354 N 
ATOM     34  N   UNL     1       6.992   8.954  -3.991  1.00  0.00    -0.248 NA
ATOM     35  C   UNL     1       7.049   9.571  -6.245  1.00  0.00     0.031 C 
ATOM     36  C   UNL     1       8.709  11.489  -0.698  1.00  0.00     0.029 A 
ATOM     37  C   UNL     1       8.185  10.700  -1.714  1.00  0.00     0.049 A 
ATOM     38  H   UNL     1       7.189   8.852  -1.563  1.00  0.00     0.167 HD
ATOM     39  C   UNL     1       7.652  10.170  -4.104  1.00  0.00     0.074 A 
ATOM     40  C   UNL     1       7.677  10.489  -5.521  1.00  0.00     0.031 C 
ATOM     41  C   UNL     1       8.192  10.954  -3.137  1.00  0.00     0.037 A 
BRANCH  28  42
ATOM     42  C   UNL     1       7.626   8.838   2.683  1.00  0.00     0.058 A 
ATOM     43  C   UNL     1       8.452   7.971   3.418  1.00  0.00     0.135 A 
ATOM     44  C   UNL     1       6.958   9.853   3.388  1.00  0.00     0.135 A 
ATOM     45  F   UNL     1       9.083   6.956   2.806  1.00  0.00    -0.206 F 
ATOM     46  C   UNL     1       8.576   8.081   4.801  1.00  0.00     0.059 A 
ATOM     47  C   UNL     1       7.091  10.001   4.765  1.00  0.00     0.059 A 
ATOM     48  F   UNL     1       6.139  10.697   2.742  1.00  0.00    -0.206 F 
ATOM     49  C   UNL     1       7.888   9.098   5.466  1.00  0.00     0.060 A 
BRANCH  49  50
ATOM     50  S   UNL     1       8.041   9.215   7.261  1.00  0.00     0.124 S 
ATOM     51  O   UNL     1       7.273   8.052   7.696  1.00  0.00    -0.237 OA
ATOM     52  O   UNL     1       9.485   9.129   7.456  1.00  0.00    -0.237 OA
ATOM     53  O   UNL     1       7.446  10.511   7.570  1.00  0.00    -0.744 OA
ENDBRANCH  49  50
ENDBRANCH  28  42
BRANCH  29  54
ATOM     54  C   UNL     1       5.618   7.115  -7.107  1.00  0.00     0.058 A 
ATOM     55  C   UNL     1       6.623   6.860  -8.051  1.00  0.00     0.135 A 
ATOM     56  C   UNL     1       4.286   7.095  -7.558  1.00  0.00     0.135 A 
ATOM     57  F   UNL     1       7.912   6.872  -7.678  1.00  0.00    -0.206 F 
ATOM     58  C   UNL     1       6.323   6.603  -9.387  1.00  0.00     0.059 A 
ATOM     59  C   UNL     1       3.959   6.812  -8.880  1.00  0.00     0.059 A 
ATOM     60  F   UNL     1       3.281   7.323  -6.698  1.00  0.00    -0.206 F 
ATOM     61  C   UNL     1       4.986   6.575  -9.791  1.00  0.00     0.060 A 
BRANCH  61  62
ATOM     62  S   UNL     1       4.607   6.195 -11.515  1.00  0.00     0.124 S 
ATOM     63  O   UNL     1       5.079   7.397 -12.193  1.00  0.00    -0.237 OA
ATOM     64  O   UNL     1       5.391   4.984 -11.740  1.00  0.00    -0.237 OA
ATOM     65  O   UNL     1       3.160   6.003 -11.508  1.00  0.00    -0.744 OA
ENDBRANCH  61  62
ENDBRANCH  29  54
BRANCH  41  66
ATOM     66  C   UNL     1       8.899  12.197  -3.587  1.00  0.00     0.058 A 
ATOM     67  C   UNL     1       8.199  13.321  -4.048  1.00  0.00     0.135 A 
ATOM     68  C   UNL     1      10.296  12.285  -3.470  1.00  0.00     0.135 A 
ATOM     69  F   UNL     1       6.864  13.280  -4.182  1.00  0.00    -0.206 F 
ATOM     70  C   UNL     1       8.864  14.491  -4.393  1.00  0.00     0.059 A 
ATOM     71  C   UNL     1      10.976  13.455  -3.777  1.00  0.00     0.059 A 
ATOM     72  F   UNL     1      11.005  11.237  -3.021  1.00  0.00    -0.206 F 
ATOM     73  C   UNL     1      10.252  14.550  -4.246  1.00  0.00     0.060 A 
BRANCH  73  74
ATOM     74  S   UNL     1      11.095  16.093  -4.642  1.00  0.00     0.124 S 
ATOM     75  O   UNL     1      11.017  16.103  -6.099  1.00  0.00    -0.237 OA
ATOM     76  O   UNL     1      10.272  17.082  -3.955  1.00  0.00    -0.237 OA
ATOM     77  O   UNL     1      12.432  15.903  -4.086  1.00  0.00    -0.744 OA
ENDBRANCH  73  74
ENDBRANCH  41  66
ENDBRANCH  15  16
ENDBRANCH   8  10
ENDBRANCH   7   8
ENDBRANCH   6   7
ENDBRANCH   5   6
ENDBRANCH   4   5
ENDBRANCH   3   4
ENDBRANCH   2   3
ENDBRANCH   1   2
BRANCH   1  78
ATOM     78  C   UNL     1       3.922  -2.957  -2.600  1.00  0.00     0.188 C 
BRANCH  78  79
ATOM     79  C   UNL     1       4.645  -1.778  -3.300  1.00  0.00     0.188 C 
BRANCH  79  80
ATOM     80  O   UNL     1       3.777  -0.754  -3.750  1.00  0.00    -0.376 OA
BRANCH  80  81
ATOM     81  C   UNL     1       3.543  -0.696  -5.152  1.00  0.00     0.202 C 
BRANCH  81  82
ATOM     82  C   UNL     1       2.931  -1.930  -5.845  1.00  0.00     0.261 C 
BRANCH  82  83
ATOM     83  O   UNL     1       3.486  -3.215  -5.501  1.00  0.00    -0.460 OA
BRANCH  83  84
ATOM     84  C   UNL     1       4.693  -3.557  -6.002  1.00  0.00     0.338 C 
ATOM     85  O   UNL     1       5.377  -2.913  -6.779  1.00  0.00    -0.246 OA
BRANCH  84  86
ATOM     86  C   UNL     1       5.165  -4.751  -5.259  1.00  0.00     0.062 A 
ATOM     87  C   UNL     1       6.338  -4.647  -4.498  1.00  0.00     0.016 A 
ATOM     88  C   UNL     1       4.404  -5.926  -5.220  1.00  0.00     0.041 A 
ATOM     89  C   UNL     1       6.710  -5.689  -3.653  1.00  0.00     0.003 A 
ATOM     90  C   UNL     1       4.841  -7.025  -4.465  1.00  0.00     0.039 A 
ATOM     91  C   UNL     1       5.969  -6.871  -3.645  1.00  0.00     0.026 A 
BRANCH  90  92
ATOM     92  N   UNL     1       4.147  -8.254  -4.563  1.00  0.00    -0.355 N 
ATOM     93  H   UNL     1       3.194  -8.214  -4.807  1.00  0.00     0.167 HD
BRANCH  92  94
ATOM     94  C   UNL     1       4.702  -9.528  -4.342  1.00  0.00     0.039 A 
ATOM     95  C   UNL     1       5.173 -10.271  -5.433  1.00  0.00     0.033 A 
ATOM     96  C   UNL     1       4.880 -10.029  -3.047  1.00  0.00     0.033 A 
ATOM     97  C   UNL     1       5.814 -11.498  -5.240  1.00  0.00     0.088 A 
ATOM     98  C   UNL     1       5.515 -11.257  -2.839  1.00  0.00     0.088 A 
ATOM     99  C   UNL     1       5.982 -11.987  -3.940  1.00  0.00     0.269 A 
BRANCH  99 100
ATOM    100  N   UNL     1       6.658 -13.273  -3.730  1.00  0.00     0.062 N 
ATOM    101  O   UNL     1       7.026 -13.903  -4.732  1.00  0.00    -0.258 OA
ATOM    102  O   UNL     1       6.819 -13.658  -2.563  1.00  0.00    -0.258 OA
ENDBRANCH  99 100
ENDBRANCH  92  94
ENDBRANCH  90  92
ENDBRANCH  84  86
ENDBRANCH  83  84
ENDBRANCH  82  83
ENDBRANCH  81  82
ENDBRANCH  80  81
ENDBRANCH  79  80
ENDBRANCH  78  79
ENDBRANCH   1  78
TORSDOF 26
