REMARK SMILES O=C(OCCOCCOCCOCCOC(=O)c1c(F)cccc1NC(=O)C1CCCCC1)c1ccc(-c2c3nc(c(-c4c(F)cc(S(=O)(=O)[O-])cc4F)c4ccc([nH]4)c(-c4c(F)cc(S(=O)(=O)[O-])cc4F)c4nc(c(-c5c(F)cc(S(=O)(=O)[O-])cc5F)c5ccc2[nH]5)C=C4)C=C3)cc1
REMARK SMILES IDX 8 1 7 2 6 3 5 4 4 5 3 6 2 7 1 8 34 9 35 10 99 11 36 12 98 13
REMARK SMILES IDX 37 14 38 15 39 16 92 17 40 18 97 19 91 20 93 21 41 22 96 23
REMARK SMILES IDX 90 24 89 25 42 27 76 28 55 29 75 30 56 31 59 32 74 33 94 34
REMARK SMILES IDX 57 35 58 36 73 38 95 39 60 40 43 41 44 42 53 43 45 44 46 45
REMARK SMILES IDX 52 46 54 47 47 48 48 49 49 50 50 51 51 52 77 53 78 54 87 55
REMARK SMILES IDX 79 56 80 57 86 58 88 59 81 60 82 61 83 62 84 63 85 64 61 65
REMARK SMILES IDX 62 66 71 67 63 68 64 69 70 70 72 71 65 72 66 73 67 74 68 75
REMARK SMILES IDX 69 76 9 77 10 78 11 79 12 80 13 81 14 82 15 83 16 84 17 85
REMARK SMILES IDX 18 86 19 87 24 88 20 89 21 90 23 91 22 92 25 93 26 94 27 96
REMARK SMILES IDX 28 97 29 98 33 99 30 100 32 101 31 102
REMARK H PARENT 93 26 59 37 25 95
REMARK Flexibility Score: inf
ROOT
ATOM      1  C   UNL     1       1.714   0.042  -2.471  1.00  0.00     0.188 C 
ENDROOT
BRANCH   1   2
ATOM      2  C   UNL     1       2.152  -0.683  -1.205  1.00  0.00     0.188 C 
BRANCH   2   3
ATOM      3  O   UNL     1       3.492  -0.317  -0.868  1.00  0.00    -0.376 OA
BRANCH   3   4
ATOM      4  C   UNL     1       4.325  -1.385  -0.417  1.00  0.00     0.202 C 
BRANCH   4   5
ATOM      5  C   UNL     1       4.254  -1.612   1.093  1.00  0.00     0.261 C 
BRANCH   5   6
ATOM      6  O   UNL     1       2.921  -1.439   1.595  1.00  0.00    -0.460 OA
BRANCH   6   7
ATOM      7  C   UNL     1       2.317  -0.283   1.975  1.00  0.00     0.338 C 
ATOM      8  O   UNL     1       1.129  -0.340   2.296  1.00  0.00    -0.246 OA
BRANCH   7   9
ATOM      9  C   UNL     1       3.000   1.052   2.063  1.00  0.00     0.060 A 
ATOM     10  C   UNL     1       4.176   1.425   1.407  1.00  0.00     0.016 A 
ATOM     11  C   UNL     1       2.377   2.016   2.877  1.00  0.00     0.016 A 
ATOM     12  C   UNL     1       4.786   2.650   1.645  1.00  0.00     0.010 A 
ATOM     13  C   UNL     1       2.969   3.262   3.110  1.00  0.00     0.010 A 
ATOM     14  C   UNL     1       4.213   3.547   2.540  1.00  0.00    -0.014 A 
BRANCH  14  15
ATOM     15  C   UNL     1       5.076   4.622   3.060  1.00  0.00     0.031 A 
ATOM     16  C   UNL     1       5.747   4.377   4.382  1.00  0.00     0.074 A 
ATOM     17  C   UNL     1       5.392   5.675   2.288  1.00  0.00     0.049 A 
ATOM     18  N   UNL     1       6.550   5.146   5.062  1.00  0.00    -0.248 NA
ATOM     19  C   UNL     1       5.492   3.068   5.015  1.00  0.00     0.031 C 
ATOM     20  C   UNL     1       4.905   5.893   0.925  1.00  0.00     0.029 A 
ATOM     21  N   UNL     1       6.230   6.731   2.520  1.00  0.00    -0.354 N 
ATOM     22  C   UNL     1       6.877   4.427   6.206  1.00  0.00     0.074 A 
ATOM     23  C   UNL     1       6.180   3.165   6.140  1.00  0.00     0.031 C 
ATOM     24  C   UNL     1       5.477   7.003   0.431  1.00  0.00     0.029 A 
ATOM     25  C   UNL     1       6.320   7.603   1.461  1.00  0.00     0.049 A 
ATOM     26  H   UNL     1       6.722   6.854   3.364  1.00  0.00     0.167 HD
ATOM     27  C   UNL     1       7.690   4.796   7.221  1.00  0.00     0.037 A 
ATOM     28  C   UNL     1       6.996   8.764   1.359  1.00  0.00     0.037 A 
ATOM     29  C   UNL     1       8.362   6.064   7.253  1.00  0.00     0.049 A 
ATOM     30  C   UNL     1       7.810   9.209   2.544  1.00  0.00     0.074 A 
ATOM     31  C   UNL     1       9.119   6.619   8.265  1.00  0.00     0.029 A 
ATOM     32  N   UNL     1       8.355   6.975   6.203  1.00  0.00    -0.354 N 
ATOM     33  N   UNL     1       8.015   8.583   3.682  1.00  0.00    -0.248 NA
ATOM     34  C   UNL     1       8.470  10.516   2.449  1.00  0.00     0.031 C 
ATOM     35  C   UNL     1       9.543   7.883   7.838  1.00  0.00     0.029 A 
ATOM     36  C   UNL     1       9.092   8.093   6.542  1.00  0.00     0.049 A 
ATOM     37  H   UNL     1       7.893   6.842   5.344  1.00  0.00     0.167 HD
ATOM     38  C   UNL     1       8.839   9.411   4.433  1.00  0.00     0.074 A 
ATOM     39  C   UNL     1       9.102  10.580   3.614  1.00  0.00     0.031 C 
ATOM     40  C   UNL     1       9.332   9.230   5.684  1.00  0.00     0.037 A 
BRANCH  27  41
ATOM     41  C   UNL     1       7.812   3.846   8.380  1.00  0.00     0.058 A 
ATOM     42  C   UNL     1       7.159   4.123   9.591  1.00  0.00     0.135 A 
ATOM     43  C   UNL     1       8.516   2.635   8.280  1.00  0.00     0.135 A 
ATOM     44  F   UNL     1       6.453   5.255   9.736  1.00  0.00    -0.206 F 
ATOM     45  C   UNL     1       7.193   3.232  10.659  1.00  0.00     0.059 A 
ATOM     46  C   UNL     1       8.545   1.717   9.329  1.00  0.00     0.059 A 
ATOM     47  F   UNL     1       9.124   2.299   7.130  1.00  0.00    -0.206 F 
ATOM     48  C   UNL     1       7.882   2.027  10.516  1.00  0.00     0.060 A 
BRANCH  48  49
ATOM     49  S   UNL     1       7.835   0.841  11.878  1.00  0.00     0.124 S 
ATOM     50  O   UNL     1       8.707   1.475  12.860  1.00  0.00    -0.237 OA
ATOM     51  O   UNL     1       6.414   0.811  12.212  1.00  0.00    -0.237 OA
ATOM     52  O   UNL     1       8.351  -0.386  11.275  1.00  0.00    -0.744 OA
ENDBRANCH  48  49
ENDBRANCH  27  41
BRANCH  28  53
ATOM     53  C   UNL     1       6.899   9.570   0.111  1.00  0.00     0.058 A 
ATOM     54  C   UNL     1       5.680  10.151  -0.281  1.00  0.00     0.135 A 
ATOM     55  C   UNL     1       7.997   9.732  -0.746  1.00  0.00     0.135 A 
ATOM     56  F   UNL     1       4.595  10.030   0.500  1.00  0.00    -0.206 F 
ATOM     57  C   UNL     1       5.544  10.824  -1.490  1.00  0.00     0.059 A 
ATOM     58  C   UNL     1       7.892  10.425  -1.952  1.00  0.00     0.059 A 
ATOM     59  F   UNL     1       9.188   9.213  -0.413  1.00  0.00    -0.206 F 
ATOM     60  C   UNL     1       6.654  10.948  -2.325  1.00  0.00     0.060 A 
BRANCH  60  61
ATOM     61  S   UNL     1       6.444  11.798  -3.905  1.00  0.00     0.124 S 
ATOM     62  O   UNL     1       5.597  10.858  -4.633  1.00  0.00    -0.237 OA
ATOM     63  O   UNL     1       5.804  13.045  -3.499  1.00  0.00    -0.237 OA
ATOM     64  O   UNL     1       7.809  11.930  -4.403  1.00  0.00    -0.744 OA
ENDBRANCH  60  61
ENDBRANCH  28  53
BRANCH  40  65
ATOM     65  C   UNL     1      10.227  10.301   6.232  1.00  0.00     0.058 A 
ATOM     66  C   UNL     1      11.603  10.062   6.374  1.00  0.00     0.135 A 
ATOM     67  C   UNL     1       9.711  11.514   6.709  1.00  0.00     0.135 A 
ATOM     68  F   UNL     1      12.139   8.910   5.939  1.00  0.00    -0.206 F 
ATOM     69  C   UNL     1      12.436  10.983   6.993  1.00  0.00     0.059 A 
ATOM     70  C   UNL     1      10.532  12.462   7.310  1.00  0.00     0.059 A 
ATOM     71  F   UNL     1       8.403  11.787   6.586  1.00  0.00    -0.206 F 
ATOM     72  C   UNL     1      11.889  12.178   7.464  1.00  0.00     0.060 A 
BRANCH  72  73
ATOM     73  S   UNL     1      12.986  13.364   8.269  1.00  0.00     0.124 S 
ATOM     74  O   UNL     1      13.240  12.713   9.549  1.00  0.00    -0.237 OA
ATOM     75  O   UNL     1      14.116  13.415   7.346  1.00  0.00    -0.237 OA
ATOM     76  O   UNL     1      12.181  14.580   8.330  1.00  0.00    -0.744 OA
ENDBRANCH  72  73
ENDBRANCH  40  65
ENDBRANCH  14  15
ENDBRANCH   7   9
ENDBRANCH   6   7
ENDBRANCH   5   6
ENDBRANCH   4   5
ENDBRANCH   3   4
ENDBRANCH   2   3
ENDBRANCH   1   2
BRANCH   1  77
ATOM     77  O   UNL     1       2.381  -0.416  -3.644  1.00  0.00    -0.377 OA
BRANCH  77  78
ATOM     78  C   UNL     1       3.803  -0.320  -3.638  1.00  0.00     0.188 C 
BRANCH  78  79
ATOM     79  C   UNL     1       4.444   1.043  -3.310  1.00  0.00     0.188 C 
BRANCH  79  80
ATOM     80  O   UNL     1       3.539   2.127  -3.465  1.00  0.00    -0.376 OA
BRANCH  80  81
ATOM     81  C   UNL     1       3.822   3.002  -4.545  1.00  0.00     0.202 C 
BRANCH  81  82
ATOM     82  C   UNL     1       3.425   2.452  -5.918  1.00  0.00     0.261 C 
BRANCH  82  83
ATOM     83  O   UNL     1       3.925   1.146  -6.267  1.00  0.00    -0.460 OA
BRANCH  83  84
ATOM     84  C   UNL     1       5.238   0.943  -6.510  1.00  0.00     0.343 C 
ATOM     85  O   UNL     1       6.149   1.737  -6.363  1.00  0.00    -0.246 OA
BRANCH  84  86
ATOM     86  C   UNL     1       5.419  -0.496  -6.822  1.00  0.00     0.119 A 
ATOM     87  C   UNL     1       4.593  -1.019  -7.827  1.00  0.00     0.139 A 
ATOM     88  C   UNL     1       6.268  -1.353  -6.067  1.00  0.00     0.058 A 
ATOM     89  F   UNL     1       3.777  -0.223  -8.534  1.00  0.00    -0.206 F 
ATOM     90  C   UNL     1       4.573  -2.378  -8.104  1.00  0.00     0.040 A 
ATOM     91  C   UNL     1       6.256  -2.712  -6.404  1.00  0.00     0.027 A 
ATOM     92  C   UNL     1       5.412  -3.224  -7.397  1.00  0.00     0.005 A 
BRANCH  88  93
ATOM     93  N   UNL     1       6.994  -0.831  -4.963  1.00  0.00    -0.325 N 
ATOM     94  C   UNL     1       7.713  -1.347  -3.917  1.00  0.00     0.227 C 
ATOM     95  H   UNL     1       6.976   0.154  -4.946  1.00  0.00     0.169 HD
ATOM     96  O   UNL     1       8.020  -0.554  -3.020  1.00  0.00    -0.274 OA
BRANCH  94  97
ATOM     97  C   UNL     1       8.118  -2.812  -3.803  1.00  0.00     0.079 C 
ATOM     98  C   UNL     1       9.360  -3.005  -2.910  1.00  0.00     0.013 C 
ATOM     99  C   UNL     1       6.998  -3.695  -3.235  1.00  0.00     0.013 C 
ATOM    100  C   UNL     1       9.828  -4.461  -2.959  1.00  0.00     0.001 C 
ATOM    101  C   UNL     1       7.404  -5.170  -3.295  1.00  0.00     0.001 C 
ATOM    102  C   UNL     1       8.720  -5.437  -2.563  1.00  0.00     0.000 C 
ENDBRANCH  94  97
ENDBRANCH  88  93
ENDBRANCH  84  86
ENDBRANCH  83  84
ENDBRANCH  82  83
ENDBRANCH  81  82
ENDBRANCH  80  81
ENDBRANCH  79  80
ENDBRANCH  78  79
ENDBRANCH  77  78
ENDBRANCH   1  77
TORSDOF 25
