REMARK SMILES CC(C)(C)N(CC(=O)OCCOCCOCCOCCOC(=O)c1ccc(-c2c3nc(c(-c4c(F)cc(S(=O)(=O)[O-])cc4F)c4ccc([nH]4)c(-c4c(F)cc(S(=O)(=O)[O-])cc4F)c4nc(c(-c5c(F)cc(S(=O)(=O)[O-])cc5F)c5ccc2[nH]5)C=C4)C=C3)cc1)C(=O)C[NH2+]C1CCCC1
REMARK SMILES IDX 14 1 13 2 12 3 11 4 10 5 9 6 7 7 8 8 6 9 5 10 2 11 1 12 3 13
REMARK SMILES IDX 4 14 90 15 91 16 92 17 93 18 94 21 95 22 98 23 96 24 97 25
REMARK SMILES IDX 15 26 16 27 17 28 18 29 19 30 20 31 21 32 22 33 23 34 24 35
REMARK SMILES IDX 25 36 89 37 26 38 88 39 27 40 28 41 29 42 82 43 30 44 87 45
REMARK SMILES IDX 81 46 83 47 31 48 86 49 80 50 79 51 32 53 66 54 45 55 65 56
REMARK SMILES IDX 46 57 49 58 64 59 84 60 47 61 48 62 63 64 85 65 50 66 33 67
REMARK SMILES IDX 34 68 43 69 35 70 36 71 42 72 44 73 37 74 38 75 39 76 40 77
REMARK SMILES IDX 41 78 67 79 68 80 77 81 69 82 70 83 76 84 78 85 71 86 72 87
REMARK SMILES IDX 73 88 74 89 75 90 51 91 52 92 61 93 53 94 54 95 60 96 62 97
REMARK SMILES IDX 55 98 56 99 57 100 58 101 59 102
REMARK H PARENT 93 19 93 20 83 52 49 63
REMARK Flexibility Score: inf
ROOT
ATOM      1  C   UNL     1       3.466  -4.497   1.234  1.00  0.00     0.188 C 
ENDROOT
BRANCH   1   2
ATOM      2  C   UNL     1       4.261  -5.056   0.046  1.00  0.00     0.188 C 
BRANCH   2   3
ATOM      3  O   UNL     1       5.641  -4.764  -0.078  1.00  0.00    -0.376 OA
BRANCH   3   4
ATOM      4  C   UNL     1       6.105  -3.503   0.386  1.00  0.00     0.202 C 
BRANCH   4   5
ATOM      5  C   UNL     1       5.453  -2.234  -0.205  1.00  0.00     0.261 C 
BRANCH   5   6
ATOM      6  O   UNL     1       4.001  -2.147  -0.111  1.00  0.00    -0.462 OA
BRANCH   6   7
ATOM      7  C   UNL     1       3.311  -2.043  -1.277  1.00  0.00     0.325 C 
ATOM      8  O   UNL     1       3.856  -1.932  -2.374  1.00  0.00    -0.250 OA
BRANCH   7   9
ATOM      9  C   UNL     1       1.759  -2.204  -1.197  1.00  0.00     0.242 C 
BRANCH   9  10
ATOM     10  N   UNL     1       0.847  -2.218  -0.012  1.00  0.00    -0.322 N 
BRANCH  10  11
ATOM     11  C   UNL     1       0.555  -0.926   0.722  1.00  0.00     0.035 C 
ATOM     12  C   UNL     1       1.187   0.312   0.047  1.00  0.00     0.034 C 
ATOM     13  C   UNL     1       1.119  -1.010   2.156  1.00  0.00     0.034 C 
ATOM     14  C   UNL     1      -0.966  -0.623   0.804  1.00  0.00     0.034 C 
ENDBRANCH  10  11
BRANCH  10  15
ATOM     15  C   UNL     1       0.112  -3.370   0.347  1.00  0.00     0.278 C 
ATOM     16  O   UNL     1      -0.846  -3.350   1.126  1.00  0.00    -0.268 OA
BRANCH  15  17
ATOM     17  C   UNL     1       0.574  -4.741  -0.134  1.00  0.00     0.362 C 
BRANCH  17  18
ATOM     18  N   UNL     1      -0.094  -5.273  -1.330  1.00  0.00    -0.336 N 
ATOM     19  H   UNL     1      -0.008  -4.611  -2.101  1.00  0.00     0.346 HD
ATOM     20  H   UNL     1      -1.087  -5.424  -1.150  1.00  0.00     0.346 HD
BRANCH  18  21
ATOM     21  C   UNL     1       0.567  -6.542  -1.680  1.00  0.00     0.182 C 
ATOM     22  C   UNL     1       0.369  -7.684  -0.678  1.00  0.00     0.065 C 
ATOM     23  C   UNL     1       0.065  -7.163  -2.978  1.00  0.00     0.065 C 
ATOM     24  C   UNL     1       0.834  -8.914  -1.443  1.00  0.00     0.006 C 
ATOM     25  C   UNL     1       0.569  -8.608  -2.918  1.00  0.00     0.006 C 
ENDBRANCH  18  21
ENDBRANCH  17  18
ENDBRANCH  15  17
ENDBRANCH  10  15
ENDBRANCH   9  10
ENDBRANCH   7   9
ENDBRANCH   6   7
ENDBRANCH   5   6
ENDBRANCH   4   5
ENDBRANCH   3   4
ENDBRANCH   2   3
ENDBRANCH   1   2
BRANCH   1  26
ATOM     26  O   UNL     1       4.218  -4.018   2.316  1.00  0.00    -0.377 OA
BRANCH  26  27
ATOM     27  C   UNL     1       4.212  -4.772   3.509  1.00  0.00     0.188 C 
BRANCH  27  28
ATOM     28  C   UNL     1       4.222  -6.293   3.333  1.00  0.00     0.188 C 
BRANCH  28  29
ATOM     29  O   UNL     1       3.012  -6.945   2.919  1.00  0.00    -0.376 OA
BRANCH  29  30
ATOM     30  C   UNL     1       1.734  -6.423   3.292  1.00  0.00     0.202 C 
BRANCH  30  31
ATOM     31  C   UNL     1       1.177  -6.888   4.627  1.00  0.00     0.261 C 
BRANCH  31  32
ATOM     32  O   UNL     1       1.678  -6.024   5.650  1.00  0.00    -0.460 OA
BRANCH  32  33
ATOM     33  C   UNL     1       2.798  -6.470   6.251  1.00  0.00     0.338 C 
ATOM     34  O   UNL     1       3.273  -7.594   6.180  1.00  0.00    -0.246 OA
BRANCH  33  35
ATOM     35  C   UNL     1       3.508  -5.321   6.836  1.00  0.00     0.060 A 
ATOM     36  C   UNL     1       4.908  -5.369   6.827  1.00  0.00     0.016 A 
ATOM     37  C   UNL     1       2.831  -4.227   7.387  1.00  0.00     0.016 A 
ATOM     38  C   UNL     1       5.635  -4.383   7.469  1.00  0.00     0.010 A 
ATOM     39  C   UNL     1       3.559  -3.242   8.050  1.00  0.00     0.010 A 
ATOM     40  C   UNL     1       4.953  -3.373   8.156  1.00  0.00    -0.014 A 
BRANCH  40  41
ATOM     41  C   UNL     1       5.683  -2.692   9.240  1.00  0.00     0.031 A 
ATOM     42  C   UNL     1       5.545  -3.257  10.627  1.00  0.00     0.074 A 
ATOM     43  C   UNL     1       6.518  -1.679   8.972  1.00  0.00     0.049 A 
ATOM     44  N   UNL     1       6.126  -2.889  11.736  1.00  0.00    -0.248 NA
ATOM     45  C   UNL     1       4.624  -4.398  10.783  1.00  0.00     0.031 C 
ATOM     46  C   UNL     1       6.747  -1.102   7.649  1.00  0.00     0.029 A 
ATOM     47  N   UNL     1       7.331  -0.962   9.806  1.00  0.00    -0.354 N 
ATOM     48  C   UNL     1       5.632  -3.741  12.718  1.00  0.00     0.074 A 
ATOM     49  C   UNL     1       4.678  -4.620  12.085  1.00  0.00     0.031 C 
ATOM     50  C   UNL     1       7.636  -0.102   7.763  1.00  0.00     0.029 A 
ATOM     51  C   UNL     1       8.015   0.041   9.168  1.00  0.00     0.049 A 
ATOM     52  H   UNL     1       7.418  -1.149  10.768  1.00  0.00     0.167 HD
ATOM     53  C   UNL     1       5.955  -3.787  14.031  1.00  0.00     0.037 A 
ATOM     54  C   UNL     1       8.835   0.980   9.676  1.00  0.00     0.037 A 
ATOM     55  C   UNL     1       6.905  -2.894  14.638  1.00  0.00     0.049 A 
ATOM     56  C   UNL     1       9.153   0.940  11.146  1.00  0.00     0.074 A 
ATOM     57  C   UNL     1       7.331  -2.851  15.951  1.00  0.00     0.029 A 
ATOM     58  N   UNL     1       7.563  -1.870  13.966  1.00  0.00    -0.354 N 
ATOM     59  N   UNL     1       8.706   0.115  12.066  1.00  0.00    -0.248 NA
ATOM     60  C   UNL     1      10.100   1.943  11.645  1.00  0.00     0.031 C 
ATOM     61  C   UNL     1       8.195  -1.759  16.089  1.00  0.00     0.029 A 
ATOM     62  C   UNL     1       8.368  -1.168  14.846  1.00  0.00     0.049 A 
ATOM     63  H   UNL     1       7.470  -1.674  13.006  1.00  0.00     0.167 HD
ATOM     64  C   UNL     1       9.335   0.484  13.250  1.00  0.00     0.074 A 
ATOM     65  C   UNL     1      10.203   1.600  12.922  1.00  0.00     0.031 C 
ATOM     66  C   UNL     1       9.214  -0.052  14.492  1.00  0.00     0.037 A 
BRANCH  53  67
ATOM     67  C   UNL     1       5.222  -4.785  14.888  1.00  0.00     0.058 A 
ATOM     68  C   UNL     1       5.392  -6.173  14.742  1.00  0.00     0.135 A 
ATOM     69  C   UNL     1       4.303  -4.341  15.853  1.00  0.00     0.135 A 
ATOM     70  F   UNL     1       6.239  -6.658  13.819  1.00  0.00    -0.206 F 
ATOM     71  C   UNL     1       4.643  -7.081  15.484  1.00  0.00     0.059 A 
ATOM     72  C   UNL     1       3.570  -5.231  16.631  1.00  0.00     0.059 A 
ATOM     73  F   UNL     1       4.094  -3.028  16.033  1.00  0.00    -0.206 F 
ATOM     74  C   UNL     1       3.729  -6.599  16.423  1.00  0.00     0.060 A 
BRANCH  74  75
ATOM     75  S   UNL     1       2.739  -7.786  17.356  1.00  0.00     0.124 S 
ATOM     76  O   UNL     1       1.818  -8.267  16.330  1.00  0.00    -0.237 OA
ATOM     77  O   UNL     1       3.743  -8.745  17.805  1.00  0.00    -0.237 OA
ATOM     78  O   UNL     1       2.136  -6.974  18.408  1.00  0.00    -0.744 OA
ENDBRANCH  74  75
ENDBRANCH  53  67
BRANCH  54  79
ATOM     79  C   UNL     1       9.387   2.021   8.773  1.00  0.00     0.058 A 
ATOM     80  C   UNL     1      10.739   2.034   8.406  1.00  0.00     0.135 A 
ATOM     81  C   UNL     1       8.543   2.986   8.199  1.00  0.00     0.135 A 
ATOM     82  F   UNL     1      11.587   1.138   8.932  1.00  0.00    -0.206 F 
ATOM     83  C   UNL     1      11.235   2.962   7.495  1.00  0.00     0.059 A 
ATOM     84  C   UNL     1       9.009   3.906   7.267  1.00  0.00     0.059 A 
ATOM     85  F   UNL     1       7.237   3.006   8.508  1.00  0.00    -0.206 F 
ATOM     86  C   UNL     1      10.358   3.885   6.920  1.00  0.00     0.060 A 
BRANCH  86  87
ATOM     87  S   UNL     1      10.992   5.016   5.662  1.00  0.00     0.124 S 
ATOM     88  O   UNL     1      11.825   5.908   6.460  1.00  0.00    -0.237 OA
ATOM     89  O   UNL     1      11.701   4.107   4.767  1.00  0.00    -0.237 OA
ATOM     90  O   UNL     1       9.781   5.612   5.106  1.00  0.00    -0.744 OA
ENDBRANCH  86  87
ENDBRANCH  54  79
BRANCH  66  91
ATOM     91  C   UNL     1      10.068   0.540  15.581  1.00  0.00     0.058 A 
ATOM     92  C   UNL     1       9.833   1.825  16.096  1.00  0.00     0.135 A 
ATOM     93  C   UNL     1      11.112  -0.211  16.145  1.00  0.00     0.135 A 
ATOM     94  F   UNL     1       8.848   2.586  15.593  1.00  0.00    -0.206 F 
ATOM     95  C   UNL     1      10.631   2.360  17.102  1.00  0.00     0.059 A 
ATOM     96  C   UNL     1      11.899   0.289  17.176  1.00  0.00     0.059 A 
ATOM     97  F   UNL     1      11.369  -1.453  15.703  1.00  0.00    -0.206 F 
ATOM     98  C   UNL     1      11.663   1.584  17.634  1.00  0.00     0.060 A 
BRANCH  98  99
ATOM     99  S   UNL     1      12.689   2.288  18.941  1.00  0.00     0.124 S 
ATOM    100  O   UNL     1      13.484   3.259  18.198  1.00  0.00    -0.237 OA
ATOM    101  O   UNL     1      11.694   2.846  19.852  1.00  0.00    -0.237 OA
ATOM    102  O   UNL     1      13.424   1.136  19.455  1.00  0.00    -0.744 OA
ENDBRANCH  98  99
ENDBRANCH  66  91
ENDBRANCH  40  41
ENDBRANCH  33  35
ENDBRANCH  32  33
ENDBRANCH  31  32
ENDBRANCH  30  31
ENDBRANCH  29  30
ENDBRANCH  28  29
ENDBRANCH  27  28
ENDBRANCH  26  27
ENDBRANCH   1  26
TORSDOF 29
