REMARK SMILES Cc1ccc(S(=O)(=O)n2cc(C(=O)C(=O)NCC(=O)N[C@@H](Cc3c[nH]c4ccccc34)C(=O)OCCOCCOCCOCCOC(=O)c3ccc(-c4c5nc(c(-c6c(F)cc(S(=O)(=O)[O-])cc6F)c6ccc([nH]6)c(-c6c(F)cc(S(=O)(=O)[O-])cc6F)c6nc(c(-c7c(F)cc(S(=O)(=O)[O-])cc7F)c7ccc4[nH]7)C=C6)C=C5)cc3)c3ccccc32)cc1
REMARK SMILES IDX 38 1 37 2 36 3 35 4 34 5 32 6 33 7 21 8 20 9 18 10 19 11
REMARK SMILES IDX 17 13 16 14 14 15 15 16 12 18 13 19 11 20 9 21 10 22 120 23
REMARK SMILES IDX 115 24 119 25 116 26 118 27 117 28 6 29 7 30 8 31 5 32 1 33
REMARK SMILES IDX 2 34 3 35 122 36 4 37 121 38 22 39 23 40 24 41 31 42 25 43
REMARK SMILES IDX 26 44 30 45 27 47 29 48 28 49 39 50 40 51 41 52 42 53 43 54
REMARK SMILES IDX 44 55 45 56 46 57 47 58 48 59 49 60 50 61 114 62 51 63
REMARK SMILES IDX 113 64 52 65 53 66 54 67 107 68 55 69 112 70 106 71 108 72
REMARK SMILES IDX 56 73 111 74 105 75 104 76 57 78 91 79 70 80 90 81 71 82
REMARK SMILES IDX 74 83 89 84 109 85 72 86 73 87 88 89 110 90 75 91 58 92
REMARK SMILES IDX 59 93 68 94 60 95 61 96 67 97 69 98 62 99 63 100 64 101
REMARK SMILES IDX 65 102 66 103 92 104 93 105 102 106 94 107 95 108 101 109
REMARK SMILES IDX 103 110 96 111 97 112 98 113 99 114 100 115 76 116 77 117
REMARK SMILES IDX 86 118 78 119 79 120 85 121 87 122 80 123 81 124 82 125
REMARK SMILES IDX 83 126 84 127
REMARK H PARENT 20 12 16 17 25 46 108 77 74 88
REMARK Flexibility Score: inf
ROOT
ATOM      1  C   UNL     1      -9.858  -0.666   0.514  1.00  0.00     0.188 C 
ENDROOT
BRANCH   1   2
ATOM      2  O   UNL     1      -8.752  -1.415   0.978  1.00  0.00    -0.376 OA
BRANCH   2   3
ATOM      3  C   UNL     1      -8.420  -1.331   2.343  1.00  0.00     0.202 C 
BRANCH   3   4
ATOM      4  C   UNL     1      -7.648  -0.094   2.726  1.00  0.00     0.261 C 
BRANCH   4   5
ATOM      5  O   UNL     1      -8.540   1.034   2.759  1.00  0.00    -0.462 OA
BRANCH   5   6
ATOM      6  C   UNL     1      -8.130   2.121   2.102  1.00  0.00     0.329 C 
ATOM      7  O   UNL     1      -7.046   2.231   1.516  1.00  0.00    -0.250 OA
BRANCH   6   8
ATOM      8  C   UNL     1      -9.100   3.281   2.170  1.00  0.00     0.196 C 
BRANCH   8   9
ATOM      9  N   UNL     1     -10.524   2.967   2.162  1.00  0.00    -0.341 N 
ATOM     10  C   UNL     1     -11.357   2.777   1.094  1.00  0.00     0.240 C 
ATOM     11  O   UNL     1     -12.546   2.555   1.343  1.00  0.00    -0.273 OA
ATOM     12  H   UNL     1     -10.944   2.879   3.048  1.00  0.00     0.164 HD
BRANCH  10  13
ATOM     13  C   UNL     1     -10.848   2.657  -0.379  1.00  0.00     0.216 C 
BRANCH  13  14
ATOM     14  N   UNL     1      -9.701   3.469  -0.780  1.00  0.00    -0.340 N 
ATOM     15  C   UNL     1      -8.425   3.135  -1.228  1.00  0.00     0.292 C 
ATOM     16  O   UNL     1      -7.586   4.027  -1.329  1.00  0.00    -0.265 OA
ATOM     17  H   UNL     1      -9.861   4.438  -0.723  1.00  0.00     0.164 HD
BRANCH  15  18
ATOM     18  C   UNL     1      -8.069   1.700  -1.638  1.00  0.00     0.252 C 
ATOM     19  O   UNL     1      -8.948   1.117  -2.278  1.00  0.00    -0.283 OA
BRANCH  18  20
ATOM     20  C   UNL     1      -6.816   1.017  -1.239  1.00  0.00     0.054 A 
ATOM     21  N   UNL     1      -4.780   0.477  -0.372  1.00  0.00    -0.240 N 
ATOM     22  C   UNL     1      -5.555   1.525  -0.877  1.00  0.00     0.117 A 
ATOM     23  C   UNL     1      -5.609  -0.660  -0.324  1.00  0.00     0.065 A 
ATOM     24  C   UNL     1      -6.696  -0.409  -1.152  1.00  0.00     0.012 A 
ATOM     25  C   UNL     1      -5.377  -1.951   0.192  1.00  0.00     0.028 A 
ATOM     26  C   UNL     1      -7.456  -1.520  -1.596  1.00  0.00     0.011 A 
ATOM     27  C   UNL     1      -6.103  -3.033  -0.287  1.00  0.00     0.002 A 
ATOM     28  C   UNL     1      -7.120  -2.824  -1.198  1.00  0.00     0.001 A 
BRANCH  21  29
ATOM     29  S   UNL     1      -3.173   0.040  -0.876  1.00  0.00     0.268 S 
ATOM     30  O   UNL     1      -3.379  -0.217  -2.295  1.00  0.00    -0.201 OA
ATOM     31  O   UNL     1      -2.880  -1.019   0.072  1.00  0.00    -0.201 OA
BRANCH  29  32
ATOM     32  C   UNL     1      -1.629   0.877  -0.797  1.00  0.00     0.088 A 
ATOM     33  C   UNL     1       2.580   1.182   0.145  1.00  0.00     0.044 C 
ATOM     34  C   UNL     1       1.139   1.196  -0.280  1.00  0.00    -0.051 A 
ATOM     35  C   UNL     1       0.699   0.101  -1.002  1.00  0.00     0.005 A 
ATOM     36  C   UNL     1       0.191   2.162   0.132  1.00  0.00     0.005 A 
ATOM     37  C   UNL     1      -0.645  -0.021  -1.288  1.00  0.00     0.022 A 
ATOM     38  C   UNL     1      -1.210   1.999  -0.099  1.00  0.00     0.022 A 
ENDBRANCH  29  32
ENDBRANCH  21  29
ENDBRANCH  18  20
ENDBRANCH  15  18
ENDBRANCH  13  14
ENDBRANCH  10  13
ENDBRANCH   8   9
BRANCH   8  39
ATOM     39  C   UNL     1      -8.630   4.319   3.190  1.00  0.00     0.074 C 
BRANCH  39  40
ATOM     40  C   UNL     1      -9.113   4.240   4.598  1.00  0.00    -0.020 A 
ATOM     41  C   UNL     1      -8.897   3.235   5.511  1.00  0.00     0.087 A 
ATOM     42  C   UNL     1      -9.799   5.281   5.303  1.00  0.00     0.003 A 
ATOM     43  N   UNL     1      -9.416   3.615   6.720  1.00  0.00    -0.361 N 
ATOM     44  C   UNL     1      -9.992   4.856   6.617  1.00  0.00     0.046 A 
ATOM     45  C   UNL     1     -10.253   6.565   4.941  1.00  0.00     0.010 A 
ATOM     46  H   UNL     1      -9.381   3.076   7.543  1.00  0.00     0.166 HD
ATOM     47  C   UNL     1     -10.645   5.635   7.579  1.00  0.00     0.026 A 
ATOM     48  C   UNL     1     -10.897   7.363   5.889  1.00  0.00     0.001 A 
ATOM     49  C   UNL     1     -11.097   6.899   7.186  1.00  0.00     0.002 A 
ENDBRANCH  39  40
ENDBRANCH   8  39
ENDBRANCH   6   8
ENDBRANCH   5   6
ENDBRANCH   4   5
ENDBRANCH   3   4
ENDBRANCH   2   3
ENDBRANCH   1   2
BRANCH   1  50
ATOM     50  C   UNL     1     -11.097  -0.536   1.394  1.00  0.00     0.188 C 
BRANCH  50  51
ATOM     51  O   UNL     1     -11.817  -1.701   1.719  1.00  0.00    -0.377 OA
BRANCH  51  52
ATOM     52  C   UNL     1     -11.170  -2.946   1.740  1.00  0.00     0.188 C 
BRANCH  52  53
ATOM     53  C   UNL     1     -11.746  -4.003   0.793  1.00  0.00     0.188 C 
BRANCH  53  54
ATOM     54  O   UNL     1     -12.697  -3.592  -0.167  1.00  0.00    -0.376 OA
BRANCH  54  55
ATOM     55  C   UNL     1     -13.806  -2.864   0.362  1.00  0.00     0.202 C 
BRANCH  55  56
ATOM     56  C   UNL     1     -14.515  -3.303   1.685  1.00  0.00     0.261 C 
BRANCH  56  57
ATOM     57  O   UNL     1     -13.707  -3.767   2.804  1.00  0.00    -0.460 OA
BRANCH  57  58
ATOM     58  C   UNL     1     -13.933  -5.011   3.340  1.00  0.00     0.338 C 
ATOM     59  O   UNL     1     -14.694  -5.879   2.935  1.00  0.00    -0.246 OA
BRANCH  58  60
ATOM     60  C   UNL     1     -12.814  -5.297   4.290  1.00  0.00     0.060 A 
ATOM     61  C   UNL     1     -12.807  -4.867   5.615  1.00  0.00     0.016 A 
ATOM     62  C   UNL     1     -11.613  -5.648   3.692  1.00  0.00     0.016 A 
ATOM     63  C   UNL     1     -11.610  -4.411   6.178  1.00  0.00     0.010 A 
ATOM     64  C   UNL     1     -10.463  -5.049   4.168  1.00  0.00     0.010 A 
ATOM     65  C   UNL     1     -10.505  -4.281   5.336  1.00  0.00    -0.014 A 
BRANCH  65  66
ATOM     66  C   UNL     1      -9.614  -3.088   5.364  1.00  0.00     0.031 A 
ATOM     67  C   UNL     1      -8.142  -3.273   5.143  1.00  0.00     0.074 A 
ATOM     68  C   UNL     1     -10.258  -1.891   5.279  1.00  0.00     0.049 A 
ATOM     69  N   UNL     1      -7.248  -2.349   5.057  1.00  0.00    -0.248 NA
ATOM     70  C   UNL     1      -7.557  -4.601   4.936  1.00  0.00     0.031 C 
ATOM     71  C   UNL     1      -9.768  -0.541   5.019  1.00  0.00     0.029 A 
ATOM     72  N   UNL     1     -11.623  -1.657   5.482  1.00  0.00    -0.354 N 
ATOM     73  C   UNL     1      -6.038  -2.919   4.650  1.00  0.00     0.074 A 
ATOM     74  C   UNL     1      -6.305  -4.326   4.565  1.00  0.00     0.031 C 
ATOM     75  C   UNL     1     -10.746   0.365   5.176  1.00  0.00     0.029 A 
ATOM     76  C   UNL     1     -11.794  -0.321   5.862  1.00  0.00     0.049 A 
ATOM     77  H   UNL     1     -12.342  -2.320   5.376  1.00  0.00     0.167 HD
ATOM     78  C   UNL     1      -4.934  -2.137   4.427  1.00  0.00     0.037 A 
ATOM     79  C   UNL     1     -11.963  -0.094   7.196  1.00  0.00     0.037 A 
ATOM     80  C   UNL     1      -5.156  -0.827   5.073  1.00  0.00     0.049 A 
ATOM     81  C   UNL     1     -10.603   0.259   7.955  1.00  0.00     0.074 A 
ATOM     82  C   UNL     1      -5.138   0.500   4.696  1.00  0.00     0.029 A 
ATOM     83  N   UNL     1      -5.711  -0.820   6.370  1.00  0.00    -0.354 N 
ATOM     84  N   UNL     1      -9.379   0.068   7.451  1.00  0.00    -0.248 NA
ATOM     85  C   UNL     1     -10.471   0.954   9.239  1.00  0.00     0.031 C 
ATOM     86  C   UNL     1      -5.974   1.214   5.632  1.00  0.00     0.029 A 
ATOM     87  C   UNL     1      -6.415   0.349   6.641  1.00  0.00     0.049 A 
ATOM     88  H   UNL     1      -5.612  -1.561   7.011  1.00  0.00     0.167 HD
ATOM     89  C   UNL     1      -8.363   0.562   8.246  1.00  0.00     0.074 A 
ATOM     90  C   UNL     1      -9.132   1.120   9.359  1.00  0.00     0.031 C 
ATOM     91  C   UNL     1      -6.990   0.555   7.996  1.00  0.00     0.037 A 
BRANCH  78  92
ATOM     92  C   UNL     1      -3.698  -2.553   3.577  1.00  0.00     0.058 A 
ATOM     93  C   UNL     1      -2.545  -1.736   3.454  1.00  0.00     0.135 A 
ATOM     94  C   UNL     1      -3.644  -3.700   2.738  1.00  0.00     0.135 A 
ATOM     95  F   UNL     1      -2.461  -0.576   4.123  1.00  0.00    -0.206 F 
ATOM     96  C   UNL     1      -1.446  -2.039   2.606  1.00  0.00     0.059 A 
ATOM     97  C   UNL     1      -2.556  -4.036   1.908  1.00  0.00     0.059 A 
ATOM     98  F   UNL     1      -4.704  -4.501   2.575  1.00  0.00    -0.206 F 
ATOM     99  C   UNL     1      -1.463  -3.191   1.826  1.00  0.00     0.060 A 
BRANCH  99 100
ATOM    100  S   UNL     1      -0.108  -3.623   0.695  1.00  0.00     0.124 S 
ATOM    101  O   UNL     1      -0.630  -3.259  -0.618  1.00  0.00    -0.237 OA
ATOM    102  O   UNL     1       1.012  -2.813   1.168  1.00  0.00    -0.237 OA
ATOM    103  O   UNL     1       0.042  -5.060   0.916  1.00  0.00    -0.744 OA
ENDBRANCH  99 100
ENDBRANCH  78  92
BRANCH  79 104
ATOM    104  C   UNL     1     -13.450  -0.419   7.414  1.00  0.00     0.058 A 
ATOM    105  C   UNL     1     -14.330   0.427   6.669  1.00  0.00     0.135 A 
ATOM    106  C   UNL     1     -13.890  -1.767   7.464  1.00  0.00     0.135 A 
ATOM    107  F   UNL     1     -14.036   1.734   6.569  1.00  0.00    -0.206 F 
ATOM    108  C   UNL     1     -15.364  -0.054   5.836  1.00  0.00     0.059 A 
ATOM    109  C   UNL     1     -14.954  -2.264   6.662  1.00  0.00     0.059 A 
ATOM    110  F   UNL     1     -13.203  -2.662   8.190  1.00  0.00    -0.206 F 
ATOM    111  C   UNL     1     -15.646  -1.412   5.804  1.00  0.00     0.060 A 
BRANCH 111 112
ATOM    112  S   UNL     1     -16.820  -2.069   4.570  1.00  0.00     0.124 S 
ATOM    113  O   UNL     1     -18.094  -1.939   5.266  1.00  0.00    -0.237 OA
ATOM    114  O   UNL     1     -16.637  -1.178   3.427  1.00  0.00    -0.237 OA
ATOM    115  O   UNL     1     -16.353  -3.436   4.370  1.00  0.00    -0.744 OA
ENDBRANCH 111 112
ENDBRANCH  79 104
BRANCH  91 116
ATOM    116  C   UNL     1      -5.905   0.715   9.087  1.00  0.00     0.058 A 
ATOM    117  C   UNL     1      -6.111   0.385  10.435  1.00  0.00     0.135 A 
ATOM    118  C   UNL     1      -4.538   0.956   8.744  1.00  0.00     0.135 A 
ATOM    119  F   UNL     1      -7.318   0.032  10.893  1.00  0.00    -0.206 F 
ATOM    120  C   UNL     1      -5.070   0.343  11.368  1.00  0.00     0.059 A 
ATOM    121  C   UNL     1      -3.478   0.823   9.635  1.00  0.00     0.059 A 
ATOM    122  F   UNL     1      -4.160   1.312   7.509  1.00  0.00    -0.206 F 
ATOM    123  C   UNL     1      -3.757   0.545  10.957  1.00  0.00     0.060 A 
BRANCH 123 124
ATOM    124  S   UNL     1      -2.417   0.407  12.150  1.00  0.00     0.124 S 
ATOM    125  O   UNL     1      -2.437   1.736  12.753  1.00  0.00    -0.237 OA
ATOM    126  O   UNL     1      -2.871  -0.685  13.007  1.00  0.00    -0.237 OA
ATOM    127  O   UNL     1      -1.255   0.104  11.322  1.00  0.00    -0.744 OA
ENDBRANCH 123 124
ENDBRANCH  91 116
ENDBRANCH  65  66
ENDBRANCH  58  60
ENDBRANCH  57  58
ENDBRANCH  56  57
ENDBRANCH  55  56
ENDBRANCH  54  55
ENDBRANCH  53  54
ENDBRANCH  52  53
ENDBRANCH  51  52
ENDBRANCH  50  51
ENDBRANCH   1  50
TORSDOF 32
