REMARK SMILES O=C(OCCOCCOCCOCCOC(=O)c1cc(/C=C/c2cc(O)cc(O)c2)ccc1O)c1ccc(-c2c3nc(c(-c4c(F)cc(S(=O)(=O)[O-])cc4F)c4ccc([nH]4)c(-c4c(F)cc(S(=O)(=O)[O-])cc4F)c4nc(c(-c5c(F)cc(S(=O)(=O)[O-])cc5F)c5ccc2[nH]5)C=C4)C=C3)cc1
REMARK SMILES IDX 9 1 8 2 7 3 6 4 5 5 4 6 3 7 2 8 1 9 35 10 36 11 100 12 37 13
REMARK SMILES IDX 99 14 38 15 39 16 40 17 93 18 41 19 98 20 92 21 94 22 42 23
REMARK SMILES IDX 97 24 91 25 90 26 43 28 77 29 56 30 76 31 57 32 60 33 75 34
REMARK SMILES IDX 95 35 58 36 59 37 74 39 96 40 61 41 44 42 45 43 54 44 46 45
REMARK SMILES IDX 47 46 53 47 55 48 48 49 49 50 50 51 51 52 52 53 78 54 79 55
REMARK SMILES IDX 88 56 80 57 81 58 87 59 89 60 82 61 83 62 84 63 85 64 86 65
REMARK SMILES IDX 62 66 63 67 72 68 64 69 65 70 71 71 73 72 66 73 67 74 68 75
REMARK SMILES IDX 69 76 70 77 10 78 11 79 12 80 13 81 14 82 15 83 16 84 17 85
REMARK SMILES IDX 18 86 19 87 33 88 20 89 32 90 31 91 34 92 21 94 22 95 23 96
REMARK SMILES IDX 24 97 30 98 25 99 28 100 27 101 26 102 29 104
REMARK H PARENT 94 27 60 38 34 93 26 103 29 105
REMARK Flexibility Score: inf
ROOT
ATOM      1  O   UNL     1       2.564   4.035  -0.167  1.00  0.00    -0.377 OA
ENDROOT
BRANCH   1   2
ATOM      2  C   UNL     1       1.854   2.844   0.160  1.00  0.00     0.188 C 
BRANCH   2   3
ATOM      3  C   UNL     1       2.284   1.622  -0.650  1.00  0.00     0.188 C 
BRANCH   3   4
ATOM      4  O   UNL     1       3.579   1.209  -0.222  1.00  0.00    -0.376 OA
BRANCH   4   5
ATOM      5  C   UNL     1       4.381   0.510  -1.162  1.00  0.00     0.202 C 
BRANCH   5   6
ATOM      6  C   UNL     1       3.968  -0.940  -1.434  1.00  0.00     0.261 C 
BRANCH   6   7
ATOM      7  O   UNL     1       2.574  -1.193  -1.190  1.00  0.00    -0.460 OA
BRANCH   7   8
ATOM      8  C   UNL     1       2.023  -1.718  -0.062  1.00  0.00     0.338 C 
ATOM      9  O   UNL     1       0.829  -2.006  -0.053  1.00  0.00    -0.246 OA
BRANCH   8  10
ATOM     10  C   UNL     1       2.831  -2.001   1.156  1.00  0.00     0.060 A 
ATOM     11  C   UNL     1       3.847  -1.170   1.617  1.00  0.00     0.016 A 
ATOM     12  C   UNL     1       2.505  -3.129   1.920  1.00  0.00     0.016 A 
ATOM     13  C   UNL     1       4.649  -1.528   2.685  1.00  0.00     0.010 A 
ATOM     14  C   UNL     1       3.246  -3.448   3.065  1.00  0.00     0.010 A 
ATOM     15  C   UNL     1       4.361  -2.675   3.417  1.00  0.00    -0.014 A 
BRANCH  15  16
ATOM     16  C   UNL     1       5.341  -3.101   4.439  1.00  0.00     0.031 A 
ATOM     17  C   UNL     1       6.122  -4.358   4.186  1.00  0.00     0.074 A 
ATOM     18  C   UNL     1       5.638  -2.287   5.471  1.00  0.00     0.049 A 
ATOM     19  N   UNL     1       6.979  -4.969   4.957  1.00  0.00    -0.248 NA
ATOM     20  C   UNL     1       5.912  -5.017   2.884  1.00  0.00     0.031 C 
ATOM     21  C   UNL     1       5.015  -0.982   5.726  1.00  0.00     0.029 A 
ATOM     22  N   UNL     1       6.565  -2.407   6.472  1.00  0.00    -0.354 N 
ATOM     23  C   UNL     1       7.375  -6.101   4.254  1.00  0.00     0.074 A 
ATOM     24  C   UNL     1       6.660  -6.103   3.000  1.00  0.00     0.031 C 
ATOM     25  C   UNL     1       5.610  -0.407   6.783  1.00  0.00     0.029 A 
ATOM     26  C   UNL     1       6.586  -1.336   7.336  1.00  0.00     0.049 A 
ATOM     27  H   UNL     1       7.159  -3.186   6.565  1.00  0.00     0.167 HD
ATOM     28  C   UNL     1       8.263  -7.049   4.629  1.00  0.00     0.037 A 
ATOM     29  C   UNL     1       7.287  -1.154   8.472  1.00  0.00     0.037 A 
ATOM     30  C   UNL     1       8.975  -7.003   5.876  1.00  0.00     0.049 A 
ATOM     31  C   UNL     1       8.216  -2.257   8.903  1.00  0.00     0.074 A 
ATOM     32  C   UNL     1       9.824  -7.943   6.427  1.00  0.00     0.029 A 
ATOM     33  N   UNL     1       8.928  -5.932   6.760  1.00  0.00    -0.354 N 
ATOM     34  N   UNL     1       8.491  -3.387   8.290  1.00  0.00    -0.248 NA
ATOM     35  C   UNL     1       8.912  -2.079  10.182  1.00  0.00     0.031 C 
ATOM     36  C   UNL     1      10.272  -7.449   7.659  1.00  0.00     0.029 A 
ATOM     37  C   UNL     1       9.735  -6.184   7.853  1.00  0.00     0.049 A 
ATOM     38  H   UNL     1       8.398  -5.113   6.628  1.00  0.00     0.167 HD
ATOM     39  C   UNL     1       9.392  -4.055   9.109  1.00  0.00     0.074 A 
ATOM     40  C   UNL     1       9.641  -3.185  10.243  1.00  0.00     0.031 C 
ATOM     41  C   UNL     1       9.954  -5.280   8.954  1.00  0.00     0.037 A 
BRANCH  28  42
ATOM     42  C   UNL     1       8.451  -8.218   3.704  1.00  0.00     0.058 A 
ATOM     43  C   UNL     1       9.140  -8.098   2.486  1.00  0.00     0.135 A 
ATOM     44  C   UNL     1       7.896  -9.468   4.021  1.00  0.00     0.135 A 
ATOM     45  F   UNL     1       9.657  -6.916   2.115  1.00  0.00    -0.206 F 
ATOM     46  C   UNL     1       9.248  -9.169   1.604  1.00  0.00     0.059 A 
ATOM     47  C   UNL     1       8.012 -10.559   3.164  1.00  0.00     0.059 A 
ATOM     48  F   UNL     1       7.212  -9.633   5.164  1.00  0.00    -0.206 F 
ATOM     49  C   UNL     1       8.676 -10.395   1.950  1.00  0.00     0.060 A 
BRANCH  49  50
ATOM     50  S   UNL     1       8.806 -11.769   0.786  1.00  0.00     0.124 S 
ATOM     51  O   UNL     1       7.868 -11.359  -0.254  1.00  0.00    -0.237 OA
ATOM     52  O   UNL     1      10.217 -11.732   0.416  1.00  0.00    -0.237 OA
ATOM     53  O   UNL     1       8.398 -12.925   1.578  1.00  0.00    -0.744 OA
ENDBRANCH  49  50
ENDBRANCH  28  42
BRANCH  29  54
ATOM     54  C   UNL     1       7.076   0.062   9.308  1.00  0.00     0.058 A 
ATOM     55  C   UNL     1       8.101   0.993   9.534  1.00  0.00     0.135 A 
ATOM     56  C   UNL     1       5.834   0.309   9.919  1.00  0.00     0.135 A 
ATOM     57  F   UNL     1       9.310   0.805   8.982  1.00  0.00    -0.206 F 
ATOM     58  C   UNL     1       7.912   2.106  10.351  1.00  0.00     0.059 A 
ATOM     59  C   UNL     1       5.611   1.430  10.711  1.00  0.00     0.059 A 
ATOM     60  F   UNL     1       4.811  -0.540   9.732  1.00  0.00    -0.206 F 
ATOM     61  C   UNL     1       6.663   2.314  10.938  1.00  0.00     0.060 A 
BRANCH  61  62
ATOM     62  S   UNL     1       6.416   3.763  11.988  1.00  0.00     0.124 S 
ATOM     63  O   UNL     1       7.100   3.358  13.211  1.00  0.00    -0.237 OA
ATOM     64  O   UNL     1       7.061   4.820  11.216  1.00  0.00    -0.237 OA
ATOM     65  O   UNL     1       4.963   3.864  12.082  1.00  0.00    -0.744 OA
ENDBRANCH  61  62
ENDBRANCH  29  54
BRANCH  41  66
ATOM     66  C   UNL     1      10.903  -5.723  10.027  1.00  0.00     0.058 A 
ATOM     67  C   UNL     1      10.443  -6.141  11.284  1.00  0.00     0.135 A 
ATOM     68  C   UNL     1      12.283  -5.767   9.775  1.00  0.00     0.135 A 
ATOM     69  F   UNL     1       9.131  -6.110  11.569  1.00  0.00    -0.206 F 
ATOM     70  C   UNL     1      11.324  -6.563  12.271  1.00  0.00     0.059 A 
ATOM     71  C   UNL     1      13.180  -6.210  10.739  1.00  0.00     0.059 A 
ATOM     72  F   UNL     1      12.766  -5.388   8.582  1.00  0.00    -0.206 F 
ATOM     73  C   UNL     1      12.692  -6.592  11.988  1.00  0.00     0.060 A 
BRANCH  73  74
ATOM     74  S   UNL     1      13.827  -7.165  13.268  1.00  0.00     0.124 S 
ATOM     75  O   UNL     1      13.885  -6.003  14.148  1.00  0.00    -0.237 OA
ATOM     76  O   UNL     1      13.134  -8.333  13.803  1.00  0.00    -0.237 OA
ATOM     77  O   UNL     1      15.051  -7.456  12.527  1.00  0.00    -0.744 OA
ENDBRANCH  73  74
ENDBRANCH  41  66
ENDBRANCH  15  16
ENDBRANCH   8  10
ENDBRANCH   7   8
ENDBRANCH   6   7
ENDBRANCH   5   6
ENDBRANCH   4   5
ENDBRANCH   3   4
ENDBRANCH   2   3
ENDBRANCH   1   2
BRANCH   1  78
ATOM     78  C   UNL     1       3.985   3.936  -0.186  1.00  0.00     0.188 C 
BRANCH  78  79
ATOM     79  C   UNL     1       4.727   3.534   1.108  1.00  0.00     0.188 C 
BRANCH  79  80
ATOM     80  O   UNL     1       3.883   3.324   2.231  1.00  0.00    -0.376 OA
BRANCH  80  81
ATOM     81  C   UNL     1       4.010   4.298   3.265  1.00  0.00     0.202 C 
BRANCH  81  82
ATOM     82  C   UNL     1       3.352   5.643   2.941  1.00  0.00     0.261 C 
BRANCH  82  83
ATOM     83  O   UNL     1       3.826   6.273   1.738  1.00  0.00    -0.460 OA
BRANCH  83  84
ATOM     84  C   UNL     1       5.070   6.806   1.706  1.00  0.00     0.342 C 
ATOM     85  O   UNL     1       5.896   6.806   2.602  1.00  0.00    -0.246 OA
BRANCH  84  86
ATOM     86  C   UNL     1       5.344   7.151   0.288  1.00  0.00     0.102 A 
ATOM     87  C   UNL     1       6.370   6.454  -0.388  1.00  0.00     0.027 A 
ATOM     88  C   UNL     1       4.462   7.967  -0.427  1.00  0.00     0.130 A 
ATOM     89  C   UNL     1       6.445   6.501  -1.787  1.00  0.00    -0.025 A 
ATOM     90  C   UNL     1       4.573   8.070  -1.810  1.00  0.00     0.048 A 
ATOM     91  C   UNL     1       5.551   7.332  -2.482  1.00  0.00     0.012 A 
BRANCH  88  92
ATOM     92  O   UNL     1       3.478   8.658   0.221  1.00  0.00    -0.507 OA
ATOM     93  H   UNL     1       3.396   8.594   1.152  1.00  0.00     0.293 HD
ENDBRANCH  88  92
BRANCH  89  94
ATOM     94  C   UNL     1       7.406   5.728  -2.594  1.00  0.00     0.009 C 
ATOM     95  C   UNL     1       7.788   4.454  -2.391  1.00  0.00     0.009 C 
BRANCH  95  96
ATOM     96  C   UNL     1       8.702   3.740  -3.312  1.00  0.00    -0.018 A 
ATOM     97  C   UNL     1       9.752   4.407  -3.965  1.00  0.00     0.054 A 
ATOM     98  C   UNL     1       8.547   2.360  -3.530  1.00  0.00     0.054 A 
ATOM     99  C   UNL     1      10.588   3.720  -4.845  1.00  0.00     0.119 A 
ATOM    100  C   UNL     1       9.401   1.691  -4.412  1.00  0.00     0.119 A 
ATOM    101  C   UNL     1      10.415   2.365  -5.081  1.00  0.00     0.092 A 
BRANCH  99 102
ATOM    102  O   UNL     1      11.601   4.358  -5.501  1.00  0.00    -0.508 OA
ATOM    103  H   UNL     1      11.745   5.274  -5.363  1.00  0.00     0.293 HD
ENDBRANCH  99 102
BRANCH 100 104
ATOM    104  O   UNL     1       9.274   0.354  -4.659  1.00  0.00    -0.508 OA
ATOM    105  H   UNL     1       9.860  -0.070  -5.254  1.00  0.00     0.293 HD
ENDBRANCH 100 104
ENDBRANCH  95  96
ENDBRANCH  89  94
ENDBRANCH  84  86
ENDBRANCH  83  84
ENDBRANCH  82  83
ENDBRANCH  81  82
ENDBRANCH  80  81
ENDBRANCH  79  80
ENDBRANCH  78  79
ENDBRANCH   1  78
TORSDOF 28
