REMARK SMILES O=C1NC(=O)/C(=C/c2ccc(OCc3cn(-c4ccc(C(=O)OCCOCCOCCOCCOC(=O)c5ccc(-c6c7nc(c(-c8c(F)cc(S(=O)(=O)[O-])cc8F)c8ccc([nH]8)c(-c8c(F)cc(S(=O)(=O)[O-])cc8F)c8nc(c(-c9c(F)cc(S(=O)(=O)[O-])cc9F)c9ccc6[nH]9)C=C8)C=C7)cc5)cc4)nn3)cc2)S1
REMARK SMILES IDX 28 1 27 2 26 3 25 4 24 5 23 6 21 7 22 8 20 9 17 10 18 11
REMARK SMILES IDX 105 12 19 13 104 14 16 15 14 16 15 17 107 18 106 19 13 20
REMARK SMILES IDX 12 21 11 22 8 23 9 24 109 25 10 26 108 27 7 28 1 29 2 30
REMARK SMILES IDX 3 31 110 32 4 33 6 35 5 36 29 37 30 38 31 39 32 40 33 41
REMARK SMILES IDX 34 42 35 43 36 44 37 45 38 46 39 47 103 48 40 49 102 50
REMARK SMILES IDX 41 51 42 52 43 53 96 54 44 55 101 56 95 57 97 58 45 59
REMARK SMILES IDX 100 60 94 61 93 62 46 64 80 65 59 66 79 67 60 68 63 69 78 70
REMARK SMILES IDX 98 71 61 72 62 73 77 75 99 76 64 77 47 78 48 79 57 80 49 81
REMARK SMILES IDX 50 82 56 83 58 84 51 85 52 86 53 87 54 88 55 89 81 90 82 91
REMARK SMILES IDX 91 92 83 93 84 94 90 95 92 96 85 97 86 98 87 99 88 100
REMARK SMILES IDX 89 101 65 102 66 103 75 104 67 105 68 106 74 107 76 108
REMARK SMILES IDX 69 109 70 110 71 111 72 112 73 113
REMARK H PARENT 3 34 97 63 63 74
REMARK Flexibility Score: inf
ROOT
ATOM      1  C   UNL     1      -8.657   7.553  -0.455  1.00  0.00     0.188 C 
ENDROOT
BRANCH   1   2
ATOM      2  C   UNL     1      -9.090   7.582   1.029  1.00  0.00     0.188 C 
BRANCH   2   3
ATOM      3  O   UNL     1     -10.076   8.474   1.540  1.00  0.00    -0.376 OA
BRANCH   3   4
ATOM      4  C   UNL     1     -10.428   9.664   0.860  1.00  0.00     0.202 C 
BRANCH   4   5
ATOM      5  C   UNL     1      -9.368  10.747   0.617  1.00  0.00     0.261 C 
BRANCH   5   6
ATOM      6  O   UNL     1      -8.023  10.282   0.486  1.00  0.00    -0.460 OA
BRANCH   6   7
ATOM      7  C   UNL     1      -7.334  10.196   1.644  1.00  0.00     0.338 C 
ATOM      8  O   UNL     1      -7.699  10.537   2.756  1.00  0.00    -0.246 OA
BRANCH   7   9
ATOM      9  C   UNL     1      -6.075   9.466   1.388  1.00  0.00     0.060 A 
ATOM     10  C   UNL     1      -3.670   8.100   1.063  1.00  0.00     0.066 A 
ATOM     11  C   UNL     1      -4.562   7.717   2.077  1.00  0.00     0.029 A 
ATOM     12  C   UNL     1      -4.027   9.106   0.153  1.00  0.00     0.029 A 
ATOM     13  C   UNL     1      -5.740   8.429   2.264  1.00  0.00     0.018 A 
ATOM     14  C   UNL     1      -5.246   9.775   0.305  1.00  0.00     0.018 A 
BRANCH  10  15
ATOM     15  N   UNL     1      -2.368   7.546   1.081  1.00  0.00    -0.220 N 
ATOM     16  C   UNL     1      -0.199   7.392   1.198  1.00  0.00     0.120 A 
ATOM     17  C   UNL     1      -1.210   8.073   0.551  1.00  0.00     0.144 A 
ATOM     18  N   UNL     1      -0.752   6.415   1.980  1.00  0.00    -0.131 NA
ATOM     19  N   UNL     1      -2.066   6.494   1.876  1.00  0.00    -0.062 NA
BRANCH  16  20
ATOM     20  C   UNL     1       1.269   7.643   1.243  1.00  0.00     0.289 C 
BRANCH  20  21
ATOM     21  O   UNL     1       2.032   6.964   0.239  1.00  0.00    -0.487 OA
BRANCH  21  22
ATOM     22  C   UNL     1       2.131   5.603   0.319  1.00  0.00     0.119 A 
ATOM     23  C   UNL     1       2.210   2.802   0.134  1.00  0.00    -0.024 A 
ATOM     24  C   UNL     1       2.636   3.588  -0.938  1.00  0.00     0.012 A 
ATOM     25  C   UNL     1       1.820   3.423   1.324  1.00  0.00     0.012 A 
ATOM     26  C   UNL     1       2.594   4.982  -0.843  1.00  0.00     0.047 A 
ATOM     27  C   UNL     1       1.795   4.816   1.420  1.00  0.00     0.047 A 
BRANCH  23  28
ATOM     28  C   UNL     1       2.157   1.344   0.004  1.00  0.00     0.029 C 
ATOM     29  O   UNL     1      -2.424  -0.738   0.114  1.00  0.00    -0.261 OA
ATOM     30  C   UNL     1      -1.243  -0.457   0.010  1.00  0.00     0.290 C 
ATOM     31  N   UNL     1      -0.224  -1.344  -0.122  1.00  0.00    -0.282 N 
ATOM     32  S   UNL     1      -0.602   1.171   0.073  1.00  0.00    -0.022 SA
ATOM     33  C   UNL     1       1.051  -0.864  -0.117  1.00  0.00     0.265 C 
ATOM     34  H   UNL     1      -0.401  -2.308  -0.220  1.00  0.00     0.174 HD
ATOM     35  C   UNL     1       1.031   0.618  -0.016  1.00  0.00     0.083 C 
ATOM     36  O   UNL     1       2.058  -1.556  -0.147  1.00  0.00    -0.268 OA
ENDBRANCH  23  28
ENDBRANCH  21  22
ENDBRANCH  20  21
ENDBRANCH  16  20
ENDBRANCH  10  15
ENDBRANCH   7   9
ENDBRANCH   6   7
ENDBRANCH   5   6
ENDBRANCH   4   5
ENDBRANCH   3   4
ENDBRANCH   2   3
ENDBRANCH   1   2
BRANCH   1  37
ATOM     37  O   UNL     1      -9.436   8.361  -1.323  1.00  0.00    -0.377 OA
BRANCH  37  38
ATOM     38  C   UNL     1     -10.429   7.652  -2.060  1.00  0.00     0.188 C 
BRANCH  38  39
ATOM     39  C   UNL     1     -11.470   6.879  -1.223  1.00  0.00     0.188 C 
BRANCH  39  40
ATOM     40  O   UNL     1     -10.885   5.946  -0.313  1.00  0.00    -0.376 OA
BRANCH  40  41
ATOM     41  C   UNL     1     -11.095   4.561  -0.547  1.00  0.00     0.202 C 
BRANCH  41  42
ATOM     42  C   UNL     1     -10.058   3.964  -1.495  1.00  0.00     0.261 C 
BRANCH  42  43
ATOM     43  O   UNL     1      -9.985   4.639  -2.744  1.00  0.00    -0.460 OA
BRANCH  43  44
ATOM     44  C   UNL     1     -11.123   4.668  -3.464  1.00  0.00     0.338 C 
ATOM     45  O   UNL     1     -12.221   4.257  -3.131  1.00  0.00    -0.246 OA
BRANCH  44  46
ATOM     46  C   UNL     1     -10.822   5.209  -4.790  1.00  0.00     0.060 A 
ATOM     47  C   UNL     1     -11.893   5.246  -5.683  1.00  0.00     0.016 A 
ATOM     48  C   UNL     1      -9.487   5.342  -5.203  1.00  0.00     0.016 A 
ATOM     49  C   UNL     1     -11.611   5.112  -7.017  1.00  0.00     0.010 A 
ATOM     50  C   UNL     1      -9.207   5.200  -6.537  1.00  0.00     0.010 A 
ATOM     51  C   UNL     1     -10.275   4.968  -7.399  1.00  0.00    -0.014 A 
BRANCH  51  52
ATOM     52  C   UNL     1     -10.032   4.472  -8.731  1.00  0.00     0.031 A 
ATOM     53  C   UNL     1     -10.164   5.488  -9.786  1.00  0.00     0.074 A 
ATOM     54  C   UNL     1      -9.658   3.196  -8.935  1.00  0.00     0.049 A 
ATOM     55  N   UNL     1     -11.016   5.530 -10.753  1.00  0.00    -0.248 NA
ATOM     56  C   UNL     1      -9.323   6.687  -9.657  1.00  0.00     0.031 C 
ATOM     57  C   UNL     1      -9.218   2.219  -7.931  1.00  0.00     0.029 A 
ATOM     58  N   UNL     1      -9.477   2.541 -10.110  1.00  0.00    -0.354 N 
ATOM     59  C   UNL     1     -10.664   6.651 -11.494  1.00  0.00     0.074 A 
ATOM     60  C   UNL     1      -9.761   7.419 -10.678  1.00  0.00     0.031 C 
ATOM     61  C   UNL     1      -8.612   1.188  -8.561  1.00  0.00     0.029 A 
ATOM     62  C   UNL     1      -8.726   1.381  -9.997  1.00  0.00     0.049 A 
ATOM     63  H   UNL     1      -9.846   2.860 -10.965  1.00  0.00     0.167 HD
ATOM     64  C   UNL     1     -10.920   6.722 -12.826  1.00  0.00     0.037 A 
ATOM     65  C   UNL     1      -8.149   0.704 -11.019  1.00  0.00     0.037 A 
ATOM     66  C   UNL     1     -11.973   5.818 -13.214  1.00  0.00     0.049 A 
ATOM     67  C   UNL     1      -8.838   1.114 -12.273  1.00  0.00     0.074 A 
ATOM     68  C   UNL     1     -13.291   5.651 -12.833  1.00  0.00     0.029 A 
ATOM     69  N   UNL     1     -11.629   4.672 -13.889  1.00  0.00    -0.354 N 
ATOM     70  N   UNL     1     -10.079   0.829 -12.563  1.00  0.00    -0.248 NA
ATOM     71  C   UNL     1      -8.259   2.202 -13.049  1.00  0.00     0.031 C 
ATOM     72  C   UNL     1     -13.536   4.250 -12.915  1.00  0.00     0.029 A 
ATOM     73  C   UNL     1     -12.364   3.639 -13.363  1.00  0.00     0.049 A 
ATOM     74  H   UNL     1     -10.973   4.604 -14.620  1.00  0.00     0.167 HD
ATOM     75  C   UNL     1     -10.554   1.937 -13.251  1.00  0.00     0.074 A 
ATOM     76  C   UNL     1      -9.362   2.691 -13.621  1.00  0.00     0.031 C 
ATOM     77  C   UNL     1     -11.874   2.284 -13.214  1.00  0.00     0.037 A 
BRANCH  64  78
ATOM     78  C   UNL     1      -9.947   7.329 -13.809  1.00  0.00     0.058 A 
ATOM     79  C   UNL     1     -10.347   7.510 -15.146  1.00  0.00     0.135 A 
ATOM     80  C   UNL     1      -8.560   7.472 -13.561  1.00  0.00     0.135 A 
ATOM     81  F   UNL     1     -11.638   7.394 -15.494  1.00  0.00    -0.206 F 
ATOM     82  C   UNL     1      -9.428   7.724 -16.173  1.00  0.00     0.059 A 
ATOM     83  C   UNL     1      -7.637   7.747 -14.558  1.00  0.00     0.059 A 
ATOM     84  F   UNL     1      -8.012   7.248 -12.360  1.00  0.00    -0.206 F 
ATOM     85  C   UNL     1      -8.072   7.814 -15.869  1.00  0.00     0.060 A 
BRANCH  85  86
ATOM     86  S   UNL     1      -6.864   7.922 -17.198  1.00  0.00     0.124 S 
ATOM     87  O   UNL     1      -6.906   6.564 -17.728  1.00  0.00    -0.237 OA
ATOM     88  O   UNL     1      -7.437   8.962 -18.046  1.00  0.00    -0.237 OA
ATOM     89  O   UNL     1      -5.636   8.294 -16.502  1.00  0.00    -0.744 OA
ENDBRANCH  85  86
ENDBRANCH  64  78
BRANCH  65  90
ATOM     90  C   UNL     1      -6.839   0.003 -11.007  1.00  0.00     0.058 A 
ATOM     91  C   UNL     1      -6.472  -0.863 -12.049  1.00  0.00     0.135 A 
ATOM     92  C   UNL     1      -5.813   0.360 -10.106  1.00  0.00     0.135 A 
ATOM     93  F   UNL     1      -7.376  -1.231 -12.970  1.00  0.00    -0.206 F 
ATOM     94  C   UNL     1      -5.159  -1.318 -12.212  1.00  0.00     0.059 A 
ATOM     95  C   UNL     1      -4.505  -0.098 -10.234  1.00  0.00     0.059 A 
ATOM     96  F   UNL     1      -6.026   1.244  -9.120  1.00  0.00    -0.206 F 
ATOM     97  C   UNL     1      -4.178  -0.917 -11.306  1.00  0.00     0.060 A 
BRANCH  97  98
ATOM     98  S   UNL     1      -2.454  -1.367 -11.600  1.00  0.00     0.124 S 
ATOM     99  O   UNL     1      -2.470  -2.803 -11.345  1.00  0.00    -0.237 OA
ATOM    100  O   UNL     1      -2.264  -0.967 -12.990  1.00  0.00    -0.237 OA
ATOM    101  O   UNL     1      -1.722  -0.568 -10.619  1.00  0.00    -0.744 OA
ENDBRANCH  97  98
ENDBRANCH  65  90
BRANCH  77 102
ATOM    102  C   UNL     1     -12.862   1.256 -12.726  1.00  0.00     0.058 A 
ATOM    103  C   UNL     1     -12.897   0.761 -11.411  1.00  0.00     0.135 A 
ATOM    104  C   UNL     1     -13.905   0.872 -13.584  1.00  0.00     0.135 A 
ATOM    105  F   UNL     1     -12.000   1.164 -10.500  1.00  0.00    -0.206 F 
ATOM    106  C   UNL     1     -13.899  -0.110 -10.981  1.00  0.00     0.059 A 
ATOM    107  C   UNL     1     -14.933   0.029 -13.167  1.00  0.00     0.059 A 
ATOM    108  F   UNL     1     -13.965   1.363 -14.833  1.00  0.00    -0.206 F 
ATOM    109  C   UNL     1     -14.916  -0.470 -11.866  1.00  0.00     0.060 A 
BRANCH 109 110
ATOM    110  S   UNL     1     -16.265  -1.517 -11.276  1.00  0.00     0.124 S 
ATOM    111  O   UNL     1     -15.635  -2.832 -11.231  1.00  0.00    -0.237 OA
ATOM    112  O   UNL     1     -16.589  -0.924  -9.982  1.00  0.00    -0.237 OA
ATOM    113  O   UNL     1     -17.295  -1.353 -12.299  1.00  0.00    -0.744 OA
ENDBRANCH 109 110
ENDBRANCH  77 102
ENDBRANCH  51  52
ENDBRANCH  44  46
ENDBRANCH  43  44
ENDBRANCH  42  43
ENDBRANCH  41  42
ENDBRANCH  40  41
ENDBRANCH  39  40
ENDBRANCH  38  39
ENDBRANCH  37  38
ENDBRANCH   1  37
TORSDOF 28
