REMARK SMILES Cc1nn(Cc2ccc(Cl)cc2Cl)c(C)c1NC(=O)c1c(C(=O)OCCOCCOCCOCCOC(=O)c2ccc(-c3c4nc(c(-c5c(F)cc(S(=O)(=O)[O-])cc5F)c5ccc([nH]5)c(-c5c(F)cc(S(=O)(=O)[O-])cc5F)c5nc(c(-c6c(F)cc(S(=O)(=O)[O-])cc6F)c6ccc3[nH]6)C=C5)C=C4)cc2)cnn1C
REMARK SMILES IDX 29 1 28 2 27 3 26 4 25 5 24 6 22 7 23 8 21 9 20 10 107 11
REMARK SMILES IDX 105 12 106 13 108 14 18 15 17 16 19 18 16 19 1 20 2 21 3 22
REMARK SMILES IDX 4 23 14 24 15 25 5 26 6 27 7 28 12 29 8 30 11 31 13 32 9 33
REMARK SMILES IDX 10 34 30 35 31 36 32 37 33 38 34 39 35 40 36 41 37 42 38 43
REMARK SMILES IDX 39 44 40 45 104 46 41 47 103 48 42 49 43 50 44 51 97 52
REMARK SMILES IDX 45 53 102 54 96 55 98 56 46 57 101 58 95 59 94 60 47 62
REMARK SMILES IDX 81 63 60 64 80 65 61 66 64 67 79 68 99 69 62 70 63 71 78 73
REMARK SMILES IDX 100 74 65 75 48 76 49 77 58 78 50 79 51 80 57 81 59 82 52 83
REMARK SMILES IDX 53 84 54 85 55 86 56 87 82 88 83 89 92 90 84 91 85 92 91 93
REMARK SMILES IDX 93 94 86 95 87 96 88 97 89 98 90 99 66 100 67 101 76 102
REMARK SMILES IDX 68 103 69 104 75 105 77 106 70 107 71 108 72 109 73 110
REMARK SMILES IDX 74 111
REMARK H PARENT 17 17 98 61 64 72
REMARK Flexibility Score: inf
ROOT
ATOM      1  C   UNL     1      -2.052  -0.041  -2.821  1.00  0.00     0.188 C 
ENDROOT
BRANCH   1   2
ATOM      2  C   UNL     1      -2.218   0.609  -1.444  1.00  0.00     0.188 C 
BRANCH   2   3
ATOM      3  O   UNL     1      -3.530   0.910  -0.964  1.00  0.00    -0.376 OA
BRANCH   3   4
ATOM      4  C   UNL     1      -4.614   0.968  -1.878  1.00  0.00     0.202 C 
BRANCH   4   5
ATOM      5  C   UNL     1      -4.822   2.320  -2.561  1.00  0.00     0.261 C 
BRANCH   5   6
ATOM      6  O   UNL     1      -3.748   2.726  -3.425  1.00  0.00    -0.460 OA
BRANCH   6   7
ATOM      7  C   UNL     1      -2.791   3.513  -2.852  1.00  0.00     0.342 C 
ATOM      8  O   UNL     1      -2.728   3.781  -1.661  1.00  0.00    -0.246 OA
BRANCH   7   9
ATOM      9  C   UNL     1      -1.873   4.067  -3.824  1.00  0.00     0.111 A 
ATOM     10  C   UNL     1      -0.580   4.525  -3.595  1.00  0.00     0.140 A 
ATOM     11  N   UNL     1      -0.270   5.265  -4.704  1.00  0.00    -0.262 N 
ATOM     12  C   UNL     1      -2.112   4.362  -5.183  1.00  0.00     0.151 A 
ATOM     13  N   UNL     1      -1.132   5.088  -5.726  1.00  0.00    -0.180 NA
ATOM     14  C   UNL     1       0.866   6.141  -4.884  1.00  0.00     0.174 C 
BRANCH  10  15
ATOM     15  C   UNL     1       0.231   4.462  -2.414  1.00  0.00     0.274 C 
ATOM     16  N   UNL     1       0.907   3.307  -2.092  1.00  0.00    -0.317 N 
ATOM     17  H   UNL     1       1.263   3.303  -1.175  1.00  0.00     0.170 HD
ATOM     18  O   UNL     1       0.321   5.419  -1.645  1.00  0.00    -0.267 OA
BRANCH  16  19
ATOM     19  C   UNL     1       1.189   2.149  -2.800  1.00  0.00     0.085 A 
ATOM     20  C   UNL     1       1.728   0.570  -0.767  1.00  0.00     0.071 C 
ATOM     21  C   UNL     1       1.546   0.900  -2.204  1.00  0.00     0.083 A 
ATOM     22  N   UNL     1       1.660  -0.073  -3.116  1.00  0.00    -0.175 NA
ATOM     23  N   UNL     1       1.354   0.534  -4.278  1.00  0.00    -0.263 N 
ATOM     24  C   UNL     1       1.332   1.907  -4.154  1.00  0.00     0.060 A 
ATOM     25  C   UNL     1       1.534   2.757  -5.346  1.00  0.00     0.069 C 
BRANCH  23  26
ATOM     26  C   UNL     1       0.729  -0.238  -5.356  1.00  0.00     0.181 C 
BRANCH  26  27
ATOM     27  C   UNL     1       1.676  -0.809  -6.378  1.00  0.00    -0.008 A 
ATOM     28  C   UNL     1       2.498  -1.890  -6.006  1.00  0.00     0.009 A 
ATOM     29  C   UNL     1       1.686  -0.402  -7.725  1.00  0.00     0.047 A 
ATOM     30  C   UNL     1       3.265  -2.569  -6.955  1.00  0.00     0.021 A 
ATOM     31  C   UNL     1       2.471  -1.069  -8.670  1.00  0.00     0.041 A 
ATOM     32  Cl  UNL     1       0.705   0.898  -8.304  1.00  0.00    -0.084 Cl
ATOM     33  C   UNL     1       3.243  -2.159  -8.283  1.00  0.00     0.042 A 
ATOM     34  Cl  UNL     1       4.154  -3.016  -9.458  1.00  0.00    -0.084 Cl
ENDBRANCH  26  27
ENDBRANCH  23  26
ENDBRANCH  16  19
ENDBRANCH  10  15
ENDBRANCH   7   9
ENDBRANCH   6   7
ENDBRANCH   5   6
ENDBRANCH   4   5
ENDBRANCH   3   4
ENDBRANCH   2   3
ENDBRANCH   1   2
BRANCH   1  35
ATOM     35  O   UNL     1      -2.864  -1.198  -2.995  1.00  0.00    -0.377 OA
BRANCH  35  36
ATOM     36  C   UNL     1      -2.170  -2.436  -2.870  1.00  0.00     0.188 C 
BRANCH  36  37
ATOM     37  C   UNL     1      -1.680  -2.720  -1.449  1.00  0.00     0.188 C 
BRANCH  37  38
ATOM     38  O   UNL     1      -0.394  -2.129  -1.221  1.00  0.00    -0.376 OA
BRANCH  38  39
ATOM     39  C   UNL     1       0.627  -3.073  -0.890  1.00  0.00     0.202 C 
BRANCH  39  40
ATOM     40  C   UNL     1       1.459  -3.489  -2.096  1.00  0.00     0.261 C 
BRANCH  40  41
ATOM     41  O   UNL     1       0.690  -3.829  -3.246  1.00  0.00    -0.460 OA
BRANCH  41  42
ATOM     42  C   UNL     1      -0.005  -4.987  -3.201  1.00  0.00     0.338 C 
ATOM     43  O   UNL     1      -0.303  -5.626  -2.212  1.00  0.00    -0.246 OA
BRANCH  42  44
ATOM     44  C   UNL     1      -0.147  -5.445  -4.596  1.00  0.00     0.060 A 
ATOM     45  C   UNL     1      -0.330  -6.810  -4.797  1.00  0.00     0.016 A 
ATOM     46  C   UNL     1       0.154  -4.585  -5.666  1.00  0.00     0.016 A 
ATOM     47  C   UNL     1      -0.019  -7.336  -6.036  1.00  0.00     0.010 A 
ATOM     48  C   UNL     1       0.490  -5.113  -6.896  1.00  0.00     0.010 A 
ATOM     49  C   UNL     1       0.465  -6.493  -7.046  1.00  0.00    -0.014 A 
BRANCH  49  50
ATOM     50  C   UNL     1       0.904  -7.114  -8.276  1.00  0.00     0.031 A 
ATOM     51  C   UNL     1      -0.170  -7.522  -9.193  1.00  0.00     0.074 A 
ATOM     52  C   UNL     1       2.186  -7.347  -8.603  1.00  0.00     0.049 A 
ATOM     53  N   UNL     1      -0.672  -8.703  -9.316  1.00  0.00    -0.248 NA
ATOM     54  C   UNL     1      -0.826  -6.485  -9.994  1.00  0.00     0.031 C 
ATOM     55  C   UNL     1       3.401  -6.791  -8.013  1.00  0.00     0.029 A 
ATOM     56  N   UNL     1       2.649  -8.129  -9.618  1.00  0.00    -0.354 N 
ATOM     57  C   UNL     1      -1.560  -8.617 -10.376  1.00  0.00     0.074 A 
ATOM     58  C   UNL     1      -1.738  -7.209 -10.645  1.00  0.00     0.031 C 
ATOM     59  C   UNL     1       4.456  -7.120  -8.794  1.00  0.00     0.029 A 
ATOM     60  C   UNL     1       4.009  -8.015  -9.853  1.00  0.00     0.049 A 
ATOM     61  H   UNL     1       2.066  -8.726 -10.140  1.00  0.00     0.167 HD
ATOM     62  C   UNL     1      -1.905  -9.712 -11.104  1.00  0.00     0.037 A 
ATOM     63  C   UNL     1       4.689  -8.585 -10.878  1.00  0.00     0.037 A 
ATOM     64  C   UNL     1      -1.520 -10.944 -10.460  1.00  0.00     0.049 A 
ATOM     65  C   UNL     1       3.912  -9.775 -11.322  1.00  0.00     0.074 A 
ATOM     66  C   UNL     1      -1.753 -11.508  -9.218  1.00  0.00     0.029 A 
ATOM     67  N   UNL     1      -0.471 -11.656 -10.992  1.00  0.00    -0.354 N 
ATOM     68  N   UNL     1       3.780 -10.870 -10.625  1.00  0.00    -0.248 NA
ATOM     69  C   UNL     1       2.967  -9.629 -12.421  1.00  0.00     0.031 C 
ATOM     70  C   UNL     1      -0.547 -12.192  -8.880  1.00  0.00     0.029 A 
ATOM     71  C   UNL     1       0.338 -12.026  -9.945  1.00  0.00     0.049 A 
ATOM     72  H   UNL     1      -0.327 -11.862 -11.944  1.00  0.00     0.167 HD
ATOM     73  C   UNL     1       2.506 -11.332 -10.918  1.00  0.00     0.074 A 
ATOM     74  C   UNL     1       2.110 -10.607 -12.118  1.00  0.00     0.031 C 
ATOM     75  C   UNL     1       1.784 -12.053 -10.008  1.00  0.00     0.037 A 
BRANCH  62  76
ATOM     76  C   UNL     1      -2.289  -9.643 -12.554  1.00  0.00     0.058 A 
ATOM     77  C   UNL     1      -2.984 -10.714 -13.144  1.00  0.00     0.135 A 
ATOM     78  C   UNL     1      -1.775  -8.671 -13.440  1.00  0.00     0.135 A 
ATOM     79  F   UNL     1      -3.481 -11.704 -12.386  1.00  0.00    -0.206 F 
ATOM     80  C   UNL     1      -3.122 -10.833 -14.526  1.00  0.00     0.059 A 
ATOM     81  C   UNL     1      -1.952  -8.738 -14.815  1.00  0.00     0.059 A 
ATOM     82  F   UNL     1      -0.994  -7.668 -13.014  1.00  0.00    -0.206 F 
ATOM     83  C   UNL     1      -2.589  -9.845 -15.352  1.00  0.00     0.060 A 
BRANCH  83  84
ATOM     84  S   UNL     1      -2.662 -10.046 -17.140  1.00  0.00     0.124 S 
ATOM     85  O   UNL     1      -1.584 -11.002 -17.362  1.00  0.00    -0.237 OA
ATOM     86  O   UNL     1      -4.017 -10.552 -17.340  1.00  0.00    -0.237 OA
ATOM     87  O   UNL     1      -2.426  -8.694 -17.635  1.00  0.00    -0.744 OA
ENDBRANCH  83  84
ENDBRANCH  62  76
BRANCH  63  88
ATOM     88  C   UNL     1       5.822  -8.030 -11.661  1.00  0.00     0.058 A 
ATOM     89  C   UNL     1       6.465  -8.810 -12.641  1.00  0.00     0.135 A 
ATOM     90  C   UNL     1       6.111  -6.652 -11.681  1.00  0.00     0.135 A 
ATOM     91  F   UNL     1       6.246 -10.132 -12.708  1.00  0.00    -0.206 F 
ATOM     92  C   UNL     1       7.277  -8.246 -13.629  1.00  0.00     0.059 A 
ATOM     93  C   UNL     1       6.933  -6.070 -12.644  1.00  0.00     0.059 A 
ATOM     94  F   UNL     1       5.526  -5.803 -10.826  1.00  0.00    -0.206 F 
ATOM     95  C   UNL     1       7.483  -6.869 -13.637  1.00  0.00     0.060 A 
BRANCH  95  96
ATOM     96  S   UNL     1       8.339  -6.106 -15.033  1.00  0.00     0.124 S 
ATOM     97  O   UNL     1       9.725  -6.481 -14.777  1.00  0.00    -0.237 OA
ATOM     98  O   UNL     1       7.703  -6.752 -16.177  1.00  0.00    -0.237 OA
ATOM     99  O   UNL     1       8.036  -4.685 -14.880  1.00  0.00    -0.744 OA
ENDBRANCH  95  96
ENDBRANCH  63  88
BRANCH  75 100
ATOM    100  C   UNL     1       2.523 -12.685  -8.857  1.00  0.00     0.058 A 
ATOM    101  C   UNL     1       3.267 -11.971  -7.901  1.00  0.00     0.135 A 
ATOM    102  C   UNL     1       2.397 -14.070  -8.661  1.00  0.00     0.135 A 
ATOM    103  F   UNL     1       3.335 -10.631  -7.938  1.00  0.00    -0.206 F 
ATOM    104  C   UNL     1       3.919 -12.613  -6.847  1.00  0.00     0.059 A 
ATOM    105  C   UNL     1       3.008 -14.727  -7.595  1.00  0.00     0.059 A 
ATOM    106  F   UNL     1       1.642 -14.803  -9.496  1.00  0.00    -0.206 F 
ATOM    107  C   UNL     1       3.790 -13.994  -6.705  1.00  0.00     0.060 A 
BRANCH 107 108
ATOM    108  S   UNL     1       4.589 -14.817  -5.309  1.00  0.00     0.124 S 
ATOM    109  O   UNL     1       5.975 -14.902  -5.757  1.00  0.00    -0.237 OA
ATOM    110  O   UNL     1       4.335 -13.897  -4.204  1.00  0.00    -0.237 OA
ATOM    111  O   UNL     1       3.882 -16.093  -5.218  1.00  0.00    -0.744 OA
ENDBRANCH 107 108
ENDBRANCH  75 100
ENDBRANCH  49  50
ENDBRANCH  42  44
ENDBRANCH  41  42
ENDBRANCH  40  41
ENDBRANCH  39  40
ENDBRANCH  38  39
ENDBRANCH  37  38
ENDBRANCH  36  37
ENDBRANCH  35  36
ENDBRANCH   1  35
TORSDOF 27
