REMARK SMILES NS(=O)(=O)c1ccc(N2N=C(C(=O)OCCOCCOCCOCCOC(=O)c3ccc(-c4c5nc(c(-c6c(F)cc(S(=O)(=O)[O-])cc6F)c6ccc([nH]6)c(-c6c(F)cc(S(=O)(=O)[O-])cc6F)c6nc(c(-c7c(F)cc(S(=O)(=O)[O-])cc7F)c7ccc4[nH]7)C=C6)C=C5)cc3)C[C@H]2c2ccco2)cc1
REMARK SMILES IDX 20 1 19 2 18 3 17 4 16 5 15 6 14 7 12 8 13 9 11 10 9 11
REMARK SMILES IDX 10 12 96 13 95 14 8 15 5 16 6 17 103 18 7 19 102 20 2 21
REMARK SMILES IDX 3 22 4 23 1 24 97 27 98 28 101 29 99 30 100 31 21 32 22 33
REMARK SMILES IDX 23 34 24 35 25 36 26 37 27 38 28 39 29 40 30 41 94 42 31 43
REMARK SMILES IDX 93 44 32 45 33 46 34 47 87 48 35 49 92 50 86 51 88 52 36 53
REMARK SMILES IDX 91 54 85 55 84 56 37 58 71 59 50 60 70 61 51 62 54 63 69 64
REMARK SMILES IDX 89 65 52 66 53 67 68 69 90 70 55 71 38 72 39 73 48 74 40 75
REMARK SMILES IDX 41 76 47 77 49 78 42 79 43 80 44 81 45 82 46 83 72 84 73 85
REMARK SMILES IDX 82 86 74 87 75 88 81 89 83 90 76 91 77 92 78 93 79 94 80 95
REMARK SMILES IDX 56 96 57 97 66 98 58 99 59 100 65 101 67 102 60 103 61 104
REMARK SMILES IDX 62 105 63 106 64 107
REMARK H PARENT 1 25 1 26 88 57 54 68
REMARK Flexibility Score: inf
ROOT
ATOM      1  O   UNL     1       3.878   5.985  -9.556  1.00  0.00    -0.377 OA
ENDROOT
BRANCH   1   2
ATOM      2  C   UNL     1       3.407   4.693  -9.211  1.00  0.00     0.188 C 
BRANCH   2   3
ATOM      3  C   UNL     1       2.068   4.297  -9.862  1.00  0.00     0.188 C 
BRANCH   3   4
ATOM      4  O   UNL     1       1.795   4.977 -11.072  1.00  0.00    -0.376 OA
BRANCH   4   5
ATOM      5  C   UNL     1       1.051   6.183 -11.103  1.00  0.00     0.202 C 
BRANCH   5   6
ATOM      6  C   UNL     1       1.020   7.237  -9.979  1.00  0.00     0.261 C 
BRANCH   6   7
ATOM      7  O   UNL     1       1.429   6.807  -8.685  1.00  0.00    -0.459 OA
BRANCH   7   8
ATOM      8  C   UNL     1       0.478   6.360  -7.852  1.00  0.00     0.354 C 
ATOM      9  O   UNL     1      -0.723   6.325  -8.029  1.00  0.00    -0.245 OA
BRANCH   8  10
ATOM     10  C   UNL     1       1.178   5.700  -6.691  1.00  0.00     0.148 C 
ATOM     11  N   UNL     1       1.738   4.230  -5.267  1.00  0.00    -0.254 N 
ATOM     12  N   UNL     1       0.885   4.497  -6.301  1.00  0.00    -0.169 NA
ATOM     13  C   UNL     1       2.390   5.464  -4.765  1.00  0.00     0.180 C 
ATOM     14  C   UNL     1       2.347   6.350  -6.019  1.00  0.00     0.101 C 
BRANCH  11  15
ATOM     15  C   UNL     1       1.439   3.138  -4.461  1.00  0.00     0.060 A 
ATOM     16  C   UNL     1       0.842   0.920  -2.847  1.00  0.00     0.082 A 
ATOM     17  C   UNL     1       1.891   0.845  -3.766  1.00  0.00     0.024 A 
ATOM     18  C   UNL     1       0.060   2.071  -2.758  1.00  0.00     0.024 A 
ATOM     19  C   UNL     1       2.189   1.958  -4.562  1.00  0.00     0.029 A 
ATOM     20  C   UNL     1       0.351   3.161  -3.578  1.00  0.00     0.029 A 
BRANCH  16  21
ATOM     21  S   UNL     1       0.461  -0.463  -1.816  1.00  0.00     0.238 S 
ATOM     22  O   UNL     1       1.227  -1.610  -2.230  1.00  0.00    -0.207 OA
ATOM     23  O   UNL     1      -0.971  -0.521  -1.603  1.00  0.00    -0.207 OA
BRANCH  21  24
ATOM     24  N   UNL     1       1.120   0.014  -0.345  1.00  0.00    -0.225 NA
ATOM     25  H   UNL     1       0.963  -0.716   0.350  1.00  0.00     0.137 HD
ATOM     26  H   UNL     1       0.675   0.879  -0.037  1.00  0.00     0.137 HD
ENDBRANCH  21  24
ENDBRANCH  16  21
ENDBRANCH  11  15
BRANCH  13  27
ATOM     27  C   UNL     1       1.748   6.148  -3.587  1.00  0.00     0.128 A 
ATOM     28  C   UNL     1       1.687   5.853  -2.238  1.00  0.00     0.048 A 
ATOM     29  O   UNL     1       1.062   7.307  -3.825  1.00  0.00    -0.467 OA
ATOM     30  C   UNL     1       0.903   6.867  -1.636  1.00  0.00     0.042 A 
ATOM     31  C   UNL     1       0.567   7.740  -2.642  1.00  0.00     0.195 A 
ENDBRANCH  13  27
ENDBRANCH   8  10
ENDBRANCH   7   8
ENDBRANCH   6   7
ENDBRANCH   5   6
ENDBRANCH   4   5
ENDBRANCH   3   4
ENDBRANCH   2   3
ENDBRANCH   1   2
BRANCH   1  32
ATOM     32  C   UNL     1       4.484   6.184 -10.836  1.00  0.00     0.188 C 
BRANCH  32  33
ATOM     33  C   UNL     1       4.453   5.111 -11.953  1.00  0.00     0.188 C 
BRANCH  33  34
ATOM     34  O   UNL     1       4.431   3.770 -11.491  1.00  0.00    -0.376 OA
BRANCH  34  35
ATOM     35  C   UNL     1       5.620   3.004 -11.560  1.00  0.00     0.202 C 
BRANCH  35  36
ATOM     36  C   UNL     1       6.813   3.476 -10.717  1.00  0.00     0.261 C 
BRANCH  36  37
ATOM     37  O   UNL     1       7.233   4.833 -10.917  1.00  0.00    -0.460 OA
BRANCH  37  38
ATOM     38  C   UNL     1       7.720   5.154 -12.136  1.00  0.00     0.338 C 
ATOM     39  O   UNL     1       7.853   4.411 -13.090  1.00  0.00    -0.246 OA
BRANCH  38  40
ATOM     40  C   UNL     1       7.899   6.621 -12.171  1.00  0.00     0.060 A 
ATOM     41  C   UNL     1       7.189   7.374 -13.115  1.00  0.00     0.016 A 
ATOM     42  C   UNL     1       8.765   7.247 -11.272  1.00  0.00     0.016 A 
ATOM     43  C   UNL     1       7.377   8.755 -13.190  1.00  0.00     0.010 A 
ATOM     44  C   UNL     1       8.965   8.626 -11.360  1.00  0.00     0.010 A 
ATOM     45  C   UNL     1       8.301   9.382 -12.343  1.00  0.00    -0.014 A 
BRANCH  45  46
ATOM     46  C   UNL     1       8.733  10.776 -12.613  1.00  0.00     0.031 A 
ATOM     47  C   UNL     1      10.035  10.986 -13.341  1.00  0.00     0.074 A 
ATOM     48  C   UNL     1       7.992  11.831 -12.231  1.00  0.00     0.049 A 
ATOM     49  N   UNL     1      10.665  12.098 -13.614  1.00  0.00    -0.248 NA
ATOM     50  C   UNL     1      10.720   9.773 -13.819  1.00  0.00     0.031 C 
ATOM     51  C   UNL     1       6.694  11.757 -11.563  1.00  0.00     0.029 A 
ATOM     52  N   UNL     1       8.237  13.178 -12.341  1.00  0.00    -0.354 N 
ATOM     53  C   UNL     1      11.822  11.720 -14.286  1.00  0.00     0.074 A 
ATOM     54  C   UNL     1      11.825  10.275 -14.349  1.00  0.00     0.031 C 
ATOM     55  C   UNL     1       6.263  13.006 -11.309  1.00  0.00     0.029 A 
ATOM     56  C   UNL     1       7.271  13.965 -11.761  1.00  0.00     0.049 A 
ATOM     57  H   UNL     1       9.031  13.545 -12.794  1.00  0.00     0.167 HD
ATOM     58  C   UNL     1      12.790  12.506 -14.813  1.00  0.00     0.037 A 
ATOM     59  C   UNL     1       7.222  15.302 -11.589  1.00  0.00     0.037 A 
ATOM     60  C   UNL     1      12.782  13.944 -14.745  1.00  0.00     0.049 A 
ATOM     61  C   UNL     1       8.355  16.154 -12.110  1.00  0.00     0.074 A 
ATOM     62  C   UNL     1      13.712  14.834 -15.252  1.00  0.00     0.029 A 
ATOM     63  N   UNL     1      11.799  14.703 -14.126  1.00  0.00    -0.354 N 
ATOM     64  N   UNL     1       9.438  15.787 -12.755  1.00  0.00    -0.248 NA
ATOM     65  C   UNL     1       8.258  17.604 -11.882  1.00  0.00     0.031 C 
ATOM     66  C   UNL     1      13.322  16.127 -14.889  1.00  0.00     0.029 A 
ATOM     67  C   UNL     1      12.113  16.048 -14.217  1.00  0.00     0.049 A 
ATOM     68  H   UNL     1      10.997  14.338 -13.687  1.00  0.00     0.167 HD
ATOM     69  C   UNL     1      10.128  16.961 -13.044  1.00  0.00     0.074 A 
ATOM     70  C   UNL     1       9.338  18.050 -12.510  1.00  0.00     0.031 C 
ATOM     71  C   UNL     1      11.306  17.125 -13.696  1.00  0.00     0.037 A 
BRANCH  58  72
ATOM     72  C   UNL     1      13.952  11.829 -15.488  1.00  0.00     0.058 A 
ATOM     73  C   UNL     1      13.809  11.159 -16.714  1.00  0.00     0.135 A 
ATOM     74  C   UNL     1      15.235  11.884 -14.919  1.00  0.00     0.135 A 
ATOM     75  F   UNL     1      12.602  11.056 -17.293  1.00  0.00    -0.206 F 
ATOM     76  C   UNL     1      14.892  10.550 -17.340  1.00  0.00     0.059 A 
ATOM     77  C   UNL     1      16.338  11.310 -15.543  1.00  0.00     0.059 A 
ATOM     78  F   UNL     1      15.428  12.507 -13.745  1.00  0.00    -0.206 F 
ATOM     79  C   UNL     1      16.154  10.634 -16.749  1.00  0.00     0.060 A 
BRANCH  79  80
ATOM     80  S   UNL     1      17.550   9.853 -17.584  1.00  0.00     0.124 S 
ATOM     81  O   UNL     1      17.243   8.438 -17.403  1.00  0.00    -0.237 OA
ATOM     82  O   UNL     1      17.419  10.361 -18.946  1.00  0.00    -0.237 OA
ATOM     83  O   UNL     1      18.708  10.342 -16.843  1.00  0.00    -0.744 OA
ENDBRANCH  79  80
ENDBRANCH  58  72
BRANCH  59  84
ATOM     84  C   UNL     1       6.072  15.928 -10.879  1.00  0.00     0.058 A 
ATOM     85  C   UNL     1       5.178  16.775 -11.551  1.00  0.00     0.135 A 
ATOM     86  C   UNL     1       5.856  15.710  -9.509  1.00  0.00     0.135 A 
ATOM     87  F   UNL     1       5.347  17.027 -12.858  1.00  0.00    -0.206 F 
ATOM     88  C   UNL     1       4.126  17.401 -10.889  1.00  0.00     0.059 A 
ATOM     89  C   UNL     1       4.793  16.300  -8.831  1.00  0.00     0.059 A 
ATOM     90  F   UNL     1       6.676  14.903  -8.818  1.00  0.00    -0.206 F 
ATOM     91  C   UNL     1       3.941  17.155  -9.527  1.00  0.00     0.060 A 
BRANCH  91  92
ATOM     92  S   UNL     1       2.550  17.943  -8.687  1.00  0.00     0.124 S 
ATOM     93  O   UNL     1       2.980  19.335  -8.647  1.00  0.00    -0.237 OA
ATOM     94  O   UNL     1       1.441  17.641  -9.586  1.00  0.00    -0.237 OA
ATOM     95  O   UNL     1       2.506  17.258  -7.397  1.00  0.00    -0.744 OA
ENDBRANCH  91  92
ENDBRANCH  59  84
BRANCH  71  96
ATOM     96  C   UNL     1      11.793  18.532 -13.925  1.00  0.00     0.058 A 
ATOM     97  C   UNL     1      12.276  19.334 -12.880  1.00  0.00     0.135 A 
ATOM     98  C   UNL     1      11.836  19.060 -15.227  1.00  0.00     0.135 A 
ATOM     99  F   UNL     1      12.255  18.882 -11.616  1.00  0.00    -0.206 F 
ATOM    100  C   UNL     1      12.760  20.618 -13.113  1.00  0.00     0.059 A 
ATOM    101  C   UNL     1      12.347  20.328 -15.488  1.00  0.00     0.059 A 
ATOM    102  F   UNL     1      11.399  18.332 -16.267  1.00  0.00    -0.206 F 
ATOM    103  C   UNL     1      12.796  21.104 -14.421  1.00  0.00     0.060 A 
BRANCH 103 104
ATOM    104  S   UNL     1      13.461  22.757 -14.712  1.00  0.00     0.124 S 
ATOM    105  O   UNL     1      12.409  23.601 -14.155  1.00  0.00    -0.237 OA
ATOM    106  O   UNL     1      14.713  22.724 -13.961  1.00  0.00    -0.237 OA
ATOM    107  O   UNL     1      13.609  22.815 -16.163  1.00  0.00    -0.744 OA
ENDBRANCH 103 104
ENDBRANCH  71  96
ENDBRANCH  45  46
ENDBRANCH  38  40
ENDBRANCH  37  38
ENDBRANCH  36  37
ENDBRANCH  35  36
ENDBRANCH  34  35
ENDBRANCH  33  34
ENDBRANCH  32  33
ENDBRANCH   1  32
TORSDOF 27
