REMARK SMILES O=C(Cc1c(C(=O)c2cc3c(cn2)CCCC3)[nH]c2cc(Cl)ccc12)OCCOCCOCCOCCOC(=O)c1ccc(-c2c3nc(c(-c4c(F)cc(S(=O)(=O)[O-])cc4F)c4ccc([nH]4)c(-c4c(F)cc(S(=O)(=O)[O-])cc4F)c4nc(c(-c5c(F)cc(S(=O)(=O)[O-])cc5F)c5ccc2[nH]5)C=C4)C=C3)cc1
REMARK SMILES IDX 32 1 31 2 30 3 29 4 28 5 27 6 26 7 2 8 1 9 3 10 4 11 5 12
REMARK SMILES IDX 25 13 18 14 19 15 24 16 20 18 23 19 21 20 22 21 6 22 7 23
REMARK SMILES IDX 8 24 9 25 13 26 10 27 12 28 11 29 17 30 14 31 16 32 15 33
REMARK SMILES IDX 33 34 34 35 35 36 36 37 37 38 38 39 39 40 40 41 41 42 42 43
REMARK SMILES IDX 106 44 43 45 105 46 44 47 45 48 46 49 99 50 47 51 104 52
REMARK SMILES IDX 98 53 100 54 48 55 103 56 97 57 96 58 49 60 83 61 62 62
REMARK SMILES IDX 82 63 63 64 66 65 81 66 101 67 64 68 65 69 80 71 102 72
REMARK SMILES IDX 67 73 50 74 51 75 60 76 52 77 53 78 59 79 61 80 54 81 55 82
REMARK SMILES IDX 56 83 57 84 58 85 84 86 85 87 94 88 86 89 87 90 93 91 95 92
REMARK SMILES IDX 88 93 89 94 90 95 91 96 92 97 68 98 69 99 78 100 70 101
REMARK SMILES IDX 71 102 77 103 79 104 72 105 73 106 74 107 75 108 76 109
REMARK H PARENT 18 17 100 59 66 70
REMARK Flexibility Score: inf
ROOT
ATOM      1  O   UNL     1       2.989   3.186  -0.295  1.00  0.00    -0.377 OA
ENDROOT
BRANCH   1   2
ATOM      2  C   UNL     1       1.813   3.138   0.494  1.00  0.00     0.188 C 
BRANCH   2   3
ATOM      3  C   UNL     1       1.654   1.801   1.211  1.00  0.00     0.188 C 
BRANCH   3   4
ATOM      4  O   UNL     1       2.839   1.176   1.674  1.00  0.00    -0.376 OA
BRANCH   4   5
ATOM      5  C   UNL     1       3.875   0.907   0.733  1.00  0.00     0.202 C 
BRANCH   5   6
ATOM      6  C   UNL     1       3.530   0.346  -0.654  1.00  0.00     0.261 C 
BRANCH   6   7
ATOM      7  O   UNL     1       2.337  -0.439  -0.746  1.00  0.00    -0.463 OA
BRANCH   7   8
ATOM      8  C   UNL     1       2.125  -1.567  -0.048  1.00  0.00     0.310 C 
ATOM      9  O   UNL     1       1.078  -2.195  -0.214  1.00  0.00    -0.252 OA
BRANCH   8  10
ATOM     10  C   UNL     1       3.168  -2.036   0.933  1.00  0.00     0.161 C 
BRANCH  10  11
ATOM     11  C   UNL     1       4.160  -3.001   0.359  1.00  0.00     0.000 A 
ATOM     12  C   UNL     1       5.458  -2.849  -0.165  1.00  0.00     0.093 A 
ATOM     13  C   UNL     1       3.885  -4.401   0.429  1.00  0.00     0.004 A 
ATOM     14  N   UNL     1       5.880  -4.120  -0.502  1.00  0.00    -0.351 N 
ATOM     15  C   UNL     1       4.990  -5.072  -0.068  1.00  0.00     0.048 A 
ATOM     16  C   UNL     1       2.799  -5.138   0.948  1.00  0.00     0.012 A 
ATOM     17  H   UNL     1       6.711  -4.319  -0.991  1.00  0.00     0.167 HD
ATOM     18  C   UNL     1       5.078  -6.467  -0.051  1.00  0.00     0.047 A 
ATOM     19  C   UNL     1       2.874  -6.527   0.995  1.00  0.00     0.021 A 
ATOM     20  C   UNL     1       4.003  -7.174   0.504  1.00  0.00     0.043 A 
ATOM     21  Cl  UNL     1       4.084  -8.892   0.594  1.00  0.00    -0.084 Cl
BRANCH  12  22
ATOM     22  C   UNL     1       6.353  -1.689  -0.227  1.00  0.00     0.227 C 
ATOM     23  O   UNL     1       6.273  -0.779   0.594  1.00  0.00    -0.285 OA
BRANCH  22  24
ATOM     24  C   UNL     1       7.476  -1.575  -1.227  1.00  0.00     0.113 A 
ATOM     25  C   UNL     1       7.340  -1.893  -2.575  1.00  0.00     0.036 A 
ATOM     26  N   UNL     1       8.618  -1.042  -0.714  1.00  0.00    -0.252 NA
ATOM     27  C   UNL     1       8.428  -1.649  -3.441  1.00  0.00    -0.041 A 
ATOM     28  C   UNL     1       9.637  -0.798  -1.563  1.00  0.00     0.115 A 
ATOM     29  C   UNL     1       9.607  -1.094  -2.918  1.00  0.00    -0.026 A 
ATOM     30  C   UNL     1       8.333  -2.020  -4.906  1.00  0.00     0.036 C 
ATOM     31  C   UNL     1      10.789  -0.752  -3.785  1.00  0.00     0.037 C 
ATOM     32  C   UNL     1       9.484  -1.497  -5.775  1.00  0.00     0.005 C 
ATOM     33  C   UNL     1      10.824  -1.594  -5.056  1.00  0.00     0.005 C 
ENDBRANCH  22  24
ENDBRANCH  12  22
ENDBRANCH  10  11
ENDBRANCH   8  10
ENDBRANCH   7   8
ENDBRANCH   6   7
ENDBRANCH   5   6
ENDBRANCH   4   5
ENDBRANCH   3   4
ENDBRANCH   2   3
ENDBRANCH   1   2
BRANCH   1  34
ATOM     34  C   UNL     1       3.874   4.250   0.024  1.00  0.00     0.188 C 
BRANCH  34  35
ATOM     35  C   UNL     1       4.880   4.072   1.196  1.00  0.00     0.188 C 
BRANCH  35  36
ATOM     36  O   UNL     1       4.441   3.764   2.506  1.00  0.00    -0.376 OA
BRANCH  36  37
ATOM     37  C   UNL     1       3.472   4.541   3.184  1.00  0.00     0.202 C 
BRANCH  37  38
ATOM     38  C   UNL     1       3.447   6.078   3.102  1.00  0.00     0.261 C 
BRANCH  38  39
ATOM     39  O   UNL     1       3.566   6.618   1.779  1.00  0.00    -0.460 OA
BRANCH  39  40
ATOM     40  C   UNL     1       4.748   7.239   1.488  1.00  0.00     0.338 C 
ATOM     41  O   UNL     1       5.643   7.486   2.259  1.00  0.00    -0.246 OA
BRANCH  40  42
ATOM     42  C   UNL     1       4.887   7.296   0.004  1.00  0.00     0.060 A 
ATOM     43  C   UNL     1       3.832   7.699  -0.819  1.00  0.00     0.016 A 
ATOM     44  C   UNL     1       6.074   6.807  -0.566  1.00  0.00     0.016 A 
ATOM     45  C   UNL     1       3.977   7.636  -2.209  1.00  0.00     0.010 A 
ATOM     46  C   UNL     1       6.208   6.720  -1.954  1.00  0.00     0.010 A 
ATOM     47  C   UNL     1       5.171   7.164  -2.786  1.00  0.00    -0.014 A 
BRANCH  47  48
ATOM     48  C   UNL     1       5.437   7.408  -4.224  1.00  0.00     0.031 A 
ATOM     49  C   UNL     1       5.212   6.383  -5.292  1.00  0.00     0.074 A 
ATOM     50  C   UNL     1       5.898   8.632  -4.544  1.00  0.00     0.049 A 
ATOM     51  N   UNL     1       5.319   6.522  -6.589  1.00  0.00    -0.248 NA
ATOM     52  C   UNL     1       4.824   5.035  -4.858  1.00  0.00     0.031 C 
ATOM     53  C   UNL     1       6.165   9.700  -3.575  1.00  0.00     0.029 A 
ATOM     54  N   UNL     1       6.206   9.193  -5.753  1.00  0.00    -0.354 N 
ATOM     55  C   UNL     1       4.975   5.293  -7.138  1.00  0.00     0.074 A 
ATOM     56  C   UNL     1       4.710   4.404  -6.022  1.00  0.00     0.031 C 
ATOM     57  C   UNL     1       6.563  10.797  -4.231  1.00  0.00     0.029 A 
ATOM     58  C   UNL     1       6.600  10.506  -5.659  1.00  0.00     0.049 A 
ATOM     59  H   UNL     1       6.151   8.705  -6.606  1.00  0.00     0.167 HD
ATOM     60  C   UNL     1       4.877   4.952  -8.448  1.00  0.00     0.037 A 
ATOM     61  C   UNL     1       6.939  11.388  -6.616  1.00  0.00     0.037 A 
ATOM     62  C   UNL     1       5.186   5.839  -9.547  1.00  0.00     0.049 A 
ATOM     63  C   UNL     1       6.881  10.966  -8.052  1.00  0.00     0.074 A 
ATOM     64  C   UNL     1       5.109   5.588 -10.908  1.00  0.00     0.029 A 
ATOM     65  N   UNL     1       5.646   7.144  -9.415  1.00  0.00    -0.354 N 
ATOM     66  N   UNL     1       6.510   9.813  -8.556  1.00  0.00    -0.248 NA
ATOM     67  C   UNL     1       7.281  11.965  -9.049  1.00  0.00     0.031 C 
ATOM     68  C   UNL     1       5.564   6.721 -11.594  1.00  0.00     0.029 A 
ATOM     69  C   UNL     1       5.880   7.699 -10.666  1.00  0.00     0.049 A 
ATOM     70  H   UNL     1       5.785   7.608  -8.558  1.00  0.00     0.167 HD
ATOM     71  C   UNL     1       6.615   9.953  -9.934  1.00  0.00     0.074 A 
ATOM     72  C   UNL     1       7.070  11.307 -10.182  1.00  0.00     0.031 C 
ATOM     73  C   UNL     1       6.357   9.040 -10.904  1.00  0.00     0.037 A 
BRANCH  60  74
ATOM     74  C   UNL     1       4.409   3.558  -8.774  1.00  0.00     0.058 A 
ATOM     75  C   UNL     1       3.076   3.167  -8.565  1.00  0.00     0.135 A 
ATOM     76  C   UNL     1       5.279   2.618  -9.352  1.00  0.00     0.135 A 
ATOM     77  F   UNL     1       2.201   4.023  -8.014  1.00  0.00    -0.206 F 
ATOM     78  C   UNL     1       2.631   1.888  -8.886  1.00  0.00     0.059 A 
ATOM     79  C   UNL     1       4.849   1.341  -9.704  1.00  0.00     0.059 A 
ATOM     80  F   UNL     1       6.562   2.937  -9.584  1.00  0.00    -0.206 F 
ATOM     81  C   UNL     1       3.527   0.980  -9.451  1.00  0.00     0.060 A 
BRANCH  81  82
ATOM     82  S   UNL     1       2.942  -0.684  -9.839  1.00  0.00     0.124 S 
ATOM     83  O   UNL     1       2.799  -1.259  -8.504  1.00  0.00    -0.237 OA
ATOM     84  O   UNL     1       1.698  -0.420 -10.554  1.00  0.00    -0.237 OA
ATOM     85  O   UNL     1       4.020  -1.245 -10.647  1.00  0.00    -0.744 OA
ENDBRANCH  81  82
ENDBRANCH  60  74
BRANCH  61  86
ATOM     86  C   UNL     1       7.298  12.773  -6.225  1.00  0.00     0.058 A 
ATOM     87  C   UNL     1       6.407  13.830  -6.455  1.00  0.00     0.135 A 
ATOM     88  C   UNL     1       8.494  13.053  -5.548  1.00  0.00     0.135 A 
ATOM     89  F   UNL     1       5.251  13.606  -7.097  1.00  0.00    -0.206 F 
ATOM     90  C   UNL     1       6.689  15.121  -6.025  1.00  0.00     0.059 A 
ATOM     91  C   UNL     1       8.788  14.331  -5.087  1.00  0.00     0.059 A 
ATOM     92  F   UNL     1       9.365  12.066  -5.286  1.00  0.00    -0.206 F 
ATOM     93  C   UNL     1       7.878  15.359  -5.333  1.00  0.00     0.060 A 
BRANCH  93  94
ATOM     94  S   UNL     1       8.192  17.024  -4.711  1.00  0.00     0.124 S 
ATOM     95  O   UNL     1       8.443  17.756  -5.947  1.00  0.00    -0.237 OA
ATOM     96  O   UNL     1       6.941  17.334  -4.027  1.00  0.00    -0.237 OA
ATOM     97  O   UNL     1       9.348  16.845  -3.838  1.00  0.00    -0.744 OA
ENDBRANCH  93  94
ENDBRANCH  61  86
BRANCH  73  98
ATOM     98  C   UNL     1       6.564   9.483 -12.327  1.00  0.00     0.058 A 
ATOM     99  C   UNL     1       7.851   9.679 -12.854  1.00  0.00     0.135 A 
ATOM    100  C   UNL     1       5.468   9.699 -13.178  1.00  0.00     0.135 A 
ATOM    101  F   UNL     1       8.933   9.498 -12.081  1.00  0.00    -0.206 F 
ATOM    102  C   UNL     1       8.043  10.102 -14.166  1.00  0.00     0.059 A 
ATOM    103  C   UNL     1       5.638  10.095 -14.501  1.00  0.00     0.059 A 
ATOM    104  F   UNL     1       4.216   9.520 -12.727  1.00  0.00    -0.206 F 
ATOM    105  C   UNL     1       6.929  10.308 -14.982  1.00  0.00     0.060 A 
BRANCH 105 106
ATOM    106  S   UNL     1       7.196  10.840 -16.687  1.00  0.00     0.124 S 
ATOM    107  O   UNL     1       7.615  12.225 -16.500  1.00  0.00    -0.237 OA
ATOM    108  O   UNL     1       8.233   9.920 -17.142  1.00  0.00    -0.237 OA
ATOM    109  O   UNL     1       5.888  10.659 -17.309  1.00  0.00    -0.744 OA
ENDBRANCH 105 106
ENDBRANCH  73  98
ENDBRANCH  47  48
ENDBRANCH  40  42
ENDBRANCH  39  40
ENDBRANCH  38  39
ENDBRANCH  37  38
ENDBRANCH  36  37
ENDBRANCH  35  36
ENDBRANCH  34  35
ENDBRANCH   1  34
TORSDOF 26
