REMARK SMILES Cc1nn(C)c(=O)c(C(=O)N[C@H]2C=C[C@H](C(=O)OCCOCCOCCOCCOC(=O)c3ccc(-c4c5nc(c(-c6c(F)cc(S(=O)(=O)[O-])cc6F)c6ccc([nH]6)c(-c6c(F)cc(S(=O)(=O)[O-])cc6F)c6nc(c(-c7c(F)cc(S(=O)(=O)[O-])cc7F)c7ccc4[nH]7)C=C6)C=C5)cc3)C2)c1C
REMARK SMILES IDX 25 1 24 2 23 3 22 4 21 5 20 6 19 7 18 8 16 9 17 10 15 11
REMARK SMILES IDX 12 12 13 13 99 14 14 15 11 16 9 17 10 18 8 20 1 21 2 22 3 23
REMARK SMILES IDX 100 24 4 25 101 26 5 27 6 28 7 29 26 30 27 31 28 32 29 33
REMARK SMILES IDX 30 34 31 35 32 36 33 37 34 38 98 39 35 40 97 41 36 42 37 43
REMARK SMILES IDX 38 44 91 45 39 46 96 47 90 48 92 49 40 50 95 51 89 52 88 53
REMARK SMILES IDX 41 55 75 56 54 57 74 58 55 59 58 60 73 61 93 62 56 63 57 64
REMARK SMILES IDX 72 66 94 67 59 68 42 69 43 70 52 71 44 72 45 73 51 74 53 75
REMARK SMILES IDX 46 76 47 77 48 78 49 79 50 80 76 81 77 82 86 83 78 84 79 85
REMARK SMILES IDX 85 86 87 87 80 88 81 89 82 90 83 91 84 92 60 93 61 94 70 95
REMARK SMILES IDX 62 96 63 97 69 98 71 99 64 100 65 101 66 102 67 103 68 104
REMARK H PARENT 11 19 92 54 58 65
REMARK Flexibility Score: inf
ROOT
ATOM      1  C   UNL     1       6.275   2.422   2.306  1.00  0.00     0.188 C 
ENDROOT
BRANCH   1   2
ATOM      2  O   UNL     1       4.923   2.085   2.055  1.00  0.00    -0.377 OA
BRANCH   2   3
ATOM      3  C   UNL     1       3.972   3.079   2.351  1.00  0.00     0.188 C 
BRANCH   3   4
ATOM      4  C   UNL     1       3.257   2.938   3.700  1.00  0.00     0.188 C 
BRANCH   4   5
ATOM      5  O   UNL     1       3.534   1.857   4.580  1.00  0.00    -0.376 OA
BRANCH   5   6
ATOM      6  C   UNL     1       3.957   0.592   4.095  1.00  0.00     0.202 C 
BRANCH   6   7
ATOM      7  C   UNL     1       3.156  -0.172   3.019  1.00  0.00     0.261 C 
BRANCH   7   8
ATOM      8  O   UNL     1       2.689   0.594   1.895  1.00  0.00    -0.463 OA
BRANCH   8   9
ATOM      9  C   UNL     1       1.412   1.026   1.966  1.00  0.00     0.312 C 
ATOM     10  O   UNL     1       0.624   0.724   2.859  1.00  0.00    -0.252 OA
BRANCH   9  11
ATOM     11  C   UNL     1       1.011   1.984   0.841  1.00  0.00     0.124 C 
ATOM     12  C   UNL     1       1.792   3.869  -0.565  1.00  0.00     0.106 C 
ATOM     13  C   UNL     1       1.014   4.332   0.632  1.00  0.00    -0.006 C 
ATOM     14  C   UNL     1       1.958   2.355  -0.330  1.00  0.00     0.048 C 
ATOM     15  C   UNL     1       0.590   3.318   1.391  1.00  0.00    -0.014 C 
BRANCH  12  16
ATOM     16  N   UNL     1       1.111   4.401  -1.742  1.00  0.00    -0.346 N 
ATOM     17  C   UNL     1       0.359   3.957  -2.792  1.00  0.00     0.257 C 
ATOM     18  O   UNL     1      -0.085   4.813  -3.556  1.00  0.00    -0.269 OA
ATOM     19  H   UNL     1       1.230   5.377  -1.795  1.00  0.00     0.164 HD
BRANCH  17  20
ATOM     20  C   UNL     1       0.105   2.513  -3.010  1.00  0.00     0.111 A 
ATOM     21  C   UNL     1      -0.003  -0.527  -1.081  1.00  0.00     0.069 C 
ATOM     22  C   UNL     1      -0.388   0.334  -2.266  1.00  0.00     0.062 A 
ATOM     23  N   UNL     1      -0.368  -0.237  -3.422  1.00  0.00    -0.175 NA
ATOM     24  C   UNL     1      -0.599   1.798  -2.113  1.00  0.00    -0.010 A 
ATOM     25  N   UNL     1      -0.414   0.615  -4.485  1.00  0.00    -0.232 N 
ATOM     26  C   UNL     1      -1.559   2.364  -1.124  1.00  0.00     0.047 C 
ATOM     27  C   UNL     1      -0.857   0.018  -5.725  1.00  0.00     0.178 C 
ATOM     28  C   UNL     1       0.026   1.940  -4.405  1.00  0.00     0.279 A 
ATOM     29  O   UNL     1       0.237   2.633  -5.397  1.00  0.00    -0.267 OA
ENDBRANCH  17  20
ENDBRANCH  12  16
ENDBRANCH   9  11
ENDBRANCH   8   9
ENDBRANCH   7   8
ENDBRANCH   6   7
ENDBRANCH   5   6
ENDBRANCH   4   5
ENDBRANCH   3   4
ENDBRANCH   2   3
ENDBRANCH   1   2
BRANCH   1  30
ATOM     30  C   UNL     1       6.560   3.336   3.514  1.00  0.00     0.188 C 
BRANCH  30  31
ATOM     31  O   UNL     1       5.741   4.495   3.587  1.00  0.00    -0.376 OA
BRANCH  31  32
ATOM     32  C   UNL     1       6.144   5.722   3.003  1.00  0.00     0.202 C 
BRANCH  32  33
ATOM     33  C   UNL     1       6.473   5.829   1.501  1.00  0.00     0.261 C 
BRANCH  33  34
ATOM     34  O   UNL     1       7.345   4.847   0.936  1.00  0.00    -0.460 OA
BRANCH  34  35
ATOM     35  C   UNL     1       8.601   4.766   1.422  1.00  0.00     0.338 C 
ATOM     36  O   UNL     1       9.096   5.479   2.281  1.00  0.00    -0.246 OA
BRANCH  35  37
ATOM     37  C   UNL     1       9.196   3.517   0.900  1.00  0.00     0.060 A 
ATOM     38  C   UNL     1       9.556   2.513   1.810  1.00  0.00     0.016 A 
ATOM     39  C   UNL     1       9.354   3.315  -0.474  1.00  0.00     0.016 A 
ATOM     40  C   UNL     1      10.094   1.313   1.354  1.00  0.00     0.010 A 
ATOM     41  C   UNL     1       9.944   2.132  -0.929  1.00  0.00     0.010 A 
ATOM     42  C   UNL     1      10.347   1.145  -0.012  1.00  0.00    -0.014 A 
BRANCH  42  43
ATOM     43  C   UNL     1      11.281   0.075  -0.428  1.00  0.00     0.031 A 
ATOM     44  C   UNL     1      12.741   0.425  -0.507  1.00  0.00     0.074 A 
ATOM     45  C   UNL     1      10.862  -1.180  -0.664  1.00  0.00     0.049 A 
ATOM     46  N   UNL     1      13.756  -0.316  -0.861  1.00  0.00    -0.248 NA
ATOM     47  C   UNL     1      13.105   1.802  -0.126  1.00  0.00     0.031 C 
ATOM     48  C   UNL     1       9.484  -1.650  -0.542  1.00  0.00     0.029 A 
ATOM     49  N   UNL     1      11.566  -2.291  -1.056  1.00  0.00    -0.354 N 
ATOM     50  C   UNL     1      14.874   0.500  -0.745  1.00  0.00     0.074 A 
ATOM     51  C   UNL     1      14.413   1.802  -0.320  1.00  0.00     0.031 C 
ATOM     52  C   UNL     1       9.441  -2.955  -0.863  1.00  0.00     0.029 A 
ATOM     53  C   UNL     1      10.780  -3.402  -1.246  1.00  0.00     0.049 A 
ATOM     54  H   UNL     1      12.541  -2.291  -1.187  1.00  0.00     0.167 HD
ATOM     55  C   UNL     1      16.172   0.189  -0.965  1.00  0.00     0.037 A 
ATOM     56  C   UNL     1      11.108  -4.629  -1.699  1.00  0.00     0.037 A 
ATOM     57  C   UNL     1      16.618  -1.106  -1.402  1.00  0.00     0.049 A 
ATOM     58  C   UNL     1      12.547  -4.925  -2.043  1.00  0.00     0.074 A 
ATOM     59  C   UNL     1      17.908  -1.525  -1.667  1.00  0.00     0.029 A 
ATOM     60  N   UNL     1      15.785  -2.188  -1.650  1.00  0.00    -0.354 N 
ATOM     61  N   UNL     1      13.598  -4.146  -1.934  1.00  0.00    -0.248 NA
ATOM     62  C   UNL     1      12.845  -6.264  -2.570  1.00  0.00     0.031 C 
ATOM     63  C   UNL     1      17.850  -2.842  -2.133  1.00  0.00     0.029 A 
ATOM     64  C   UNL     1      16.530  -3.266  -2.094  1.00  0.00     0.049 A 
ATOM     65  H   UNL     1      14.808  -2.189  -1.528  1.00  0.00     0.167 HD
ATOM     66  C   UNL     1      14.685  -4.907  -2.356  1.00  0.00     0.074 A 
ATOM     67  C   UNL     1      14.163  -6.213  -2.708  1.00  0.00     0.031 C 
ATOM     68  C   UNL     1      15.994  -4.560  -2.442  1.00  0.00     0.037 A 
BRANCH  55  69
ATOM     69  C   UNL     1      17.191   1.276  -0.770  1.00  0.00     0.058 A 
ATOM     70  C   UNL     1      17.516   1.768   0.505  1.00  0.00     0.135 A 
ATOM     71  C   UNL     1      17.872   1.817  -1.873  1.00  0.00     0.135 A 
ATOM     72  F   UNL     1      16.876   1.307   1.591  1.00  0.00    -0.206 F 
ATOM     73  C   UNL     1      18.464   2.771   0.677  1.00  0.00     0.059 A 
ATOM     74  C   UNL     1      18.846   2.798  -1.722  1.00  0.00     0.059 A 
ATOM     75  F   UNL     1      17.592   1.391  -3.115  1.00  0.00    -0.206 F 
ATOM     76  C   UNL     1      19.127   3.276  -0.443  1.00  0.00     0.060 A 
BRANCH  76  77
ATOM     77  S   UNL     1      20.361   4.570  -0.198  1.00  0.00     0.124 S 
ATOM     78  O   UNL     1      19.529   5.691   0.229  1.00  0.00    -0.237 OA
ATOM     79  O   UNL     1      21.217   3.988   0.831  1.00  0.00    -0.237 OA
ATOM     80  O   UNL     1      20.974   4.711  -1.515  1.00  0.00    -0.744 OA
ENDBRANCH  76  77
ENDBRANCH  55  69
BRANCH  56  81
ATOM     81  C   UNL     1      10.052  -5.665  -1.856  1.00  0.00     0.058 A 
ATOM     82  C   UNL     1      10.016  -6.794  -1.025  1.00  0.00     0.135 A 
ATOM     83  C   UNL     1       9.040  -5.533  -2.821  1.00  0.00     0.135 A 
ATOM     84  F   UNL     1      10.970  -6.976  -0.099  1.00  0.00    -0.206 F 
ATOM     85  C   UNL     1       9.014  -7.753  -1.140  1.00  0.00     0.059 A 
ATOM     86  C   UNL     1       8.012  -6.465  -2.937  1.00  0.00     0.059 A 
ATOM     87  F   UNL     1       9.025  -4.470  -3.639  1.00  0.00    -0.206 F 
ATOM     88  C   UNL     1       8.008  -7.572  -2.091  1.00  0.00     0.060 A 
BRANCH  88  89
ATOM     89  S   UNL     1       6.670  -8.782  -2.171  1.00  0.00     0.124 S 
ATOM     90  O   UNL     1       7.370  -9.967  -2.651  1.00  0.00    -0.237 OA
ATOM     91  O   UNL     1       6.220  -8.824  -0.783  1.00  0.00    -0.237 OA
ATOM     92  O   UNL     1       5.728  -8.181  -3.110  1.00  0.00    -0.744 OA
ENDBRANCH  88  89
ENDBRANCH  56  81
BRANCH  68  93
ATOM     93  C   UNL     1      16.969  -5.606  -2.914  1.00  0.00     0.058 A 
ATOM     94  C   UNL     1      17.009  -6.027  -4.252  1.00  0.00     0.135 A 
ATOM     95  C   UNL     1      17.930  -6.131  -2.033  1.00  0.00     0.135 A 
ATOM     96  F   UNL     1      16.113  -5.559  -5.135  1.00  0.00    -0.206 F 
ATOM     97  C   UNL     1      17.953  -6.949  -4.695  1.00  0.00     0.059 A 
ATOM     98  C   UNL     1      18.903  -7.028  -2.462  1.00  0.00     0.059 A 
ATOM     99  F   UNL     1      17.948  -5.750  -0.746  1.00  0.00    -0.206 F 
ATOM    100  C   UNL     1      18.900  -7.439  -3.794  1.00  0.00     0.060 A 
BRANCH 100 101
ATOM    101  S   UNL     1      20.138  -8.606  -4.395  1.00  0.00     0.124 S 
ATOM    102  O   UNL     1      19.324  -9.789  -4.659  1.00  0.00    -0.237 OA
ATOM    103  O   UNL     1      20.663  -7.922  -5.572  1.00  0.00    -0.237 OA
ATOM    104  O   UNL     1      21.069  -8.724  -3.276  1.00  0.00    -0.744 OA
ENDBRANCH 100 101
ENDBRANCH  68  93
ENDBRANCH  42  43
ENDBRANCH  35  37
ENDBRANCH  34  35
ENDBRANCH  33  34
ENDBRANCH  32  33
ENDBRANCH  31  32
ENDBRANCH  30  31
ENDBRANCH   1  30
TORSDOF 25
