REMARK SMILES C[C@@H](C(=O)OCCOCCOCCOCCOC(=O)c1ccc(-c2c3nc(c(-c4c(F)cc(S(=O)(=O)[O-])cc4F)c4ccc([nH]4)c(-c4c(F)cc(S(=O)(=O)[O-])cc4F)c4nc(c(-c5c(F)cc(S(=O)(=O)[O-])cc5F)c5ccc2[nH]5)C=C4)C=C3)cc1)c1ccc(-c2cccc(OC(=O)NCCC3CCCCC3)c2)c(F)c1
REMARK SMILES IDX 9 1 8 2 7 3 6 4 5 5 3 6 4 7 2 8 1 9 86 10 87 11 110 12 88 13
REMARK SMILES IDX 108 14 89 15 109 16 90 17 91 18 107 19 92 20 94 21 93 22
REMARK SMILES IDX 95 23 96 24 97 25 98 26 99 28 100 29 101 30 102 31 106 32
REMARK SMILES IDX 103 33 105 34 104 35 10 36 11 37 12 38 13 39 14 40 15 41
REMARK SMILES IDX 16 42 17 43 18 44 19 45 20 46 21 47 85 48 22 49 84 50 23 51
REMARK SMILES IDX 24 52 25 53 78 54 26 55 83 56 77 57 79 58 27 59 82 60 76 61
REMARK SMILES IDX 75 62 28 64 62 65 41 66 61 67 42 68 45 69 60 70 80 71 43 72
REMARK SMILES IDX 44 73 59 75 81 76 46 77 29 78 30 79 39 80 31 81 32 82 38 83
REMARK SMILES IDX 40 84 33 85 34 86 35 87 36 88 37 89 63 90 64 91 73 92 65 93
REMARK SMILES IDX 66 94 72 95 74 96 67 97 68 98 69 99 70 100 71 101 47 102
REMARK SMILES IDX 48 103 57 104 49 105 50 106 56 107 58 108 51 109 52 110
REMARK SMILES IDX 53 111 54 112 55 113
REMARK H PARENT 98 27 79 63 45 74
REMARK Flexibility Score: inf
ROOT
ATOM      1  C   UNL     1       0.264   0.905   3.477  1.00  0.00     0.188 C 
ENDROOT
BRANCH   1   2
ATOM      2  O   UNL     1       0.815   0.590   4.746  1.00  0.00    -0.376 OA
BRANCH   2   3
ATOM      3  C   UNL     1       2.064  -0.081   4.842  1.00  0.00     0.202 C 
BRANCH   3   4
ATOM      4  C   UNL     1       2.460  -1.242   3.906  1.00  0.00     0.261 C 
BRANCH   4   5
ATOM      5  O   UNL     1       2.044  -1.147   2.530  1.00  0.00    -0.463 OA
BRANCH   5   6
ATOM      6  C   UNL     1       1.075  -2.003   2.127  1.00  0.00     0.313 C 
ATOM      7  O   UNL     1       0.577  -2.858   2.855  1.00  0.00    -0.252 OA
BRANCH   6   8
ATOM      8  C   UNL     1       0.605  -1.790   0.671  1.00  0.00     0.126 C 
ATOM      9  C   UNL     1       1.448  -0.891  -0.245  1.00  0.00     0.025 C 
BRANCH   8  10
ATOM     10  C   UNL     1      -0.904  -1.527   0.631  1.00  0.00    -0.031 A 
ATOM     11  C   UNL     1      -1.498  -0.255   0.564  1.00  0.00     0.005 A 
ATOM     12  C   UNL     1      -1.753  -2.629   0.789  1.00  0.00     0.044 A 
ATOM     13  C   UNL     1      -2.890  -0.093   0.695  1.00  0.00     0.012 A 
ATOM     14  C   UNL     1      -3.129  -2.465   0.899  1.00  0.00     0.131 A 
ATOM     15  C   UNL     1      -3.731  -1.199   0.878  1.00  0.00     0.018 A 
ATOM     16  F   UNL     1      -3.877  -3.568   1.052  1.00  0.00    -0.206 F 
BRANCH  15  17
ATOM     17  C   UNL     1      -5.179  -1.053   1.106  1.00  0.00    -0.012 A 
ATOM     18  C   UNL     1      -6.007  -0.324   0.241  1.00  0.00     0.009 A 
ATOM     19  C   UNL     1      -5.770  -1.681   2.218  1.00  0.00     0.056 A 
ATOM     20  C   UNL     1      -7.387  -0.253   0.466  1.00  0.00     0.004 A 
ATOM     21  C   UNL     1      -7.139  -1.598   2.453  1.00  0.00     0.133 A 
ATOM     22  C   UNL     1      -7.955  -0.895   1.568  1.00  0.00     0.047 A 
BRANCH  21  23
ATOM     23  O   UNL     1      -7.796  -2.212   3.550  1.00  0.00    -0.410 OA
BRANCH  23  24
ATOM     24  C   UNL     1      -7.147  -2.737   4.664  1.00  0.00     0.412 C 
ATOM     25  O   UNL     1      -5.934  -2.788   4.855  1.00  0.00    -0.224 OA
ATOM     26  N   UNL     1      -7.984  -3.207   5.630  1.00  0.00    -0.321 N 
ATOM     27  H   UNL     1      -7.550  -3.555   6.442  1.00  0.00     0.167 HD
BRANCH  26  28
ATOM     28  C   UNL     1      -9.428  -3.260   5.616  1.00  0.00     0.119 C 
BRANCH  28  29
ATOM     29  C   UNL     1      -9.931  -4.706   5.643  1.00  0.00     0.025 C 
BRANCH  29  30
ATOM     30  C   UNL     1      -9.499  -5.514   6.887  1.00  0.00    -0.009 C 
ATOM     31  C   UNL     1     -10.146  -4.980   8.176  1.00  0.00     0.003 C 
ATOM     32  C   UNL     1      -9.835  -7.002   6.686  1.00  0.00     0.003 C 
ATOM     33  C   UNL     1      -9.795  -5.834   9.393  1.00  0.00     0.000 C 
ATOM     34  C   UNL     1      -9.462  -7.838   7.908  1.00  0.00     0.000 C 
ATOM     35  C   UNL     1     -10.129  -7.304   9.170  1.00  0.00     0.000 C 
ENDBRANCH  29  30
ENDBRANCH  28  29
ENDBRANCH  26  28
ENDBRANCH  23  24
ENDBRANCH  21  23
ENDBRANCH  15  17
ENDBRANCH   8  10
ENDBRANCH   6   8
ENDBRANCH   5   6
ENDBRANCH   4   5
ENDBRANCH   3   4
ENDBRANCH   2   3
ENDBRANCH   1   2
BRANCH   1  36
ATOM     36  C   UNL     1       1.155   1.500   2.371  1.00  0.00     0.188 C 
BRANCH  36  37
ATOM     37  O   UNL     1       2.538   1.505   2.655  1.00  0.00    -0.377 OA
BRANCH  37  38
ATOM     38  C   UNL     1       3.079   2.704   3.186  1.00  0.00     0.188 C 
BRANCH  38  39
ATOM     39  C   UNL     1       2.204   3.534   4.144  1.00  0.00     0.188 C 
BRANCH  39  40
ATOM     40  O   UNL     1       0.892   3.798   3.656  1.00  0.00    -0.376 OA
BRANCH  40  41
ATOM     41  C   UNL     1       0.633   5.050   3.040  1.00  0.00     0.202 C 
BRANCH  41  42
ATOM     42  C   UNL     1       1.288   5.321   1.674  1.00  0.00     0.261 C 
BRANCH  42  43
ATOM     43  O   UNL     1       2.720   5.263   1.626  1.00  0.00    -0.460 OA
BRANCH  43  44
ATOM     44  C   UNL     1       3.411   6.091   2.439  1.00  0.00     0.338 C 
ATOM     45  O   UNL     1       2.950   6.941   3.177  1.00  0.00    -0.246 OA
BRANCH  44  46
ATOM     46  C   UNL     1       4.823   5.648   2.438  1.00  0.00     0.060 A 
ATOM     47  C   UNL     1       5.410   5.259   3.649  1.00  0.00     0.016 A 
ATOM     48  C   UNL     1       5.556   5.599   1.250  1.00  0.00     0.016 A 
ATOM     49  C   UNL     1       6.744   4.855   3.682  1.00  0.00     0.010 A 
ATOM     50  C   UNL     1       6.901   5.220   1.288  1.00  0.00     0.010 A 
ATOM     51  C   UNL     1       7.510   4.880   2.509  1.00  0.00    -0.014 A 
BRANCH  51  52
ATOM     52  C   UNL     1       8.986   4.763   2.595  1.00  0.00     0.031 A 
ATOM     53  C   UNL     1       9.799   6.030   2.587  1.00  0.00     0.074 A 
ATOM     54  C   UNL     1       9.594   3.569   2.708  1.00  0.00     0.049 A 
ATOM     55  N   UNL     1      11.096   6.186   2.586  1.00  0.00    -0.248 NA
ATOM     56  C   UNL     1       9.040   7.293   2.578  1.00  0.00     0.031 C 
ATOM     57  C   UNL     1       8.914   2.277   2.776  1.00  0.00     0.029 A 
ATOM     58  N   UNL     1      10.928   3.252   2.776  1.00  0.00    -0.354 N 
ATOM     59  C   UNL     1      11.310   7.560   2.577  1.00  0.00     0.074 A 
ATOM     60  C   UNL     1      10.011   8.192   2.531  1.00  0.00     0.031 C 
ATOM     61  C   UNL     1       9.838   1.303   2.856  1.00  0.00     0.029 A 
ATOM     62  C   UNL     1      11.173   1.900   2.809  1.00  0.00     0.049 A 
ATOM     63  H   UNL     1      11.642   3.929   2.798  1.00  0.00     0.167 HD
ATOM     64  C   UNL     1      12.483   8.233   2.618  1.00  0.00     0.037 A 
ATOM     65  C   UNL     1      12.339   1.223   2.777  1.00  0.00     0.037 A 
ATOM     66  C   UNL     1      13.774   7.596   2.652  1.00  0.00     0.049 A 
ATOM     67  C   UNL     1      13.637   1.990   2.738  1.00  0.00     0.074 A 
ATOM     68  C   UNL     1      15.024   8.188   2.682  1.00  0.00     0.029 A 
ATOM     69  N   UNL     1      13.981   6.224   2.658  1.00  0.00    -0.354 N 
ATOM     70  N   UNL     1      13.828   3.289   2.724  1.00  0.00    -0.248 NA
ATOM     71  C   UNL     1      14.878   1.203   2.716  1.00  0.00     0.031 C 
ATOM     72  C   UNL     1      15.987   7.175   2.652  1.00  0.00     0.029 A 
ATOM     73  C   UNL     1      15.338   5.951   2.671  1.00  0.00     0.049 A 
ATOM     74  H   UNL     1      13.268   5.545   2.653  1.00  0.00     0.167 HD
ATOM     75  C   UNL     1      15.208   3.473   2.721  1.00  0.00     0.074 A 
ATOM     76  C   UNL     1      15.803   2.153   2.745  1.00  0.00     0.031 C 
ATOM     77  C   UNL     1      15.918   4.630   2.702  1.00  0.00     0.037 A 
BRANCH  64  78
ATOM     78  C   UNL     1      12.425   9.736   2.610  1.00  0.00     0.058 A 
ATOM     79  C   UNL     1      11.952  10.462   3.715  1.00  0.00     0.135 A 
ATOM     80  C   UNL     1      12.880  10.462   1.497  1.00  0.00     0.135 A 
ATOM     81  F   UNL     1      11.482   9.819   4.796  1.00  0.00    -0.206 F 
ATOM     82  C   UNL     1      11.916  11.853   3.711  1.00  0.00     0.059 A 
ATOM     83  C   UNL     1      12.882  11.854   1.483  1.00  0.00     0.059 A 
ATOM     84  F   UNL     1      13.335   9.819   0.410  1.00  0.00    -0.206 F 
ATOM     85  C   UNL     1      12.388  12.540   2.591  1.00  0.00     0.060 A 
BRANCH  85  86
ATOM     86  S   UNL     1      12.353  14.344   2.612  1.00  0.00     0.124 S 
ATOM     87  O   UNL     1      10.919  14.609   2.532  1.00  0.00    -0.237 OA
ATOM     88  O   UNL     1      12.983  14.651   3.892  1.00  0.00    -0.237 OA
ATOM     89  O   UNL     1      13.125  14.715   1.430  1.00  0.00    -0.744 OA
ENDBRANCH  85  86
ENDBRANCH  64  78
BRANCH  65  90
ATOM     90  C   UNL     1      12.331  -0.265   2.760  1.00  0.00     0.058 A 
ATOM     91  C   UNL     1      12.795  -1.012   3.853  1.00  0.00     0.135 A 
ATOM     92  C   UNL     1      11.842  -0.972   1.649  1.00  0.00     0.135 A 
ATOM     93  F   UNL     1      13.288  -0.385   4.932  1.00  0.00    -0.206 F 
ATOM     94  C   UNL     1      12.780  -2.403   3.845  1.00  0.00     0.059 A 
ATOM     95  C   UNL     1      11.790  -2.362   1.629  1.00  0.00     0.059 A 
ATOM     96  F   UNL     1      11.381  -0.307   0.578  1.00  0.00    -0.206 F 
ATOM     97  C   UNL     1      12.267  -3.070   2.731  1.00  0.00     0.060 A 
BRANCH  97  98
ATOM     98  S   UNL     1      12.186  -4.874   2.762  1.00  0.00     0.124 S 
ATOM     99  O   UNL     1      13.595  -5.234   2.664  1.00  0.00    -0.237 OA
ATOM    100  O   UNL     1      11.550  -5.126   4.051  1.00  0.00    -0.237 OA
ATOM    101  O   UNL     1      11.370  -5.194   1.595  1.00  0.00    -0.744 OA
ENDBRANCH  97  98
ENDBRANCH  65  90
BRANCH  77 102
ATOM    102  C   UNL     1      17.421   4.532   2.750  1.00  0.00     0.058 A 
ATOM    103  C   UNL     1      18.170   4.069   1.658  1.00  0.00     0.135 A 
ATOM    104  C   UNL     1      18.123   4.970   3.886  1.00  0.00     0.135 A 
ATOM    105  F   UNL     1      17.552   3.635   0.548  1.00  0.00    -0.206 F 
ATOM    106  C   UNL     1      19.561   4.021   1.698  1.00  0.00     0.059 A 
ATOM    107  C   UNL     1      19.513   4.961   3.936  1.00  0.00     0.059 A 
ATOM    108  F   UNL     1      17.457   5.435   4.955  1.00  0.00    -0.206 F 
ATOM    109  C   UNL     1      20.224   4.473   2.841  1.00  0.00     0.060 A 
BRANCH 109 110
ATOM    110  S   UNL     1      22.028   4.435   2.866  1.00  0.00     0.124 S 
ATOM    111  O   UNL     1      22.292   3.003   2.965  1.00  0.00    -0.237 OA
ATOM    112  O   UNL     1      22.370   5.056   1.589  1.00  0.00    -0.237 OA
ATOM    113  O   UNL     1      22.370   5.219   4.049  1.00  0.00    -0.744 OA
ENDBRANCH 109 110
ENDBRANCH  77 102
ENDBRANCH  51  52
ENDBRANCH  44  46
ENDBRANCH  43  44
ENDBRANCH  42  43
ENDBRANCH  41  42
ENDBRANCH  40  41
ENDBRANCH  39  40
ENDBRANCH  38  39
ENDBRANCH  37  38
ENDBRANCH  36  37
ENDBRANCH   1  36
TORSDOF 30
