REMARK SMILES CS(=O)(=O)c1ccc(N2N=C(C(=O)OCCOCCOCCOCCOC(=O)c3ccc(-c4c5nc(c(-c6c(F)cc(S(=O)(=O)[O-])cc6F)c6ccc([nH]6)c(-c6c(F)cc(S(=O)(=O)[O-])cc6F)c6nc(c(-c7c(F)cc(S(=O)(=O)[O-])cc7F)c7ccc4[nH]7)C=C6)C=C5)cc3)C[C@H]2c2ccco2)cc1
REMARK SMILES IDX 21 1 20 2 19 3 18 4 17 5 16 6 15 7 14 8 12 9 13 10 11 11
REMARK SMILES IDX 9 12 10 13 96 14 95 15 8 16 5 17 6 18 103 19 7 20 102 21
REMARK SMILES IDX 2 22 1 23 3 24 4 25 97 26 98 27 101 28 99 29 100 30 22 31
REMARK SMILES IDX 23 32 24 33 25 34 26 35 27 36 28 37 29 38 30 39 94 40 31 41
REMARK SMILES IDX 93 42 32 43 33 44 34 45 87 46 35 47 92 48 86 49 88 50 36 51
REMARK SMILES IDX 91 52 85 53 84 54 37 56 71 57 50 58 70 59 51 60 54 61 69 62
REMARK SMILES IDX 89 63 52 64 53 65 68 67 90 68 55 69 38 70 39 71 48 72 40 73
REMARK SMILES IDX 41 74 47 75 49 76 42 77 43 78 44 79 45 80 46 81 72 82 73 83
REMARK SMILES IDX 82 84 74 85 75 86 81 87 83 88 76 89 77 90 78 91 79 92 80 93
REMARK SMILES IDX 56 94 57 95 66 96 58 97 59 98 65 99 67 100 60 101 61 102
REMARK SMILES IDX 62 103 63 104 64 105
REMARK H PARENT 88 55 54 66
REMARK Flexibility Score: inf
ROOT
ATOM      1  C   UNL     1       2.661  -5.912  10.446  1.00  0.00     0.188 C 
ENDROOT
BRANCH   1   2
ATOM      2  O   UNL     1       2.516  -4.591   9.918  1.00  0.00    -0.377 OA
BRANCH   2   3
ATOM      3  C   UNL     1       2.684  -4.388   8.524  1.00  0.00     0.188 C 
BRANCH   3   4
ATOM      4  C   UNL     1       4.148  -4.387   8.047  1.00  0.00     0.188 C 
BRANCH   4   5
ATOM      5  O   UNL     1       5.024  -5.077   8.918  1.00  0.00    -0.376 OA
BRANCH   5   6
ATOM      6  C   UNL     1       5.758  -4.393   9.921  1.00  0.00     0.202 C 
BRANCH   6   7
ATOM      7  C   UNL     1       5.216  -3.198  10.729  1.00  0.00     0.261 C 
BRANCH   7   8
ATOM      8  O   UNL     1       4.191  -2.424  10.110  1.00  0.00    -0.459 OA
BRANCH   8   9
ATOM      9  C   UNL     1       4.562  -1.394   9.334  1.00  0.00     0.354 C 
ATOM     10  O   UNL     1       5.681  -0.973   9.125  1.00  0.00    -0.245 OA
BRANCH   9  11
ATOM     11  C   UNL     1       3.333  -0.948   8.580  1.00  0.00     0.148 C 
ATOM     12  N   UNL     1       2.032  -0.455   6.986  1.00  0.00    -0.254 N 
ATOM     13  N   UNL     1       3.303  -0.850   7.283  1.00  0.00    -0.169 NA
ATOM     14  C   UNL     1       1.291   0.007   8.179  1.00  0.00     0.180 C 
ATOM     15  C   UNL     1       2.029  -0.754   9.290  1.00  0.00     0.101 C 
BRANCH  12  16
ATOM     16  C   UNL     1       1.716  -0.127   5.677  1.00  0.00     0.060 A 
ATOM     17  C   UNL     1       0.960   0.538   3.048  1.00  0.00     0.067 A 
ATOM     18  C   UNL     1       0.823  -0.778   3.495  1.00  0.00     0.022 A 
ATOM     19  C   UNL     1       1.513   1.510   3.881  1.00  0.00     0.022 A 
ATOM     20  C   UNL     1       1.209  -1.102   4.804  1.00  0.00     0.029 A 
ATOM     21  C   UNL     1       1.902   1.167   5.179  1.00  0.00     0.029 A 
BRANCH  17  22
ATOM     22  S   UNL     1       0.379   1.007   1.436  1.00  0.00     0.175 S 
ATOM     23  C   UNL     1       1.121  -0.133   0.304  1.00  0.00     0.163 C 
ATOM     24  O   UNL     1       0.928   2.317   1.134  1.00  0.00    -0.224 OA
ATOM     25  O   UNL     1      -1.054   0.785   1.427  1.00  0.00    -0.224 OA
ENDBRANCH  17  22
ENDBRANCH  12  16
BRANCH  14  26
ATOM     26  C   UNL     1       1.276   1.488   8.450  1.00  0.00     0.128 A 
ATOM     27  C   UNL     1       0.573   2.544   7.903  1.00  0.00     0.048 A 
ATOM     28  O   UNL     1       2.088   1.956   9.446  1.00  0.00    -0.467 OA
ATOM     29  C   UNL     1       0.997   3.710   8.585  1.00  0.00     0.042 A 
ATOM     30  C   UNL     1       1.901   3.294   9.531  1.00  0.00     0.195 A 
ENDBRANCH  14  26
ENDBRANCH   9  11
ENDBRANCH   8   9
ENDBRANCH   7   8
ENDBRANCH   6   7
ENDBRANCH   5   6
ENDBRANCH   4   5
ENDBRANCH   3   4
ENDBRANCH   2   3
ENDBRANCH   1   2
BRANCH   1  31
ATOM     31  C   UNL     1       3.214  -7.092   9.608  1.00  0.00     0.188 C 
BRANCH  31  32
ATOM     32  O   UNL     1       2.914  -7.034   8.222  1.00  0.00    -0.376 OA
BRANCH  32  33
ATOM     33  C   UNL     1       1.901  -7.886   7.716  1.00  0.00     0.202 C 
BRANCH  33  34
ATOM     34  C   UNL     1       0.471  -7.621   8.206  1.00  0.00     0.261 C 
BRANCH  34  35
ATOM     35  O   UNL     1       0.276  -7.668   9.627  1.00  0.00    -0.460 OA
BRANCH  35  36
ATOM     36  C   UNL     1       0.507  -8.849  10.241  1.00  0.00     0.338 C 
ATOM     37  O   UNL     1       0.846  -9.896   9.714  1.00  0.00    -0.246 OA
BRANCH  36  38
ATOM     38  C   UNL     1       0.460  -8.615  11.698  1.00  0.00     0.060 A 
ATOM     39  C   UNL     1       1.595  -8.898  12.470  1.00  0.00     0.016 A 
ATOM     40  C   UNL     1      -0.700  -8.120  12.298  1.00  0.00     0.016 A 
ATOM     41  C   UNL     1       1.556  -8.725  13.854  1.00  0.00     0.010 A 
ATOM     42  C   UNL     1      -0.742  -7.964  13.686  1.00  0.00     0.010 A 
ATOM     43  C   UNL     1       0.373  -8.301  14.474  1.00  0.00    -0.014 A 
BRANCH  43  44
ATOM     44  C   UNL     1       0.237  -8.394  15.949  1.00  0.00     0.031 A 
ATOM     45  C   UNL     1      -0.493  -9.579  16.524  1.00  0.00     0.074 A 
ATOM     46  C   UNL     1       0.760  -7.460  16.763  1.00  0.00     0.049 A 
ATOM     47  N   UNL     1      -0.782  -9.852  17.770  1.00  0.00    -0.248 NA
ATOM     48  C   UNL     1      -0.963 -10.589  15.562  1.00  0.00     0.031 C 
ATOM     49  C   UNL     1       1.518  -6.288  16.328  1.00  0.00     0.029 A 
ATOM     50  N   UNL     1       0.722  -7.348  18.131  1.00  0.00    -0.354 N 
ATOM     51  C   UNL     1      -1.475 -11.057  17.740  1.00  0.00     0.074 A 
ATOM     52  C   UNL     1      -1.591 -11.446  16.352  1.00  0.00     0.031 C 
ATOM     53  C   UNL     1       1.862  -5.567  17.410  1.00  0.00     0.029 A 
ATOM     54  C   UNL     1       1.321  -6.207  18.608  1.00  0.00     0.049 A 
ATOM     55  H   UNL     1       0.306  -8.023  18.715  1.00  0.00     0.167 HD
ATOM     56  C   UNL     1      -1.963 -11.779  18.777  1.00  0.00     0.037 A 
ATOM     57  C   UNL     1       1.399  -5.723  19.865  1.00  0.00     0.037 A 
ATOM     58  C   UNL     1      -1.844 -11.385  20.157  1.00  0.00     0.049 A 
ATOM     59  C   UNL     1       0.791  -6.511  20.999  1.00  0.00     0.074 A 
ATOM     60  C   UNL     1      -2.287 -12.057  21.283  1.00  0.00     0.029 A 
ATOM     61  N   UNL     1      -1.251 -10.212  20.599  1.00  0.00    -0.354 N 
ATOM     62  N   UNL     1       0.162  -7.663  20.961  1.00  0.00    -0.248 NA
ATOM     63  C   UNL     1       0.908  -5.938  22.347  1.00  0.00     0.031 C 
ATOM     64  C   UNL     1      -2.015 -11.261  22.401  1.00  0.00     0.029 A 
ATOM     65  C   UNL     1      -1.341 -10.127  21.979  1.00  0.00     0.049 A 
ATOM     66  H   UNL     1      -0.828  -9.539  20.018  1.00  0.00     0.167 HD
ATOM     67  C   UNL     1      -0.161  -7.966  22.282  1.00  0.00     0.074 A 
ATOM     68  C   UNL     1       0.351  -6.882  23.093  1.00  0.00     0.031 C 
ATOM     69  C   UNL     1      -0.819  -9.044  22.777  1.00  0.00     0.037 A 
BRANCH  56  70
ATOM     70  C   UNL     1      -2.698 -13.053  18.457  1.00  0.00     0.058 A 
ATOM     71  C   UNL     1      -2.038 -14.188  17.962  1.00  0.00     0.135 A 
ATOM     72  C   UNL     1      -4.081 -13.148  18.682  1.00  0.00     0.135 A 
ATOM     73  F   UNL     1      -0.720 -14.148  17.708  1.00  0.00    -0.206 F 
ATOM     74  C   UNL     1      -2.726 -15.364  17.677  1.00  0.00     0.059 A 
ATOM     75  C   UNL     1      -4.784 -14.323  18.434  1.00  0.00     0.059 A 
ATOM     76  F   UNL     1      -4.764 -12.091  19.150  1.00  0.00    -0.206 F 
ATOM     77  C   UNL     1      -4.099 -15.422  17.919  1.00  0.00     0.060 A 
BRANCH  77  78
ATOM     78  S   UNL     1      -4.975 -16.957  17.554  1.00  0.00     0.124 S 
ATOM     79  O   UNL     1      -4.953 -16.965  16.095  1.00  0.00    -0.237 OA
ATOM     80  O   UNL     1      -4.134 -17.956  18.206  1.00  0.00    -0.237 OA
ATOM     81  O   UNL     1      -6.287 -16.754  18.160  1.00  0.00    -0.744 OA
ENDBRANCH  77  78
ENDBRANCH  56  70
BRANCH  57  82
ATOM     82  C   UNL     1       2.067  -4.417  20.122  1.00  0.00     0.058 A 
ATOM     83  C   UNL     1       3.269  -4.343  20.842  1.00  0.00     0.135 A 
ATOM     84  C   UNL     1       1.510  -3.214  19.658  1.00  0.00     0.135 A 
ATOM     85  F   UNL     1       3.835  -5.461  21.320  1.00  0.00    -0.206 F 
ATOM     86  C   UNL     1       3.887  -3.124  21.107  1.00  0.00     0.059 A 
ATOM     87  C   UNL     1       2.125  -1.987  19.884  1.00  0.00     0.059 A 
ATOM     88  F   UNL     1       0.366  -3.228  18.958  1.00  0.00    -0.206 F 
ATOM     89  C   UNL     1       3.309  -1.951  20.618  1.00  0.00     0.060 A 
BRANCH  89  90
ATOM     90  S   UNL     1       4.148  -0.381  20.922  1.00  0.00     0.124 S 
ATOM     91  O   UNL     1       3.927  -0.199  22.351  1.00  0.00    -0.237 OA
ATOM     92  O   UNL     1       5.518  -0.686  20.520  1.00  0.00    -0.237 OA
ATOM     93  O   UNL     1       3.441   0.552  20.049  1.00  0.00    -0.744 OA
ENDBRANCH  89  90
ENDBRANCH  57  82
BRANCH  69  94
ATOM     94  C   UNL     1      -0.984  -9.136  24.272  1.00  0.00     0.058 A 
ATOM     95  C   UNL     1      -1.849  -8.286  24.980  1.00  0.00     0.135 A 
ATOM     96  C   UNL     1      -0.303 -10.127  25.000  1.00  0.00     0.135 A 
ATOM     97  F   UNL     1      -2.523  -7.320  24.336  1.00  0.00    -0.206 F 
ATOM     98  C   UNL     1      -2.007  -8.394  26.358  1.00  0.00     0.059 A 
ATOM     99  C   UNL     1      -0.472 -10.274  26.373  1.00  0.00     0.059 A 
ATOM    100  F   UNL     1       0.526 -10.977  24.373  1.00  0.00    -0.206 F 
ATOM    101  C   UNL     1      -1.316  -9.393  27.046  1.00  0.00     0.060 A 
BRANCH 101 102
ATOM    102  S   UNL     1      -1.549  -9.536  28.831  1.00  0.00     0.124 S 
ATOM    103  O   UNL     1      -0.829  -8.364  29.316  1.00  0.00    -0.237 OA
ATOM    104  O   UNL     1      -3.002  -9.486  28.960  1.00  0.00    -0.237 OA
ATOM    105  O   UNL     1      -0.941 -10.824  29.152  1.00  0.00    -0.744 OA
ENDBRANCH 101 102
ENDBRANCH  69  94
ENDBRANCH  43  44
ENDBRANCH  36  38
ENDBRANCH  35  36
ENDBRANCH  34  35
ENDBRANCH  33  34
ENDBRANCH  32  33
ENDBRANCH  31  32
ENDBRANCH   1  31
TORSDOF 26
