REMARK SMILES CC[C@@](O)(C(=O)OCCOCCOCCOCCOC(=O)c1ccc(-c2c3nc(c(-c4c(F)cc(S(=O)(=O)[O-])cc4F)c4ccc([nH]4)c(-c4c(F)cc(S(=O)(=O)[O-])cc4F)c4nc(c(-c5c(F)cc(S(=O)(=O)[O-])cc5F)c5ccc2[nH]5)C=C4)C=C3)cc1)[C@H]1CCc2ccc(OC)cc21
REMARK SMILES IDX 14 1 13 2 12 3 11 4 10 5 9 6 8 7 7 8 5 9 6 10 3 11 2 12 1 13
REMARK SMILES IDX 4 14 88 16 89 17 98 18 90 19 91 20 97 21 92 22 94 23 93 24
REMARK SMILES IDX 95 25 96 26 15 27 16 28 17 29 18 30 19 31 20 32 21 33 22 34
REMARK SMILES IDX 23 35 87 36 24 37 86 38 25 39 26 40 27 41 80 42 28 43 85 44
REMARK SMILES IDX 79 45 81 46 29 47 84 48 78 49 77 50 30 52 64 53 43 54 63 55
REMARK SMILES IDX 44 56 47 57 62 58 82 59 45 60 46 61 61 63 83 64 48 65 31 66
REMARK SMILES IDX 32 67 41 68 33 69 34 70 40 71 42 72 35 73 36 74 37 75 38 76
REMARK SMILES IDX 39 77 65 78 66 79 75 80 67 81 68 82 74 83 76 84 69 85 70 86
REMARK SMILES IDX 71 87 72 88 73 89 49 90 50 91 59 92 51 93 52 94 58 95 60 96
REMARK SMILES IDX 53 97 54 98 55 99 56 100 57 101
REMARK H PARENT 4 15 81 51 47 62
REMARK Flexibility Score: inf
ROOT
ATOM      1  C   UNL     1       2.730  -5.005  -5.478  1.00  0.00     0.188 C 
ENDROOT
BRANCH   1   2
ATOM      2  O   UNL     1       2.407  -3.655  -5.731  1.00  0.00    -0.377 OA
BRANCH   2   3
ATOM      3  C   UNL     1       1.899  -2.935  -4.646  1.00  0.00     0.188 C 
BRANCH   3   4
ATOM      4  C   UNL     1       0.419  -2.572  -4.794  1.00  0.00     0.188 C 
BRANCH   4   5
ATOM      5  O   UNL     1      -0.119  -2.513  -6.099  1.00  0.00    -0.376 OA
BRANCH   5   6
ATOM      6  C   UNL     1       0.653  -1.799  -7.059  1.00  0.00     0.202 C 
BRANCH   6   7
ATOM      7  C   UNL     1       1.161  -0.383  -6.680  1.00  0.00     0.261 C 
BRANCH   7   8
ATOM      8  O   UNL     1       2.030  -0.299  -5.505  1.00  0.00    -0.461 OA
BRANCH   8   9
ATOM      9  C   UNL     1       1.722   0.542  -4.468  1.00  0.00     0.338 C 
ATOM     10  O   UNL     1       0.757   1.300  -4.497  1.00  0.00    -0.249 OA
BRANCH   9  11
ATOM     11  C   UNL     1       2.755   0.523  -3.237  1.00  0.00     0.168 C 
BRANCH  11  12
ATOM     12  C   UNL     1       4.132  -0.120  -3.583  1.00  0.00     0.044 C 
ATOM     13  C   UNL     1       5.357   0.782  -3.396  1.00  0.00     0.007 C 
ENDBRANCH  11  12
BRANCH  11  14
ATOM     14  O   UNL     1       3.000   1.941  -2.980  1.00  0.00    -0.378 OA
ATOM     15  H   UNL     1       3.413   2.344  -3.760  1.00  0.00     0.212 HD
ENDBRANCH  11  14
BRANCH  11  16
ATOM     16  C   UNL     1       2.082   0.027  -1.869  1.00  0.00     0.063 C 
ATOM     17  C   UNL     1       1.192  -1.228  -1.959  1.00  0.00     0.017 C 
ATOM     18  C   UNL     1       2.921  -0.421  -0.666  1.00  0.00    -0.035 A 
ATOM     19  C   UNL     1       0.958  -1.778  -0.558  1.00  0.00     0.036 C 
ATOM     20  C   UNL     1       2.300  -1.490   0.016  1.00  0.00    -0.044 A 
ATOM     21  C   UNL     1       4.090   0.097  -0.142  1.00  0.00     0.050 A 
ATOM     22  C   UNL     1       2.874  -2.134   1.103  1.00  0.00     0.008 A 
ATOM     23  C   UNL     1       4.669  -0.528   0.976  1.00  0.00     0.119 A 
ATOM     24  C   UNL     1       4.096  -1.664   1.561  1.00  0.00     0.047 A 
BRANCH  23  25
ATOM     25  O   UNL     1       5.829  -0.087   1.557  1.00  0.00    -0.497 OA
ATOM     26  C   UNL     1       5.778   1.302   1.869  1.00  0.00     0.278 C 
ENDBRANCH  23  25
ENDBRANCH  11  16
ENDBRANCH   9  11
ENDBRANCH   8   9
ENDBRANCH   7   8
ENDBRANCH   6   7
ENDBRANCH   5   6
ENDBRANCH   4   5
ENDBRANCH   3   4
ENDBRANCH   2   3
ENDBRANCH   1   2
BRANCH   1  27
ATOM     27  C   UNL     1       1.894  -5.749  -4.420  1.00  0.00     0.188 C 
BRANCH  27  28
ATOM     28  O   UNL     1       2.119  -5.487  -3.026  1.00  0.00    -0.376 OA
BRANCH  28  29
ATOM     29  C   UNL     1       3.420  -5.136  -2.548  1.00  0.00     0.202 C 
BRANCH  29  30
ATOM     30  C   UNL     1       4.418  -6.283  -2.429  1.00  0.00     0.261 C 
BRANCH  30  31
ATOM     31  O   UNL     1       4.961  -6.592  -3.720  1.00  0.00    -0.460 OA
BRANCH  31  32
ATOM     32  C   UNL     1       4.467  -7.703  -4.311  1.00  0.00     0.338 C 
ATOM     33  O   UNL     1       3.736  -8.542  -3.810  1.00  0.00    -0.246 OA
BRANCH  32  34
ATOM     34  C   UNL     1       4.739  -7.611  -5.759  1.00  0.00     0.060 A 
ATOM     35  C   UNL     1       3.692  -7.923  -6.639  1.00  0.00     0.016 A 
ATOM     36  C   UNL     1       5.971  -7.163  -6.248  1.00  0.00     0.016 A 
ATOM     37  C   UNL     1       3.879  -7.813  -8.011  1.00  0.00     0.010 A 
ATOM     38  C   UNL     1       6.172  -7.093  -7.625  1.00  0.00     0.010 A 
ATOM     39  C   UNL     1       5.138  -7.456  -8.505  1.00  0.00    -0.014 A 
BRANCH  39  40
ATOM     40  C   UNL     1       5.446  -7.744  -9.918  1.00  0.00     0.031 A 
ATOM     41  C   UNL     1       6.040  -9.090 -10.226  1.00  0.00     0.074 A 
ATOM     42  C   UNL     1       5.173  -6.859 -10.890  1.00  0.00     0.049 A 
ATOM     43  N   UNL     1       6.421  -9.588 -11.370  1.00  0.00    -0.248 NA
ATOM     44  C   UNL     1       6.230  -9.999  -9.080  1.00  0.00     0.031 C 
ATOM     45  C   UNL     1       4.551  -5.550 -10.694  1.00  0.00     0.029 A 
ATOM     46  N   UNL     1       5.392  -6.931 -12.240  1.00  0.00    -0.354 N 
ATOM     47  C   UNL     1       6.901 -10.860 -11.082  1.00  0.00     0.074 A 
ATOM     48  C   UNL     1       6.790 -11.051  -9.655  1.00  0.00     0.031 C 
ATOM     49  C   UNL     1       4.450  -4.935 -11.886  1.00  0.00     0.029 A 
ATOM     50  C   UNL     1       5.026  -5.795 -12.919  1.00  0.00     0.049 A 
ATOM     51  H   UNL     1       5.774  -7.723 -12.682  1.00  0.00     0.167 HD
ATOM     52  C   UNL     1       7.385 -11.788 -11.938  1.00  0.00     0.037 A 
ATOM     53  C   UNL     1       5.165  -5.487 -14.223  1.00  0.00     0.037 A 
ATOM     54  C   UNL     1       7.497 -11.574 -13.355  1.00  0.00     0.049 A 
ATOM     55  C   UNL     1       5.777  -6.511 -15.147  1.00  0.00     0.074 A 
ATOM     56  C   UNL     1       7.963 -12.444 -14.322  1.00  0.00     0.029 A 
ATOM     57  N   UNL     1       7.148 -10.398 -14.004  1.00  0.00    -0.354 N 
ATOM     58  N   UNL     1       6.205  -7.721 -14.872  1.00  0.00    -0.248 NA
ATOM     59  C   UNL     1       5.923  -6.129 -16.558  1.00  0.00     0.031 C 
ATOM     60  C   UNL     1       7.950 -11.773 -15.548  1.00  0.00     0.029 A 
ATOM     61  C   UNL     1       7.416 -10.508 -15.356  1.00  0.00     0.049 A 
ATOM     62  H   UNL     1       6.766  -9.603 -13.566  1.00  0.00     0.167 HD
ATOM     63  C   UNL     1       6.640  -8.257 -16.080  1.00  0.00     0.074 A 
ATOM     64  C   UNL     1       6.416  -7.240 -17.088  1.00  0.00     0.031 C 
ATOM     65  C   UNL     1       7.173  -9.479 -16.337  1.00  0.00     0.037 A 
BRANCH  52  66
ATOM     66  C   UNL     1       7.863 -13.088 -11.356  1.00  0.00     0.058 A 
ATOM     67  C   UNL     1       6.975 -14.035 -10.820  1.00  0.00     0.135 A 
ATOM     68  C   UNL     1       9.233 -13.395 -11.342  1.00  0.00     0.135 A 
ATOM     69  F   UNL     1       5.657 -13.780 -10.781  1.00  0.00    -0.206 F 
ATOM     70  C   UNL     1       7.429 -15.230 -10.272  1.00  0.00     0.059 A 
ATOM     71  C   UNL     1       9.708 -14.596 -10.825  1.00  0.00     0.059 A 
ATOM     72  F   UNL     1      10.127 -12.520 -11.828  1.00  0.00    -0.206 F 
ATOM     73  C   UNL     1       8.799 -15.502 -10.281  1.00  0.00     0.060 A 
BRANCH  73  74
ATOM     74  S   UNL     1       9.372 -17.062  -9.577  1.00  0.00     0.124 S 
ATOM     75  O   UNL     1       9.165 -16.832  -8.151  1.00  0.00    -0.237 OA
ATOM     76  O   UNL     1       8.476 -18.032 -10.199  1.00  0.00    -0.237 OA
ATOM     77  O   UNL     1      10.766 -17.137 -10.005  1.00  0.00    -0.744 OA
ENDBRANCH  73  74
ENDBRANCH  52  66
BRANCH  53  78
ATOM     78  C   UNL     1       4.727  -4.159 -14.730  1.00  0.00     0.058 A 
ATOM     79  C   UNL     1       3.636  -4.038 -15.603  1.00  0.00     0.135 A 
ATOM     80  C   UNL     1       5.393  -2.981 -14.352  1.00  0.00     0.135 A 
ATOM     81  F   UNL     1       2.973  -5.134 -16.003  1.00  0.00    -0.206 F 
ATOM     82  C   UNL     1       3.229  -2.802 -16.096  1.00  0.00     0.059 A 
ATOM     83  C   UNL     1       4.987  -1.731 -14.810  1.00  0.00     0.059 A 
ATOM     84  F   UNL     1       6.437  -3.038 -13.511  1.00  0.00    -0.206 F 
ATOM     85  C   UNL     1       3.909  -1.653 -15.690  1.00  0.00     0.060 A 
BRANCH  85  86
ATOM     86  S   UNL     1       3.342  -0.049 -16.298  1.00  0.00     0.124 S 
ATOM     87  O   UNL     1       3.752  -0.102 -17.696  1.00  0.00    -0.237 OA
ATOM     88  O   UNL     1       1.905  -0.120 -16.049  1.00  0.00    -0.237 OA
ATOM     89  O   UNL     1       4.068   0.902 -15.462  1.00  0.00    -0.744 OA
ENDBRANCH  85  86
ENDBRANCH  53  78
BRANCH  65  90
ATOM     90  C   UNL     1       7.512  -9.800 -17.767  1.00  0.00     0.058 A 
ATOM     91  C   UNL     1       8.606  -9.213 -18.419  1.00  0.00     0.135 A 
ATOM     92  C   UNL     1       6.766 -10.762 -18.470  1.00  0.00     0.135 A 
ATOM     93  F   UNL     1       9.348  -8.286 -17.793  1.00  0.00    -0.206 F 
ATOM     94  C   UNL     1       8.936  -9.550 -19.728  1.00  0.00     0.059 A 
ATOM     95  C   UNL     1       7.097 -11.137 -19.767  1.00  0.00     0.059 A 
ATOM     96  F   UNL     1       5.718 -11.365 -17.886  1.00  0.00    -0.206 F 
ATOM     97  C   UNL     1       8.177 -10.516 -20.392  1.00  0.00     0.060 A 
BRANCH  97  98
ATOM     98  S   UNL     1       8.638 -10.969 -22.077  1.00  0.00     0.124 S 
ATOM     99  O   UNL     1       8.208  -9.792 -22.825  1.00  0.00    -0.237 OA
ATOM    100  O   UNL     1      10.081 -11.158 -21.965  1.00  0.00    -0.237 OA
ATOM    101  O   UNL     1       7.870 -12.185 -22.325  1.00  0.00    -0.744 OA
ENDBRANCH  97  98
ENDBRANCH  65  90
ENDBRANCH  39  40
ENDBRANCH  32  34
ENDBRANCH  31  32
ENDBRANCH  30  31
ENDBRANCH  29  30
ENDBRANCH  28  29
ENDBRANCH  27  28
ENDBRANCH   1  27
TORSDOF 27
