REMARK SMILES CNC(=O)C[N@@H+](C)CCn1cc(C(=O)OCCOCCOCCOCCOC(=O)c2ccc(-c3c4nc(c(-c5c(F)cc(S(=O)(=O)[O-])cc5F)c5ccc([nH]5)c(-c5c(F)cc(S(=O)(=O)[O-])cc5F)c5nc(c(-c6c(F)cc(S(=O)(=O)[O-])cc6F)c6ccc3[nH]6)C=C5)C=C4)cc2)nn1
REMARK SMILES IDX 20 1 19 2 18 3 17 4 16 5 15 6 13 7 14 8 12 9 10 10 11 11
REMARK SMILES IDX 97 12 96 13 9 14 8 15 6 16 7 17 5 19 3 20 1 21 2 22 4 24
REMARK SMILES IDX 21 25 22 26 23 27 24 28 25 29 26 30 27 31 28 32 29 33 30 34
REMARK SMILES IDX 31 35 95 36 32 37 94 38 33 39 34 40 35 41 88 42 36 43 93 44
REMARK SMILES IDX 87 45 89 46 37 47 92 48 86 49 85 50 38 52 72 53 51 54 71 55
REMARK SMILES IDX 52 56 55 57 70 58 90 59 53 60 54 61 69 63 91 64 56 65 39 66
REMARK SMILES IDX 40 67 49 68 41 69 42 70 48 71 50 72 43 73 44 74 45 75 46 76
REMARK SMILES IDX 47 77 73 78 74 79 83 80 75 81 76 82 82 83 84 84 77 85 78 86
REMARK SMILES IDX 79 87 80 88 81 89 57 90 58 91 67 92 59 93 60 94 66 95 68 96
REMARK SMILES IDX 61 97 62 98 63 99 64 100 65 101
REMARK H PARENT 6 18 2 23 89 51 55 62
REMARK Flexibility Score: inf
ROOT
ATOM      1  C   UNL     1      -3.557  -3.774   6.092  1.00  0.00     0.188 C 
ENDROOT
BRANCH   1   2
ATOM      2  C   UNL     1      -4.618  -3.688   4.967  1.00  0.00     0.188 C 
BRANCH   2   3
ATOM      3  O   UNL     1      -4.996  -4.815   4.178  1.00  0.00    -0.376 OA
BRANCH   3   4
ATOM      4  C   UNL     1      -4.087  -5.838   3.806  1.00  0.00     0.202 C 
BRANCH   4   5
ATOM      5  C   UNL     1      -2.789  -5.530   3.043  1.00  0.00     0.261 C 
BRANCH   5   6
ATOM      6  O   UNL     1      -2.038  -4.422   3.534  1.00  0.00    -0.458 OA
BRANCH   6   7
ATOM      7  C   UNL     1      -2.363  -3.225   2.969  1.00  0.00     0.360 C 
ATOM      8  O   UNL     1      -3.077  -3.095   1.979  1.00  0.00    -0.244 OA
BRANCH   7   9
ATOM      9  C   UNL     1      -1.921  -2.107   3.784  1.00  0.00     0.190 A 
ATOM     10  N   UNL     1      -0.781  -0.653   4.870  1.00  0.00    -0.246 N 
ATOM     11  C   UNL     1      -0.753  -1.966   4.509  1.00  0.00     0.147 A 
ATOM     12  N   UNL     1      -2.007  -0.125   4.715  1.00  0.00    -0.066 NA
ATOM     13  N   UNL     1      -2.696  -0.981   3.975  1.00  0.00    -0.123 NA
BRANCH  10  14
ATOM     14  C   UNL     1       0.354   0.213   5.062  1.00  0.00     0.207 C 
BRANCH  14  15
ATOM     15  C   UNL     1       1.183   0.416   3.770  1.00  0.00     0.286 C 
BRANCH  15  16
ATOM     16  N   UNL     1       0.648   1.169   2.610  1.00  0.00    -0.328 N 
ATOM     17  C   UNL     1       0.125   2.477   3.006  1.00  0.00     0.333 C 
ATOM     18  H   UNL     1       1.462   1.286   2.005  1.00  0.00     0.348 HD
BRANCH  16  19
ATOM     19  C   UNL     1      -0.362   0.452   1.795  1.00  0.00     0.363 C 
BRANCH  19  20
ATOM     20  C   UNL     1       0.179  -0.849   1.186  1.00  0.00     0.274 C 
ATOM     21  C   UNL     1       1.370   0.327  -0.693  1.00  0.00     0.143 C 
ATOM     22  N   UNL     1       0.888  -0.818   0.026  1.00  0.00    -0.354 N 
ATOM     23  H   UNL     1       1.097  -1.694  -0.372  1.00  0.00     0.163 HD
ATOM     24  O   UNL     1       0.017  -1.956   1.701  1.00  0.00    -0.269 OA
ENDBRANCH  19  20
ENDBRANCH  16  19
ENDBRANCH  15  16
ENDBRANCH  14  15
ENDBRANCH  10  14
ENDBRANCH   7   9
ENDBRANCH   6   7
ENDBRANCH   5   6
ENDBRANCH   4   5
ENDBRANCH   3   4
ENDBRANCH   2   3
ENDBRANCH   1   2
BRANCH   1  25
ATOM     25  O   UNL     1      -2.853  -5.000   6.143  1.00  0.00    -0.377 OA
BRANCH  25  26
ATOM     26  C   UNL     1      -3.334  -5.941   7.100  1.00  0.00     0.188 C 
BRANCH  26  27
ATOM     27  C   UNL     1      -4.868  -6.155   7.215  1.00  0.00     0.188 C 
BRANCH  27  28
ATOM     28  O   UNL     1      -5.656  -4.973   7.121  1.00  0.00    -0.376 OA
BRANCH  28  29
ATOM     29  C   UNL     1      -6.277  -4.388   8.254  1.00  0.00     0.202 C 
BRANCH  29  30
ATOM     30  C   UNL     1      -5.369  -3.734   9.293  1.00  0.00     0.261 C 
BRANCH  30  31
ATOM     31  O   UNL     1      -4.240  -4.519   9.620  1.00  0.00    -0.460 OA
BRANCH  31  32
ATOM     32  C   UNL     1      -4.517  -5.684  10.225  1.00  0.00     0.338 C 
ATOM     33  O   UNL     1      -5.623  -6.197  10.379  1.00  0.00    -0.246 OA
BRANCH  32  34
ATOM     34  C   UNL     1      -3.281  -6.209  10.789  1.00  0.00     0.060 A 
ATOM     35  C   UNL     1      -3.393  -7.427  11.456  1.00  0.00     0.016 A 
ATOM     36  C   UNL     1      -2.222  -5.312  11.004  1.00  0.00     0.016 A 
ATOM     37  C   UNL     1      -2.630  -7.593  12.580  1.00  0.00     0.010 A 
ATOM     38  C   UNL     1      -1.483  -5.466  12.141  1.00  0.00     0.010 A 
ATOM     39  C   UNL     1      -1.784  -6.547  12.962  1.00  0.00    -0.014 A 
BRANCH  39  40
ATOM     40  C   UNL     1      -1.151  -6.638  14.251  1.00  0.00     0.031 A 
ATOM     41  C   UNL     1      -0.010  -7.567  14.224  1.00  0.00     0.074 A 
ATOM     42  C   UNL     1      -1.544  -5.876  15.287  1.00  0.00     0.049 A 
ATOM     43  N   UNL     1       0.048  -8.754  14.724  1.00  0.00    -0.248 NA
ATOM     44  C   UNL     1       1.103  -7.236  13.318  1.00  0.00     0.031 C 
ATOM     45  C   UNL     1      -2.480  -4.747  15.284  1.00  0.00     0.029 A 
ATOM     46  N   UNL     1      -1.097  -5.896  16.566  1.00  0.00    -0.354 N 
ATOM     47  C   UNL     1       1.325  -9.203  14.417  1.00  0.00     0.074 A 
ATOM     48  C   UNL     1       1.806  -8.367  13.352  1.00  0.00     0.031 C 
ATOM     49  C   UNL     1      -2.349  -4.060  16.444  1.00  0.00     0.029 A 
ATOM     50  C   UNL     1      -1.424  -4.771  17.310  1.00  0.00     0.049 A 
ATOM     51  H   UNL     1      -0.582  -6.649  16.938  1.00  0.00     0.167 HD
ATOM     52  C   UNL     1       2.004  -9.999  15.284  1.00  0.00     0.037 A 
ATOM     53  C   UNL     1      -0.890  -4.437  18.513  1.00  0.00     0.037 A 
ATOM     54  C   UNL     1       1.107 -10.613  16.232  1.00  0.00     0.049 A 
ATOM     55  C   UNL     1      -0.284  -5.676  19.076  1.00  0.00     0.074 A 
ATOM     56  C   UNL     1       0.022 -11.462  16.133  1.00  0.00     0.029 A 
ATOM     57  N   UNL     1       1.038 -10.048  17.483  1.00  0.00    -0.354 N 
ATOM     58  N   UNL     1      -0.977  -6.714  19.457  1.00  0.00    -0.248 NA
ATOM     59  C   UNL     1       1.119  -5.941  18.792  1.00  0.00     0.031 C 
ATOM     60  C   UNL     1      -0.876 -11.049  17.160  1.00  0.00     0.029 A 
ATOM     61  C   UNL     1      -0.277 -10.008  17.871  1.00  0.00     0.049 A 
ATOM     62  H   UNL     1       1.804  -9.726  18.012  1.00  0.00     0.167 HD
ATOM     63  C   UNL     1      -0.227  -7.813  19.061  1.00  0.00     0.074 A 
ATOM     64  C   UNL     1       1.096  -7.276  18.753  1.00  0.00     0.031 C 
ATOM     65  C   UNL     1      -0.833  -8.996  18.746  1.00  0.00     0.037 A 
BRANCH  52  66
ATOM     66  C   UNL     1       3.489  -9.872  15.529  1.00  0.00     0.058 A 
ATOM     67  C   UNL     1       4.128 -10.831  16.337  1.00  0.00     0.135 A 
ATOM     68  C   UNL     1       4.251  -8.714  15.243  1.00  0.00     0.135 A 
ATOM     69  F   UNL     1       3.495 -11.964  16.681  1.00  0.00    -0.206 F 
ATOM     70  C   UNL     1       5.396 -10.623  16.878  1.00  0.00     0.059 A 
ATOM     71  C   UNL     1       5.538  -8.515  15.721  1.00  0.00     0.059 A 
ATOM     72  F   UNL     1       3.761  -7.666  14.571  1.00  0.00    -0.206 F 
ATOM     73  C   UNL     1       6.086  -9.453  16.574  1.00  0.00     0.060 A 
BRANCH  73  74
ATOM     74  S   UNL     1       7.675  -9.127  17.350  1.00  0.00     0.124 S 
ATOM     75  O   UNL     1       7.277  -8.899  18.734  1.00  0.00    -0.237 OA
ATOM     76  O   UNL     1       8.398 -10.366  17.084  1.00  0.00    -0.237 OA
ATOM     77  O   UNL     1       8.164  -7.955  16.631  1.00  0.00    -0.744 OA
ENDBRANCH  73  74
ENDBRANCH  52  66
BRANCH  53  78
ATOM     78  C   UNL     1      -0.555  -3.084  19.033  1.00  0.00     0.058 A 
ATOM     79  C   UNL     1      -0.220  -2.892  20.386  1.00  0.00     0.135 A 
ATOM     80  C   UNL     1      -0.272  -2.010  18.165  1.00  0.00     0.135 A 
ATOM     81  F   UNL     1      -0.438  -3.869  21.279  1.00  0.00    -0.206 F 
ATOM     82  C   UNL     1       0.411  -1.729  20.841  1.00  0.00     0.059 A 
ATOM     83  C   UNL     1       0.348  -0.838  18.598  1.00  0.00     0.059 A 
ATOM     84  F   UNL     1      -0.500  -2.105  16.847  1.00  0.00    -0.206 F 
ATOM     85  C   UNL     1       0.713  -0.716  19.933  1.00  0.00     0.060 A 
BRANCH  85  86
ATOM     86  S   UNL     1       1.695   0.703  20.476  1.00  0.00     0.124 S 
ATOM     87  O   UNL     1       0.754   1.410  21.337  1.00  0.00    -0.237 OA
ATOM     88  O   UNL     1       2.818   0.061  21.150  1.00  0.00    -0.237 OA
ATOM     89  O   UNL     1       2.029   1.382  19.227  1.00  0.00    -0.744 OA
ENDBRANCH  85  86
ENDBRANCH  53  78
BRANCH  65  90
ATOM     90  C   UNL     1      -2.267  -9.181  19.172  1.00  0.00     0.058 A 
ATOM     91  C   UNL     1      -3.354  -8.438  18.676  1.00  0.00     0.135 A 
ATOM     92  C   UNL     1      -2.562 -10.252  20.029  1.00  0.00     0.135 A 
ATOM     93  F   UNL     1      -3.168  -7.464  17.774  1.00  0.00    -0.206 F 
ATOM     94  C   UNL     1      -4.670  -8.720  19.052  1.00  0.00     0.059 A 
ATOM     95  C   UNL     1      -3.867 -10.571  20.391  1.00  0.00     0.059 A 
ATOM     96  F   UNL     1      -1.574 -11.037  20.487  1.00  0.00    -0.206 F 
ATOM     97  C   UNL     1      -4.916  -9.790  19.912  1.00  0.00     0.060 A 
BRANCH  97  98
ATOM     98  S   UNL     1      -6.620 -10.200  20.348  1.00  0.00     0.124 S 
ATOM     99  O   UNL     1      -6.979  -9.107  21.245  1.00  0.00    -0.237 OA
ATOM    100  O   UNL     1      -7.289 -10.203  19.050  1.00  0.00    -0.237 OA
ATOM    101  O   UNL     1      -6.504 -11.513  20.980  1.00  0.00    -0.744 OA
ENDBRANCH  97  98
ENDBRANCH  65  90
ENDBRANCH  39  40
ENDBRANCH  32  34
ENDBRANCH  31  32
ENDBRANCH  30  31
ENDBRANCH  29  30
ENDBRANCH  28  29
ENDBRANCH  27  28
ENDBRANCH  26  27
ENDBRANCH  25  26
ENDBRANCH   1  25
TORSDOF 28
