REMARK SMILES O=C(NC1CCCCCC1)N[C@@H]1C=C[C@H](C(=O)OCCOCCOCCOCCOC(=O)c2ccc(-c3c4nc(c(-c5c(F)cc(S(=O)(=O)[O-])cc5F)c5ccc([nH]5)c(-c5c(F)cc(S(=O)(=O)[O-])cc5F)c5nc(c(-c6c(F)cc(S(=O)(=O)[O-])cc6F)c6ccc3[nH]6)C=C5)C=C4)cc2)C1
REMARK SMILES IDX 23 1 22 2 21 3 20 4 19 5 18 6 16 7 17 8 15 9 12 10 13 11
REMARK SMILES IDX 99 12 14 13 11 14 1 15 2 16 3 17 4 20 5 21 6 22 7 23 10 25
REMARK SMILES IDX 9 26 8 27 24 29 25 30 26 31 27 32 28 33 29 34 30 35 31 36
REMARK SMILES IDX 32 37 33 38 34 39 98 40 35 41 97 42 36 43 37 44 38 45 91 46
REMARK SMILES IDX 39 47 96 48 90 49 92 50 40 51 95 52 89 53 88 54 41 56 75 57
REMARK SMILES IDX 54 58 74 59 55 60 58 61 73 62 93 63 56 64 57 65 72 67 94 68
REMARK SMILES IDX 59 69 42 70 43 71 52 72 44 73 45 74 51 75 53 76 46 77 47 78
REMARK SMILES IDX 48 79 49 80 50 81 76 82 77 83 86 84 78 85 79 86 85 87 87 88
REMARK SMILES IDX 80 89 81 90 82 91 83 92 84 93 60 94 61 95 70 96 62 97 63 98
REMARK SMILES IDX 69 99 71 100 64 101 65 102 66 103 67 104 68 105
REMARK H PARENT 3 18 11 19 92 55 58 66
REMARK Flexibility Score: 90.00
ROOT
ATOM      1  C   UNL     1      -0.872  -2.739  -3.362  1.00  0.00     0.188 C 
ENDROOT
BRANCH   1   2
ATOM      2  C   UNL     1      -0.618  -4.209  -3.719  1.00  0.00     0.188 C 
BRANCH   2   3
ATOM      3  O   UNL     1      -1.713  -5.037  -4.021  1.00  0.00    -0.376 OA
BRANCH   3   4
ATOM      4  C   UNL     1      -2.778  -5.037  -3.083  1.00  0.00     0.202 C 
BRANCH   4   5
ATOM      5  C   UNL     1      -2.460  -5.117  -1.570  1.00  0.00     0.261 C 
BRANCH   5   6
ATOM      6  O   UNL     1      -1.421  -4.232  -1.042  1.00  0.00    -0.463 OA
BRANCH   6   7
ATOM      7  C   UNL     1      -0.299  -4.842  -0.575  1.00  0.00     0.312 C 
ATOM      8  O   UNL     1      -0.170  -6.067  -0.563  1.00  0.00    -0.252 OA
BRANCH   7   9
ATOM      9  C   UNL     1       0.799  -3.921   0.016  1.00  0.00     0.124 C 
ATOM     10  C   UNL     1       2.504  -2.371  -1.051  1.00  0.00     0.107 C 
ATOM     11  C   UNL     1       3.020  -3.756  -0.843  1.00  0.00    -0.006 C 
ATOM     12  C   UNL     1       1.096  -2.453  -0.385  1.00  0.00     0.048 C 
ATOM     13  C   UNL     1       2.129  -4.572  -0.274  1.00  0.00    -0.014 C 
BRANCH  10  14
ATOM     14  N   UNL     1       2.599  -2.120  -2.487  1.00  0.00    -0.332 N 
ATOM     15  O   UNL     1       4.545  -0.945  -2.329  1.00  0.00    -0.249 OA
ATOM     16  C   UNL     1       3.696  -1.504  -3.023  1.00  0.00     0.315 C 
ATOM     17  N   UNL     1       3.928  -1.542  -4.362  1.00  0.00    -0.335 N 
ATOM     18  H   UNL     1       4.875  -1.361  -4.562  1.00  0.00     0.165 HD
ATOM     19  H   UNL     1       1.862  -2.398  -3.077  1.00  0.00     0.165 HD
BRANCH  17  20
ATOM     20  C   UNL     1       3.159  -1.777  -5.605  1.00  0.00     0.083 C 
BRANCH  20  21
ATOM     21  C   UNL     1       4.035  -2.343  -6.746  1.00  0.00     0.025 C 
BRANCH  21  22
ATOM     22  C   UNL     1       4.036  -3.876  -6.884  1.00  0.00     0.002 C 
BRANCH  22  23
ATOM     23  C   UNL     1       2.878  -4.457  -7.715  1.00  0.00     0.000 CG0
ATOM     24  G   UNL     1       1.476  -4.335  -7.129  1.00  0.00     0.000 G0
ENDBRANCH  22  23
ENDBRANCH  21  22
ENDBRANCH  20  21
BRANCH  20  25
ATOM     25  C   UNL     1       1.921  -2.606  -5.395  1.00  0.00     0.025 C 
BRANCH  25  26
ATOM     26  C   UNL     1       1.134  -2.930  -6.658  1.00  0.00     0.002 C 
BRANCH  26  27
ATOM     27  C   UNL     1       1.476  -4.335  -7.129  1.00  0.00     0.000 CG0
ATOM     28  G   UNL     1       2.878  -4.457  -7.715  1.00  0.00     0.000 G0
ENDBRANCH  26  27
ENDBRANCH  25  26
ENDBRANCH  20  25
ENDBRANCH  17  20
ENDBRANCH  10  14
ENDBRANCH   7   9
ENDBRANCH   6   7
ENDBRANCH   5   6
ENDBRANCH   4   5
ENDBRANCH   3   4
ENDBRANCH   2   3
ENDBRANCH   1   2
BRANCH   1  29
ATOM     29  O   UNL     1      -2.161  -2.337  -2.958  1.00  0.00    -0.377 OA
BRANCH  29  30
ATOM     30  C   UNL     1      -2.941  -1.579  -3.892  1.00  0.00     0.188 C 
BRANCH  30  31
ATOM     31  C   UNL     1      -2.518  -1.637  -5.367  1.00  0.00     0.188 C 
BRANCH  31  32
ATOM     32  O   UNL     1      -1.810  -0.494  -5.862  1.00  0.00    -0.376 OA
BRANCH  32  33
ATOM     33  C   UNL     1      -0.733   0.061  -5.109  1.00  0.00     0.202 C 
BRANCH  33  34
ATOM     34  C   UNL     1      -0.271   1.399  -5.693  1.00  0.00     0.261 C 
BRANCH  34  35
ATOM     35  O   UNL     1      -1.324   2.346  -5.547  1.00  0.00    -0.460 OA
BRANCH  35  36
ATOM     36  C   UNL     1      -2.324   2.114  -6.432  1.00  0.00     0.338 C 
ATOM     37  O   UNL     1      -2.198   1.815  -7.609  1.00  0.00    -0.246 OA
BRANCH  36  38
ATOM     38  C   UNL     1      -3.583   2.025  -5.666  1.00  0.00     0.060 A 
ATOM     39  C   UNL     1      -4.565   1.135  -6.122  1.00  0.00     0.016 A 
ATOM     40  C   UNL     1      -3.788   2.791  -4.513  1.00  0.00     0.016 A 
ATOM     41  C   UNL     1      -5.807   1.107  -5.505  1.00  0.00     0.010 A 
ATOM     42  C   UNL     1      -5.033   2.774  -3.899  1.00  0.00     0.010 A 
ATOM     43  C   UNL     1      -6.061   1.999  -4.457  1.00  0.00    -0.014 A 
BRANCH  43  44
ATOM     44  C   UNL     1      -7.457   2.402  -4.209  1.00  0.00     0.031 A 
ATOM     45  C   UNL     1      -7.962   3.598  -4.973  1.00  0.00     0.074 A 
ATOM     46  C   UNL     1      -8.237   1.715  -3.362  1.00  0.00     0.049 A 
ATOM     47  N   UNL     1      -9.124   4.187  -4.921  1.00  0.00    -0.248 NA
ATOM     48  C   UNL     1      -7.018   4.220  -5.923  1.00  0.00     0.031 C 
ATOM     49  C   UNL     1      -7.833   0.526  -2.615  1.00  0.00     0.029 A 
ATOM     50  N   UNL     1      -9.533   1.932  -2.986  1.00  0.00    -0.354 N 
ATOM     51  C   UNL     1      -9.048   5.244  -5.823  1.00  0.00     0.074 A 
ATOM     52  C   UNL     1      -7.719   5.242  -6.383  1.00  0.00     0.031 C 
ATOM     53  C   UNL     1      -8.865   0.124  -1.852  1.00  0.00     0.029 A 
ATOM     54  C   UNL     1      -9.983   1.045  -2.041  1.00  0.00     0.049 A 
ATOM     55  H   UNL     1     -10.089   2.655  -3.358  1.00  0.00     0.167 HD
ATOM     56  C   UNL     1     -10.011   6.131  -6.159  1.00  0.00     0.037 A 
ATOM     57  C   UNL     1     -11.163   1.010  -1.394  1.00  0.00     0.037 A 
ATOM     58  C   UNL     1     -11.324   6.116  -5.577  1.00  0.00     0.049 A 
ATOM     59  C   UNL     1     -12.204   2.042  -1.744  1.00  0.00     0.074 A 
ATOM     60  C   UNL     1     -12.390   6.958  -5.829  1.00  0.00     0.029 A 
ATOM     61  N   UNL     1     -11.743   5.210  -4.612  1.00  0.00    -0.354 N 
ATOM     62  N   UNL     1     -12.132   3.028  -2.610  1.00  0.00    -0.248 NA
ATOM     63  C   UNL     1     -13.489   1.952  -1.041  1.00  0.00     0.031 C 
ATOM     64  C   UNL     1     -13.437   6.593  -4.977  1.00  0.00     0.029 A 
ATOM     65  C   UNL     1     -13.047   5.484  -4.241  1.00  0.00     0.049 A 
ATOM     66  H   UNL     1     -11.194   4.480  -4.245  1.00  0.00     0.167 HD
ATOM     67  C   UNL     1     -13.373   3.656  -2.578  1.00  0.00     0.074 A 
ATOM     68  C   UNL     1     -14.177   2.929  -1.615  1.00  0.00     0.031 C 
ATOM     69  C   UNL     1     -13.815   4.731  -3.280  1.00  0.00     0.037 A 
BRANCH  56  70
ATOM     70  C   UNL     1      -9.661   7.196  -7.163  1.00  0.00     0.058 A 
ATOM     71  C   UNL     1      -9.436   6.898  -8.517  1.00  0.00     0.135 A 
ATOM     72  C   UNL     1      -9.556   8.538  -6.764  1.00  0.00     0.135 A 
ATOM     73  F   UNL     1      -9.493   5.628  -8.949  1.00  0.00    -0.206 F 
ATOM     74  C   UNL     1      -9.098   7.888  -9.435  1.00  0.00     0.059 A 
ATOM     75  C   UNL     1      -9.249   9.549  -7.671  1.00  0.00     0.059 A 
ATOM     76  F   UNL     1      -9.745   8.879  -5.480  1.00  0.00    -0.206 F 
ATOM     77  C   UNL     1      -9.011   9.212  -9.002  1.00  0.00     0.060 A 
BRANCH  77  78
ATOM     78  S   UNL     1      -8.590  10.489 -10.208  1.00  0.00     0.124 S 
ATOM     79  O   UNL     1      -7.181  10.202 -10.458  1.00  0.00    -0.237 OA
ATOM     80  O   UNL     1      -9.502  10.190 -11.307  1.00  0.00    -0.237 OA
ATOM     81  O   UNL     1      -8.859  11.733  -9.495  1.00  0.00    -0.744 OA
ENDBRANCH  77  78
ENDBRANCH  56  70
BRANCH  57  82
ATOM     82  C   UNL     1     -11.412  -0.030  -0.361  1.00  0.00     0.058 A 
ATOM     83  C   UNL     1     -12.347  -1.055  -0.570  1.00  0.00     0.135 A 
ATOM     84  C   UNL     1     -10.704  -0.031   0.851  1.00  0.00     0.135 A 
ATOM     85  F   UNL     1     -13.053  -1.096  -1.710  1.00  0.00    -0.206 F 
ATOM     86  C   UNL     1     -12.582  -2.034   0.391  1.00  0.00     0.059 A 
ATOM     87  C   UNL     1     -10.901  -1.015   1.815  1.00  0.00     0.059 A 
ATOM     88  F   UNL     1      -9.786   0.917   1.095  1.00  0.00    -0.206 F 
ATOM     89  C   UNL     1     -11.850  -2.008   1.579  1.00  0.00     0.060 A 
BRANCH  89  90
ATOM     90  S   UNL     1     -12.126  -3.314   2.795  1.00  0.00     0.124 S 
ATOM     91  O   UNL     1     -13.447  -2.966   3.306  1.00  0.00    -0.237 OA
ATOM     92  O   UNL     1     -12.054  -4.517   1.972  1.00  0.00    -0.237 OA
ATOM     93  O   UNL     1     -11.020  -3.139   3.732  1.00  0.00    -0.744 OA
ENDBRANCH  89  90
ENDBRANCH  57  82
BRANCH  69  94
ATOM     94  C   UNL     1     -15.242   5.151  -3.064  1.00  0.00     0.058 A 
ATOM     95  C   UNL     1     -15.662   5.764  -1.874  1.00  0.00     0.135 A 
ATOM     96  C   UNL     1     -16.190   4.977  -4.086  1.00  0.00     0.135 A 
ATOM     97  F   UNL     1     -14.795   5.952  -0.866  1.00  0.00    -0.206 F 
ATOM     98  C   UNL     1     -16.984   6.154  -1.689  1.00  0.00     0.059 A 
ATOM     99  C   UNL     1     -17.507   5.391  -3.936  1.00  0.00     0.059 A 
ATOM    100  F   UNL     1     -15.833   4.412  -5.251  1.00  0.00    -0.206 F 
ATOM    101  C   UNL     1     -17.899   5.963  -2.727  1.00  0.00     0.060 A 
BRANCH 101 102
ATOM    102  S   UNL     1     -19.608   6.485  -2.479  1.00  0.00     0.124 S 
ATOM    103  O   UNL     1     -20.097   5.459  -1.564  1.00  0.00    -0.237 OA
ATOM    104  O   UNL     1     -19.447   7.819  -1.908  1.00  0.00    -0.237 OA
ATOM    105  O   UNL     1     -20.173   6.449  -3.824  1.00  0.00    -0.744 OA
ENDBRANCH 101 102
ENDBRANCH  69  94
ENDBRANCH  43  44
ENDBRANCH  36  38
ENDBRANCH  35  36
ENDBRANCH  34  35
ENDBRANCH  33  34
ENDBRANCH  32  33
ENDBRANCH  31  32
ENDBRANCH  30  31
ENDBRANCH  29  30
ENDBRANCH   1  29
TORSDOF 25
