REMARK SMILES Cc1ccc(N(CC(=O)OCCOCCOCCOCCOC(=O)c2ccc(-c3c4nc(c(-c5c(F)cc(S(=O)(=O)[O-])cc5F)c5ccc([nH]5)c(-c5c(F)cc(S(=O)(=O)[O-])cc5F)c5nc(c(-c6c(F)cc(S(=O)(=O)[O-])cc6F)c6ccc3[nH]6)C=C5)C=C4)cc2)C(=O)C[C@H]2C[NH2+]CCO2)cc1
REMARK SMILES IDX 15 1 14 2 13 3 12 4 11 5 10 6 8 7 9 8 7 9 6 10 5 11 1 12
REMARK SMILES IDX 2 13 3 14 101 15 4 16 100 17 91 18 92 19 93 20 94 21 95 22
REMARK SMILES IDX 99 23 96 24 98 25 97 26 16 29 17 30 18 31 19 32 20 33 21 34
REMARK SMILES IDX 22 35 23 36 24 37 25 38 26 39 90 40 27 41 89 42 28 43 29 44
REMARK SMILES IDX 30 45 83 46 31 47 88 48 82 49 84 50 32 51 87 52 81 53 80 54
REMARK SMILES IDX 33 56 67 57 46 58 66 59 47 60 50 61 65 62 85 63 48 64 49 65
REMARK SMILES IDX 64 67 86 68 51 69 34 70 35 71 44 72 36 73 37 74 43 75 45 76
REMARK SMILES IDX 38 77 39 78 40 79 41 80 42 81 68 82 69 83 78 84 70 85 71 86
REMARK SMILES IDX 77 87 79 88 72 89 73 90 74 91 75 92 76 93 52 94 53 95 62 96
REMARK SMILES IDX 54 97 55 98 61 99 63 100 56 101 57 102 58 103 59 104 60 105
REMARK H PARENT 96 27 96 28 84 55 50 66
REMARK Flexibility Score: inf
ROOT
ATOM      1  C   UNL     1      -3.617   1.538  -5.550  1.00  0.00     0.188 C 
ENDROOT
BRANCH   1   2
ATOM      2  C   UNL     1      -2.461   1.016  -4.668  1.00  0.00     0.188 C 
BRANCH   2   3
ATOM      3  O   UNL     1      -1.530  -0.057  -4.993  1.00  0.00    -0.376 OA
BRANCH   3   4
ATOM      4  C   UNL     1      -1.112  -1.365  -4.368  1.00  0.00     0.202 C 
BRANCH   4   5
ATOM      5  C   UNL     1      -1.262  -2.362  -2.911  1.00  0.00     0.261 C 
BRANCH   5   6
ATOM      6  O   UNL     1      -2.567  -2.788  -1.722  1.00  0.00    -0.462 OA
BRANCH   6   7
ATOM      7  C   UNL     1      -3.875  -2.504  -0.981  1.00  0.00     0.326 C 
ATOM      8  O   UNL     1      -3.930  -2.711   0.243  1.00  0.00    -0.250 OA
BRANCH   7   9
ATOM      9  C   UNL     1      -5.477  -2.136  -1.656  1.00  0.00     0.248 C 
BRANCH   9  10
ATOM     10  N   UNL     1      -6.164  -1.186  -2.738  1.00  0.00    -0.301 N 
BRANCH  10  11
ATOM     11  C   UNL     1      -6.786  -1.694  -4.017  1.00  0.00     0.044 A 
ATOM     12  C   UNL     1      -8.271  -3.045  -7.946  1.00  0.00     0.044 C 
ATOM     13  C   UNL     1      -7.829  -2.585  -6.584  1.00  0.00    -0.051 A 
ATOM     14  C   UNL     1      -7.681  -3.459  -5.500  1.00  0.00     0.005 A 
ATOM     15  C   UNL     1      -7.466  -1.263  -6.387  1.00  0.00     0.005 A 
ATOM     16  C   UNL     1      -7.190  -3.019  -4.234  1.00  0.00     0.026 A 
ATOM     17  C   UNL     1      -6.964  -0.840  -5.143  1.00  0.00     0.026 A 
ENDBRANCH  10  11
BRANCH  10  18
ATOM     18  C   UNL     1      -6.432   0.164  -2.446  1.00  0.00     0.230 C 
ATOM     19  O   UNL     1      -6.899   0.991  -3.235  1.00  0.00    -0.274 OA
BRANCH  18  20
ATOM     20  C   UNL     1      -6.306   0.647  -1.037  1.00  0.00     0.138 C 
BRANCH  20  21
ATOM     21  C   UNL     1      -7.647   0.562  -0.284  1.00  0.00     0.182 C 
ATOM     22  C   UNL     1      -8.883   1.220  -0.948  1.00  0.00     0.293 C 
ATOM     23  O   UNL     1      -7.955  -0.755   0.200  1.00  0.00    -0.366 OA
ATOM     24  N   UNL     1      -9.560   0.405  -1.967  1.00  0.00    -0.342 N 
ATOM     25  C   UNL     1      -8.687  -1.590  -0.703  1.00  0.00     0.222 C 
ATOM     26  C   UNL     1      -9.864  -0.915  -1.409  1.00  0.00     0.289 C 
ATOM     27  H   UNL     1      -8.951   0.300  -2.779  1.00  0.00     0.346 HD
ATOM     28  H   UNL     1     -10.426   0.863  -2.250  1.00  0.00     0.346 HD
ENDBRANCH  20  21
ENDBRANCH  18  20
ENDBRANCH  10  18
ENDBRANCH   9  10
ENDBRANCH   7   9
ENDBRANCH   6   7
ENDBRANCH   5   6
ENDBRANCH   4   5
ENDBRANCH   3   4
ENDBRANCH   2   3
ENDBRANCH   1   2
BRANCH   1  29
ATOM     29  O   UNL     1      -3.476   2.873  -5.998  1.00  0.00    -0.377 OA
BRANCH  29  30
ATOM     30  C   UNL     1      -2.946   3.832  -5.100  1.00  0.00     0.188 C 
BRANCH  30  31
ATOM     31  C   UNL     1      -3.686   3.928  -3.760  1.00  0.00     0.188 C 
BRANCH  31  32
ATOM     32  O   UNL     1      -4.396   5.156  -3.668  1.00  0.00    -0.376 OA
BRANCH  32  33
ATOM     33  C   UNL     1      -3.714   6.208  -2.980  1.00  0.00     0.202 C 
BRANCH  33  34
ATOM     34  C   UNL     1      -2.223   6.452  -3.323  1.00  0.00     0.261 C 
BRANCH  34  35
ATOM     35  O   UNL     1      -1.422   5.600  -2.463  1.00  0.00    -0.460 OA
BRANCH  35  36
ATOM     36  C   UNL     1      -0.379   4.891  -2.986  1.00  0.00     0.338 C 
ATOM     37  O   UNL     1       0.291   5.216  -3.942  1.00  0.00    -0.246 OA
BRANCH  36  38
ATOM     38  C   UNL     1      -0.416   3.517  -2.349  1.00  0.00     0.060 A 
ATOM     39  C   UNL     1       0.158   2.424  -2.981  1.00  0.00     0.016 A 
ATOM     40  C   UNL     1      -1.336   3.252  -1.332  1.00  0.00     0.016 A 
ATOM     41  C   UNL     1      -0.375   1.129  -2.735  1.00  0.00     0.010 A 
ATOM     42  C   UNL     1      -2.015   2.017  -1.295  1.00  0.00     0.010 A 
ATOM     43  C   UNL     1      -1.639   0.939  -2.099  1.00  0.00    -0.014 A 
BRANCH  43  44
ATOM     44  C   UNL     1      -2.549  -0.436  -2.095  1.00  0.00     0.031 A 
ATOM     45  C   UNL     1      -1.848  -0.958  -0.553  1.00  0.00     0.074 A 
ATOM     46  C   UNL     1      -3.390  -1.258  -3.230  1.00  0.00     0.049 A 
ATOM     47  N   UNL     1      -0.962  -1.922  -0.402  1.00  0.00    -0.248 NA
ATOM     48  C   UNL     1      -2.081  -0.317   0.758  1.00  0.00     0.031 C 
ATOM     49  C   UNL     1      -3.938  -2.840  -3.381  1.00  0.00     0.029 A 
ATOM     50  N   UNL     1      -3.720  -1.089  -4.668  1.00  0.00    -0.354 N 
ATOM     51  C   UNL     1      -1.017  -2.343   0.892  1.00  0.00     0.074 A 
ATOM     52  C   UNL     1      -1.449  -1.154   1.604  1.00  0.00     0.031 C 
ATOM     53  C   UNL     1      -4.312  -3.275  -4.568  1.00  0.00     0.029 A 
ATOM     54  C   UNL     1      -3.807  -2.315  -5.445  1.00  0.00     0.049 A 
ATOM     55  H   UNL     1      -3.870  -0.203  -5.069  1.00  0.00     0.167 HD
ATOM     56  C   UNL     1      -1.099  -3.663   1.277  1.00  0.00     0.037 A 
ATOM     57  C   UNL     1      -3.022  -2.811  -6.453  1.00  0.00     0.037 A 
ATOM     58  C   UNL     1      -1.508  -4.634   0.206  1.00  0.00     0.049 A 
ATOM     59  C   UNL     1      -2.277  -4.134  -5.968  1.00  0.00     0.074 A 
ATOM     60  C   UNL     1      -2.722  -5.288   0.011  1.00  0.00     0.029 A 
ATOM     61  N   UNL     1      -0.793  -4.890  -0.989  1.00  0.00    -0.354 N 
ATOM     62  N   UNL     1      -1.932  -4.338  -4.703  1.00  0.00    -0.248 NA
ATOM     63  C   UNL     1      -2.078  -5.362  -6.734  1.00  0.00     0.031 C 
ATOM     64  C   UNL     1      -2.804  -5.783  -1.317  1.00  0.00     0.029 A 
ATOM     65  C   UNL     1      -1.597  -5.546  -1.959  1.00  0.00     0.049 A 
ATOM     66  H   UNL     1       0.149  -4.642  -1.131  1.00  0.00     0.167 HD
ATOM     67  C   UNL     1      -1.501  -5.625  -4.463  1.00  0.00     0.074 A 
ATOM     68  C   UNL     1      -1.622  -6.223  -5.793  1.00  0.00     0.031 C 
ATOM     69  C   UNL     1      -1.113  -6.146  -3.232  1.00  0.00     0.037 A 
BRANCH  56  70
ATOM     70  C   UNL     1      -1.222  -3.904   2.785  1.00  0.00     0.058 A 
ATOM     71  C   UNL     1      -2.240  -4.642   3.418  1.00  0.00     0.135 A 
ATOM     72  C   UNL     1      -0.293  -3.299   3.668  1.00  0.00     0.135 A 
ATOM     73  F   UNL     1      -3.177  -5.297   2.727  1.00  0.00    -0.206 F 
ATOM     74  C   UNL     1      -2.372  -4.715   4.813  1.00  0.00     0.059 A 
ATOM     75  C   UNL     1      -0.418  -3.338   5.063  1.00  0.00     0.059 A 
ATOM     76  F   UNL     1       0.742  -2.595   3.176  1.00  0.00    -0.206 F 
ATOM     77  C   UNL     1      -1.469  -4.046   5.631  1.00  0.00     0.060 A 
BRANCH  77  78
ATOM     78  S   UNL     1      -1.722  -4.063   7.421  1.00  0.00     0.124 S 
ATOM     79  O   UNL     1      -3.150  -3.782   7.543  1.00  0.00    -0.237 OA
ATOM     80  O   UNL     1      -1.311  -5.417   7.775  1.00  0.00    -0.237 OA
ATOM     81  O   UNL     1      -0.845  -2.996   7.897  1.00  0.00    -0.744 OA
ENDBRANCH  77  78
ENDBRANCH  56  70
BRANCH  57  82
ATOM     82  C   UNL     1      -2.807  -1.818  -7.551  1.00  0.00     0.058 A 
ATOM     83  C   UNL     1      -3.989  -1.373  -8.193  1.00  0.00     0.135 A 
ATOM     84  C   UNL     1      -1.692  -0.980  -7.690  1.00  0.00     0.135 A 
ATOM     85  F   UNL     1      -5.087  -2.147  -8.158  1.00  0.00    -0.206 F 
ATOM     86  C   UNL     1      -4.118  -0.105  -8.764  1.00  0.00     0.059 A 
ATOM     87  C   UNL     1      -1.801   0.319  -8.235  1.00  0.00     0.059 A 
ATOM     88  F   UNL     1      -0.499  -1.359  -7.207  1.00  0.00    -0.206 F 
ATOM     89  C   UNL     1      -3.028   0.761  -8.742  1.00  0.00     0.060 A 
BRANCH  89  90
ATOM     90  S   UNL     1      -3.312   2.503  -9.202  1.00  0.00     0.124 S 
ATOM     91  O   UNL     1      -3.259   2.425 -10.659  1.00  0.00    -0.237 OA
ATOM     92  O   UNL     1      -4.643   2.771  -8.658  1.00  0.00    -0.237 OA
ATOM     93  O   UNL     1      -2.200   3.217  -8.583  1.00  0.00    -0.744 OA
ENDBRANCH  89  90
ENDBRANCH  57  82
BRANCH  69  94
ATOM     94  C   UNL     1      -0.364  -7.468  -3.065  1.00  0.00     0.058 A 
ATOM     95  C   UNL     1       0.554  -7.945  -4.012  1.00  0.00     0.135 A 
ATOM     96  C   UNL     1      -0.401  -8.197  -1.843  1.00  0.00     0.135 A 
ATOM     97  F   UNL     1       0.746  -7.307  -5.175  1.00  0.00    -0.206 F 
ATOM     98  C   UNL     1       1.353  -9.067  -3.782  1.00  0.00     0.059 A 
ATOM     99  C   UNL     1       0.430  -9.277  -1.569  1.00  0.00     0.059 A 
ATOM    100  F   UNL     1      -1.235  -7.879  -0.844  1.00  0.00    -0.206 F 
ATOM    101  C   UNL     1       1.298  -9.716  -2.552  1.00  0.00     0.060 A 
BRANCH 101 102
ATOM    102  S   UNL     1       2.422 -11.078  -2.204  1.00  0.00     0.124 S 
ATOM    103  O   UNL     1       1.653 -12.218  -2.692  1.00  0.00    -0.237 OA
ATOM    104  O   UNL     1       3.601 -10.726  -2.990  1.00  0.00    -0.237 OA
ATOM    105  O   UNL     1       2.599 -11.004  -0.757  1.00  0.00    -0.744 OA
ENDBRANCH 101 102
ENDBRANCH  69  94
ENDBRANCH  43  44
ENDBRANCH  36  38
ENDBRANCH  35  36
ENDBRANCH  34  35
ENDBRANCH  33  34
ENDBRANCH  32  33
ENDBRANCH  31  32
ENDBRANCH  30  31
ENDBRANCH  29  30
ENDBRANCH   1  29
TORSDOF 28
