REMARK SMILES C[C@H](NC(=O)N1CC[C@H](C(=O)OCCOCCOCCOCCOC(=O)c2ccc(-c3c4nc(c(-c5c(F)cc(S(=O)(=O)[O-])cc5F)c5ccc([nH]5)c(-c5c(F)cc(S(=O)(=O)[O-])cc5F)c5nc(c(-c6c(F)cc(S(=O)(=O)[O-])cc6F)c6ccc3[nH]6)C=C5)C=C4)cc2)[C@H]1C)c1ccsc1
REMARK SMILES IDX 18 1 17 2 16 3 15 4 14 5 13 6 12 7 10 8 11 9 9 10 6 11 7 12
REMARK SMILES IDX 93 13 8 14 94 15 4 16 3 17 5 19 2 20 1 21 95 22 96 23 99 24
REMARK SMILES IDX 97 25 98 26 19 27 20 28 21 29 22 30 23 31 24 32 25 33 26 34
REMARK SMILES IDX 27 35 28 36 92 37 29 38 91 39 30 40 31 41 32 42 85 43 33 44
REMARK SMILES IDX 90 45 84 46 86 47 34 48 89 49 83 50 82 51 35 53 69 54 48 55
REMARK SMILES IDX 68 56 49 57 52 58 67 59 87 60 50 61 51 62 66 64 88 65 53 66
REMARK SMILES IDX 36 67 37 68 46 69 38 70 39 71 45 72 47 73 40 74 41 75 42 76
REMARK SMILES IDX 43 77 44 78 70 79 71 80 80 81 72 82 73 83 79 84 81 85 74 86
REMARK SMILES IDX 75 87 76 88 77 89 78 90 54 91 55 92 64 93 56 94 57 95 63 96
REMARK SMILES IDX 65 97 58 98 59 99 60 100 61 101 62 102
REMARK H PARENT 3 18 86 52 52 63
REMARK Flexibility Score: inf
ROOT
ATOM      1  O   UNL     1       2.274  -2.945  -6.452  1.00  0.00    -0.377 OA
ENDROOT
BRANCH   1   2
ATOM      2  C   UNL     1       1.092  -3.685  -6.260  1.00  0.00     0.188 C 
BRANCH   2   3
ATOM      3  C   UNL     1      -0.198  -2.901  -6.560  1.00  0.00     0.188 C 
BRANCH   3   4
ATOM      4  O   UNL     1      -0.222  -1.888  -7.552  1.00  0.00    -0.376 OA
BRANCH   4   5
ATOM      5  C   UNL     1       0.565  -0.703  -7.474  1.00  0.00     0.202 C 
BRANCH   5   6
ATOM      6  C   UNL     1       0.973   0.005  -6.172  1.00  0.00     0.261 C 
BRANCH   6   7
ATOM      7  O   UNL     1       1.382  -0.863  -5.120  1.00  0.00    -0.463 OA
BRANCH   7   8
ATOM      8  C   UNL     1       0.535  -0.964  -4.069  1.00  0.00     0.311 C 
ATOM      9  O   UNL     1      -0.478  -0.291  -3.919  1.00  0.00    -0.252 OA
BRANCH   8  10
ATOM     10  C   UNL     1       0.841  -2.193  -3.242  1.00  0.00     0.123 C 
ATOM     11  N   UNL     1       1.724  -1.445  -1.204  1.00  0.00    -0.321 N 
ATOM     12  C   UNL     1       2.857  -1.751  -2.069  1.00  0.00     0.122 C 
ATOM     13  C   UNL     1       0.469  -1.962  -1.781  1.00  0.00     0.098 C 
ATOM     14  C   UNL     1       2.301  -2.639  -3.156  1.00  0.00     0.039 C 
ATOM     15  C   UNL     1      -0.004  -3.313  -1.223  1.00  0.00     0.032 C 
BRANCH  11  16
ATOM     16  C   UNL     1       1.770  -0.245  -0.533  1.00  0.00     0.318 C 
ATOM     17  N   UNL     1       0.967  -0.075   0.538  1.00  0.00    -0.331 N 
ATOM     18  H   UNL     1       0.771   0.856   0.791  1.00  0.00     0.165 HD
ATOM     19  O   UNL     1       2.523   0.675  -0.843  1.00  0.00    -0.249 OA
BRANCH  17  20
ATOM     20  C   UNL     1       0.362  -1.099   1.355  1.00  0.00     0.112 C 
ATOM     21  C   UNL     1       0.915  -1.047   2.772  1.00  0.00     0.036 C 
BRANCH  20  22
ATOM     22  C   UNL     1      -1.142  -0.976   1.277  1.00  0.00    -0.015 A 
ATOM     23  C   UNL     1      -2.046  -2.070   1.519  1.00  0.00     0.017 A 
ATOM     24  C   UNL     1      -1.858   0.152   0.909  1.00  0.00     0.070 A 
ATOM     25  C   UNL     1      -3.359  -1.754   1.256  1.00  0.00     0.065 A 
ATOM     26  S   UNL     1      -3.542  -0.121   0.801  1.00  0.00    -0.152 S 
ENDBRANCH  20  22
ENDBRANCH  17  20
ENDBRANCH  11  16
ENDBRANCH   8  10
ENDBRANCH   7   8
ENDBRANCH   6   7
ENDBRANCH   5   6
ENDBRANCH   4   5
ENDBRANCH   3   4
ENDBRANCH   2   3
ENDBRANCH   1   2
BRANCH   1  27
ATOM     27  C   UNL     1       2.929  -3.025  -7.709  1.00  0.00     0.188 C 
BRANCH  27  28
ATOM     28  C   UNL     1       2.149  -3.450  -8.973  1.00  0.00     0.188 C 
BRANCH  28  29
ATOM     29  O   UNL     1       1.247  -4.534  -8.796  1.00  0.00    -0.376 OA
BRANCH  29  30
ATOM     30  C   UNL     1       1.678  -5.836  -9.166  1.00  0.00     0.202 C 
BRANCH  30  31
ATOM     31  C   UNL     1       2.809  -6.460  -8.333  1.00  0.00     0.261 C 
BRANCH  31  32
ATOM     32  O   UNL     1       4.062  -5.764  -8.340  1.00  0.00    -0.460 OA
BRANCH  32  33
ATOM     33  C   UNL     1       4.643  -5.522  -9.540  1.00  0.00     0.338 C 
ATOM     34  O   UNL     1       4.253  -5.868 -10.628  1.00  0.00    -0.246 OA
BRANCH  33  35
ATOM     35  C   UNL     1       5.761  -4.583  -9.296  1.00  0.00     0.060 A 
ATOM     36  C   UNL     1       5.749  -3.327  -9.919  1.00  0.00     0.016 A 
ATOM     37  C   UNL     1       6.806  -4.949  -8.449  1.00  0.00     0.016 A 
ATOM     38  C   UNL     1       6.812  -2.443  -9.723  1.00  0.00     0.010 A 
ATOM     39  C   UNL     1       7.879  -4.075  -8.275  1.00  0.00     0.010 A 
ATOM     40  C   UNL     1       7.904  -2.835  -8.939  1.00  0.00    -0.014 A 
BRANCH  40  41
ATOM     41  C   UNL     1       9.183  -2.090  -8.994  1.00  0.00     0.031 A 
ATOM     42  C   UNL     1      10.241  -2.604  -9.933  1.00  0.00     0.074 A 
ATOM     43  C   UNL     1       9.420  -1.020  -8.214  1.00  0.00     0.049 A 
ATOM     44  N   UNL     1      11.501  -2.276 -10.025  1.00  0.00    -0.248 NA
ATOM     45  C   UNL     1       9.816  -3.641 -10.892  1.00  0.00     0.031 C 
ATOM     46  C   UNL     1       8.452  -0.389  -7.319  1.00  0.00     0.029 A 
ATOM     47  N   UNL     1      10.570  -0.291  -8.034  1.00  0.00    -0.354 N 
ATOM     48  C   UNL     1      12.020  -3.068 -11.042  1.00  0.00     0.074 A 
ATOM     49  C   UNL     1      10.950  -3.913 -11.519  1.00  0.00     0.031 C 
ATOM     50  C   UNL     1       9.059   0.616  -6.661  1.00  0.00     0.029 A 
ATOM     51  C   UNL     1      10.467   0.665  -7.051  1.00  0.00     0.049 A 
ATOM     52  H   UNL     1      11.389  -0.439  -8.559  1.00  0.00     0.167 HD
ATOM     53  C   UNL     1      13.278  -3.082 -11.539  1.00  0.00     0.037 A 
ATOM     54  C   UNL     1      11.416   1.454  -6.504  1.00  0.00     0.037 A 
ATOM     55  C   UNL     1      14.338  -2.243 -11.051  1.00  0.00     0.049 A 
ATOM     56  C   UNL     1      12.841   1.341  -6.999  1.00  0.00     0.074 A 
ATOM     57  C   UNL     1      15.659  -2.202 -11.460  1.00  0.00     0.029 A 
ATOM     58  N   UNL     1      14.196  -1.294 -10.051  1.00  0.00    -0.354 N 
ATOM     59  N   UNL     1      13.330   0.573  -7.945  1.00  0.00    -0.248 NA
ATOM     60  C   UNL     1      13.847   2.196  -6.349  1.00  0.00     0.031 C 
ATOM     61  C   UNL     1      16.325  -1.255 -10.678  1.00  0.00     0.029 A 
ATOM     62  C   UNL     1      15.406  -0.664  -9.826  1.00  0.00     0.049 A 
ATOM     63  H   UNL     1      13.358  -1.097  -9.572  1.00  0.00     0.167 HD
ATOM     64  C   UNL     1      14.681   0.897  -8.040  1.00  0.00     0.074 A 
ATOM     65  C   UNL     1      14.938   1.919  -7.051  1.00  0.00     0.031 C 
ATOM     66  C   UNL     1      15.624   0.397  -8.876  1.00  0.00     0.037 A 
BRANCH  53  67
ATOM     67  C   UNL     1      13.582  -4.038 -12.656  1.00  0.00     0.058 A 
ATOM     68  C   UNL     1      13.093  -3.826 -13.954  1.00  0.00     0.135 A 
ATOM     69  C   UNL     1      14.423  -5.142 -12.443  1.00  0.00     0.135 A 
ATOM     70  F   UNL     1      12.264  -2.800 -14.206  1.00  0.00    -0.206 F 
ATOM     71  C   UNL     1      13.423  -4.678 -15.002  1.00  0.00     0.059 A 
ATOM     72  C   UNL     1      14.789  -5.992 -13.483  1.00  0.00     0.059 A 
ATOM     73  F   UNL     1      14.909  -5.396 -11.218  1.00  0.00    -0.206 F 
ATOM     74  C   UNL     1      14.279  -5.753 -14.758  1.00  0.00     0.060 A 
BRANCH  74  75
ATOM     75  S   UNL     1      14.728  -6.823 -16.140  1.00  0.00     0.124 S 
ATOM     76  O   UNL     1      13.468  -7.513 -16.397  1.00  0.00    -0.237 OA
ATOM     77  O   UNL     1      15.142  -5.860 -17.155  1.00  0.00    -0.237 OA
ATOM     78  O   UNL     1      15.797  -7.654 -15.595  1.00  0.00    -0.744 OA
ENDBRANCH  74  75
ENDBRANCH  53  67
BRANCH  54  79
ATOM     79  C   UNL     1      11.082   2.400  -5.402  1.00  0.00     0.058 A 
ATOM     80  C   UNL     1      11.204   3.787  -5.579  1.00  0.00     0.135 A 
ATOM     81  C   UNL     1      10.699   1.938  -4.133  1.00  0.00     0.135 A 
ATOM     82  F   UNL     1      11.576   4.281  -6.770  1.00  0.00    -0.206 F 
ATOM     83  C   UNL     1      11.007   4.678  -4.528  1.00  0.00     0.059 A 
ATOM     84  C   UNL     1      10.464   2.812  -3.075  1.00  0.00     0.059 A 
ATOM     85  F   UNL     1      10.555   0.623  -3.909  1.00  0.00    -0.206 F 
ATOM     86  C   UNL     1      10.645   4.179  -3.276  1.00  0.00     0.060 A 
BRANCH  86  87
ATOM     87  S   UNL     1      10.418   5.343  -1.913  1.00  0.00     0.124 S 
ATOM     88  O   UNL     1      11.794   5.734  -1.632  1.00  0.00    -0.237 OA
ATOM     89  O   UNL     1       9.575   6.367  -2.522  1.00  0.00    -0.237 OA
ATOM     90  O   UNL     1       9.770   4.533  -0.886  1.00  0.00    -0.744 OA
ENDBRANCH  86  87
ENDBRANCH  54  79
BRANCH  66  91
ATOM     91  C   UNL     1      17.000   1.005  -8.846  1.00  0.00     0.058 A 
ATOM     92  C   UNL     1      17.911   0.739  -7.815  1.00  0.00     0.135 A 
ATOM     93  C   UNL     1      17.447   1.769  -9.938  1.00  0.00     0.135 A 
ATOM     94  F   UNL     1      17.533   0.019  -6.746  1.00  0.00    -0.206 F 
ATOM     95  C   UNL     1      19.221   1.206  -7.867  1.00  0.00     0.059 A 
ATOM     96  C   UNL     1      18.758   2.222 -10.025  1.00  0.00     0.059 A 
ATOM     97  F   UNL     1      16.615   2.043 -10.956  1.00  0.00    -0.206 F 
ATOM     98  C   UNL     1      19.639   1.936  -8.984  1.00  0.00     0.060 A 
BRANCH  98  99
ATOM     99  S   UNL     1      21.365   2.456  -9.081  1.00  0.00     0.124 S 
ATOM    100  O   UNL     1      21.412   3.512  -8.075  1.00  0.00    -0.237 OA
ATOM    101  O   UNL     1      22.079   1.228  -8.746  1.00  0.00    -0.237 OA
ATOM    102  O   UNL     1      21.510   2.901 -10.464  1.00  0.00    -0.744 OA
ENDBRANCH  98  99
ENDBRANCH  66  91
ENDBRANCH  40  41
ENDBRANCH  33  35
ENDBRANCH  32  33
ENDBRANCH  31  32
ENDBRANCH  30  31
ENDBRANCH  29  30
ENDBRANCH  28  29
ENDBRANCH  27  28
ENDBRANCH   1  27
TORSDOF 26
