REMARK SMILES Cc1ccnc(C(=O)c2[nH]c3ccc(OC(F)(F)F)cc3c2CC(=O)OCCOCCOCCOCCOC(=O)c2ccc(-c3c4nc(c(-c5c(F)cc(S(=O)(=O)[O-])cc5F)c5ccc([nH]5)c(-c5c(F)cc(S(=O)(=O)[O-])cc5F)c5nc(c(-c6c(F)cc(S(=O)(=O)[O-])cc6F)c6ccc3[nH]6)C=C5)C=C4)cc2)c1
REMARK SMILES IDX 32 1 31 2 30 3 29 4 28 5 27 6 26 7 24 8 25 9 23 10 22 11
REMARK SMILES IDX 9 12 10 13 11 14 21 16 12 17 20 18 13 19 14 20 7 21 8 22
REMARK SMILES IDX 6 23 1 24 2 25 3 26 107 27 4 28 5 29 15 30 16 31 17 32 18 33
REMARK SMILES IDX 19 34 33 35 34 36 35 37 36 38 37 39 38 40 39 41 40 42 41 43
REMARK SMILES IDX 42 44 106 45 43 46 105 47 44 48 45 49 46 50 99 51 47 52
REMARK SMILES IDX 104 53 98 54 100 55 48 56 103 57 97 58 96 59 49 61 83 62
REMARK SMILES IDX 62 63 82 64 63 65 66 66 81 67 101 68 64 69 65 70 80 72
REMARK SMILES IDX 102 73 67 74 50 75 51 76 60 77 52 78 53 79 59 80 61 81 54 82
REMARK SMILES IDX 55 83 56 84 57 85 58 86 84 87 85 88 94 89 86 90 87 91 93 92
REMARK SMILES IDX 95 93 88 94 89 95 90 96 91 97 92 98 68 99 69 100 78 101
REMARK SMILES IDX 70 102 71 103 77 104 79 105 72 106 73 107 74 108 75 109
REMARK SMILES IDX 76 110
REMARK H PARENT 10 15 100 60 66 71
REMARK Flexibility Score: inf
ROOT
ATOM      1  O   UNL     1       3.941  -3.937  -0.552  1.00  0.00    -0.377 OA
ENDROOT
BRANCH   1   2
ATOM      2  C   UNL     1       4.174  -2.874   0.356  1.00  0.00     0.188 C 
BRANCH   2   3
ATOM      3  C   UNL     1       5.399  -2.932   1.266  1.00  0.00     0.188 C 
BRANCH   3   4
ATOM      4  O   UNL     1       6.530  -3.634   0.796  1.00  0.00    -0.376 OA
BRANCH   4   5
ATOM      5  C   UNL     1       6.404  -5.048   0.638  1.00  0.00     0.202 C 
BRANCH   5   6
ATOM      6  C   UNL     1       5.516  -5.869   1.596  1.00  0.00     0.261 C 
BRANCH   6   7
ATOM      7  O   UNL     1       4.092  -5.579   1.537  1.00  0.00    -0.463 OA
BRANCH   7   8
ATOM      8  C   UNL     1       3.463  -5.450   2.732  1.00  0.00     0.310 C 
ATOM      9  O   UNL     1       4.048  -5.578   3.810  1.00  0.00    -0.252 OA
BRANCH   8  10
ATOM     10  C   UNL     1       1.983  -5.112   2.735  1.00  0.00     0.161 C 
BRANCH  10  11
ATOM     11  C   UNL     1       1.170  -4.958   1.469  1.00  0.00     0.000 A 
ATOM     12  C   UNL     1       0.766  -3.769   0.834  1.00  0.00     0.093 A 
ATOM     13  N   UNL     1       0.113  -4.159  -0.319  1.00  0.00    -0.352 N 
ATOM     14  C   UNL     1      -0.323  -5.457  -0.192  1.00  0.00     0.046 A 
ATOM     15  H   UNL     1      -0.021  -3.592  -1.113  1.00  0.00     0.167 HD
ATOM     16  C   UNL     1       0.345  -5.992   0.903  1.00  0.00     0.008 A 
ATOM     17  C   UNL     1      -1.258  -6.183  -0.939  1.00  0.00     0.030 A 
ATOM     18  C   UNL     1       0.032  -7.312   1.292  1.00  0.00     0.057 A 
ATOM     19  C   UNL     1      -1.593  -7.470  -0.492  1.00  0.00     0.049 A 
ATOM     20  C   UNL     1      -0.978  -8.024   0.630  1.00  0.00     0.130 A 
BRANCH  12  21
ATOM     21  C   UNL     1       0.969  -2.391   1.283  1.00  0.00     0.227 C 
ATOM     22  O   UNL     1       1.577  -2.114   2.319  1.00  0.00    -0.285 OA
BRANCH  21  23
ATOM     23  C   UNL     1       0.382  -1.227   0.556  1.00  0.00     0.113 A 
ATOM     24  C   UNL     1      -3.003   0.287  -0.193  1.00  0.00     0.044 C 
ATOM     25  C   UNL     1      -1.522   0.087  -0.071  1.00  0.00    -0.047 A 
ATOM     26  C   UNL     1      -0.656   1.167  -0.264  1.00  0.00     0.023 A 
ATOM     27  C   UNL     1      -0.991  -1.138   0.351  1.00  0.00     0.036 A 
ATOM     28  C   UNL     1       0.700   0.978  -0.062  1.00  0.00     0.112 A 
ATOM     29  N   UNL     1       1.236  -0.193   0.332  1.00  0.00    -0.253 NA
ENDBRANCH  21  23
ENDBRANCH  12  21
BRANCH  20  30
ATOM     30  O   UNL     1      -1.271  -9.231   1.202  1.00  0.00    -0.406 OA
BRANCH  30  31
ATOM     31  C   UNL     1      -2.461  -9.885   0.799  1.00  0.00     0.573 C 
ATOM     32  F   UNL     1      -3.533  -9.064   0.893  1.00  0.00    -0.132 F 
ATOM     33  F   UNL     1      -2.360 -10.341  -0.466  1.00  0.00    -0.132 F 
ATOM     34  F   UNL     1      -2.680 -10.938   1.617  1.00  0.00    -0.132 F 
ENDBRANCH  30  31
ENDBRANCH  20  30
ENDBRANCH  10  11
ENDBRANCH   8  10
ENDBRANCH   7   8
ENDBRANCH   6   7
ENDBRANCH   5   6
ENDBRANCH   4   5
ENDBRANCH   3   4
ENDBRANCH   2   3
ENDBRANCH   1   2
BRANCH   1  35
ATOM     35  C   UNL     1       4.440  -3.854  -1.881  1.00  0.00     0.188 C 
BRANCH  35  36
ATOM     36  C   UNL     1       5.110  -2.552  -2.320  1.00  0.00     0.188 C 
BRANCH  36  37
ATOM     37  O   UNL     1       4.321  -1.360  -2.334  1.00  0.00    -0.376 OA
BRANCH  37  38
ATOM     38  C   UNL     1       2.911  -1.467  -2.506  1.00  0.00     0.202 C 
BRANCH  38  39
ATOM     39  C   UNL     1       2.450  -1.517  -3.959  1.00  0.00     0.261 C 
BRANCH  39  40
ATOM     40  O   UNL     1       2.737  -2.792  -4.550  1.00  0.00    -0.460 OA
BRANCH  40  41
ATOM     41  C   UNL     1       3.834  -2.829  -5.342  1.00  0.00     0.338 C 
ATOM     42  O   UNL     1       4.546  -1.893  -5.668  1.00  0.00    -0.246 OA
BRANCH  41  43
ATOM     43  C   UNL     1       4.159  -4.237  -5.624  1.00  0.00     0.060 A 
ATOM     44  C   UNL     1       5.481  -4.663  -5.437  1.00  0.00     0.016 A 
ATOM     45  C   UNL     1       3.181  -5.123  -6.081  1.00  0.00     0.016 A 
ATOM     46  C   UNL     1       5.833  -5.979  -5.721  1.00  0.00     0.010 A 
ATOM     47  C   UNL     1       3.540  -6.435  -6.385  1.00  0.00     0.010 A 
ATOM     48  C   UNL     1       4.870  -6.859  -6.227  1.00  0.00    -0.014 A 
BRANCH  48  49
ATOM     49  C   UNL     1       5.275  -8.183  -6.740  1.00  0.00     0.031 A 
ATOM     50  C   UNL     1       5.510  -8.334  -8.215  1.00  0.00     0.074 A 
ATOM     51  C   UNL     1       5.407  -9.227  -5.903  1.00  0.00     0.049 A 
ATOM     52  N   UNL     1       5.753  -9.413  -8.908  1.00  0.00    -0.248 NA
ATOM     53  C   UNL     1       5.457  -7.100  -9.018  1.00  0.00     0.031 C 
ATOM     54  C   UNL     1       5.249  -9.169  -4.450  1.00  0.00     0.029 A 
ATOM     55  N   UNL     1       5.684 -10.544  -6.161  1.00  0.00    -0.354 N 
ATOM     56  C   UNL     1       5.867  -8.994 -10.228  1.00  0.00     0.074 A 
ATOM     57  C   UNL     1       5.652  -7.565 -10.243  1.00  0.00     0.031 C 
ATOM     58  C   UNL     1       5.410 -10.405  -3.946  1.00  0.00     0.029 A 
ATOM     59  C   UNL     1       5.637 -11.343  -5.044  1.00  0.00     0.049 A 
ATOM     60  H   UNL     1       5.895 -10.885  -7.060  1.00  0.00     0.167 HD
ATOM     61  C   UNL     1       6.125  -9.743 -11.325  1.00  0.00     0.037 A 
ATOM     62  C   UNL     1       5.730 -12.683  -4.933  1.00  0.00     0.037 A 
ATOM     63  C   UNL     1       6.336 -11.166 -11.286  1.00  0.00     0.049 A 
ATOM     64  C   UNL     1       5.932 -13.502  -6.183  1.00  0.00     0.074 A 
ATOM     65  C   UNL     1       6.637 -12.019 -12.332  1.00  0.00     0.029 A 
ATOM     66  N   UNL     1       6.251 -11.947 -10.143  1.00  0.00    -0.354 N 
ATOM     67  N   UNL     1       6.072 -13.095  -7.424  1.00  0.00    -0.248 NA
ATOM     68  C   UNL     1       5.979 -14.962  -6.021  1.00  0.00     0.031 C 
ATOM     69  C   UNL     1       6.672 -13.324 -11.832  1.00  0.00     0.029 A 
ATOM     70  C   UNL     1       6.453 -13.278 -10.464  1.00  0.00     0.049 A 
ATOM     71  H   UNL     1       6.074 -11.606  -9.237  1.00  0.00     0.167 HD
ATOM     72  C   UNL     1       6.247 -14.247  -8.185  1.00  0.00     0.074 A 
ATOM     73  C   UNL     1       6.214 -15.363  -7.263  1.00  0.00     0.031 C 
ATOM     74  C   UNL     1       6.418 -14.373  -9.525  1.00  0.00     0.037 A 
BRANCH  61  75
ATOM     75  C   UNL     1       6.159  -9.052 -12.659  1.00  0.00     0.058 A 
ATOM     76  C   UNL     1       7.209  -8.197 -13.028  1.00  0.00     0.135 A 
ATOM     77  C   UNL     1       5.148  -9.293 -13.604  1.00  0.00     0.135 A 
ATOM     78  F   UNL     1       8.188  -7.912 -12.155  1.00  0.00    -0.206 F 
ATOM     79  C   UNL     1       7.251  -7.599 -14.284  1.00  0.00     0.059 A 
ATOM     80  C   UNL     1       5.184  -8.727 -14.875  1.00  0.00     0.059 A 
ATOM     81  F   UNL     1       4.114 -10.093 -13.299  1.00  0.00    -0.206 F 
ATOM     82  C   UNL     1       6.237  -7.876 -15.203  1.00  0.00     0.060 A 
BRANCH  82  83
ATOM     83  S   UNL     1       6.327  -7.119 -16.839  1.00  0.00     0.124 S 
ATOM     84  O   UNL     1       6.047  -5.720 -16.530  1.00  0.00    -0.237 OA
ATOM     85  O   UNL     1       7.697  -7.416 -17.244  1.00  0.00    -0.237 OA
ATOM     86  O   UNL     1       5.288  -7.813 -17.594  1.00  0.00    -0.744 OA
ENDBRANCH  82  83
ENDBRANCH  61  75
BRANCH  62  87
ATOM     87  C   UNL     1       5.601 -13.339  -3.604  1.00  0.00     0.058 A 
ATOM     88  C   UNL     1       6.687 -14.009  -3.021  1.00  0.00     0.135 A 
ATOM     89  C   UNL     1       4.386 -13.330  -2.899  1.00  0.00     0.135 A 
ATOM     90  F   UNL     1       7.866 -14.057  -3.660  1.00  0.00    -0.206 F 
ATOM     91  C   UNL     1       6.569 -14.664  -1.800  1.00  0.00     0.059 A 
ATOM     92  C   UNL     1       4.252 -13.952  -1.662  1.00  0.00     0.059 A 
ATOM     93  F   UNL     1       3.317 -12.697  -3.407  1.00  0.00    -0.206 F 
ATOM     94  C   UNL     1       5.347 -14.629  -1.127  1.00  0.00     0.060 A 
BRANCH  94  95
ATOM     95  S   UNL     1       5.215 -15.461   0.470  1.00  0.00     0.124 S 
ATOM     96  O   UNL     1       5.245 -16.864   0.074  1.00  0.00    -0.237 OA
ATOM     97  O   UNL     1       6.398 -14.969   1.169  1.00  0.00    -0.237 OA
ATOM     98  O   UNL     1       3.940 -14.980   0.995  1.00  0.00    -0.744 OA
ENDBRANCH  94  95
ENDBRANCH  62  87
BRANCH  74  99
ATOM     99  C   UNL     1       6.602 -15.761 -10.073  1.00  0.00     0.058 A 
ATOM    100  C   UNL     1       5.536 -16.672 -10.142  1.00  0.00     0.135 A 
ATOM    101  C   UNL     1       7.842 -16.162 -10.596  1.00  0.00     0.135 A 
ATOM    102  F   UNL     1       4.332 -16.341  -9.649  1.00  0.00    -0.206 F 
ATOM    103  C   UNL     1       5.699 -17.939 -10.691  1.00  0.00     0.059 A 
ATOM    104  C   UNL     1       8.019 -17.412 -11.180  1.00  0.00     0.059 A 
ATOM    105  F   UNL     1       8.892 -15.325 -10.566  1.00  0.00    -0.206 F 
ATOM    106  C   UNL     1       6.943 -18.298 -11.214  1.00  0.00     0.060 A 
BRANCH 106 107
ATOM    107  S   UNL     1       7.125 -19.928 -11.966  1.00  0.00     0.124 S 
ATOM    108  O   UNL     1       7.089 -20.798 -10.795  1.00  0.00    -0.237 OA
ATOM    109  O   UNL     1       5.960 -19.998 -12.843  1.00  0.00    -0.237 OA
ATOM    110  O   UNL     1       8.412 -19.847 -12.649  1.00  0.00    -0.744 OA
ENDBRANCH 106 107
ENDBRANCH  74  99
ENDBRANCH  48  49
ENDBRANCH  41  43
ENDBRANCH  40  41
ENDBRANCH  39  40
ENDBRANCH  38  39
ENDBRANCH  37  38
ENDBRANCH  36  37
ENDBRANCH  35  36
ENDBRANCH   1  35
TORSDOF 28
