REMARK SMILES C[C@@H]1CCC[C@H](C)N1C(=O)Cn1cccc1C(=O)OCCOCCOCCOCCOC(=O)c1ccc(-c2c3nc(c(-c4c(F)cc(S(=O)(=O)[O-])cc4F)c4ccc([nH]4)c(-c4c(F)cc(S(=O)(=O)[O-])cc4F)c4nc(c(-c5c(F)cc(S(=O)(=O)[O-])cc5F)c5ccc2[nH]5)C=C4)C=C3)cc1
REMARK SMILES IDX 25 1 24 2 23 3 22 4 21 5 20 6 19 7 17 8 18 9 16 10 12 11
REMARK SMILES IDX 13 12 14 13 15 14 11 15 9 16 10 17 8 18 1 19 2 20 3 21 4 22
REMARK SMILES IDX 6 23 5 24 7 25 26 26 27 27 28 28 29 29 30 30 31 31 32 32
REMARK SMILES IDX 33 33 34 34 35 35 99 36 36 37 98 38 37 39 38 40 39 41 92 42
REMARK SMILES IDX 40 43 97 44 91 45 93 46 41 47 96 48 90 49 89 50 42 52 76 53
REMARK SMILES IDX 55 54 75 55 56 56 59 57 74 58 94 59 57 60 58 61 73 63 95 64
REMARK SMILES IDX 60 65 43 66 44 67 53 68 45 69 46 70 52 71 54 72 47 73 48 74
REMARK SMILES IDX 49 75 50 76 51 77 77 78 78 79 87 80 79 81 80 82 86 83 88 84
REMARK SMILES IDX 81 85 82 86 83 87 84 88 85 89 61 90 62 91 71 92 63 93 64 94
REMARK SMILES IDX 70 95 72 96 65 97 66 98 67 99 68 100 69 101
REMARK H PARENT 93 51 59 62
REMARK Flexibility Score: inf
ROOT
ATOM      1  O   UNL     1      -0.850  -0.781  -3.210  1.00  0.00    -0.377 OA
ENDROOT
BRANCH   1   2
ATOM      2  C   UNL     1      -0.651  -0.869  -1.796  1.00  0.00     0.188 C 
BRANCH   2   3
ATOM      3  C   UNL     1      -1.952  -0.701  -0.981  1.00  0.00     0.188 C 
BRANCH   3   4
ATOM      4  O   UNL     1      -2.147  -1.631   0.116  1.00  0.00    -0.376 OA
BRANCH   4   5
ATOM      5  C   UNL     1      -3.015  -1.092   1.152  1.00  0.00     0.202 C 
BRANCH   5   6
ATOM      6  C   UNL     1      -2.611  -1.369   2.655  1.00  0.00     0.261 C 
BRANCH   6   7
ATOM      7  O   UNL     1      -1.547  -0.520   3.213  1.00  0.00    -0.459 OA
BRANCH   7   8
ATOM      8  C   UNL     1      -1.169  -0.746   4.530  1.00  0.00     0.355 C 
ATOM      9  O   UNL     1      -1.882  -1.338   5.305  1.00  0.00    -0.244 OA
BRANCH   8  10
ATOM     10  C   UNL     1       0.286  -0.511   4.784  1.00  0.00     0.128 A 
ATOM     11  N   UNL     1       1.143   0.600   4.780  1.00  0.00    -0.333 N 
ATOM     12  C   UNL     1       2.424   0.210   5.147  1.00  0.00     0.087 A 
ATOM     13  C   UNL     1       2.438  -1.140   5.344  1.00  0.00     0.020 A 
ATOM     14  C   UNL     1       1.116  -1.581   5.149  1.00  0.00     0.035 A 
BRANCH  11  15
ATOM     15  C   UNL     1       0.919   2.026   4.568  1.00  0.00     0.222 C 
BRANCH  15  16
ATOM     16  C   UNL     1       0.619   2.433   3.162  1.00  0.00     0.242 C 
ATOM     17  O   UNL     1      -0.209   3.328   2.965  1.00  0.00    -0.273 OA
BRANCH  16  18
ATOM     18  N   UNL     1       1.112   1.640   2.142  1.00  0.00    -0.336 N 
ATOM     19  C   UNL     1       2.865   2.214   0.477  1.00  0.00     0.031 C 
ATOM     20  C   UNL     1       2.516   1.397   1.726  1.00  0.00     0.082 C 
ATOM     21  C   UNL     1       2.867  -0.085   1.435  1.00  0.00     0.025 C 
ATOM     22  C   UNL     1       1.757  -0.929   0.843  1.00  0.00     0.004 C 
ATOM     23  C   UNL     1       0.070   1.033   1.367  1.00  0.00     0.082 C 
ATOM     24  C   UNL     1       0.412  -0.465   1.315  1.00  0.00     0.025 C 
ATOM     25  C   UNL     1      -0.367   1.958   0.228  1.00  0.00     0.031 C 
ENDBRANCH  16  18
ENDBRANCH  15  16
ENDBRANCH  11  15
ENDBRANCH   8  10
ENDBRANCH   7   8
ENDBRANCH   6   7
ENDBRANCH   5   6
ENDBRANCH   4   5
ENDBRANCH   3   4
ENDBRANCH   2   3
ENDBRANCH   1   2
BRANCH   1  26
ATOM     26  C   UNL     1      -1.386  -1.968  -3.788  1.00  0.00     0.188 C 
BRANCH  26  27
ATOM     27  C   UNL     1      -0.345  -3.079  -4.010  1.00  0.00     0.188 C 
BRANCH  27  28
ATOM     28  O   UNL     1       0.387  -3.321  -2.815  1.00  0.00    -0.376 OA
BRANCH  28  29
ATOM     29  C   UNL     1       1.745  -3.712  -2.946  1.00  0.00     0.202 C 
BRANCH  29  30
ATOM     30  C   UNL     1       2.795  -2.645  -3.304  1.00  0.00     0.261 C 
BRANCH  30  31
ATOM     31  O   UNL     1       2.307  -1.310  -3.406  1.00  0.00    -0.460 OA
BRANCH  31  32
ATOM     32  C   UNL     1       2.030  -0.994  -4.686  1.00  0.00     0.338 C 
ATOM     33  O   UNL     1       2.080  -1.742  -5.655  1.00  0.00    -0.246 OA
BRANCH  32  34
ATOM     34  C   UNL     1       1.747   0.424  -4.876  1.00  0.00     0.060 A 
ATOM     35  C   UNL     1       0.689   0.678  -5.756  1.00  0.00     0.016 A 
ATOM     36  C   UNL     1       2.844   1.283  -4.744  1.00  0.00     0.016 A 
ATOM     37  C   UNL     1       0.850   1.663  -6.699  1.00  0.00     0.010 A 
ATOM     38  C   UNL     1       3.016   2.257  -5.708  1.00  0.00     0.010 A 
ATOM     39  C   UNL     1       2.062   2.361  -6.729  1.00  0.00    -0.014 A 
BRANCH  39  40
ATOM     40  C   UNL     1       2.322   3.145  -7.941  1.00  0.00     0.031 A 
ATOM     41  C   UNL     1       1.699   4.527  -7.833  1.00  0.00     0.074 A 
ATOM     42  C   UNL     1       2.935   2.453  -8.952  1.00  0.00     0.049 A 
ATOM     43  N   UNL     1       1.126   5.252  -8.741  1.00  0.00    -0.248 NA
ATOM     44  C   UNL     1       1.571   5.144  -6.482  1.00  0.00     0.031 C 
ATOM     45  C   UNL     1       3.415   1.052  -8.845  1.00  0.00     0.029 A 
ATOM     46  N   UNL     1       3.260   2.740 -10.260  1.00  0.00    -0.354 N 
ATOM     47  C   UNL     1       0.805   6.482  -8.134  1.00  0.00     0.074 A 
ATOM     48  C   UNL     1       0.933   6.290  -6.722  1.00  0.00     0.031 C 
ATOM     49  C   UNL     1       3.877   0.603 -10.030  1.00  0.00     0.029 A 
ATOM     50  C   UNL     1       3.770   1.652 -11.021  1.00  0.00     0.049 A 
ATOM     51  H   UNL     1       3.146   3.640 -10.643  1.00  0.00     0.167 HD
ATOM     52  C   UNL     1       0.634   7.639  -8.833  1.00  0.00     0.037 A 
ATOM     53  C   UNL     1       4.041   1.594 -12.363  1.00  0.00     0.037 A 
ATOM     54  C   UNL     1       0.835   7.412 -10.228  1.00  0.00     0.049 A 
ATOM     55  C   UNL     1       3.848   2.973 -12.853  1.00  0.00     0.074 A 
ATOM     56  C   UNL     1       0.074   6.790 -11.182  1.00  0.00     0.029 A 
ATOM     57  N   UNL     1       2.126   7.532 -10.695  1.00  0.00    -0.354 N 
ATOM     58  N   UNL     1       4.591   3.986 -12.525  1.00  0.00    -0.248 NA
ATOM     59  C   UNL     1       2.672   3.275 -13.675  1.00  0.00     0.031 C 
ATOM     60  C   UNL     1       1.024   6.158 -12.013  1.00  0.00     0.029 A 
ATOM     61  C   UNL     1       2.316   6.556 -11.647  1.00  0.00     0.049 A 
ATOM     62  H   UNL     1       2.792   8.195 -10.401  1.00  0.00     0.167 HD
ATOM     63  C   UNL     1       3.782   5.064 -12.796  1.00  0.00     0.074 A 
ATOM     64  C   UNL     1       2.786   4.599 -13.738  1.00  0.00     0.031 C 
ATOM     65  C   UNL     1       3.662   6.059 -11.877  1.00  0.00     0.037 A 
BRANCH  52  66
ATOM     66  C   UNL     1       0.554   9.062  -8.369  1.00  0.00     0.058 A 
ATOM     67  C   UNL     1      -0.090   9.995  -9.213  1.00  0.00     0.135 A 
ATOM     68  C   UNL     1       1.349   9.592  -7.341  1.00  0.00     0.135 A 
ATOM     69  F   UNL     1      -0.917   9.580 -10.188  1.00  0.00    -0.206 F 
ATOM     70  C   UNL     1       0.154  11.361  -9.135  1.00  0.00     0.059 A 
ATOM     71  C   UNL     1       1.574  10.964  -7.218  1.00  0.00     0.059 A 
ATOM     72  F   UNL     1       2.002   8.793  -6.487  1.00  0.00    -0.206 F 
ATOM     73  C   UNL     1       1.023  11.832  -8.158  1.00  0.00     0.060 A 
BRANCH  73  74
ATOM     74  S   UNL     1       1.474  13.578  -8.181  1.00  0.00     0.124 S 
ATOM     75  O   UNL     1       2.362  13.637  -9.337  1.00  0.00    -0.237 OA
ATOM     76  O   UNL     1       0.178  14.231  -8.345  1.00  0.00    -0.237 OA
ATOM     77  O   UNL     1       2.108  13.780  -6.883  1.00  0.00    -0.744 OA
ENDBRANCH  73  74
ENDBRANCH  52  66
BRANCH  53  78
ATOM     78  C   UNL     1       4.311   0.533 -13.415  1.00  0.00     0.058 A 
ATOM     79  C   UNL     1       4.244  -0.855 -13.228  1.00  0.00     0.135 A 
ATOM     80  C   UNL     1       4.439   0.929 -14.778  1.00  0.00     0.135 A 
ATOM     81  F   UNL     1       4.248  -1.395 -12.005  1.00  0.00    -0.206 F 
ATOM     82  C   UNL     1       4.128  -1.757 -14.301  1.00  0.00     0.059 A 
ATOM     83  C   UNL     1       4.269   0.063 -15.857  1.00  0.00     0.059 A 
ATOM     84  F   UNL     1       4.669   2.207 -15.115  1.00  0.00    -0.206 F 
ATOM     85  C   UNL     1       4.070  -1.282 -15.608  1.00  0.00     0.060 A 
BRANCH  85  86
ATOM     86  S   UNL     1       3.576  -2.371 -16.964  1.00  0.00     0.124 S 
ATOM     87  O   UNL     1       4.856  -2.914 -17.402  1.00  0.00    -0.237 OA
ATOM     88  O   UNL     1       2.677  -3.314 -16.304  1.00  0.00    -0.237 OA
ATOM     89  O   UNL     1       2.923  -1.457 -17.898  1.00  0.00    -0.744 OA
ENDBRANCH  85  86
ENDBRANCH  53  78
BRANCH  65  90
ATOM     90  C   UNL     1       4.859   6.188 -10.932  1.00  0.00     0.058 A 
ATOM     91  C   UNL     1       6.160   6.373 -11.435  1.00  0.00     0.135 A 
ATOM     92  C   UNL     1       4.780   6.031  -9.538  1.00  0.00     0.135 A 
ATOM     93  F   UNL     1       6.346   6.570 -12.751  1.00  0.00    -0.206 F 
ATOM     94  C   UNL     1       7.296   6.366 -10.613  1.00  0.00     0.059 A 
ATOM     95  C   UNL     1       5.890   6.019  -8.691  1.00  0.00     0.059 A 
ATOM     96  F   UNL     1       3.600   5.899  -8.943  1.00  0.00    -0.206 F 
ATOM     97  C   UNL     1       7.152   6.184  -9.238  1.00  0.00     0.060 A 
BRANCH  97  98
ATOM     98  S   UNL     1       8.616   6.188  -8.178  1.00  0.00     0.124 S 
ATOM     99  O   UNL     1       9.441   5.140  -8.769  1.00  0.00    -0.237 OA
ATOM    100  O   UNL     1       9.109   7.551  -8.348  1.00  0.00    -0.237 OA
ATOM    101  O   UNL     1       8.085   5.880  -6.851  1.00  0.00    -0.744 OA
ENDBRANCH  97  98
ENDBRANCH  65  90
ENDBRANCH  39  40
ENDBRANCH  32  34
ENDBRANCH  31  32
ENDBRANCH  30  31
ENDBRANCH  29  30
ENDBRANCH  28  29
ENDBRANCH  27  28
ENDBRANCH  26  27
ENDBRANCH   1  26
TORSDOF 26
