REMARK SMILES O=C(OCCOCCOCCOCCOC(=O)c1c(F)cccc1NS(=O)(=O)C(F)(F)F)c1ccc(-c2c3nc(c(-c4c(F)cc(S(=O)(=O)[O-])cc4F)c4ccc([nH]4)c(-c4c(F)cc(S(=O)(=O)[O-])cc4F)c4nc(c(-c5c(F)cc(S(=O)(=O)[O-])cc5F)c5ccc2[nH]5)C=C4)C=C3)cc1
REMARK SMILES IDX 9 1 8 2 7 3 6 4 5 5 4 6 3 7 2 8 1 9 33 10 34 11 98 12 35 13
REMARK SMILES IDX 97 14 36 15 37 16 38 17 91 18 39 19 96 20 90 21 92 22 40 23
REMARK SMILES IDX 95 24 89 25 88 26 41 28 75 29 54 30 74 31 55 32 58 33 73 34
REMARK SMILES IDX 93 35 56 36 57 37 72 39 94 40 59 41 42 42 43 43 52 44 44 45
REMARK SMILES IDX 45 46 51 47 53 48 46 49 47 50 48 51 49 52 50 53 76 54 77 55
REMARK SMILES IDX 86 56 78 57 79 58 85 59 87 60 80 61 81 62 82 63 83 64 84 65
REMARK SMILES IDX 60 66 61 67 70 68 62 69 63 70 69 71 71 72 64 73 65 74 66 75
REMARK SMILES IDX 67 76 68 77 10 78 11 79 12 80 13 81 14 82 15 83 16 84 17 85
REMARK SMILES IDX 18 86 19 87 24 88 20 89 21 90 23 91 22 92 25 93 26 95 27 96
REMARK SMILES IDX 28 97 29 98 30 99 31 100 32 101
REMARK H PARENT 92 27 58 38 25 94
REMARK Flexibility Score: inf
ROOT
ATOM      1  O   UNL     1       2.383   2.409  -2.872  1.00  0.00    -0.377 OA
ENDROOT
BRANCH   1   2
ATOM      2  C   UNL     1       1.732   1.927  -1.700  1.00  0.00     0.188 C 
BRANCH   2   3
ATOM      3  C   UNL     1       2.154   0.538  -1.220  1.00  0.00     0.188 C 
BRANCH   3   4
ATOM      4  O   UNL     1       3.491   0.562  -0.722  1.00  0.00    -0.376 OA
BRANCH   4   5
ATOM      5  C   UNL     1       4.322  -0.544  -1.085  1.00  0.00     0.202 C 
BRANCH   5   6
ATOM      6  C   UNL     1       4.137  -1.784  -0.211  1.00  0.00     0.261 C 
BRANCH   6   7
ATOM      7  O   UNL     1       2.789  -1.929   0.253  1.00  0.00    -0.460 OA
BRANCH   7   8
ATOM      8  C   UNL     1       2.232  -1.364   1.355  1.00  0.00     0.338 C 
ATOM      9  O   UNL     1       1.038  -1.576   1.570  1.00  0.00    -0.246 OA
BRANCH   8  10
ATOM     10  C   UNL     1       2.975  -0.509   2.336  1.00  0.00     0.060 A 
ATOM     11  C   UNL     1       4.136   0.218   2.070  1.00  0.00     0.016 A 
ATOM     12  C   UNL     1       2.421  -0.400   3.623  1.00  0.00     0.016 A 
ATOM     13  C   UNL     1       4.778   0.958   3.042  1.00  0.00     0.010 A 
ATOM     14  C   UNL     1       3.051   0.357   4.616  1.00  0.00     0.010 A 
ATOM     15  C   UNL     1       4.258   1.001   4.327  1.00  0.00    -0.014 A 
BRANCH  15  16
ATOM     16  C   UNL     1       5.154   1.511   5.373  1.00  0.00     0.031 A 
ATOM     17  C   UNL     1       5.875   0.492   6.202  1.00  0.00     0.074 A 
ATOM     18  C   UNL     1       5.470   2.817   5.402  1.00  0.00     0.049 A 
ATOM     19  N   UNL     1       6.693   0.663   7.200  1.00  0.00    -0.248 NA
ATOM     20  C   UNL     1       5.659  -0.923   5.838  1.00  0.00     0.031 C 
ATOM     21  C   UNL     1       4.954   3.828   4.473  1.00  0.00     0.029 A 
ATOM     22  N   UNL     1       6.338   3.508   6.199  1.00  0.00    -0.354 N 
ATOM     23  C   UNL     1       7.062  -0.615   7.602  1.00  0.00     0.074 A 
ATOM     24  C   UNL     1       6.374  -1.556   6.753  1.00  0.00     0.031 C 
ATOM     25  C   UNL     1       5.540   5.006   4.739  1.00  0.00     0.029 A 
ATOM     26  C   UNL     1       6.404   4.848   5.902  1.00  0.00     0.049 A 
ATOM     27  H   UNL     1       6.865   3.087   6.916  1.00  0.00     0.167 HD
ATOM     28  C   UNL     1       7.905  -0.957   8.600  1.00  0.00     0.037 A 
ATOM     29  C   UNL     1       7.066   5.833   6.537  1.00  0.00     0.037 A 
ATOM     30  C   UNL     1       8.568   0.025   9.412  1.00  0.00     0.049 A 
ATOM     31  C   UNL     1       7.884   5.446   7.739  1.00  0.00     0.074 A 
ATOM     32  C   UNL     1       9.356  -0.160  10.529  1.00  0.00     0.029 A 
ATOM     33  N   UNL     1       8.514   1.395   9.174  1.00  0.00    -0.354 N 
ATOM     34  N   UNL     1       8.119   4.244   8.218  1.00  0.00    -0.248 NA
ATOM     35  C   UNL     1       8.503   6.532   8.503  1.00  0.00     0.031 C 
ATOM     36  C   UNL     1       9.741   1.103  10.993  1.00  0.00     0.029 A 
ATOM     37  C   UNL     1       9.243   2.072  10.131  1.00  0.00     0.049 A 
ATOM     38  H   UNL     1       8.028   1.820   8.431  1.00  0.00     0.167 HD
ATOM     39  C   UNL     1       8.925   4.426   9.334  1.00  0.00     0.074 A 
ATOM     40  C   UNL     1       9.147   5.857   9.447  1.00  0.00     0.031 C 
ATOM     41  C   UNL     1       9.432   3.504  10.191  1.00  0.00     0.037 A 
BRANCH  28  42
ATOM     42  C   UNL     1       8.066  -2.422   8.893  1.00  0.00     0.058 A 
ATOM     43  C   UNL     1       7.473  -2.980  10.036  1.00  0.00     0.135 A 
ATOM     44  C   UNL     1       8.748  -3.290   8.023  1.00  0.00     0.135 A 
ATOM     45  F   UNL     1       6.786  -2.204  10.889  1.00  0.00    -0.206 F 
ATOM     46  C   UNL     1       7.551  -4.342  10.309  1.00  0.00     0.059 A 
ATOM     47  C   UNL     1       8.817  -4.661   8.263  1.00  0.00     0.059 A 
ATOM     48  F   UNL     1       9.294  -2.819   6.890  1.00  0.00    -0.206 F 
ATOM     49  C   UNL     1       8.220  -5.176   9.414  1.00  0.00     0.060 A 
BRANCH  49  50
ATOM     50  S   UNL     1       8.248  -6.951   9.748  1.00  0.00     0.124 S 
ATOM     51  O   UNL     1       9.133  -7.024  10.905  1.00  0.00    -0.237 OA
ATOM     52  O   UNL     1       6.839  -7.237  10.005  1.00  0.00    -0.237 OA
ATOM     53  O   UNL     1       8.777  -7.521   8.512  1.00  0.00    -0.744 OA
ENDBRANCH  49  50
ENDBRANCH  28  42
BRANCH  29  54
ATOM     54  C   UNL     1       6.932   7.242   6.075  1.00  0.00     0.058 A 
ATOM     55  C   UNL     1       5.692   7.903   6.114  1.00  0.00     0.135 A 
ATOM     56  C   UNL     1       8.019   7.942   5.532  1.00  0.00     0.135 A 
ATOM     57  F   UNL     1       4.614   7.285   6.622  1.00  0.00    -0.206 F 
ATOM     58  C   UNL     1       5.525   9.184   5.597  1.00  0.00     0.059 A 
ATOM     59  C   UNL     1       7.884   9.237   5.033  1.00  0.00     0.059 A 
ATOM     60  F   UNL     1       9.230   7.365   5.483  1.00  0.00    -0.206 F 
ATOM     61  C   UNL     1       6.627   9.842   5.052  1.00  0.00     0.060 A 
BRANCH  61  62
ATOM     62  S   UNL     1       6.380  11.495   4.368  1.00  0.00     0.124 S 
ATOM     63  O   UNL     1       5.524  11.214   3.220  1.00  0.00    -0.237 OA
ATOM     64  O   UNL     1       5.742  12.193   5.479  1.00  0.00    -0.237 OA
ATOM     65  O   UNL     1       7.734  11.935   4.047  1.00  0.00    -0.744 OA
ENDBRANCH  61  62
ENDBRANCH  29  54
BRANCH  41  66
ATOM     66  C   UNL     1      10.295   4.014  11.305  1.00  0.00     0.058 A 
ATOM     67  C   UNL     1      11.674   3.754  11.301  1.00  0.00     0.135 A 
ATOM     68  C   UNL     1       9.745   4.668  12.417  1.00  0.00     0.135 A 
ATOM     69  F   UNL     1      12.242   3.122  10.262  1.00  0.00    -0.206 F 
ATOM     70  C   UNL     1      12.477   4.103  12.377  1.00  0.00     0.059 A 
ATOM     71  C   UNL     1      10.536   5.055  13.492  1.00  0.00     0.059 A 
ATOM     72  F   UNL     1       8.432   4.945  12.458  1.00  0.00    -0.206 F 
ATOM     73  C   UNL     1      11.897   4.749  13.470  1.00  0.00     0.060 A 
BRANCH  73  74
ATOM     74  S   UNL     1      12.958   5.197  14.858  1.00  0.00     0.124 S 
ATOM     75  O   UNL     1      13.253   3.892  15.440  1.00  0.00    -0.237 OA
ATOM     76  O   UNL     1      14.072   5.863  14.190  1.00  0.00    -0.237 OA
ATOM     77  O   UNL     1      12.109   6.068  15.665  1.00  0.00    -0.744 OA
ENDBRANCH  73  74
ENDBRANCH  41  66
ENDBRANCH  15  16
ENDBRANCH   8  10
ENDBRANCH   7   8
ENDBRANCH   6   7
ENDBRANCH   5   6
ENDBRANCH   4   5
ENDBRANCH   3   4
ENDBRANCH   2   3
ENDBRANCH   1   2
BRANCH   1  78
ATOM     78  C   UNL     1       3.786   2.205  -2.928  1.00  0.00     0.188 C 
BRANCH  78  79
ATOM     79  C   UNL     1       4.698   2.910  -1.898  1.00  0.00     0.188 C 
BRANCH  79  80
ATOM     80  O   UNL     1       4.100   3.737  -0.931  1.00  0.00    -0.376 OA
BRANCH  80  81
ATOM     81  C   UNL     1       3.505   4.970  -1.282  1.00  0.00     0.202 C 
BRANCH  81  82
ATOM     82  C   UNL     1       3.610   5.665  -2.655  1.00  0.00     0.261 C 
BRANCH  82  83
ATOM     83  O   UNL     1       3.991   4.895  -3.798  1.00  0.00    -0.460 OA
BRANCH  83  84
ATOM     84  C   UNL     1       5.269   4.961  -4.250  1.00  0.00     0.343 C 
ATOM     85  O   UNL     1       6.219   5.521  -3.732  1.00  0.00    -0.246 OA
BRANCH  84  86
ATOM     86  C   UNL     1       5.380   4.053  -5.409  1.00  0.00     0.119 A 
ATOM     87  C   UNL     1       4.441   4.225  -6.433  1.00  0.00     0.139 A 
ATOM     88  C   UNL     1       6.298   2.978  -5.463  1.00  0.00     0.066 A 
ATOM     89  F   UNL     1       3.581   5.254  -6.413  1.00  0.00    -0.206 F 
ATOM     90  C   UNL     1       4.374   3.343  -7.503  1.00  0.00     0.040 A 
ATOM     91  C   UNL     1       6.220   2.111  -6.562  1.00  0.00     0.028 A 
ATOM     92  C   UNL     1       5.260   2.278  -7.563  1.00  0.00     0.005 A 
BRANCH  88  93
ATOM     93  N   UNL     1       7.372   2.812  -4.514  1.00  0.00    -0.275 N 
ATOM     94  H   UNL     1       7.927   3.593  -4.287  1.00  0.00     0.180 HD
BRANCH  93  95
ATOM     95  S   UNL     1       7.720   1.318  -3.772  1.00  0.00     0.333 S 
ATOM     96  O   UNL     1       8.665   1.663  -2.725  1.00  0.00    -0.197 OA
ATOM     97  O   UNL     1       6.449   0.721  -3.403  1.00  0.00    -0.197 OA
BRANCH  95  98
ATOM     98  C   UNL     1       8.582   0.237  -5.037  1.00  0.00     0.516 C 
ATOM     99  F   UNL     1       7.693  -0.571  -5.691  1.00  0.00    -0.155 F 
ATOM    100  F   UNL     1       9.218   0.963  -6.000  1.00  0.00    -0.155 F 
ATOM    101  F   UNL     1       9.509  -0.593  -4.483  1.00  0.00    -0.155 F 
ENDBRANCH  95  98
ENDBRANCH  93  95
ENDBRANCH  88  93
ENDBRANCH  84  86
ENDBRANCH  83  84
ENDBRANCH  82  83
ENDBRANCH  81  82
ENDBRANCH  80  81
ENDBRANCH  79  80
ENDBRANCH  78  79
ENDBRANCH   1  78
TORSDOF 26
