REMARK SMILES C[C@@H](C(=O)OCCOCCOCCOCCOC(=O)c1ccc(-c2c3nc(c(-c4c(F)cc(S(=O)(=O)[O-])cc4F)c4ccc([nH]4)c(-c4c(F)cc(S(=O)(=O)[O-])cc4F)c4nc(c(-c5c(F)cc(S(=O)(=O)[O-])cc5F)c5ccc2[nH]5)C=C4)C=C3)cc1)c1ccc(C[C@H]2CCC[C@H]2O)cc1-c1ccc(O)cc1
REMARK SMILES IDX 10 1 9 2 8 3 7 4 6 5 5 6 3 7 4 8 2 9 1 10 86 11 87 12 98 13
REMARK SMILES IDX 88 14 97 15 89 16 99 17 100 18 105 19 101 20 104 21 102 22
REMARK SMILES IDX 103 23 90 25 91 26 92 27 95 28 93 29 94 30 96 31 11 33 12 34
REMARK SMILES IDX 13 35 14 36 15 37 16 38 17 39 18 40 19 41 20 42 21 43 85 44
REMARK SMILES IDX 22 45 84 46 23 47 24 48 25 49 78 50 26 51 83 52 77 53 79 54
REMARK SMILES IDX 27 55 82 56 76 57 75 58 28 60 62 61 41 62 61 63 42 64 45 65
REMARK SMILES IDX 60 66 80 67 43 68 44 69 59 71 81 72 46 73 29 74 30 75 39 76
REMARK SMILES IDX 31 77 32 78 38 79 40 80 33 81 34 82 35 83 36 84 37 85 63 86
REMARK SMILES IDX 64 87 73 88 65 89 66 90 72 91 74 92 67 93 68 94 69 95 70 96
REMARK SMILES IDX 71 97 47 98 48 99 57 100 49 101 50 102 56 103 58 104 51 105
REMARK SMILES IDX 52 106 53 107 54 108 55 109
REMARK H PARENT 103 24 96 32 79 59 45 70
REMARK Flexibility Score: inf
ROOT
ATOM      1  C   UNL     1       1.949  -2.439   0.244  1.00  0.00     0.188 C 
ENDROOT
BRANCH   1   2
ATOM      2  C   UNL     1       2.116  -2.119  -1.232  1.00  0.00     0.188 C 
BRANCH   2   3
ATOM      3  O   UNL     1       2.192  -3.235  -2.103  1.00  0.00    -0.376 OA
BRANCH   3   4
ATOM      4  C   UNL     1       2.192  -2.958  -3.507  1.00  0.00     0.202 C 
BRANCH   4   5
ATOM      5  C   UNL     1       2.701  -1.580  -3.962  1.00  0.00     0.261 C 
BRANCH   5   6
ATOM      6  O   UNL     1       1.975  -0.487  -3.359  1.00  0.00    -0.463 OA
BRANCH   6   7
ATOM      7  C   UNL     1       0.639  -0.409  -3.614  1.00  0.00     0.313 C 
ATOM      8  O   UNL     1       0.105  -0.944  -4.575  1.00  0.00    -0.252 OA
BRANCH   7   9
ATOM      9  C   UNL     1      -0.052   0.521  -2.618  1.00  0.00     0.127 C 
ATOM     10  C   UNL     1       0.604   0.748  -1.239  1.00  0.00     0.025 C 
BRANCH   9  11
ATOM     11  C   UNL     1      -1.553   0.310  -2.395  1.00  0.00    -0.026 A 
ATOM     12  C   UNL     1      -2.286   1.519  -2.385  1.00  0.00     0.005 A 
ATOM     13  C   UNL     1      -2.235  -0.893  -2.075  1.00  0.00    -0.014 A 
ATOM     14  C   UNL     1      -3.631   1.565  -2.049  1.00  0.00     0.004 A 
ATOM     15  C   UNL     1      -3.593  -0.797  -1.675  1.00  0.00     0.012 A 
ATOM     16  C   UNL     1      -4.286   0.417  -1.628  1.00  0.00    -0.047 A 
BRANCH  13  17
ATOM     17  C   UNL     1      -1.719  -2.276  -2.159  1.00  0.00    -0.018 A 
ATOM     18  C   UNL     1      -1.716  -2.953  -3.392  1.00  0.00     0.012 A 
ATOM     19  C   UNL     1      -1.468  -3.042  -1.007  1.00  0.00     0.012 A 
ATOM     20  C   UNL     1      -1.405  -4.315  -3.485  1.00  0.00     0.047 A 
ATOM     21  C   UNL     1      -1.172  -4.410  -1.095  1.00  0.00     0.047 A 
ATOM     22  C   UNL     1      -1.113  -5.030  -2.336  1.00  0.00     0.115 A 
BRANCH  22  23
ATOM     23  O   UNL     1      -0.776  -6.344  -2.461  1.00  0.00    -0.508 OA
ATOM     24  H   UNL     1      -0.743  -6.741  -3.309  1.00  0.00     0.293 HD
ENDBRANCH  22  23
ENDBRANCH  13  17
BRANCH  16  25
ATOM     25  C   UNL     1      -5.709   0.486  -1.147  1.00  0.00     0.041 C 
BRANCH  25  26
ATOM     26  C   UNL     1      -5.951   0.937   0.302  1.00  0.00     0.022 C 
ATOM     27  C   UNL     1      -5.270   0.098   1.394  1.00  0.00     0.007 C 
ATOM     28  C   UNL     1      -5.633   2.389   0.692  1.00  0.00     0.117 C 
ATOM     29  C   UNL     1      -5.140   1.027   2.608  1.00  0.00     0.003 C 
ATOM     30  C   UNL     1      -5.793   2.350   2.207  1.00  0.00     0.032 C 
BRANCH  28  31
ATOM     31  O   UNL     1      -4.314   2.822   0.406  1.00  0.00    -0.393 OA
ATOM     32  H   UNL     1      -3.680   2.254   0.870  1.00  0.00     0.210 HD
ENDBRANCH  28  31
ENDBRANCH  25  26
ENDBRANCH  16  25
ENDBRANCH   9  11
ENDBRANCH   7   9
ENDBRANCH   6   7
ENDBRANCH   5   6
ENDBRANCH   4   5
ENDBRANCH   3   4
ENDBRANCH   2   3
ENDBRANCH   1   2
BRANCH   1  33
ATOM     33  O   UNL     1       2.916  -3.279   0.838  1.00  0.00    -0.377 OA
BRANCH  33  34
ATOM     34  C   UNL     1       3.402  -4.353   0.044  1.00  0.00     0.188 C 
BRANCH  34  35
ATOM     35  C   UNL     1       2.416  -5.486  -0.301  1.00  0.00     0.188 C 
BRANCH  35  36
ATOM     36  O   UNL     1       1.856  -6.239   0.779  1.00  0.00    -0.376 OA
BRANCH  36  37
ATOM     37  C   UNL     1       1.014  -5.523   1.675  1.00  0.00     0.202 C 
BRANCH  37  38
ATOM     38  C   UNL     1       1.586  -5.408   3.091  1.00  0.00     0.261 C 
BRANCH  38  39
ATOM     39  O   UNL     1       3.006  -5.269   3.092  1.00  0.00    -0.460 OA
BRANCH  39  40
ATOM     40  C   UNL     1       3.682  -6.435   2.893  1.00  0.00     0.338 C 
ATOM     41  O   UNL     1       3.241  -7.563   2.929  1.00  0.00    -0.246 OA
BRANCH  40  42
ATOM     42  C   UNL     1       5.042  -6.080   2.438  1.00  0.00     0.060 A 
ATOM     43  C   UNL     1       5.559  -6.732   1.306  1.00  0.00     0.016 A 
ATOM     44  C   UNL     1       5.743  -5.033   3.046  1.00  0.00     0.016 A 
ATOM     45  C   UNL     1       6.803  -6.357   0.803  1.00  0.00     0.010 A 
ATOM     46  C   UNL     1       6.999  -4.682   2.566  1.00  0.00     0.010 A 
ATOM     47  C   UNL     1       7.548  -5.377   1.475  1.00  0.00    -0.014 A 
BRANCH  47  48
ATOM     48  C   UNL     1       9.011  -5.330   1.283  1.00  0.00     0.031 A 
ATOM     49  C   UNL     1       9.821  -6.254   2.151  1.00  0.00     0.074 A 
ATOM     50  C   UNL     1       9.588  -4.494   0.406  1.00  0.00     0.049 A 
ATOM     51  N   UNL     1      11.114  -6.388   2.243  1.00  0.00    -0.248 NA
ATOM     52  C   UNL     1       9.058  -7.146   3.047  1.00  0.00     0.031 C 
ATOM     53  C   UNL     1       8.880  -3.582  -0.491  1.00  0.00     0.029 A 
ATOM     54  N   UNL     1      10.913  -4.271   0.138  1.00  0.00    -0.354 N 
ATOM     55  C   UNL     1      11.317  -7.375   3.202  1.00  0.00     0.074 A 
ATOM     56  C   UNL     1      10.022  -7.786   3.686  1.00  0.00     0.031 C 
ATOM     57  C   UNL     1       9.784  -2.884  -1.204  1.00  0.00     0.029 A 
ATOM     58  C   UNL     1      11.130  -3.281  -0.790  1.00  0.00     0.049 A 
ATOM     59  H   UNL     1      11.642  -4.772   0.571  1.00  0.00     0.167 HD
ATOM     60  C   UNL     1      12.486  -7.893   3.639  1.00  0.00     0.037 A 
ATOM     61  C   UNL     1      12.289  -2.754  -1.231  1.00  0.00     0.037 A 
ATOM     62  C   UNL     1      13.765  -7.448   3.164  1.00  0.00     0.049 A 
ATOM     63  C   UNL     1      13.584  -3.303  -0.682  1.00  0.00     0.074 A 
ATOM     64  C   UNL     1      15.021  -7.897   3.523  1.00  0.00     0.029 A 
ATOM     65  N   UNL     1      13.946  -6.434   2.234  1.00  0.00    -0.354 N 
ATOM     66  N   UNL     1      13.768  -4.263   0.197  1.00  0.00    -0.248 NA
ATOM     67  C   UNL     1      14.827  -2.703  -1.183  1.00  0.00     0.031 C 
ATOM     68  C   UNL     1      15.965  -7.117   2.848  1.00  0.00     0.029 A 
ATOM     69  C   UNL     1      15.296  -6.223   2.023  1.00  0.00     0.049 A 
ATOM     70  H   UNL     1      13.221  -5.938   1.790  1.00  0.00     0.167 HD
ATOM     71  C   UNL     1      15.145  -4.402   0.330  1.00  0.00     0.074 A 
ATOM     72  C   UNL     1      15.746  -3.433  -0.565  1.00  0.00     0.031 C 
ATOM     73  C   UNL     1      15.854  -5.253   1.115  1.00  0.00     0.037 A 
BRANCH  60  74
ATOM     74  C   UNL     1      12.418  -8.955   4.699  1.00  0.00     0.058 A 
ATOM     75  C   UNL     1      11.930 -10.244   4.428  1.00  0.00     0.135 A 
ATOM     76  C   UNL     1      12.841  -8.677   6.009  1.00  0.00     0.135 A 
ATOM     77  F   UNL     1      11.481 -10.553   3.201  1.00  0.00    -0.206 F 
ATOM     78  C   UNL     1      11.844 -11.213   5.422  1.00  0.00     0.059 A 
ATOM     79  C   UNL     1      12.790  -9.640   7.012  1.00  0.00     0.059 A 
ATOM     80  F   UNL     1      13.298  -7.456   6.327  1.00  0.00    -0.206 F 
ATOM     81  C   UNL     1      12.280 -10.902   6.711  1.00  0.00     0.060 A 
BRANCH  81  82
ATOM     82  S   UNL     1      12.178 -12.175   7.986  1.00  0.00     0.124 S 
ATOM     83  O   UNL     1      10.739 -12.238   8.223  1.00  0.00    -0.237 OA
ATOM     84  O   UNL     1      12.760 -13.334   7.317  1.00  0.00    -0.237 OA
ATOM     85  O   UNL     1      12.970 -11.624   9.081  1.00  0.00    -0.744 OA
ENDBRANCH  81  82
ENDBRANCH  60  74
BRANCH  61  86
ATOM     86  C   UNL     1      12.283  -1.655  -2.235  1.00  0.00     0.058 A 
ATOM     87  C   UNL     1      12.753  -1.862  -3.541  1.00  0.00     0.135 A 
ATOM     88  C   UNL     1      11.805  -0.375  -1.912  1.00  0.00     0.135 A 
ATOM     89  F   UNL     1      13.231  -3.063  -3.899  1.00  0.00    -0.206 F 
ATOM     90  C   UNL     1      12.761  -0.839  -4.486  1.00  0.00     0.059 A 
ATOM     91  C   UNL     1      11.779   0.657  -2.847  1.00  0.00     0.059 A 
ATOM     92  F   UNL     1      11.335  -0.123  -0.680  1.00  0.00    -0.206 F 
ATOM     93  C   UNL     1      12.268   0.417  -4.130  1.00  0.00     0.060 A 
BRANCH  93  94
ATOM     94  S   UNL     1      12.234   1.721  -5.380  1.00  0.00     0.124 S 
ATOM     95  O   UNL     1      13.649   2.045  -5.507  1.00  0.00    -0.237 OA
ATOM     96  O   UNL     1      11.629   1.037  -6.519  1.00  0.00    -0.237 OA
ATOM     97  O   UNL     1      11.402   2.752  -4.766  1.00  0.00    -0.744 OA
ENDBRANCH  93  94
ENDBRANCH  61  86
BRANCH  73  98
ATOM     98  C   UNL     1      17.352  -5.202   1.010  1.00  0.00     0.058 A 
ATOM     99  C   UNL     1      18.096  -4.144   1.552  1.00  0.00     0.135 A 
ATOM    100  C   UNL     1      18.054  -6.268   0.423  1.00  0.00     0.135 A 
ATOM    101  F   UNL     1      17.471  -3.101   2.123  1.00  0.00    -0.206 F 
ATOM    102  C   UNL     1      19.485  -4.131   1.494  1.00  0.00     0.059 A 
ATOM    103  C   UNL     1      19.443  -6.291   0.381  1.00  0.00     0.059 A 
ATOM    104  F   UNL     1      17.388  -7.313  -0.096  1.00  0.00    -0.206 F 
ATOM    105  C   UNL     1      20.149  -5.211   0.908  1.00  0.00     0.060 A 
BRANCH 105 106
ATOM    106  S   UNL     1      21.953  -5.199   0.871  1.00  0.00     0.124 S 
ATOM    107  O   UNL     1      22.217  -4.204  -0.163  1.00  0.00    -0.237 OA
ATOM    108  O   UNL     1      22.291  -4.803   2.234  1.00  0.00    -0.237 OA
ATOM    109  O   UNL     1      22.295  -6.574   0.521  1.00  0.00    -0.744 OA
ENDBRANCH 105 106
ENDBRANCH  73  98
ENDBRANCH  47  48
ENDBRANCH  40  42
ENDBRANCH  39  40
ENDBRANCH  38  39
ENDBRANCH  37  38
ENDBRANCH  36  37
ENDBRANCH  35  36
ENDBRANCH  34  35
ENDBRANCH  33  34
ENDBRANCH   1  33
TORSDOF 29
