REMARK SMILES O=C(Nc1ccsc1C(=O)OCCOCCOCCOCCOC(=O)c1ccc(-c2c3nc(c(-c4c(F)cc(S(=O)(=O)[O-])cc4F)c4ccc([nH]4)c(-c4c(F)cc(S(=O)(=O)[O-])cc4F)c4nc(c(-c5c(F)cc(S(=O)(=O)[O-])cc5F)c5ccc2[nH]5)C=C4)C=C3)cc1)c1ccc(Br)nc1
REMARK SMILES IDX 18 1 17 2 16 3 15 4 14 5 13 6 12 7 11 8 9 9 10 10 8 11 4 12
REMARK SMILES IDX 5 13 6 14 7 15 3 16 1 17 2 18 92 20 93 21 98 22 94 23 97 24
REMARK SMILES IDX 95 25 96 26 19 27 20 28 21 29 22 30 23 31 24 32 25 33 26 34
REMARK SMILES IDX 27 35 91 36 28 37 90 38 29 39 30 40 31 41 84 42 32 43 89 44
REMARK SMILES IDX 83 45 85 46 33 47 88 48 82 49 81 50 34 52 68 53 47 54 67 55
REMARK SMILES IDX 48 56 51 57 66 58 86 59 49 60 50 61 65 63 87 64 52 65 35 66
REMARK SMILES IDX 36 67 45 68 37 69 38 70 44 71 46 72 39 73 40 74 41 75 42 76
REMARK SMILES IDX 43 77 69 78 70 79 79 80 71 81 72 82 78 83 80 84 73 85 74 86
REMARK SMILES IDX 75 87 76 88 77 89 53 90 54 91 63 92 55 93 56 94 62 95 64 96
REMARK SMILES IDX 57 97 58 98 59 99 60 100 61 101
REMARK H PARENT 3 19 85 51 51 62
REMARK Flexibility Score: inf
ROOT
ATOM      1  C   UNL     1       2.824   4.074   2.787  1.00  0.00     0.188 C 
ENDROOT
BRANCH   1   2
ATOM      2  O   UNL     1       3.388   3.535   1.590  1.00  0.00    -0.377 OA
BRANCH   2   3
ATOM      3  C   UNL     1       4.800   3.405   1.550  1.00  0.00     0.188 C 
BRANCH   3   4
ATOM      4  C   UNL     1       5.486   4.644   0.956  1.00  0.00     0.188 C 
BRANCH   4   5
ATOM      5  O   UNL     1       4.612   5.764   0.845  1.00  0.00    -0.376 OA
BRANCH   5   6
ATOM      6  C   UNL     1       4.093   6.048  -0.451  1.00  0.00     0.202 C 
BRANCH   6   7
ATOM      7  C   UNL     1       3.084   5.050  -1.048  1.00  0.00     0.261 C 
BRANCH   7   8
ATOM      8  O   UNL     1       3.559   3.702  -1.212  1.00  0.00    -0.459 OA
BRANCH   8   9
ATOM      9  C   UNL     1       4.585   3.481  -2.073  1.00  0.00     0.350 C 
ATOM     10  O   UNL     1       5.065   4.346  -2.798  1.00  0.00    -0.245 OA
BRANCH   9  11
ATOM     11  C   UNL     1       5.079   2.121  -1.897  1.00  0.00     0.136 A 
ATOM     12  C   UNL     1       4.497   0.998  -1.306  1.00  0.00     0.067 A 
ATOM     13  C   UNL     1       5.402  -0.113  -1.332  1.00  0.00     0.039 A 
ATOM     14  C   UNL     1       6.637   0.205  -1.847  1.00  0.00     0.068 A 
ATOM     15  S   UNL     1       6.696   1.810  -2.400  1.00  0.00    -0.135 S 
BRANCH  12  16
ATOM     16  N   UNL     1       3.193   1.007  -0.807  1.00  0.00    -0.320 N 
ATOM     17  O   UNL     1       1.265   0.131   0.003  1.00  0.00    -0.269 OA
ATOM     18  C   UNL     1       2.489   0.072  -0.083  1.00  0.00     0.257 C 
ATOM     19  H   UNL     1       2.688   1.828  -1.008  1.00  0.00     0.170 HD
BRANCH  18  20
ATOM     20  C   UNL     1       3.170  -0.990   0.666  1.00  0.00     0.058 A 
ATOM     21  C   UNL     1       2.820  -2.327   0.481  1.00  0.00     0.018 A 
ATOM     22  C   UNL     1       4.131  -0.682   1.617  1.00  0.00     0.126 A 
ATOM     23  C   UNL     1       3.497  -3.308   1.204  1.00  0.00     0.037 A 
ATOM     24  N   UNL     1       4.817  -1.617   2.320  1.00  0.00    -0.249 NA
ATOM     25  C   UNL     1       4.486  -2.910   2.095  1.00  0.00     0.106 A 
ATOM     26  Br  UNL     1       5.455  -4.238   3.041  1.00  0.00    -0.029 Br
ENDBRANCH  18  20
ENDBRANCH  12  16
ENDBRANCH   9  11
ENDBRANCH   8   9
ENDBRANCH   7   8
ENDBRANCH   6   7
ENDBRANCH   5   6
ENDBRANCH   4   5
ENDBRANCH   3   4
ENDBRANCH   2   3
ENDBRANCH   1   2
BRANCH   1  27
ATOM     27  C   UNL     1       3.591   5.150   3.583  1.00  0.00     0.188 C 
BRANCH  27  28
ATOM     28  O   UNL     1       4.881   4.715   4.022  1.00  0.00    -0.376 OA
BRANCH  28  29
ATOM     29  C   UNL     1       4.997   4.403   5.408  1.00  0.00     0.202 C 
BRANCH  29  30
ATOM     30  C   UNL     1       4.412   3.035   5.787  1.00  0.00     0.261 C 
BRANCH  30  31
ATOM     31  O   UNL     1       2.984   2.936   5.665  1.00  0.00    -0.460 OA
BRANCH  31  32
ATOM     32  C   UNL     1       2.243   3.796   6.397  1.00  0.00     0.338 C 
ATOM     33  O   UNL     1       2.648   4.600   7.216  1.00  0.00    -0.246 OA
BRANCH  32  34
ATOM     34  C   UNL     1       0.854   3.738   5.901  1.00  0.00     0.060 A 
ATOM     35  C   UNL     1       0.223   4.932   5.532  1.00  0.00     0.016 A 
ATOM     36  C   UNL     1       0.176   2.519   5.819  1.00  0.00     0.016 A 
ATOM     37  C   UNL     1      -1.112   4.914   5.126  1.00  0.00     0.010 A 
ATOM     38  C   UNL     1      -1.163   2.505   5.426  1.00  0.00     0.010 A 
ATOM     39  C   UNL     1      -1.823   3.706   5.115  1.00  0.00    -0.014 A 
BRANCH  39  40
ATOM     40  C   UNL     1      -3.297   3.716   4.967  1.00  0.00     0.031 A 
ATOM     41  C   UNL     1      -4.137   3.727   6.215  1.00  0.00     0.074 A 
ATOM     42  C   UNL     1      -3.877   3.707   3.755  1.00  0.00     0.049 A 
ATOM     43  N   UNL     1      -5.438   3.693   6.340  1.00  0.00    -0.248 NA
ATOM     44  C   UNL     1      -3.409   3.780   7.494  1.00  0.00     0.031 C 
ATOM     45  C   UNL     1      -3.169   3.714   2.477  1.00  0.00     0.029 A 
ATOM     46  N   UNL     1      -5.204   3.677   3.407  1.00  0.00    -0.354 N 
ATOM     47  C   UNL     1      -5.685   3.720   7.707  1.00  0.00     0.074 A 
ATOM     48  C   UNL     1      -4.401   3.744   8.372  1.00  0.00     0.031 C 
ATOM     49  C   UNL     1      -4.072   3.673   1.480  1.00  0.00     0.029 A 
ATOM     50  C   UNL     1      -5.417   3.614   2.051  1.00  0.00     0.049 A 
ATOM     51  H   UNL     1      -5.935   3.698   4.066  1.00  0.00     0.167 HD
ATOM     52  C   UNL     1      -6.876   3.730   8.351  1.00  0.00     0.037 A 
ATOM     53  C   UNL     1      -6.566   3.501   1.355  1.00  0.00     0.037 A 
ATOM     54  C   UNL     1      -8.152   3.692   7.689  1.00  0.00     0.049 A 
ATOM     55  C   UNL     1      -7.878   3.454   2.095  1.00  0.00     0.074 A 
ATOM     56  C   UNL     1      -9.415   3.714   8.252  1.00  0.00     0.029 A 
ATOM     57  N   UNL     1      -8.326   3.615   6.315  1.00  0.00    -0.354 N 
ATOM     58  N   UNL     1      -8.100   3.515   3.387  1.00  0.00    -0.248 NA
ATOM     59  C   UNL     1      -9.097   3.325   1.283  1.00  0.00     0.031 C 
ATOM     60  C   UNL     1     -10.354   3.610   7.219  1.00  0.00     0.029 A 
ATOM     61  C   UNL     1      -9.675   3.567   6.012  1.00  0.00     0.049 A 
ATOM     62  H   UNL     1      -7.597   3.597   5.654  1.00  0.00     0.167 HD
ATOM     63  C   UNL     1      -9.482   3.457   3.540  1.00  0.00     0.074 A 
ATOM     64  C   UNL     1     -10.046   3.363   2.209  1.00  0.00     0.031 C 
ATOM     65  C   UNL     1     -10.219   3.481   4.679  1.00  0.00     0.037 A 
BRANCH  52  66
ATOM     66  C   UNL     1      -6.845   3.760   9.852  1.00  0.00     0.058 A 
ATOM     67  C   UNL     1      -6.488   4.921  10.556  1.00  0.00     0.135 A 
ATOM     68  C   UNL     1      -7.182   2.618  10.596  1.00  0.00     0.135 A 
ATOM     69  F   UNL     1      -6.136   6.033   9.892  1.00  0.00    -0.206 F 
ATOM     70  C   UNL     1      -6.440   4.942  11.946  1.00  0.00     0.059 A 
ATOM     71  C   UNL     1      -7.163   2.623  11.987  1.00  0.00     0.059 A 
ATOM     72  F   UNL     1      -7.524   1.481   9.970  1.00  0.00    -0.206 F 
ATOM     73  C   UNL     1      -6.776   3.785  12.653  1.00  0.00     0.060 A 
BRANCH  73  74
ATOM     74  S   UNL     1      -6.702   3.822  14.456  1.00  0.00     0.124 S 
ATOM     75  O   UNL     1      -5.262   3.767  14.688  1.00  0.00    -0.237 OA
ATOM     76  O   UNL     1      -7.345   5.093  14.771  1.00  0.00    -0.237 OA
ATOM     77  O   UNL     1      -7.447   2.631  14.851  1.00  0.00    -0.744 OA
ENDBRANCH  73  74
ENDBRANCH  52  66
BRANCH  53  78
ATOM     78  C   UNL     1      -6.530   3.418  -0.129  1.00  0.00     0.058 A 
ATOM     79  C   UNL     1      -6.976   4.484  -0.923  1.00  0.00     0.135 A 
ATOM     80  C   UNL     1      -6.051   2.271  -0.780  1.00  0.00     0.135 A 
ATOM     81  F   UNL     1      -7.455   5.596  -0.346  1.00  0.00    -0.206 F 
ATOM     82  C   UNL     1      -6.959   4.413  -2.313  1.00  0.00     0.059 A 
ATOM     83  C   UNL     1      -6.004   2.185  -2.168  1.00  0.00     0.059 A 
ATOM     84  F   UNL     1      -5.609   1.226  -0.064  1.00  0.00    -0.206 F 
ATOM     85  C   UNL     1      -6.468   3.259  -2.926  1.00  0.00     0.060 A 
BRANCH  85  86
ATOM     86  S   UNL     1      -6.402   3.197  -4.731  1.00  0.00     0.124 S 
ATOM     87  O   UNL     1      -7.805   2.988  -5.069  1.00  0.00    -0.237 OA
ATOM     88  O   UNL     1      -5.854   4.508  -5.064  1.00  0.00    -0.237 OA
ATOM     89  O   UNL     1      -5.513   2.070  -4.995  1.00  0.00    -0.744 OA
ENDBRANCH  85  86
ENDBRANCH  53  78
BRANCH  65  90
ATOM     90  C   UNL     1     -11.715   3.440   4.540  1.00  0.00     0.058 A 
ATOM     91  C   UNL     1     -12.392   2.255   4.214  1.00  0.00     0.135 A 
ATOM     92  C   UNL     1     -12.484   4.586   4.800  1.00  0.00     0.135 A 
ATOM     93  F   UNL     1     -11.703   1.133   3.952  1.00  0.00    -0.206 F 
ATOM     94  C   UNL     1     -13.780   2.212   4.131  1.00  0.00     0.059 A 
ATOM     95  C   UNL     1     -13.874   4.560   4.745  1.00  0.00     0.059 A 
ATOM     96  F   UNL     1     -11.885   5.742   5.128  1.00  0.00    -0.206 F 
ATOM     97  C   UNL     1     -14.513   3.370   4.400  1.00  0.00     0.060 A 
BRANCH  97  98
ATOM     98  S   UNL     1     -16.316   3.294   4.329  1.00  0.00     0.124 S 
ATOM     99  O   UNL     1     -16.554   3.303   2.889  1.00  0.00    -0.237 OA
ATOM    100  O   UNL     1     -16.605   2.036   5.011  1.00  0.00    -0.237 OA
ATOM    101  O   UNL     1     -16.734   4.497   5.043  1.00  0.00    -0.744 OA
ENDBRANCH  97  98
ENDBRANCH  65  90
ENDBRANCH  39  40
ENDBRANCH  32  34
ENDBRANCH  31  32
ENDBRANCH  30  31
ENDBRANCH  29  30
ENDBRANCH  28  29
ENDBRANCH  27  28
ENDBRANCH   1  27
TORSDOF 25
