REMARK SMILES COc1ccc2c(c1)c(CC(=O)OCCOCCOCCOCCOC(=O)c1ccc(-c3c4nc(c(-c5c(F)cc(S(=O)(=O)[O-])cc5F)c5ccc([nH]5)c(-c5c(F)cc(S(=O)(=O)[O-])cc5F)c5nc(c(-c6c(F)cc(S(=O)(=O)[O-])cc6F)c6ccc3[nH]6)C=C5)C=C4)cc1)c(C)n2Cc1ccn(C(F)F)c(=O)c1
REMARK SMILES IDX 18 1 17 2 16 3 15 4 14 5 13 6 11 7 12 8 10 9 9 10 3 11 4 12
REMARK SMILES IDX 8 13 5 14 7 15 6 16 96 17 94 18 95 19 2 20 1 21 97 22 98 23
REMARK SMILES IDX 99 24 107 25 100 26 105 27 101 28 106 29 102 30 103 31
REMARK SMILES IDX 104 32 19 33 20 34 21 35 22 36 23 37 24 38 25 39 26 40 27 41
REMARK SMILES IDX 28 42 29 43 93 44 30 45 92 46 31 47 32 48 33 49 86 50 34 51
REMARK SMILES IDX 91 52 85 53 87 54 35 55 90 56 84 57 83 58 36 60 70 61 49 62
REMARK SMILES IDX 69 63 50 64 53 65 68 66 88 67 51 68 52 69 67 71 89 72 54 73
REMARK SMILES IDX 37 74 38 75 47 76 39 77 40 78 46 79 48 80 41 81 42 82 43 83
REMARK SMILES IDX 44 84 45 85 71 86 72 87 81 88 73 89 74 90 80 91 82 92 75 93
REMARK SMILES IDX 76 94 77 95 78 96 79 97 55 98 56 99 65 100 57 101 58 102
REMARK SMILES IDX 64 103 66 104 59 105 60 106 61 107 62 108 63 109
REMARK H PARENT 87 59 53 70
REMARK Flexibility Score: inf
ROOT
ATOM      1  C   UNL     1      -1.204  -4.297  -0.197  1.00  0.00     0.188 C 
ENDROOT
BRANCH   1   2
ATOM      2  C   UNL     1      -2.599  -4.122   0.385  1.00  0.00     0.188 C 
BRANCH   2   3
ATOM      3  O   UNL     1      -2.953  -5.207   1.219  1.00  0.00    -0.376 OA
BRANCH   3   4
ATOM      4  C   UNL     1      -3.673  -6.296   0.660  1.00  0.00     0.202 C 
BRANCH   4   5
ATOM      5  C   UNL     1      -3.194  -7.052  -0.604  1.00  0.00     0.261 C 
BRANCH   5   6
ATOM      6  O   UNL     1      -2.606  -6.318  -1.702  1.00  0.00    -0.463 OA
BRANCH   6   7
ATOM      7  C   UNL     1      -3.390  -5.554  -2.491  1.00  0.00     0.310 C 
ATOM      8  O   UNL     1      -4.597  -5.418  -2.310  1.00  0.00    -0.252 OA
BRANCH   7   9
ATOM      9  C   UNL     1      -2.662  -4.809  -3.615  1.00  0.00     0.160 C 
BRANCH   9  10
ATOM     10  C   UNL     1      -1.142  -4.817  -3.680  1.00  0.00    -0.008 A 
ATOM     11  C   UNL     1       0.611  -1.703  -2.264  1.00  0.00     0.119 A 
ATOM     12  C   UNL     1       1.897  -2.223  -2.312  1.00  0.00     0.048 A 
ATOM     13  C   UNL     1      -0.452  -2.442  -2.804  1.00  0.00     0.057 A 
ATOM     14  C   UNL     1       2.143  -3.484  -2.881  1.00  0.00     0.031 A 
ATOM     15  C   UNL     1      -0.253  -3.759  -3.285  1.00  0.00     0.007 A 
ATOM     16  C   UNL     1       1.057  -4.239  -3.371  1.00  0.00     0.049 A 
ATOM     17  N   UNL     1       0.995  -5.469  -4.021  1.00  0.00    -0.340 N 
ATOM     18  C   UNL     1      -0.334  -5.762  -4.305  1.00  0.00     0.020 A 
ATOM     19  C   UNL     1      -0.784  -6.886  -5.170  1.00  0.00     0.065 C 
BRANCH  11  20
ATOM     20  O   UNL     1       0.235  -0.518  -1.693  1.00  0.00    -0.497 OA
ATOM     21  C   UNL     1       1.147   0.121  -0.808  1.00  0.00     0.278 C 
ENDBRANCH  11  20
BRANCH  17  22
ATOM     22  C   UNL     1       2.183  -6.160  -4.561  1.00  0.00     0.158 C 
BRANCH  22  23
ATOM     23  C   UNL     1       2.545  -7.492  -3.939  1.00  0.00    -0.021 A 
ATOM     24  C   UNL     1       1.851  -8.684  -4.383  1.00  0.00     0.024 A 
ATOM     25  C   UNL     1       3.576  -7.650  -3.087  1.00  0.00     0.077 A 
ATOM     26  C   UNL     1       2.108  -9.880  -3.845  1.00  0.00     0.095 A 
ATOM     27  C   UNL     1       3.949  -8.999  -2.553  1.00  0.00     0.255 A 
ATOM     28  N   UNL     1       3.108 -10.039  -2.909  1.00  0.00    -0.258 N 
ATOM     29  O   UNL     1       4.959  -9.091  -1.862  1.00  0.00    -0.269 OA
BRANCH  28  30
ATOM     30  C   UNL     1       3.383 -11.351  -2.377  1.00  0.00     0.451 C 
ATOM     31  F   UNL     1       4.477 -11.883  -2.979  1.00  0.00    -0.185 F 
ATOM     32  F   UNL     1       3.619 -11.314  -1.045  1.00  0.00    -0.185 F 
ENDBRANCH  28  30
ENDBRANCH  22  23
ENDBRANCH  17  22
ENDBRANCH   9  10
ENDBRANCH   7   9
ENDBRANCH   6   7
ENDBRANCH   5   6
ENDBRANCH   4   5
ENDBRANCH   3   4
ENDBRANCH   2   3
ENDBRANCH   1   2
BRANCH   1  33
ATOM     33  O   UNL     1      -0.096  -4.375   0.661  1.00  0.00    -0.377 OA
BRANCH  33  34
ATOM     34  C   UNL     1      -0.259  -5.113   1.843  1.00  0.00     0.188 C 
BRANCH  34  35
ATOM     35  C   UNL     1      -0.542  -4.202   3.040  1.00  0.00     0.188 C 
BRANCH  35  36
ATOM     36  O   UNL     1       0.178  -2.976   3.241  1.00  0.00    -0.376 OA
BRANCH  36  37
ATOM     37  C   UNL     1       1.029  -2.462   2.223  1.00  0.00     0.202 C 
BRANCH  37  38
ATOM     38  C   UNL     1       2.470  -3.002   2.264  1.00  0.00     0.261 C 
BRANCH  38  39
ATOM     39  O   UNL     1       2.535  -4.428   2.372  1.00  0.00    -0.460 OA
BRANCH  39  40
ATOM     40  C   UNL     1       3.143  -4.949   3.467  1.00  0.00     0.338 C 
ATOM     41  O   UNL     1       3.935  -4.399   4.212  1.00  0.00    -0.246 OA
BRANCH  40  42
ATOM     42  C   UNL     1       2.414  -6.198   3.772  1.00  0.00     0.060 A 
ATOM     43  C   UNL     1       2.268  -7.201   2.807  1.00  0.00     0.016 A 
ATOM     44  C   UNL     1       1.611  -6.181   4.920  1.00  0.00     0.016 A 
ATOM     45  C   UNL     1       1.208  -8.098   2.931  1.00  0.00     0.010 A 
ATOM     46  C   UNL     1       0.551  -7.079   5.037  1.00  0.00     0.010 A 
ATOM     47  C   UNL     1       0.315  -8.005   4.017  1.00  0.00    -0.014 A 
BRANCH  47  48
ATOM     48  C   UNL     1      -0.672  -9.084   4.180  1.00  0.00     0.031 A 
ATOM     49  C   UNL     1      -0.008 -10.394   4.415  1.00  0.00     0.074 A 
ATOM     50  C   UNL     1      -2.011  -8.976   4.326  1.00  0.00     0.049 A 
ATOM     51  N   UNL     1      -0.113 -11.490   3.739  1.00  0.00    -0.248 NA
ATOM     52  C   UNL     1       1.012 -10.425   5.481  1.00  0.00     0.031 C 
ATOM     53  C   UNL     1      -2.785  -7.742   4.462  1.00  0.00     0.029 A 
ATOM     54  N   UNL     1      -2.957  -9.960   4.505  1.00  0.00    -0.354 N 
ATOM     55  C   UNL     1       0.691 -12.401   4.416  1.00  0.00     0.074 A 
ATOM     56  C   UNL     1       1.487 -11.660   5.358  1.00  0.00     0.031 C 
ATOM     57  C   UNL     1      -4.024  -8.045   4.912  1.00  0.00     0.029 A 
ATOM     58  C   UNL     1      -4.170  -9.492   5.003  1.00  0.00     0.049 A 
ATOM     59  H   UNL     1      -2.791 -10.908   4.300  1.00  0.00     0.167 HD
ATOM     60  C   UNL     1       0.464 -13.738   4.379  1.00  0.00     0.037 A 
ATOM     61  C   UNL     1      -5.191 -10.221   5.526  1.00  0.00     0.037 A 
ATOM     62  C   UNL     1      -0.417 -14.137   3.326  1.00  0.00     0.049 A 
ATOM     63  C   UNL     1      -5.084 -11.620   5.037  1.00  0.00     0.074 A 
ATOM     64  C   UNL     1      -0.314 -14.390   1.977  1.00  0.00     0.029 A 
ATOM     65  N   UNL     1      -1.747 -14.030   3.624  1.00  0.00    -0.354 N 
ATOM     66  N   UNL     1      -5.248 -11.982   3.794  1.00  0.00    -0.248 NA
ATOM     67  C   UNL     1      -4.556 -12.656   5.922  1.00  0.00     0.031 C 
ATOM     68  C   UNL     1      -1.633 -14.296   1.446  1.00  0.00     0.029 A 
ATOM     69  C   UNL     1      -2.506 -13.980   2.483  1.00  0.00     0.049 A 
ATOM     70  H   UNL     1      -2.112 -13.993   4.538  1.00  0.00     0.167 HD
ATOM     71  C   UNL     1      -4.491 -13.128   3.667  1.00  0.00     0.074 A 
ATOM     72  C   UNL     1      -4.236 -13.587   5.021  1.00  0.00     0.031 C 
ATOM     73  C   UNL     1      -3.839 -13.414   2.507  1.00  0.00     0.037 A 
BRANCH  60  74
ATOM     74  C   UNL     1       0.707 -14.599   5.583  1.00  0.00     0.058 A 
ATOM     75  C   UNL     1       0.947 -15.973   5.447  1.00  0.00     0.135 A 
ATOM     76  C   UNL     1       0.468 -14.130   6.897  1.00  0.00     0.135 A 
ATOM     77  F   UNL     1       1.123 -16.515   4.231  1.00  0.00    -0.206 F 
ATOM     78  C   UNL     1       0.964 -16.828   6.550  1.00  0.00     0.059 A 
ATOM     79  C   UNL     1       0.540 -14.948   8.013  1.00  0.00     0.059 A 
ATOM     80  F   UNL     1       0.073 -12.869   7.128  1.00  0.00    -0.206 F 
ATOM     81  C   UNL     1       0.762 -16.303   7.828  1.00  0.00     0.060 A 
BRANCH  81  82
ATOM     82  S   UNL     1       0.744 -17.409   9.250  1.00  0.00     0.124 S 
ATOM     83  O   UNL     1      -0.546 -18.069   9.088  1.00  0.00    -0.237 OA
ATOM     84  O   UNL     1       1.922 -18.236   9.010  1.00  0.00    -0.237 OA
ATOM     85  O   UNL     1       0.850 -16.496  10.384  1.00  0.00    -0.744 OA
ENDBRANCH  81  82
ENDBRANCH  60  74
BRANCH  61  86
ATOM     86  C   UNL     1      -6.154  -9.858   6.609  1.00  0.00     0.058 A 
ATOM     87  C   UNL     1      -7.270 -10.674   6.894  1.00  0.00     0.135 A 
ATOM     88  C   UNL     1      -5.858  -8.872   7.571  1.00  0.00     0.135 A 
ATOM     89  F   UNL     1      -7.631 -11.650   6.046  1.00  0.00    -0.206 F 
ATOM     90  C   UNL     1      -7.991 -10.570   8.088  1.00  0.00     0.059 A 
ATOM     91  C   UNL     1      -6.579  -8.733   8.756  1.00  0.00     0.059 A 
ATOM     92  F   UNL     1      -4.792  -8.071   7.440  1.00  0.00    -0.206 F 
ATOM     93  C   UNL     1      -7.620  -9.611   9.027  1.00  0.00     0.060 A 
BRANCH  93  94
ATOM     94  S   UNL     1      -8.402  -9.614  10.656  1.00  0.00     0.124 S 
ATOM     95  O   UNL     1      -9.761  -9.187  10.341  1.00  0.00    -0.237 OA
ATOM     96  O   UNL     1      -8.248 -11.006  11.066  1.00  0.00    -0.237 OA
ATOM     97  O   UNL     1      -7.605  -8.653  11.415  1.00  0.00    -0.744 OA
ENDBRANCH  93  94
ENDBRANCH  61  86
BRANCH  73  98
ATOM     98  C   UNL     1      -4.448 -12.946   1.224  1.00  0.00     0.058 A 
ATOM     99  C   UNL     1      -4.565 -11.604   0.833  1.00  0.00     0.135 A 
ATOM    100  C   UNL     1      -4.863 -13.928   0.308  1.00  0.00     0.135 A 
ATOM    101  F   UNL     1      -4.124 -10.612   1.622  1.00  0.00    -0.206 F 
ATOM    102  C   UNL     1      -5.090 -11.254  -0.411  1.00  0.00     0.059 A 
ATOM    103  C   UNL     1      -5.359 -13.602  -0.949  1.00  0.00     0.059 A 
ATOM    104  F   UNL     1      -4.743 -15.230   0.616  1.00  0.00    -0.206 F 
ATOM    105  C   UNL     1      -5.473 -12.260  -1.301  1.00  0.00     0.060 A 
BRANCH 105 106
ATOM    106  S   UNL     1      -6.025 -11.802  -2.957  1.00  0.00     0.124 S 
ATOM    107  O   UNL     1      -7.343 -11.236  -2.696  1.00  0.00    -0.237 OA
ATOM    108  O   UNL     1      -4.996 -10.853  -3.377  1.00  0.00    -0.237 OA
ATOM    109  O   UNL     1      -6.019 -13.070  -3.682  1.00  0.00    -0.744 OA
ENDBRANCH 105 106
ENDBRANCH  73  98
ENDBRANCH  47  48
ENDBRANCH  40  42
ENDBRANCH  39  40
ENDBRANCH  38  39
ENDBRANCH  37  38
ENDBRANCH  36  37
ENDBRANCH  35  36
ENDBRANCH  34  35
ENDBRANCH  33  34
ENDBRANCH   1  33
TORSDOF 28
