REMARK SMILES CC(C)(C)OC(=O)N1CCN(N[C@@H](C(=O)OCCOCCOCCOCCOC(=O)c2ccc(-c3c4nc(c(-c5c(F)cc(S(=O)(=O)[O-])cc5F)c5ccc([nH]5)c(-c5c(F)cc(S(=O)(=O)[O-])cc5F)c5nc(c(-c6c(F)cc(S(=O)(=O)[O-])cc6F)c6ccc3[nH]6)C=C5)C=C4)cc2)c2ccccc2Cl)CC1
REMARK SMILES IDX 21 1 20 2 19 3 18 4 17 5 16 6 14 7 15 8 13 9 12 10 11 12
REMARK SMILES IDX 6 13 7 14 8 15 9 16 105 17 10 18 104 19 5 20 2 21 1 22 3 23
REMARK SMILES IDX 4 24 97 25 98 26 102 27 99 28 101 29 103 30 100 31 22 32
REMARK SMILES IDX 23 33 24 34 25 35 26 36 27 37 28 38 29 39 30 40 31 41 32 42
REMARK SMILES IDX 96 43 33 44 95 45 34 46 35 47 36 48 89 49 37 50 94 51 88 52
REMARK SMILES IDX 90 53 38 54 93 55 87 56 86 57 39 59 73 60 52 61 72 62 53 63
REMARK SMILES IDX 56 64 71 65 91 66 54 67 55 68 70 70 92 71 57 72 40 73 41 74
REMARK SMILES IDX 50 75 42 76 43 77 49 78 51 79 44 80 45 81 46 82 47 83 48 84
REMARK SMILES IDX 74 85 75 86 84 87 76 88 77 89 83 90 85 91 78 92 79 93 80 94
REMARK SMILES IDX 81 95 82 96 58 97 59 98 68 99 60 100 61 101 67 102 69 103
REMARK SMILES IDX 62 104 63 105 64 106 65 107 66 108
REMARK H PARENT 12 11 90 58 56 69
REMARK Flexibility Score: inf
ROOT
ATOM      1  C   UNL     1       3.624  -8.650  -4.517  1.00  0.00     0.188 C 
ENDROOT
BRANCH   1   2
ATOM      2  C   UNL     1       2.963  -9.819  -5.269  1.00  0.00     0.188 C 
BRANCH   2   3
ATOM      3  O   UNL     1       2.480  -9.481  -6.562  1.00  0.00    -0.376 OA
BRANCH   3   4
ATOM      4  C   UNL     1       1.070  -9.527  -6.750  1.00  0.00     0.202 C 
BRANCH   4   5
ATOM      5  C   UNL     1       0.197  -8.610  -5.880  1.00  0.00     0.261 C 
BRANCH   5   6
ATOM      6  O   UNL     1       0.651  -8.537  -4.525  1.00  0.00    -0.462 OA
BRANCH   6   7
ATOM      7  C   UNL     1      -0.099  -9.049  -3.520  1.00  0.00     0.329 C 
ATOM      8  O   UNL     1      -1.132  -9.689  -3.696  1.00  0.00    -0.250 OA
BRANCH   7   9
ATOM      9  C   UNL     1       0.551  -8.842  -2.119  1.00  0.00     0.211 C 
BRANCH   9  10
ATOM     10  N   UNL     1       1.415  -7.625  -2.085  1.00  0.00    -0.237 NA
ATOM     11  H   UNL     1       1.706  -7.473  -1.119  1.00  0.00     0.143 HD
BRANCH  10  12
ATOM     12  N   UNL     1       0.785  -6.393  -2.565  1.00  0.00    -0.240 NA
ATOM     13  C   UNL     1       0.373  -3.567   0.573  1.00  0.00     0.410 C 
ATOM     14  O   UNL     1      -0.467  -3.669   1.461  1.00  0.00    -0.224 OA
ATOM     15  N   UNL     1       0.709  -4.612  -0.254  1.00  0.00    -0.306 N 
ATOM     16  C   UNL     1      -0.231  -5.713  -0.378  1.00  0.00     0.140 C 
ATOM     17  C   UNL     1       1.956  -4.722  -1.016  1.00  0.00     0.140 C 
ATOM     18  C   UNL     1      -0.459  -6.039  -1.855  1.00  0.00     0.124 C 
ATOM     19  C   UNL     1       1.752  -5.266  -2.450  1.00  0.00     0.124 C 
BRANCH  13  20
ATOM     20  O   UNL     1       0.995  -2.415   0.228  1.00  0.00    -0.444 OA
BRANCH  20  21
ATOM     21  C   UNL     1       0.522  -1.162   0.787  1.00  0.00     0.106 C 
ATOM     22  C   UNL     1       1.217  -0.070  -0.039  1.00  0.00     0.056 C 
ATOM     23  C   UNL     1       0.958  -1.044   2.249  1.00  0.00     0.056 C 
ATOM     24  C   UNL     1      -0.997  -0.976   0.623  1.00  0.00     0.056 C 
ENDBRANCH  20  21
ENDBRANCH  13  20
ENDBRANCH  10  12
ENDBRANCH   9  10
BRANCH   9  25
ATOM     25  C   UNL     1       1.305 -10.087  -1.592  1.00  0.00     0.000 A 
ATOM     26  C   UNL     1       1.161 -11.338  -2.232  1.00  0.00     0.007 A 
ATOM     27  C   UNL     1       2.091 -10.073  -0.417  1.00  0.00     0.046 A 
ATOM     28  C   UNL     1       1.801 -12.491  -1.762  1.00  0.00     0.000 A 
ATOM     29  C   UNL     1       2.744 -11.227   0.041  1.00  0.00     0.021 A 
ATOM     30  Cl  UNL     1       2.287  -8.674   0.586  1.00  0.00    -0.084 Cl
ATOM     31  C   UNL     1       2.602 -12.435  -0.631  1.00  0.00     0.002 A 
ENDBRANCH   9  25
ENDBRANCH   7   9
ENDBRANCH   6   7
ENDBRANCH   5   6
ENDBRANCH   4   5
ENDBRANCH   3   4
ENDBRANCH   2   3
ENDBRANCH   1   2
BRANCH   1  32
ATOM     32  O   UNL     1       3.389  -7.321  -4.955  1.00  0.00    -0.377 OA
BRANCH  32  33
ATOM     33  C   UNL     1       3.597  -6.980  -6.320  1.00  0.00     0.188 C 
BRANCH  33  34
ATOM     34  C   UNL     1       4.673  -7.713  -7.148  1.00  0.00     0.188 C 
BRANCH  34  35
ATOM     35  O   UNL     1       5.638  -8.435  -6.393  1.00  0.00    -0.376 OA
BRANCH  35  36
ATOM     36  C   UNL     1       6.883  -7.784  -6.172  1.00  0.00     0.202 C 
BRANCH  36  37
ATOM     37  C   UNL     1       6.829  -6.550  -5.262  1.00  0.00     0.261 C 
BRANCH  37  38
ATOM     38  O   UNL     1       6.143  -5.412  -5.811  1.00  0.00    -0.460 OA
BRANCH  38  39
ATOM     39  C   UNL     1       6.587  -4.918  -6.987  1.00  0.00     0.338 C 
ATOM     40  O   UNL     1       7.555  -5.282  -7.628  1.00  0.00    -0.246 OA
BRANCH  39  41
ATOM     41  C   UNL     1       5.581  -3.952  -7.462  1.00  0.00     0.060 A 
ATOM     42  C   UNL     1       4.891  -4.217  -8.651  1.00  0.00     0.016 A 
ATOM     43  C   UNL     1       5.312  -2.800  -6.720  1.00  0.00     0.016 A 
ATOM     44  C   UNL     1       3.930  -3.315  -9.109  1.00  0.00     0.010 A 
ATOM     45  C   UNL     1       4.367  -1.888  -7.193  1.00  0.00     0.010 A 
ATOM     46  C   UNL     1       3.687  -2.132  -8.398  1.00  0.00    -0.014 A 
BRANCH  46  47
ATOM     47  C   UNL     1       2.830  -1.075  -8.982  1.00  0.00     0.031 A 
ATOM     48  C   UNL     1       3.485   0.035  -9.754  1.00  0.00     0.074 A 
ATOM     49  C   UNL     1       1.496  -1.094  -8.814  1.00  0.00     0.049 A 
ATOM     50  N   UNL     1       2.949   1.100 -10.289  1.00  0.00    -0.248 NA
ATOM     51  C   UNL     1       4.941  -0.070  -9.944  1.00  0.00     0.031 C 
ATOM     52  C   UNL     1       0.747  -2.134  -8.110  1.00  0.00     0.029 A 
ATOM     53  N   UNL     1       0.537  -0.197  -9.212  1.00  0.00    -0.354 N 
ATOM     54  C   UNL     1       3.999   1.794 -10.878  1.00  0.00     0.074 A 
ATOM     55  C   UNL     1       5.207   1.042 -10.615  1.00  0.00     0.031 C 
ATOM     56  C   UNL     1      -0.557  -1.802  -8.106  1.00  0.00     0.029 A 
ATOM     57  C   UNL     1      -0.728  -0.515  -8.778  1.00  0.00     0.049 A 
ATOM     58  H   UNL     1       0.736   0.599  -9.756  1.00  0.00     0.167 HD
ATOM     59  C   UNL     1       3.957   2.952 -11.577  1.00  0.00     0.037 A 
ATOM     60  C   UNL     1      -1.883   0.172  -8.886  1.00  0.00     0.037 A 
ATOM     61  C   UNL     1       2.755   3.702 -11.826  1.00  0.00     0.049 A 
ATOM     62  C   UNL     1      -1.891   1.499  -9.602  1.00  0.00     0.074 A 
ATOM     63  C   UNL     1       2.605   4.872 -12.549  1.00  0.00     0.029 A 
ATOM     64  N   UNL     1       1.498   3.364 -11.347  1.00  0.00    -0.354 N 
ATOM     65  N   UNL     1      -0.899   2.126 -10.189  1.00  0.00    -0.248 NA
ATOM     66  C   UNL     1      -3.175   2.213  -9.668  1.00  0.00     0.031 C 
ATOM     67  C   UNL     1       1.267   5.270 -12.463  1.00  0.00     0.029 A 
ATOM     68  C   UNL     1       0.573   4.322 -11.729  1.00  0.00     0.049 A 
ATOM     69  H   UNL     1       1.293   2.562 -10.814  1.00  0.00     0.167 HD
ATOM     70  C   UNL     1      -1.442   3.299 -10.707  1.00  0.00     0.074 A 
ATOM     71  C   UNL     1      -2.853   3.285 -10.379  1.00  0.00     0.031 C 
ATOM     72  C   UNL     1      -0.829   4.296 -11.391  1.00  0.00     0.037 A 
BRANCH  59  73
ATOM     73  C   UNL     1       5.257   3.495 -12.099  1.00  0.00     0.058 A 
ATOM     74  C   UNL     1       5.919   2.904 -13.186  1.00  0.00     0.135 A 
ATOM     75  C   UNL     1       5.828   4.642 -11.527  1.00  0.00     0.135 A 
ATOM     76  F   UNL     1       5.426   1.792 -13.756  1.00  0.00    -0.206 F 
ATOM     77  C   UNL     1       7.113   3.421 -13.677  1.00  0.00     0.059 A 
ATOM     78  C   UNL     1       7.008   5.191 -12.016  1.00  0.00     0.059 A 
ATOM     79  F   UNL     1       5.237   5.241 -10.481  1.00  0.00    -0.206 F 
ATOM     80  C   UNL     1       7.650   4.567 -13.085  1.00  0.00     0.060 A 
BRANCH  80  81
ATOM     81  S   UNL     1       9.193   5.235 -13.741  1.00  0.00     0.124 S 
ATOM     82  O   UNL     1      10.161   4.253 -13.263  1.00  0.00    -0.237 OA
ATOM     83  O   UNL     1       8.947   5.233 -15.180  1.00  0.00    -0.237 OA
ATOM     84  O   UNL     1       9.282   6.555 -13.126  1.00  0.00    -0.744 OA
ENDBRANCH  80  81
ENDBRANCH  59  73
BRANCH  60  85
ATOM     85  C   UNL     1      -3.128  -0.365  -8.273  1.00  0.00     0.058 A 
ATOM     86  C   UNL     1      -4.191  -0.818  -9.067  1.00  0.00     0.135 A 
ATOM     87  C   UNL     1      -3.282  -0.423  -6.879  1.00  0.00     0.135 A 
ATOM     88  F   UNL     1      -4.098  -0.768 -10.404  1.00  0.00    -0.206 F 
ATOM     89  C   UNL     1      -5.368  -1.300  -8.502  1.00  0.00     0.059 A 
ATOM     90  C   UNL     1      -4.439  -0.923  -6.290  1.00  0.00     0.059 A 
ATOM     91  F   UNL     1      -2.291  -0.007  -6.074  1.00  0.00    -0.206 F 
ATOM     92  C   UNL     1      -5.481  -1.350  -7.112  1.00  0.00     0.060 A 
BRANCH  92  93
ATOM     93  S   UNL     1      -6.994  -2.021  -6.388  1.00  0.00     0.124 S 
ATOM     94  O   UNL     1      -7.938  -0.934  -6.619  1.00  0.00    -0.237 OA
ATOM     95  O   UNL     1      -7.204  -3.229  -7.180  1.00  0.00    -0.237 OA
ATOM     96  O   UNL     1      -6.624  -2.252  -4.994  1.00  0.00    -0.744 OA
ENDBRANCH  92  93
ENDBRANCH  60  85
BRANCH  72  97
ATOM     97  C   UNL     1      -1.677   5.452 -11.847  1.00  0.00     0.058 A 
ATOM     98  C   UNL     1      -2.149   6.418 -10.944  1.00  0.00     0.135 A 
ATOM     99  C   UNL     1      -1.972   5.628 -13.209  1.00  0.00     0.135 A 
ATOM    100  F   UNL     1      -1.901   6.294  -9.631  1.00  0.00    -0.206 F 
ATOM    101  C   UNL     1      -2.899   7.508 -11.374  1.00  0.00     0.059 A 
ATOM    102  C   UNL     1      -2.698   6.725 -13.664  1.00  0.00     0.059 A 
ATOM    103  F   UNL     1      -1.535   4.740 -14.116  1.00  0.00    -0.206 F 
ATOM    104  C   UNL     1      -3.167   7.655 -12.736  1.00  0.00     0.060 A 
BRANCH 104 105
ATOM    105  S   UNL     1      -4.109   9.094 -13.285  1.00  0.00     0.124 S 
ATOM    106  O   UNL     1      -5.460   8.740 -12.860  1.00  0.00    -0.237 OA
ATOM    107  O   UNL     1      -3.477  10.183 -12.547  1.00  0.00    -0.237 OA
ATOM    108  O   UNL     1      -3.890   9.114 -14.728  1.00  0.00    -0.744 OA
ENDBRANCH 104 105
ENDBRANCH  72  97
ENDBRANCH  46  47
ENDBRANCH  39  41
ENDBRANCH  38  39
ENDBRANCH  37  38
ENDBRANCH  36  37
ENDBRANCH  35  36
ENDBRANCH  34  35
ENDBRANCH  33  34
ENDBRANCH  32  33
ENDBRANCH   1  32
TORSDOF 28
