REMARK SMILES C[C@@H](C(=O)OCCOCCOCCOCCOC(=O)c1ccc(-c2c3nc(c(-c4c(F)cc(S(=O)(=O)[O-])cc4F)c4ccc([nH]4)c(-c4c(F)cc(S(=O)(=O)[O-])cc4F)c4nc(c(-c5c(F)cc(S(=O)(=O)[O-])cc5F)c5ccc2[nH]5)C=C4)C=C3)cc1)c1ccc(OC2CCCC2)cc1F
REMARK SMILES IDX 11 1 10 2 9 3 8 4 7 5 6 6 5 7 3 8 4 9 2 10 1 11 86 12 87 13
REMARK SMILES IDX 97 14 88 15 96 16 98 17 89 18 90 19 91 20 92 21 95 22 93 23
REMARK SMILES IDX 94 24 12 25 13 26 14 27 15 28 16 29 17 30 18 31 19 32 20 33
REMARK SMILES IDX 21 34 85 35 22 36 84 37 23 38 24 39 25 40 78 41 26 42 83 43
REMARK SMILES IDX 77 44 79 45 27 46 82 47 76 48 75 49 28 51 62 52 41 53 61 54
REMARK SMILES IDX 42 55 45 56 60 57 80 58 43 59 44 60 59 62 81 63 46 64 29 65
REMARK SMILES IDX 30 66 39 67 31 68 32 69 38 70 40 71 33 72 34 73 35 74 36 75
REMARK SMILES IDX 37 76 63 77 64 78 73 79 65 80 66 81 72 82 74 83 67 84 68 85
REMARK SMILES IDX 69 86 70 87 71 88 47 89 48 90 57 91 49 92 50 93 56 94 58 95
REMARK SMILES IDX 51 96 52 97 53 98 54 99 55 100
REMARK H PARENT 79 50 45 61
REMARK Flexibility Score: inf
ROOT
ATOM      1  O   UNL     1       2.503   2.733   1.617  1.00  0.00    -0.377 OA
ENDROOT
BRANCH   1   2
ATOM      2  C   UNL     1       1.109   2.596   1.476  1.00  0.00     0.188 C 
BRANCH   2   3
ATOM      3  C   UNL     1       0.306   2.705   2.786  1.00  0.00     0.188 C 
BRANCH   3   4
ATOM      4  O   UNL     1       0.957   3.079   3.987  1.00  0.00    -0.376 OA
BRANCH   4   5
ATOM      5  C   UNL     1       2.196   2.478   4.339  1.00  0.00     0.202 C 
BRANCH   5   6
ATOM      6  C   UNL     1       2.476   0.971   4.148  1.00  0.00     0.261 C 
BRANCH   6   7
ATOM      7  O   UNL     1       2.064   0.365   2.906  1.00  0.00    -0.463 OA
BRANCH   7   8
ATOM      8  C   UNL     1       1.016  -0.493   2.973  1.00  0.00     0.313 C 
ATOM      9  O   UNL     1       0.430  -0.766   4.018  1.00  0.00    -0.252 OA
BRANCH   8  10
ATOM     10  C   UNL     1       0.589  -1.091   1.617  1.00  0.00     0.129 C 
ATOM     11  C   UNL     1       1.329  -0.703   0.333  1.00  0.00     0.025 C 
BRANCH  10  12
ATOM     12  C   UNL     1      -0.926  -0.989   1.475  1.00  0.00     0.002 A 
ATOM     13  C   UNL     1      -1.608   0.212   1.218  1.00  0.00     0.011 A 
ATOM     14  C   UNL     1      -1.696  -2.112   1.759  1.00  0.00     0.130 A 
ATOM     15  C   UNL     1      -2.999   0.293   1.339  1.00  0.00     0.047 A 
ATOM     16  C   UNL     1      -3.081  -2.046   1.842  1.00  0.00     0.086 A 
ATOM     17  F   UNL     1      -1.103  -3.294   1.974  1.00  0.00    -0.207 F 
ATOM     18  C   UNL     1      -3.745  -0.839   1.649  1.00  0.00     0.122 A 
BRANCH  18  19
ATOM     19  O   UNL     1      -5.090  -0.630   1.741  1.00  0.00    -0.490 OA
BRANCH  19  20
ATOM     20  C   UNL     1      -6.003  -1.707   1.568  1.00  0.00     0.173 C 
ATOM     21  C   UNL     1      -5.811  -2.532   0.298  1.00  0.00     0.045 C 
ATOM     22  C   UNL     1      -6.101  -2.675   2.746  1.00  0.00     0.045 C 
ATOM     23  C   UNL     1      -6.435  -3.876   0.623  1.00  0.00     0.004 C 
ATOM     24  C   UNL     1      -6.308  -4.057   2.133  1.00  0.00     0.004 C 
ENDBRANCH  19  20
ENDBRANCH  18  19
ENDBRANCH  10  12
ENDBRANCH   8  10
ENDBRANCH   7   8
ENDBRANCH   6   7
ENDBRANCH   5   6
ENDBRANCH   4   5
ENDBRANCH   3   4
ENDBRANCH   2   3
ENDBRANCH   1   2
BRANCH   1  25
ATOM     25  C   UNL     1       3.037   4.032   1.427  1.00  0.00     0.188 C 
BRANCH  25  26
ATOM     26  C   UNL     1       2.167   5.242   1.816  1.00  0.00     0.188 C 
BRANCH  26  27
ATOM     27  O   UNL     1       0.850   5.218   1.271  1.00  0.00    -0.376 OA
BRANCH  27  28
ATOM     28  C   UNL     1       0.590   5.947   0.080  1.00  0.00     0.202 C 
BRANCH  28  29
ATOM     29  C   UNL     1       1.233   5.438  -1.222  1.00  0.00     0.261 C 
BRANCH  29  30
ATOM     30  O   UNL     1       2.666   5.377  -1.251  1.00  0.00    -0.460 OA
BRANCH  30  31
ATOM     31  C   UNL     1       3.356   6.505  -0.982  1.00  0.00     0.338 C 
ATOM     32  O   UNL     1       2.894   7.617  -0.786  1.00  0.00    -0.246 OA
BRANCH  31  33
ATOM     33  C   UNL     1       4.766   6.125  -0.747  1.00  0.00     0.060 A 
ATOM     34  C   UNL     1       5.350   6.424   0.492  1.00  0.00     0.016 A 
ATOM     35  C   UNL     1       5.497   5.452  -1.728  1.00  0.00     0.016 A 
ATOM     36  C   UNL     1       6.679   6.083   0.739  1.00  0.00     0.010 A 
ATOM     37  C   UNL     1       6.837   5.137  -1.490  1.00  0.00     0.010 A 
ATOM     38  C   UNL     1       7.444   5.483  -0.269  1.00  0.00    -0.014 A 
BRANCH  38  39
ATOM     39  C   UNL     1       8.919   5.426  -0.132  1.00  0.00     0.031 A 
ATOM     40  C   UNL     1       9.730   6.512  -0.788  1.00  0.00     0.074 A 
ATOM     41  C   UNL     1       9.527   4.455   0.574  1.00  0.00     0.049 A 
ATOM     42  N   UNL     1      11.026   6.655  -0.858  1.00  0.00    -0.248 NA
ATOM     43  C   UNL     1       8.969   7.579  -1.461  1.00  0.00     0.031 C 
ATOM     44  C   UNL     1       8.848   3.381   1.295  1.00  0.00     0.029 A 
ATOM     45  N   UNL     1      10.861   4.216   0.791  1.00  0.00    -0.354 N 
ATOM     46  C   UNL     1      11.238   7.818  -1.590  1.00  0.00     0.074 A 
ATOM     47  C   UNL     1       9.938   8.327  -1.966  1.00  0.00     0.031 C 
ATOM     48  C   UNL     1       9.772   2.588   1.866  1.00  0.00     0.029 A 
ATOM     49  C   UNL     1      11.107   3.077   1.521  1.00  0.00     0.049 A 
ATOM     50  H   UNL     1      11.575   4.804   0.455  1.00  0.00     0.167 HD
ATOM     51  C   UNL     1      12.410   8.411  -1.915  1.00  0.00     0.037 A 
ATOM     52  C   UNL     1      12.275   2.488   1.848  1.00  0.00     0.037 A 
ATOM     53  C   UNL     1      13.700   7.897  -1.536  1.00  0.00     0.049 A 
ATOM     54  C   UNL     1      13.570   3.126   1.409  1.00  0.00     0.074 A 
ATOM     55  C   UNL     1      14.948   8.433  -1.797  1.00  0.00     0.029 A 
ATOM     56  N   UNL     1      13.909   6.724  -0.826  1.00  0.00    -0.354 N 
ATOM     57  N   UNL     1      13.759   4.238   0.737  1.00  0.00    -0.248 NA
ATOM     58  C   UNL     1      14.813   2.430   1.773  1.00  0.00     0.031 C 
ATOM     59  C   UNL     1      15.913   7.552  -1.300  1.00  0.00     0.029 A 
ATOM     60  C   UNL     1      15.266   6.502  -0.668  1.00  0.00     0.049 A 
ATOM     61  H   UNL     1      13.197   6.135  -0.485  1.00  0.00     0.167 HD
ATOM     62  C   UNL     1      15.139   4.392   0.631  1.00  0.00     0.074 A 
ATOM     63  C   UNL     1      15.736   3.264   1.314  1.00  0.00     0.031 C 
ATOM     64  C   UNL     1      15.847   5.379   0.026  1.00  0.00     0.037 A 
BRANCH  51  65
ATOM     65  C   UNL     1      12.355   9.659  -2.752  1.00  0.00     0.058 A 
ATOM     66  C   UNL     1      11.874  10.876  -2.244  1.00  0.00     0.135 A 
ATOM     67  C   UNL     1      12.823   9.643  -4.077  1.00  0.00     0.135 A 
ATOM     68  F   UNL     1      11.392  10.944  -0.993  1.00  0.00    -0.206 F 
ATOM     69  C   UNL     1      11.838  12.027  -3.026  1.00  0.00     0.059 A 
ATOM     70  C   UNL     1      12.825  10.789  -4.866  1.00  0.00     0.059 A 
ATOM     71  F   UNL     1      13.287   8.505  -4.616  1.00  0.00    -0.206 F 
ATOM     72  C   UNL     1      12.319  11.973  -4.335  1.00  0.00     0.060 A 
BRANCH  72  73
ATOM     73  S   UNL     1      12.278  13.479  -5.330  1.00  0.00     0.124 S 
ATOM     74  O   UNL     1      10.846  13.632  -5.568  1.00  0.00    -0.237 OA
ATOM     75  O   UNL     1      12.881  14.460  -4.434  1.00  0.00    -0.237 OA
ATOM     76  O   UNL     1      13.074  13.133  -6.504  1.00  0.00    -0.744 OA
ENDBRANCH  72  73
ENDBRANCH  51  65
BRANCH  52  77
ATOM     77  C   UNL     1      12.282   1.216   2.623  1.00  0.00     0.058 A 
ATOM     78  C   UNL     1      12.786   1.165   3.931  1.00  0.00     0.135 A 
ATOM     79  C   UNL     1      11.798   0.021   2.065  1.00  0.00     0.135 A 
ATOM     80  F   UNL     1      13.274   2.275   4.505  1.00  0.00    -0.206 F 
ATOM     81  C   UNL     1      12.827  -0.025   4.652  1.00  0.00     0.059 A 
ATOM     82  C   UNL     1      11.801  -1.175   2.776  1.00  0.00     0.059 A 
ATOM     83  F   UNL     1      11.300   0.014   0.819  1.00  0.00    -0.206 F 
ATOM     84  C   UNL     1      12.328  -1.190   4.067  1.00  0.00     0.060 A 
BRANCH  84  85
ATOM     85  S   UNL     1      12.345  -2.718   5.029  1.00  0.00     0.124 S 
ATOM     86  O   UNL     1      13.770  -3.028   5.063  1.00  0.00    -0.237 OA
ATOM     87  O   UNL     1      11.754  -2.288   6.293  1.00  0.00    -0.237 OA
ATOM     88  O   UNL     1      11.520  -3.624   4.236  1.00  0.00    -0.744 OA
ENDBRANCH  84  85
ENDBRANCH  52  77
BRANCH  64  89
ATOM     89  C   UNL     1      17.350   5.317   0.114  1.00  0.00     0.058 A 
ATOM     90  C   UNL     1      18.098   4.363  -0.592  1.00  0.00     0.135 A 
ATOM     91  C   UNL     1      18.053   6.271   0.869  1.00  0.00     0.135 A 
ATOM     92  F   UNL     1      17.478   3.426  -1.327  1.00  0.00    -0.206 F 
ATOM     93  C   UNL     1      19.488   4.339  -0.532  1.00  0.00     0.059 A 
ATOM     94  C   UNL     1      19.444   6.287   0.917  1.00  0.00     0.059 A 
ATOM     95  F   UNL     1      17.389   7.216   1.554  1.00  0.00    -0.206 F 
ATOM     96  C   UNL     1      20.153   5.308   0.223  1.00  0.00     0.060 A 
BRANCH  96  97
ATOM     97  S   UNL     1      21.957   5.287   0.263  1.00  0.00     0.124 S 
ATOM     98  O   UNL     1      22.219   4.110   1.086  1.00  0.00    -0.237 OA
ATOM     99  O   UNL     1      22.299   5.161  -1.150  1.00  0.00    -0.237 OA
ATOM    100  O   UNL     1      22.300   6.568   0.874  1.00  0.00    -0.744 OA
ENDBRANCH  96  97
ENDBRANCH  64  89
ENDBRANCH  38  39
ENDBRANCH  31  33
ENDBRANCH  30  31
ENDBRANCH  29  30
ENDBRANCH  28  29
ENDBRANCH  27  28
ENDBRANCH  26  27
ENDBRANCH  25  26
ENDBRANCH   1  25
TORSDOF 26
