REMARK SMILES C[C@@H](C(=O)OCCOCCOCCOCCOC(=O)c1ccc(-c2c3nc(c(-c4c(F)cc(S(=O)(=O)[O-])cc4F)c4ccc([nH]4)c(-c4c(F)cc(S(=O)(=O)[O-])cc4F)c4nc(c(-c5c(F)cc(S(=O)(=O)[O-])cc5F)c5ccc2[nH]5)C=C4)C=C3)cc1)N(C)c1ccc(C(N)=O)nn1
REMARK SMILES IDX 11 1 10 2 9 3 8 4 7 5 6 6 5 7 3 8 4 9 2 10 1 11 86 12 87 13
REMARK SMILES IDX 88 14 89 15 96 16 90 17 95 18 91 19 92 20 93 21 94 22 12 25
REMARK SMILES IDX 13 26 14 27 15 28 16 29 17 30 18 31 19 32 20 33 21 34 85 35
REMARK SMILES IDX 22 36 84 37 23 38 24 39 25 40 78 41 26 42 83 43 77 44 79 45
REMARK SMILES IDX 27 46 82 47 76 48 75 49 28 51 62 52 41 53 61 54 42 55 45 56
REMARK SMILES IDX 60 57 80 58 43 59 44 60 59 62 81 63 46 64 29 65 30 66 39 67
REMARK SMILES IDX 31 68 32 69 38 70 40 71 33 72 34 73 35 74 36 75 37 76 63 77
REMARK SMILES IDX 64 78 73 79 65 80 66 81 72 82 74 83 67 84 68 85 69 86 70 87
REMARK SMILES IDX 71 88 47 89 48 90 57 91 49 92 50 93 56 94 58 95 51 96 52 97
REMARK SMILES IDX 53 98 54 99 55 100
REMARK H PARENT 93 23 93 24 79 50 45 61
REMARK Flexibility Score: inf
ROOT
ATOM      1  O   UNL     1       2.496  -2.800   1.485  1.00  0.00    -0.377 OA
ENDROOT
BRANCH   1   2
ATOM      2  C   UNL     1       1.104  -2.569   1.503  1.00  0.00     0.188 C 
BRANCH   2   3
ATOM      3  C   UNL     1       0.240  -3.723   0.961  1.00  0.00     0.188 C 
BRANCH   3   4
ATOM      4  O   UNL     1       0.846  -4.948   0.580  1.00  0.00    -0.376 OA
BRANCH   4   5
ATOM      5  C   UNL     1       2.048  -4.937  -0.176  1.00  0.00     0.202 C 
BRANCH   5   6
ATOM      6  C   UNL     1       2.269  -3.968  -1.357  1.00  0.00     0.261 C 
BRANCH   6   7
ATOM      7  O   UNL     1       1.840  -2.602  -1.189  1.00  0.00    -0.462 OA
BRANCH   7   8
ATOM      8  C   UNL     1       0.715  -2.218  -1.849  1.00  0.00     0.328 C 
ATOM      9  O   UNL     1       0.078  -2.957  -2.595  1.00  0.00    -0.250 OA
BRANCH   8  10
ATOM     10  C   UNL     1       0.326  -0.731  -1.606  1.00  0.00     0.190 C 
ATOM     11  C   UNL     1       1.264   0.162  -0.790  1.00  0.00     0.044 C 
BRANCH  10  12
ATOM     12  N   UNL     1      -1.133  -0.531  -1.281  1.00  0.00    -0.345 N 
ATOM     13  C   UNL     1      -2.025  -0.693  -2.434  1.00  0.00     0.146 C 
BRANCH  12  14
ATOM     14  C   UNL     1      -1.718  -1.020  -0.106  1.00  0.00     0.151 A 
ATOM     15  C   UNL     1      -1.499  -0.415   1.129  1.00  0.00     0.051 A 
ATOM     16  N   UNL     1      -2.604  -2.046  -0.148  1.00  0.00    -0.132 NA
ATOM     17  C   UNL     1      -2.128  -0.894   2.290  1.00  0.00     0.040 A 
ATOM     18  N   UNL     1      -3.241  -2.537   0.992  1.00  0.00    -0.143 NA
ATOM     19  C   UNL     1      -2.991  -1.967   2.185  1.00  0.00     0.150 A 
BRANCH  19  20
ATOM     20  C   UNL     1      -3.684  -2.527   3.382  1.00  0.00     0.269 C 
ATOM     21  N   UNL     1      -4.577  -3.544   3.163  1.00  0.00    -0.364 N 
ATOM     22  O   UNL     1      -3.475  -2.099   4.512  1.00  0.00    -0.268 OA
ATOM     23  H   UNL     1      -4.731  -3.875   2.249  1.00  0.00     0.160 HD
ATOM     24  H   UNL     1      -5.063  -3.943   3.920  1.00  0.00     0.160 HD
ENDBRANCH  19  20
ENDBRANCH  12  14
ENDBRANCH  10  12
ENDBRANCH   8  10
ENDBRANCH   7   8
ENDBRANCH   6   7
ENDBRANCH   5   6
ENDBRANCH   4   5
ENDBRANCH   3   4
ENDBRANCH   2   3
ENDBRANCH   1   2
BRANCH   1  25
ATOM     25  C   UNL     1       3.061  -3.318   2.680  1.00  0.00     0.188 C 
BRANCH  25  26
ATOM     26  C   UNL     1       2.213  -4.294   3.519  1.00  0.00     0.188 C 
BRANCH  26  27
ATOM     27  O   UNL     1       0.893  -3.837   3.799  1.00  0.00    -0.376 OA
BRANCH  27  28
ATOM     28  C   UNL     1       0.624  -3.223   5.051  1.00  0.00     0.202 C 
BRANCH  28  29
ATOM     29  C   UNL     1       1.243  -1.839   5.306  1.00  0.00     0.261 C 
BRANCH  29  30
ATOM     30  O   UNL     1       2.674  -1.762   5.249  1.00  0.00    -0.460 OA
BRANCH  30  31
ATOM     31  C   UNL     1       3.374  -2.562   6.087  1.00  0.00     0.338 C 
ATOM     32  O   UNL     1       2.928  -3.295   6.941  1.00  0.00    -0.246 OA
BRANCH  31  33
ATOM     33  C   UNL     1       4.784  -2.552   5.635  1.00  0.00     0.060 A 
ATOM     34  C   UNL     1       5.376  -3.764   5.254  1.00  0.00     0.016 A 
ATOM     35  C   UNL     1       5.507  -1.359   5.573  1.00  0.00     0.016 A 
ATOM     36  C   UNL     1       6.706  -3.791   4.840  1.00  0.00     0.010 A 
ATOM     37  C   UNL     1       6.849  -1.392   5.185  1.00  0.00     0.010 A 
ATOM     38  C   UNL     1       7.463  -2.613   4.851  1.00  0.00    -0.014 A 
BRANCH  38  39
ATOM     39  C   UNL     1       8.938  -2.695   4.734  1.00  0.00     0.031 A 
ATOM     40  C   UNL     1       9.746  -2.697   6.003  1.00  0.00     0.074 A 
ATOM     41  C   UNL     1       9.545  -2.794   3.538  1.00  0.00     0.049 A 
ATOM     42  N   UNL     1      11.043  -2.711   6.163  1.00  0.00    -0.248 NA
ATOM     43  C   UNL     1       8.984  -2.679   7.263  1.00  0.00     0.031 C 
ATOM     44  C   UNL     1       8.864  -2.852   2.246  1.00  0.00     0.029 A 
ATOM     45  N   UNL     1      10.878  -2.856   3.220  1.00  0.00    -0.354 N 
ATOM     46  C   UNL     1      11.252  -2.695   7.537  1.00  0.00     0.074 A 
ATOM     47  C   UNL     1       9.952  -2.638   8.166  1.00  0.00     0.031 C 
ATOM     48  C   UNL     1       9.787  -2.926   1.271  1.00  0.00     0.029 A 
ATOM     49  C   UNL     1      11.122  -2.884   1.867  1.00  0.00     0.049 A 
ATOM     50  H   UNL     1      11.593  -2.877   3.897  1.00  0.00     0.167 HD
ATOM     51  C   UNL     1      12.424  -2.732   8.213  1.00  0.00     0.037 A 
ATOM     52  C   UNL     1      12.289  -2.853   1.193  1.00  0.00     0.037 A 
ATOM     53  C   UNL     1      13.714  -2.783   7.577  1.00  0.00     0.049 A 
ATOM     54  C   UNL     1      13.585  -2.814   1.966  1.00  0.00     0.074 A 
ATOM     55  C   UNL     1      14.963  -2.834   8.170  1.00  0.00     0.029 A 
ATOM     56  N   UNL     1      13.922  -2.778   6.205  1.00  0.00    -0.354 N 
ATOM     57  N   UNL     1      13.772  -2.817   3.265  1.00  0.00    -0.248 NA
ATOM     58  C   UNL     1      14.827  -2.772   1.182  1.00  0.00     0.031 C 
ATOM     59  C   UNL     1      15.927  -2.798   7.158  1.00  0.00     0.029 A 
ATOM     60  C   UNL     1      15.279  -2.795   5.932  1.00  0.00     0.049 A 
ATOM     61  H   UNL     1      13.209  -2.764   5.526  1.00  0.00     0.167 HD
ATOM     62  C   UNL     1      15.152  -2.810   3.453  1.00  0.00     0.074 A 
ATOM     63  C   UNL     1      15.750  -2.813   2.134  1.00  0.00     0.031 C 
ATOM     64  C   UNL     1      15.859  -2.806   4.611  1.00  0.00     0.037 A 
BRANCH  51  65
ATOM     65  C   UNL     1      12.365  -2.681   9.716  1.00  0.00     0.058 A 
ATOM     66  C   UNL     1      11.873  -3.753  10.478  1.00  0.00     0.135 A 
ATOM     67  C   UNL     1      12.831  -1.549  10.405  1.00  0.00     0.135 A 
ATOM     68  F   UNL     1      11.393  -4.851   9.871  1.00  0.00    -0.206 F 
ATOM     69  C   UNL     1      11.823  -3.696  11.867  1.00  0.00     0.059 A 
ATOM     70  C   UNL     1      12.820  -1.483  11.795  1.00  0.00     0.059 A 
ATOM     71  F   UNL     1      13.304  -0.492   9.727  1.00  0.00    -0.206 F 
ATOM     72  C   UNL     1      12.302  -2.557  12.517  1.00  0.00     0.060 A 
BRANCH  72  73
ATOM     73  S   UNL     1      12.239  -2.502  14.320  1.00  0.00     0.124 S 
ATOM     74  O   UNL     1      10.804  -2.377  14.558  1.00  0.00    -0.237 OA
ATOM     75  O   UNL     1      12.832  -3.783  14.689  1.00  0.00    -0.237 OA
ATOM     76  O   UNL     1      13.034  -1.325  14.654  1.00  0.00    -0.744 OA
ENDBRANCH  72  73
ENDBRANCH  51  65
BRANCH  52  77
ATOM     77  C   UNL     1      12.290  -2.840  -0.296  1.00  0.00     0.058 A 
ATOM     78  C   UNL     1      12.783  -3.926  -1.034  1.00  0.00     0.135 A 
ATOM     79  C   UNL     1      11.802  -1.735  -1.012  1.00  0.00     0.135 A 
ATOM     80  F   UNL     1      13.274  -5.001  -0.399  1.00  0.00    -0.206 F 
ATOM     81  C   UNL     1      12.803  -3.915  -2.426  1.00  0.00     0.059 A 
ATOM     82  C   UNL     1      11.785  -1.711  -2.404  1.00  0.00     0.059 A 
ATOM     83  F   UNL     1      11.314  -0.670  -0.357  1.00  0.00    -0.206 F 
ATOM     84  C   UNL     1      12.296  -2.804  -3.102  1.00  0.00     0.060 A 
BRANCH  84  85
ATOM     85  S   UNL     1      12.277  -2.823  -4.908  1.00  0.00     0.124 S 
ATOM     86  O   UNL     1      13.695  -2.698  -5.219  1.00  0.00    -0.237 OA
ATOM     87  O   UNL     1      11.671  -4.121  -5.191  1.00  0.00    -0.237 OA
ATOM     88  O   UNL     1      11.451  -1.668  -5.247  1.00  0.00    -0.744 OA
ENDBRANCH  84  85
ENDBRANCH  52  77
BRANCH  64  89
ATOM     89  C   UNL     1      17.362  -2.850   4.513  1.00  0.00     0.058 A 
ATOM     90  C   UNL     1      18.110  -1.751   4.064  1.00  0.00     0.135 A 
ATOM     91  C   UNL     1      18.065  -3.991   4.936  1.00  0.00     0.135 A 
ATOM     92  F   UNL     1      17.490  -0.637   3.643  1.00  0.00    -0.206 F 
ATOM     93  C   UNL     1      19.500  -1.791   4.012  1.00  0.00     0.059 A 
ATOM     94  C   UNL     1      19.455  -4.040   4.926  1.00  0.00     0.059 A 
ATOM     95  F   UNL     1      17.401  -5.066   5.388  1.00  0.00    -0.206 F 
ATOM     96  C   UNL     1      20.164  -2.939   4.449  1.00  0.00     0.060 A 
BRANCH  96  97
ATOM     97  S   UNL     1      21.969  -2.962   4.409  1.00  0.00     0.124 S 
ATOM     98  O   UNL     1      22.230  -3.051   2.976  1.00  0.00    -0.237 OA
ATOM     99  O   UNL     1      22.311  -1.690   5.038  1.00  0.00    -0.237 OA
ATOM    100  O   UNL     1      22.312  -4.151   5.184  1.00  0.00    -0.744 OA
ENDBRANCH  96  97
ENDBRANCH  64  89
ENDBRANCH  38  39
ENDBRANCH  31  33
ENDBRANCH  30  31
ENDBRANCH  29  30
ENDBRANCH  28  29
ENDBRANCH  27  28
ENDBRANCH  26  27
ENDBRANCH  25  26
ENDBRANCH   1  25
TORSDOF 26
