REMARK SMILES Cc1ccsc1[C@@H]1[NH2+][C@@H](C(=O)OCCOCCOCCOCCOC(=O)c2ccc(-c3c4nc(c(-c5c(F)cc(S(=O)(=O)[O-])cc5F)c5ccc([nH]5)c(-c5c(F)cc(S(=O)(=O)[O-])cc5F)c5nc(c(-c6c(F)cc(S(=O)(=O)[O-])cc6F)c6ccc3[nH]6)C=C5)C=C4)cc2)CS1
REMARK SMILES IDX 19 1 18 2 17 3 16 4 15 5 14 6 13 7 12 8 10 9 11 10 9 11 7 12
REMARK SMILES IDX 8 13 94 14 93 17 6 18 1 19 2 20 3 21 4 22 5 23 20 24 21 25
REMARK SMILES IDX 22 26 23 27 24 28 25 29 26 30 27 31 28 32 92 33 29 34 91 35
REMARK SMILES IDX 30 36 31 37 32 38 85 39 33 40 90 41 84 42 86 43 34 44 89 45
REMARK SMILES IDX 83 46 82 47 35 49 69 50 48 51 68 52 49 53 52 54 67 55 87 56
REMARK SMILES IDX 50 57 51 58 66 60 88 61 53 62 36 63 37 64 46 65 38 66 39 67
REMARK SMILES IDX 45 68 47 69 40 70 41 71 42 72 43 73 44 74 70 75 71 76 80 77
REMARK SMILES IDX 72 78 73 79 79 80 81 81 74 82 75 83 76 84 77 85 78 86 54 87
REMARK SMILES IDX 55 88 64 89 56 90 57 91 63 92 65 93 58 94 59 95 60 96 61 97
REMARK SMILES IDX 62 98
REMARK H PARENT 8 15 8 16 86 48 52 59
REMARK Flexibility Score: inf
ROOT
ATOM      1  C   UNL     1      -0.151  -2.009   5.615  1.00  0.00     0.188 C 
ENDROOT
BRANCH   1   2
ATOM      2  O   UNL     1       0.734  -2.160   4.516  1.00  0.00    -0.377 OA
BRANCH   2   3
ATOM      3  C   UNL     1       0.325  -3.046   3.491  1.00  0.00     0.188 C 
BRANCH   3   4
ATOM      4  C   UNL     1       0.815  -4.488   3.712  1.00  0.00     0.188 C 
BRANCH   4   5
ATOM      5  O   UNL     1       1.426  -4.747   4.959  1.00  0.00    -0.376 OA
BRANCH   5   6
ATOM      6  C   UNL     1       2.652  -4.107   5.286  1.00  0.00     0.202 C 
BRANCH   6   7
ATOM      7  C   UNL     1       3.439  -3.120   4.375  1.00  0.00     0.261 C 
BRANCH   7   8
ATOM      8  O   UNL     1       3.031  -2.953   2.997  1.00  0.00    -0.459 OA
BRANCH   8   9
ATOM      9  C   UNL     1       3.726  -3.622   2.049  1.00  0.00     0.365 C 
ATOM     10  O   UNL     1       4.687  -4.345   2.301  1.00  0.00    -0.245 OA
BRANCH   9  11
ATOM     11  C   UNL     1       3.156  -3.507   0.615  1.00  0.00     0.304 C 
ATOM     12  C   UNL     1       0.887  -2.943  -0.130  1.00  0.00     0.284 C 
ATOM     13  N   UNL     1       2.185  -2.405   0.312  1.00  0.00    -0.318 N 
ATOM     14  S   UNL     1       0.809  -4.701   0.310  1.00  0.00    -0.087 SA
ATOM     15  H   UNL     1       2.044  -1.846   1.153  1.00  0.00     0.348 HD
ATOM     16  H   UNL     1       2.570  -1.834  -0.441  1.00  0.00     0.348 HD
ATOM     17  C   UNL     1       2.602  -4.876   0.233  1.00  0.00     0.153 C 
BRANCH  12  18
ATOM     18  C   UNL     1       0.545  -2.750  -1.607  1.00  0.00     0.075 A 
ATOM     19  C   UNL     1      -1.106  -0.750  -1.547  1.00  0.00     0.046 C 
ATOM     20  C   UNL     1      -0.395  -1.896  -2.192  1.00  0.00    -0.030 A 
ATOM     21  C   UNL     1      -0.700  -2.301  -3.539  1.00  0.00     0.015 A 
ATOM     22  C   UNL     1       0.078  -3.345  -3.973  1.00  0.00     0.065 A 
ATOM     23  S   UNL     1       1.270  -3.744  -2.830  1.00  0.00    -0.141 S 
ENDBRANCH  12  18
ENDBRANCH   9  11
ENDBRANCH   8   9
ENDBRANCH   7   8
ENDBRANCH   6   7
ENDBRANCH   5   6
ENDBRANCH   4   5
ENDBRANCH   3   4
ENDBRANCH   2   3
ENDBRANCH   1   2
BRANCH   1  24
ATOM     24  C   UNL     1      -1.025  -3.201   6.059  1.00  0.00     0.188 C 
BRANCH  24  25
ATOM     25  O   UNL     1      -1.708  -3.861   4.997  1.00  0.00    -0.376 OA
BRANCH  25  26
ATOM     26  C   UNL     1      -3.076  -3.559   4.771  1.00  0.00     0.202 C 
BRANCH  26  27
ATOM     27  C   UNL     1      -3.392  -2.180   4.171  1.00  0.00     0.261 C 
BRANCH  27  28
ATOM     28  O   UNL     1      -2.957  -1.043   4.930  1.00  0.00    -0.460 OA
BRANCH  28  29
ATOM     29  C   UNL     1      -3.427  -0.921   6.194  1.00  0.00     0.338 C 
ATOM     30  O   UNL     1      -4.237  -1.636   6.743  1.00  0.00    -0.246 OA
BRANCH  29  31
ATOM     31  C   UNL     1      -2.617   0.117   6.872  1.00  0.00     0.060 A 
ATOM     32  C   UNL     1      -1.911  -0.230   8.032  1.00  0.00     0.016 A 
ATOM     33  C   UNL     1      -2.527   1.410   6.350  1.00  0.00     0.016 A 
ATOM     34  C   UNL     1      -1.140   0.725   8.694  1.00  0.00     0.010 A 
ATOM     35  C   UNL     1      -1.775   2.373   7.029  1.00  0.00     0.010 A 
ATOM     36  C   UNL     1      -1.107   2.044   8.222  1.00  0.00    -0.014 A 
BRANCH  36  37
ATOM     37  C   UNL     1      -0.567   3.120   9.088  1.00  0.00     0.031 A 
ATOM     38  C   UNL     1      -1.541   3.908   9.922  1.00  0.00     0.074 A 
ATOM     39  C   UNL     1       0.751   3.382   9.155  1.00  0.00     0.049 A 
ATOM     40  N   UNL     1      -1.327   4.923  10.717  1.00  0.00    -0.248 NA
ATOM     41  C   UNL     1      -2.951   3.491   9.843  1.00  0.00     0.031 C 
ATOM     42  C   UNL     1       1.797   2.654   8.440  1.00  0.00     0.029 A 
ATOM     43  N   UNL     1       1.431   4.343   9.861  1.00  0.00    -0.354 N 
ATOM     44  C   UNL     1      -2.573   5.271  11.226  1.00  0.00     0.074 A 
ATOM     45  C   UNL     1      -3.542   4.382  10.624  1.00  0.00     0.031 C 
ATOM     46  C   UNL     1       2.989   3.201   8.740  1.00  0.00     0.029 A 
ATOM     47  C   UNL     1       2.787   4.339   9.637  1.00  0.00     0.049 A 
ATOM     48  H   UNL     1       0.988   4.977  10.471  1.00  0.00     0.167 HD
ATOM     49  C   UNL     1      -2.882   6.240  12.121  1.00  0.00     0.037 A 
ATOM     50  C   UNL     1       3.747   5.171  10.088  1.00  0.00     0.037 A 
ATOM     51  C   UNL     1      -1.914   7.128  12.707  1.00  0.00     0.049 A 
ATOM     52  C   UNL     1       3.366   6.306  11.008  1.00  0.00     0.074 A 
ATOM     53  C   UNL     1      -2.121   8.137  13.631  1.00  0.00     0.029 A 
ATOM     54  N   UNL     1      -0.557   7.125  12.416  1.00  0.00    -0.354 N 
ATOM     55  N   UNL     1       2.189   6.614  11.501  1.00  0.00    -0.248 NA
ATOM     56  C   UNL     1       4.446   7.210  11.432  1.00  0.00     0.031 C 
ATOM     57  C   UNL     1      -0.900   8.783  13.852  1.00  0.00     0.029 A 
ATOM     58  C   UNL     1       0.080   8.136  13.116  1.00  0.00     0.049 A 
ATOM     59  H   UNL     1      -0.113   6.497  11.802  1.00  0.00     0.167 HD
ATOM     60  C   UNL     1       2.393   7.723  12.318  1.00  0.00     0.074 A 
ATOM     61  C   UNL     1       3.808   8.027  12.259  1.00  0.00     0.031 C 
ATOM     62  C   UNL     1       1.493   8.423  13.053  1.00  0.00     0.037 A 
BRANCH  49  63
ATOM     63  C   UNL     1      -4.333   6.410  12.482  1.00  0.00     0.058 A 
ATOM     64  C   UNL     1      -5.029   5.449  13.234  1.00  0.00     0.135 A 
ATOM     65  C   UNL     1      -5.037   7.553  12.070  1.00  0.00     0.135 A 
ATOM     66  F   UNL     1      -4.412   4.327  13.637  1.00  0.00    -0.206 F 
ATOM     67  C   UNL     1      -6.381   5.597  13.530  1.00  0.00     0.059 A 
ATOM     68  C   UNL     1      -6.380   7.737  12.383  1.00  0.00     0.059 A 
ATOM     69  F   UNL     1      -4.423   8.501  11.347  1.00  0.00    -0.206 F 
ATOM     70  C   UNL     1      -7.048   6.744  13.097  1.00  0.00     0.060 A 
BRANCH  70  71
ATOM     71  S   UNL     1      -8.806   6.912  13.473  1.00  0.00     0.124 S 
ATOM     72  O   UNL     1      -9.390   5.915  12.580  1.00  0.00    -0.237 OA
ATOM     73  O   UNL     1      -8.852   6.592  14.896  1.00  0.00    -0.237 OA
ATOM     74  O   UNL     1      -9.095   8.302  13.135  1.00  0.00    -0.744 OA
ENDBRANCH  70  71
ENDBRANCH  49  63
BRANCH  50  75
ATOM     75  C   UNL     1       5.164   4.973   9.678  1.00  0.00     0.058 A 
ATOM     76  C   UNL     1       6.138   4.583  10.610  1.00  0.00     0.135 A 
ATOM     77  C   UNL     1       5.577   5.178   8.352  1.00  0.00     0.135 A 
ATOM     78  F   UNL     1       5.799   4.390  11.893  1.00  0.00    -0.206 F 
ATOM     79  C   UNL     1       7.470   4.413  10.246  1.00  0.00     0.059 A 
ATOM     80  C   UNL     1       6.898   4.987   7.958  1.00  0.00     0.059 A 
ATOM     81  F   UNL     1       4.686   5.549   7.419  1.00  0.00    -0.206 F 
ATOM     82  C   UNL     1       7.840   4.613   8.915  1.00  0.00     0.060 A 
BRANCH  82  83
ATOM     83  S   UNL     1       9.562   4.336   8.445  1.00  0.00     0.124 S 
ATOM     84  O   UNL     1      10.226   5.469   9.078  1.00  0.00    -0.237 OA
ATOM     85  O   UNL     1       9.830   3.027   9.033  1.00  0.00    -0.237 OA
ATOM     86  O   UNL     1       9.520   4.363   6.986  1.00  0.00    -0.744 OA
ENDBRANCH  82  83
ENDBRANCH  50  75
BRANCH  62  87
ATOM     87  C   UNL     1       2.010   9.565  13.889  1.00  0.00     0.058 A 
ATOM     88  C   UNL     1       2.454  10.765  13.313  1.00  0.00     0.135 A 
ATOM     89  C   UNL     1       2.002   9.477  15.291  1.00  0.00     0.135 A 
ATOM     90  F   UNL     1       2.489  10.903  11.978  1.00  0.00    -0.206 F 
ATOM     91  C   UNL     1       2.895  11.829  14.096  1.00  0.00     0.059 A 
ATOM     92  C   UNL     1       2.407  10.539  16.094  1.00  0.00     0.059 A 
ATOM     93  F   UNL     1       1.575   8.357  15.897  1.00  0.00    -0.206 F 
ATOM     94  C   UNL     1       2.863  11.707  15.486  1.00  0.00     0.060 A 
BRANCH  94  95
ATOM     95  S   UNL     1       3.402  13.109  16.490  1.00  0.00     0.124 S 
ATOM     96  O   UNL     1       4.845  13.087  16.276  1.00  0.00    -0.237 OA
ATOM     97  O   UNL     1       2.686  14.223  15.877  1.00  0.00    -0.237 OA
ATOM     98  O   UNL     1       2.962  12.753  17.836  1.00  0.00    -0.744 OA
ENDBRANCH  94  95
ENDBRANCH  62  87
ENDBRANCH  36  37
ENDBRANCH  29  31
ENDBRANCH  28  29
ENDBRANCH  27  28
ENDBRANCH  26  27
ENDBRANCH  25  26
ENDBRANCH  24  25
ENDBRANCH   1  24
TORSDOF 24
