REMARK SMILES CCc1cccc(C)c1Nc1ccccc1CC(=O)OCCOCCOCCOCCOC(=O)c1ccc(-c2c3nc(c(-c4c(F)cc(S(=O)(=O)[O-])cc4F)c4ccc([nH]4)c(-c4c(F)cc(S(=O)(=O)[O-])cc4F)c4nc(c(-c5c(F)cc(S(=O)(=O)[O-])cc5F)c5ccc2[nH]5)C=C4)C=C3)cc1
REMARK SMILES IDX 25 1 24 2 23 3 22 4 21 5 20 6 18 7 19 8 17 9 16 10 11 11
REMARK SMILES IDX 12 12 13 13 15 14 14 15 10 16 9 18 3 19 4 20 5 21 7 22 6 23
REMARK SMILES IDX 8 24 2 25 1 26 26 27 27 28 28 29 29 30 30 31 31 32 32 33
REMARK SMILES IDX 33 34 34 35 35 36 36 37 100 38 37 39 99 40 38 41 39 42 40 43
REMARK SMILES IDX 93 44 41 45 98 46 92 47 94 48 42 49 97 50 91 51 90 52 43 54
REMARK SMILES IDX 77 55 56 56 76 57 57 58 60 59 75 60 95 61 58 62 59 63 74 65
REMARK SMILES IDX 96 66 61 67 44 68 45 69 54 70 46 71 47 72 53 73 55 74 48 75
REMARK SMILES IDX 49 76 50 77 51 78 52 79 78 80 79 81 88 82 80 83 81 84 87 85
REMARK SMILES IDX 89 86 82 87 83 88 84 89 85 90 86 91 62 92 63 93 72 94 64 95
REMARK SMILES IDX 65 96 71 97 73 98 66 99 67 100 68 101 69 102 70 103
REMARK H PARENT 10 17 94 53 60 64
REMARK Flexibility Score: inf
ROOT
ATOM      1  C   UNL     1       0.070   3.371   0.619  1.00  0.00     0.188 C 
ENDROOT
BRANCH   1   2
ATOM      2  C   UNL     1       1.608   1.953   0.961  1.00  0.00     0.188 C 
BRANCH   2   3
ATOM      3  O   UNL     1       0.968   0.610   2.380  1.00  0.00    -0.376 OA
BRANCH   3   4
ATOM      4  C   UNL     1       0.616   1.011   4.051  1.00  0.00     0.202 C 
BRANCH   4   5
ATOM      5  C   UNL     1       1.515   2.306   4.847  1.00  0.00     0.261 C 
BRANCH   5   6
ATOM      6  O   UNL     1       1.884   3.778   4.091  1.00  0.00    -0.463 OA
BRANCH   6   7
ATOM      7  C   UNL     1       2.943   4.306   3.352  1.00  0.00     0.310 C 
ATOM      8  O   UNL     1       3.927   4.683   4.009  1.00  0.00    -0.252 OA
BRANCH   7   9
ATOM      9  C   UNL     1       3.149   4.308   1.672  1.00  0.00     0.160 C 
BRANCH   9  10
ATOM     10  C   UNL     1       2.224   4.375   0.217  1.00  0.00    -0.013 A 
ATOM     11  C   UNL     1       1.799   3.272  -0.995  1.00  0.00     0.042 A 
ATOM     12  C   UNL     1       1.291   3.841  -2.202  1.00  0.00     0.026 A 
ATOM     13  C   UNL     1       0.895   5.207  -2.189  1.00  0.00     0.002 A 
ATOM     14  C   UNL     1       1.826   5.726   0.039  1.00  0.00     0.006 A 
ATOM     15  C   UNL     1       1.111   6.096  -1.102  1.00  0.00     0.000 A 
BRANCH  11  16
ATOM     16  N   UNL     1       0.568   1.938  -0.729  1.00  0.00    -0.355 N 
ATOM     17  H   UNL     1       0.218   1.523  -1.551  1.00  0.00     0.167 HD
BRANCH  16  18
ATOM     18  C   UNL     1      -0.142   1.228   0.902  1.00  0.00     0.045 A 
ATOM     19  C   UNL     1       0.724  -0.289   0.570  1.00  0.00    -0.024 A 
ATOM     20  C   UNL     1       2.228  -0.624   1.272  1.00  0.00     0.006 A 
ATOM     21  C   UNL     1       3.007   0.380   2.288  1.00  0.00     0.001 A 
ATOM     22  C   UNL     1       0.518   2.361   2.351  1.00  0.00    -0.027 A 
ATOM     23  C   UNL     1       2.299   1.841   2.826  1.00  0.00     0.005 A 
ATOM     24  C   UNL     1      -0.171   3.583   2.992  1.00  0.00     0.046 C 
BRANCH  19  25
ATOM     25  C   UNL     1       0.279  -1.374  -0.357  1.00  0.00     0.034 C 
ATOM     26  C   UNL     1       1.049  -1.255  -1.659  1.00  0.00     0.009 C 
ENDBRANCH  19  25
ENDBRANCH  16  18
ENDBRANCH  11  16
ENDBRANCH   9  10
ENDBRANCH   7   9
ENDBRANCH   6   7
ENDBRANCH   5   6
ENDBRANCH   4   5
ENDBRANCH   3   4
ENDBRANCH   2   3
ENDBRANCH   1   2
BRANCH   1  27
ATOM     27  O   UNL     1      -1.432   3.045   0.364  1.00  0.00    -0.377 OA
BRANCH  27  28
ATOM     28  C   UNL     1      -2.461   3.150   1.354  1.00  0.00     0.188 C 
BRANCH  28  29
ATOM     29  C   UNL     1      -3.634   2.296   0.957  1.00  0.00     0.188 C 
BRANCH  29  30
ATOM     30  O   UNL     1      -3.103   0.971   0.925  1.00  0.00    -0.376 OA
BRANCH  30  31
ATOM     31  C   UNL     1      -3.241   0.334  -0.324  1.00  0.00     0.202 C 
BRANCH  31  32
ATOM     32  C   UNL     1      -4.663  -0.189  -0.435  1.00  0.00     0.261 C 
BRANCH  32  33
ATOM     33  O   UNL     1      -4.904  -1.042   0.714  1.00  0.00    -0.460 OA
BRANCH  33  34
ATOM     34  C   UNL     1      -5.738  -0.498   1.651  1.00  0.00     0.338 C 
ATOM     35  O   UNL     1      -6.922  -0.290   1.444  1.00  0.00    -0.246 OA
BRANCH  34  36
ATOM     36  C   UNL     1      -5.016  -0.169   2.928  1.00  0.00     0.060 A 
ATOM     37  C   UNL     1      -5.558   0.761   3.831  1.00  0.00     0.016 A 
ATOM     38  C   UNL     1      -3.715  -0.610   3.142  1.00  0.00     0.016 A 
ATOM     39  C   UNL     1      -4.762   1.354   4.840  1.00  0.00     0.010 A 
ATOM     40  C   UNL     1      -2.927   0.002   4.116  1.00  0.00     0.010 A 
ATOM     41  C   UNL     1      -3.413   1.015   4.966  1.00  0.00    -0.014 A 
BRANCH  41  42
ATOM     42  C   UNL     1      -2.425   1.716   5.846  1.00  0.00     0.031 A 
ATOM     43  C   UNL     1      -1.393   0.872   6.630  1.00  0.00     0.074 A 
ATOM     44  C   UNL     1      -2.220   3.054   5.672  1.00  0.00     0.049 A 
ATOM     45  N   UNL     1      -0.293   1.285   7.184  1.00  0.00    -0.248 NA
ATOM     46  C   UNL     1      -1.497  -0.582   6.763  1.00  0.00     0.031 C 
ATOM     47  C   UNL     1      -0.996   3.729   6.061  1.00  0.00     0.029 A 
ATOM     48  N   UNL     1      -2.869   4.082   4.990  1.00  0.00    -0.354 N 
ATOM     49  C   UNL     1       0.569   0.217   7.423  1.00  0.00     0.074 A 
ATOM     50  C   UNL     1      -0.281  -0.930   7.214  1.00  0.00     0.031 C 
ATOM     51  C   UNL     1      -0.856   4.937   5.492  1.00  0.00     0.029 A 
ATOM     52  C   UNL     1      -2.205   5.315   5.208  1.00  0.00     0.049 A 
ATOM     53  H   UNL     1      -3.675   3.967   4.436  1.00  0.00     0.167 HD
ATOM     54  C   UNL     1       1.917   0.440   7.640  1.00  0.00     0.037 A 
ATOM     55  C   UNL     1      -2.724   6.296   6.019  1.00  0.00     0.037 A 
ATOM     56  C   UNL     1       2.211   1.895   7.803  1.00  0.00     0.049 A 
ATOM     57  C   UNL     1      -1.901   6.421   7.349  1.00  0.00     0.074 A 
ATOM     58  C   UNL     1       3.126   2.782   7.243  1.00  0.00     0.029 A 
ATOM     59  N   UNL     1       1.358   2.706   8.559  1.00  0.00    -0.354 N 
ATOM     60  N   UNL     1      -1.331   5.388   7.952  1.00  0.00    -0.248 NA
ATOM     61  C   UNL     1      -1.358   7.679   7.877  1.00  0.00     0.031 C 
ATOM     62  C   UNL     1       2.616   4.108   7.406  1.00  0.00     0.029 A 
ATOM     63  C   UNL     1       1.514   4.053   8.253  1.00  0.00     0.049 A 
ATOM     64  H   UNL     1       0.722   2.363   9.228  1.00  0.00     0.167 HD
ATOM     65  C   UNL     1      -0.241   5.799   8.687  1.00  0.00     0.074 A 
ATOM     66  C   UNL     1      -0.376   7.251   8.701  1.00  0.00     0.031 C 
ATOM     67  C   UNL     1       0.870   5.077   9.070  1.00  0.00     0.037 A 
BRANCH  54  68
ATOM     68  C   UNL     1       3.085  -0.602   7.532  1.00  0.00     0.058 A 
ATOM     69  C   UNL     1       4.426  -0.219   7.817  1.00  0.00     0.135 A 
ATOM     70  C   UNL     1       2.995  -1.944   7.084  1.00  0.00     0.135 A 
ATOM     71  F   UNL     1       4.716   0.993   8.307  1.00  0.00    -0.206 F 
ATOM     72  C   UNL     1       5.550  -1.046   7.639  1.00  0.00     0.059 A 
ATOM     73  C   UNL     1       4.105  -2.815   6.954  1.00  0.00     0.059 A 
ATOM     74  F   UNL     1       1.827  -2.486   6.723  1.00  0.00    -0.206 F 
ATOM     75  C   UNL     1       5.386  -2.353   7.220  1.00  0.00     0.060 A 
BRANCH  75  76
ATOM     76  S   UNL     1       6.844  -3.423   7.101  1.00  0.00     0.124 S 
ATOM     77  O   UNL     1       7.548  -2.861   5.952  1.00  0.00    -0.237 OA
ATOM     78  O   UNL     1       7.488  -3.222   8.395  1.00  0.00    -0.237 OA
ATOM     79  O   UNL     1       6.277  -4.753   6.893  1.00  0.00    -0.744 OA
ENDBRANCH  75  76
ENDBRANCH  54  68
BRANCH  55  80
ATOM     80  C   UNL     1      -4.135   6.591   5.602  1.00  0.00     0.058 A 
ATOM     81  C   UNL     1      -4.234   7.243   4.345  1.00  0.00     0.135 A 
ATOM     82  C   UNL     1      -5.127   5.631   5.881  1.00  0.00     0.135 A 
ATOM     83  F   UNL     1      -3.348   8.201   4.022  1.00  0.00    -0.206 F 
ATOM     84  C   UNL     1      -5.064   6.768   3.324  1.00  0.00     0.059 A 
ATOM     85  C   UNL     1      -5.963   5.135   4.867  1.00  0.00     0.059 A 
ATOM     86  F   UNL     1      -5.109   4.978   7.053  1.00  0.00    -0.206 F 
ATOM     87  C   UNL     1      -5.870   5.662   3.575  1.00  0.00     0.060 A 
BRANCH  87  88
ATOM     88  S   UNL     1      -6.560   4.753   2.159  1.00  0.00     0.124 S 
ATOM     89  O   UNL     1      -7.804   5.470   1.913  1.00  0.00    -0.237 OA
ATOM     90  O   UNL     1      -5.519   4.908   1.147  1.00  0.00    -0.237 OA
ATOM     91  O   UNL     1      -6.694   3.401   2.684  1.00  0.00    -0.744 OA
ENDBRANCH  87  88
ENDBRANCH  55  80
BRANCH  67  92
ATOM     92  C   UNL     1       1.421   5.183  10.475  1.00  0.00     0.058 A 
ATOM     93  C   UNL     1       0.613   5.617  11.531  1.00  0.00     0.135 A 
ATOM     94  C   UNL     1       2.649   4.561  10.842  1.00  0.00     0.135 A 
ATOM     95  F   UNL     1      -0.595   6.155  11.311  1.00  0.00    -0.206 F 
ATOM     96  C   UNL     1       0.999   5.466  12.856  1.00  0.00     0.059 A 
ATOM     97  C   UNL     1       3.019   4.342  12.159  1.00  0.00     0.059 A 
ATOM     98  F   UNL     1       3.527   4.111   9.934  1.00  0.00    -0.206 F 
ATOM     99  C   UNL     1       2.198   4.827  13.160  1.00  0.00     0.060 A 
BRANCH  99 100
ATOM    100  S   UNL     1       2.682   4.657  14.878  1.00  0.00     0.124 S 
ATOM    101  O   UNL     1       3.234   5.982  15.142  1.00  0.00    -0.237 OA
ATOM    102  O   UNL     1       1.413   4.357  15.535  1.00  0.00    -0.237 OA
ATOM    103  O   UNL     1       3.646   3.562  14.857  1.00  0.00    -0.744 OA
ENDBRANCH  99 100
ENDBRANCH  67  92
ENDBRANCH  41  42
ENDBRANCH  34  36
ENDBRANCH  33  34
ENDBRANCH  32  33
ENDBRANCH  31  32
ENDBRANCH  30  31
ENDBRANCH  29  30
ENDBRANCH  28  29
ENDBRANCH  27  28
ENDBRANCH   1  27
TORSDOF 27
