REMARK SMILES C[C@@H](C(=O)OCCOCCOCCOCCOC(=O)c1ccc(-c2c3nc(c(-c4c(F)cc(S(=O)(=O)[O-])cc4F)c4ccc([nH]4)c(-c4c(F)cc(S(=O)(=O)[O-])cc4F)c4nc(c(-c5c(F)cc(S(=O)(=O)[O-])cc5F)c5ccc2[nH]5)C=C4)C=C3)cc1)c1ccc(C[C@H]2CCCC2=O)cc1F
REMARK SMILES IDX 11 1 10 2 9 3 8 4 7 5 6 6 5 7 3 8 4 9 2 10 1 11 86 12 87 13
REMARK SMILES IDX 98 14 88 15 97 16 99 17 89 18 90 19 91 20 92 21 95 22 93 23
REMARK SMILES IDX 94 24 96 25 12 26 13 27 14 28 15 29 16 30 17 31 18 32 19 33
REMARK SMILES IDX 20 34 21 35 85 36 22 37 84 38 23 39 24 40 25 41 78 42 26 43
REMARK SMILES IDX 83 44 77 45 79 46 27 47 82 48 76 49 75 50 28 52 62 53 41 54
REMARK SMILES IDX 61 55 42 56 45 57 60 58 80 59 43 60 44 61 59 63 81 64 46 65
REMARK SMILES IDX 29 66 30 67 39 68 31 69 32 70 38 71 40 72 33 73 34 74 35 75
REMARK SMILES IDX 36 76 37 77 63 78 64 79 73 80 65 81 66 82 72 83 74 84 67 85
REMARK SMILES IDX 68 86 69 87 70 88 71 89 47 90 48 91 57 92 49 93 50 94 56 95
REMARK SMILES IDX 58 96 51 97 52 98 53 99 54 100 55 101
REMARK H PARENT 79 51 45 62
REMARK Flexibility Score: inf
ROOT
ATOM      1  O   UNL     1       2.515  -3.039  -0.861  1.00  0.00    -0.377 OA
ENDROOT
BRANCH   1   2
ATOM      2  C   UNL     1       1.113  -2.902  -0.857  1.00  0.00     0.188 C 
BRANCH   2   3
ATOM      3  C   UNL     1       0.406  -3.467  -2.106  1.00  0.00     0.188 C 
BRANCH   3   4
ATOM      4  O   UNL     1       1.180  -4.086  -3.118  1.00  0.00    -0.376 OA
BRANCH   4   5
ATOM      5  C   UNL     1       2.335  -3.425  -3.612  1.00  0.00     0.202 C 
BRANCH   5   6
ATOM      6  C   UNL     1       2.414  -1.894  -3.818  1.00  0.00     0.261 C 
BRANCH   6   7
ATOM      7  O   UNL     1       1.890  -1.026  -2.791  1.00  0.00    -0.463 OA
BRANCH   7   8
ATOM      8  C   UNL     1       0.728  -0.373  -3.064  1.00  0.00     0.313 C 
ATOM      9  O   UNL     1       0.106  -0.506  -4.115  1.00  0.00    -0.252 OA
BRANCH   8  10
ATOM     10  C   UNL     1       0.273   0.602  -1.956  1.00  0.00     0.129 C 
ATOM     11  C   UNL     1       1.032   0.624  -0.624  1.00  0.00     0.025 C 
BRANCH  10  12
ATOM     12  C   UNL     1      -1.238   0.546  -1.733  1.00  0.00     0.002 A 
ATOM     13  C   UNL     1      -2.019   1.688  -1.938  1.00  0.00     0.008 A 
ATOM     14  C   UNL     1      -1.912  -0.621  -1.354  1.00  0.00     0.127 A 
ATOM     15  C   UNL     1      -3.414   1.635  -1.815  1.00  0.00     0.004 A 
ATOM     16  C   UNL     1      -3.296  -0.698  -1.269  1.00  0.00     0.043 A 
ATOM     17  F   UNL     1      -1.245  -1.716  -0.995  1.00  0.00    -0.207 F 
ATOM     18  C   UNL     1      -4.066   0.438  -1.490  1.00  0.00    -0.044 A 
BRANCH  18  19
ATOM     19  C   UNL     1      -5.561   0.370  -1.320  1.00  0.00     0.047 C 
BRANCH  19  20
ATOM     20  C   UNL     1      -6.084   0.782   0.060  1.00  0.00     0.060 C 
ATOM     21  C   UNL     1      -5.541   0.007   1.265  1.00  0.00     0.012 C 
ATOM     22  C   UNL     1      -5.699   2.201   0.396  1.00  0.00     0.136 C 
ATOM     23  C   UNL     1      -4.398   0.835   1.843  1.00  0.00     0.009 C 
ATOM     24  C   UNL     1      -4.736   2.290   1.549  1.00  0.00     0.076 C 
ATOM     25  O   UNL     1      -6.125   3.180  -0.208  1.00  0.00    -0.299 OA
ENDBRANCH  19  20
ENDBRANCH  18  19
ENDBRANCH  10  12
ENDBRANCH   8  10
ENDBRANCH   7   8
ENDBRANCH   6   7
ENDBRANCH   5   6
ENDBRANCH   4   5
ENDBRANCH   3   4
ENDBRANCH   2   3
ENDBRANCH   1   2
BRANCH   1  26
ATOM     26  C   UNL     1       3.035  -4.242  -0.320  1.00  0.00     0.188 C 
BRANCH  26  27
ATOM     27  C   UNL     1       2.158  -5.510  -0.342  1.00  0.00     0.188 C 
BRANCH  27  28
ATOM     28  O   UNL     1       0.837  -5.328   0.159  1.00  0.00    -0.376 OA
BRANCH  28  29
ATOM     29  C   UNL     1       0.547  -5.668   1.505  1.00  0.00     0.202 C 
BRANCH  29  30
ATOM     30  C   UNL     1       1.201  -4.832   2.617  1.00  0.00     0.261 C 
BRANCH  30  31
ATOM     31  O   UNL     1       2.634  -4.792   2.635  1.00  0.00    -0.460 OA
BRANCH  31  32
ATOM     32  C   UNL     1       3.303  -5.969   2.690  1.00  0.00     0.338 C 
ATOM     33  O   UNL     1       2.829  -7.074   2.805  1.00  0.00    -0.246 OA
BRANCH  32  34
ATOM     34  C   UNL     1       4.717  -5.674   2.357  1.00  0.00     0.060 A 
ATOM     35  C   UNL     1       5.296  -6.304   1.246  1.00  0.00     0.016 A 
ATOM     36  C   UNL     1       5.448  -4.752   3.108  1.00  0.00     0.016 A 
ATOM     37  C   UNL     1       6.619  -6.033   0.900  1.00  0.00     0.010 A 
ATOM     38  C   UNL     1       6.783  -4.505   2.780  1.00  0.00     0.010 A 
ATOM     39  C   UNL     1       7.382  -5.171   1.696  1.00  0.00    -0.014 A 
BRANCH  39  40
ATOM     40  C   UNL     1       8.856  -5.152   1.542  1.00  0.00     0.031 A 
ATOM     41  C   UNL     1       9.665  -6.028   2.459  1.00  0.00     0.074 A 
ATOM     42  C   UNL     1       9.460  -4.399   0.606  1.00  0.00     0.049 A 
ATOM     43  N   UNL     1      10.962  -6.150   2.563  1.00  0.00    -0.248 NA
ATOM     44  C   UNL     1       8.904  -6.881   3.389  1.00  0.00     0.031 C 
ATOM     45  C   UNL     1       8.777  -3.553  -0.370  1.00  0.00     0.029 A 
ATOM     46  N   UNL     1      10.793  -4.224   0.332  1.00  0.00    -0.354 N 
ATOM     47  C   UNL     1      11.171  -7.080   3.575  1.00  0.00     0.074 A 
ATOM     48  C   UNL     1       9.871  -7.471   4.072  1.00  0.00     0.031 C 
ATOM     49  C   UNL     1       9.700  -2.936  -1.131  1.00  0.00     0.029 A 
ATOM     50  C   UNL     1      11.036  -3.316  -0.672  1.00  0.00     0.049 A 
ATOM     51  H   UNL     1      11.509  -4.703   0.808  1.00  0.00     0.167 HD
ATOM     52  C   UNL     1      12.343  -7.568   4.043  1.00  0.00     0.037 A 
ATOM     53  C   UNL     1      12.203  -2.833  -1.144  1.00  0.00     0.037 A 
ATOM     54  C   UNL     1      13.632  -7.172   3.542  1.00  0.00     0.049 A 
ATOM     55  C   UNL     1      13.498  -3.334  -0.553  1.00  0.00     0.074 A 
ATOM     56  C   UNL     1      14.881  -7.620   3.933  1.00  0.00     0.029 A 
ATOM     57  N   UNL     1      13.838  -6.224   2.549  1.00  0.00    -0.354 N 
ATOM     58  N   UNL     1      13.686  -4.231   0.388  1.00  0.00    -0.248 NA
ATOM     59  C   UNL     1      14.741  -2.760  -1.088  1.00  0.00     0.031 C 
ATOM     60  C   UNL     1      15.844  -6.897   3.222  1.00  0.00     0.029 A 
ATOM     61  C   UNL     1      15.195  -6.050   2.337  1.00  0.00     0.049 A 
ATOM     62  H   UNL     1      13.125  -5.747   2.067  1.00  0.00     0.167 HD
ATOM     63  C   UNL     1      15.066  -4.353   0.530  1.00  0.00     0.074 A 
ATOM     64  C   UNL     1      15.664  -3.444  -0.426  1.00  0.00     0.031 C 
ATOM     65  C   UNL     1      15.775  -5.147   1.372  1.00  0.00     0.037 A 
BRANCH  52  66
ATOM     66  C   UNL     1      12.286  -8.552   5.179  1.00  0.00     0.058 A 
ATOM     67  C   UNL     1      11.797  -9.858   5.011  1.00  0.00     0.135 A 
ATOM     68  C   UNL     1      12.752  -8.188   6.453  1.00  0.00     0.135 A 
ATOM     69  F   UNL     1      11.316 -10.253   3.821  1.00  0.00    -0.206 F 
ATOM     70  C   UNL     1      11.751 -10.759   6.070  1.00  0.00     0.059 A 
ATOM     71  C   UNL     1      12.745  -9.082   7.519  1.00  0.00     0.059 A 
ATOM     72  F   UNL     1      13.222  -6.950   6.672  1.00  0.00    -0.206 F 
ATOM     73  C   UNL     1      12.230 -10.362   7.320  1.00  0.00     0.060 A 
BRANCH  73  74
ATOM     74  S   UNL     1      12.173 -11.547   8.681  1.00  0.00     0.124 S 
ATOM     75  O   UNL     1      10.739 -11.617   8.946  1.00  0.00    -0.237 OA
ATOM     76  O   UNL     1      12.766 -12.737   8.080  1.00  0.00    -0.237 OA
ATOM     77  O   UNL     1      12.972 -10.909   9.722  1.00  0.00    -0.744 OA
ENDBRANCH  73  74
ENDBRANCH  52  66
BRANCH  53  78
ATOM     78  C   UNL     1      12.207  -1.810  -2.226  1.00  0.00     0.058 A 
ATOM     79  C   UNL     1      12.705  -2.108  -3.503  1.00  0.00     0.135 A 
ATOM     80  C   UNL     1      11.724  -0.511  -2.002  1.00  0.00     0.135 A 
ATOM     81  F   UNL     1      13.192  -3.330  -3.765  1.00  0.00    -0.206 F 
ATOM     82  C   UNL     1      12.737  -1.153  -4.515  1.00  0.00     0.059 A 
ATOM     83  C   UNL     1      11.718   0.453  -3.006  1.00  0.00     0.059 A 
ATOM     84  F   UNL     1      11.232  -0.174  -0.799  1.00  0.00    -0.206 F 
ATOM     85  C   UNL     1      12.236   0.124  -4.258  1.00  0.00     0.060 A 
BRANCH  85  86
ATOM     86  S   UNL     1      12.236   1.340  -5.593  1.00  0.00     0.124 S 
ATOM     87  O   UNL     1      13.659   1.634  -5.724  1.00  0.00    -0.237 OA
ATOM     88  O   UNL     1      11.635   0.587  -6.690  1.00  0.00    -0.237 OA
ATOM     89  O   UNL     1      11.414   2.423  -5.062  1.00  0.00    -0.744 OA
ENDBRANCH  85  86
ENDBRANCH  53  78
BRANCH  65  90
ATOM     90  C   UNL     1      17.277  -5.110   1.271  1.00  0.00     0.058 A 
ATOM     91  C   UNL     1      18.025  -4.004   1.704  1.00  0.00     0.135 A 
ATOM     92  C   UNL     1      17.980  -6.228   0.791  1.00  0.00     0.135 A 
ATOM     93  F   UNL     1      17.404  -2.908   2.168  1.00  0.00    -0.206 F 
ATOM     94  C   UNL     1      19.415  -3.997   1.640  1.00  0.00     0.059 A 
ATOM     95  C   UNL     1      19.371  -6.256   0.750  1.00  0.00     0.059 A 
ATOM     96  F   UNL     1      17.316  -7.319   0.377  1.00  0.00    -0.206 F 
ATOM     97  C   UNL     1      20.079  -5.130   1.165  1.00  0.00     0.060 A 
BRANCH  97  98
ATOM     98  S   UNL     1      21.884  -5.120   1.120  1.00  0.00     0.124 S 
ATOM     99  O   UNL     1      22.146  -4.199   0.019  1.00  0.00    -0.237 OA
ATOM    100  O   UNL     1      22.225  -4.629   2.452  1.00  0.00    -0.237 OA
ATOM    101  O   UNL     1      22.227  -6.516   0.866  1.00  0.00    -0.744 OA
ENDBRANCH  97  98
ENDBRANCH  65  90
ENDBRANCH  39  40
ENDBRANCH  32  34
ENDBRANCH  31  32
ENDBRANCH  30  31
ENDBRANCH  29  30
ENDBRANCH  28  29
ENDBRANCH  27  28
ENDBRANCH  26  27
ENDBRANCH   1  26
TORSDOF 26
