REMARK SMILES Cc1nccn1CCC[NH+]1CCC2(CC1)[C@@H](C(=O)OCCOCCOCCOCCOC(=O)c1ccc(-c3c4nc(c(-c5c(F)cc(S(=O)(=O)[O-])cc5F)c5ccc([nH]5)c(-c5c(F)cc(S(=O)(=O)[O-])cc5F)c5nc(c(-c6c(F)cc(S(=O)(=O)[O-])cc6F)c6ccc3[nH]6)C=C5)C=C4)cc1)CC(=O)N2C
REMARK SMILES IDX 24 1 23 2 22 3 21 4 20 5 19 6 17 7 18 8 16 9 10 10 11 11
REMARK SMILES IDX 15 12 12 14 14 15 13 16 103 17 100 18 101 19 104 20 102 21
REMARK SMILES IDX 9 22 8 23 7 24 6 25 1 26 2 27 3 28 4 29 5 30 25 31 26 32
REMARK SMILES IDX 27 33 28 34 29 35 30 36 31 37 32 38 33 39 34 40 35 41 99 42
REMARK SMILES IDX 36 43 98 44 37 45 38 46 39 47 92 48 40 49 97 50 91 51 93 52
REMARK SMILES IDX 41 53 96 54 90 55 89 56 42 58 76 59 55 60 75 61 56 62 59 63
REMARK SMILES IDX 74 64 94 65 57 66 58 67 73 69 95 70 60 71 43 72 44 73 53 74
REMARK SMILES IDX 45 75 46 76 52 77 54 78 47 79 48 80 49 81 50 82 51 83 77 84
REMARK SMILES IDX 78 85 87 86 79 87 80 88 86 89 88 90 81 91 82 92 83 93 84 94
REMARK SMILES IDX 85 95 61 96 62 97 71 98 63 99 64 100 70 101 72 102 65 103
REMARK SMILES IDX 66 104 67 105 68 106 69 107
REMARK H PARENT 10 13 93 57 59 68
REMARK Flexibility Score: inf
ROOT
ATOM      1  C   UNL     1       0.955   8.714  -6.287  1.00  0.00     0.188 C 
ENDROOT
BRANCH   1   2
ATOM      2  C   UNL     1       2.415   8.270  -6.504  1.00  0.00     0.188 C 
BRANCH   2   3
ATOM      3  O   UNL     1       2.728   6.949  -6.935  1.00  0.00    -0.376 OA
BRANCH   3   4
ATOM      4  C   UNL     1       1.941   5.861  -6.478  1.00  0.00     0.202 C 
BRANCH   4   5
ATOM      5  C   UNL     1       1.856   5.627  -4.966  1.00  0.00     0.261 C 
BRANCH   5   6
ATOM      6  O   UNL     1       1.582   6.804  -4.179  1.00  0.00    -0.463 OA
BRANCH   6   7
ATOM      7  C   UNL     1       2.555   7.204  -3.321  1.00  0.00     0.311 C 
ATOM      8  O   UNL     1       3.645   6.656  -3.202  1.00  0.00    -0.252 OA
BRANCH   7   9
ATOM      9  C   UNL     1       2.130   8.341  -2.407  1.00  0.00     0.134 C 
ATOM     10  N   UNL     1       1.793   5.447   0.670  1.00  0.00    -0.335 N 
ATOM     11  C   UNL     1       2.438   6.702   1.069  1.00  0.00     0.264 C 
ATOM     12  C   UNL     1       0.500   5.764   0.045  1.00  0.00     0.264 C 
ATOM     13  H   UNL     1       1.611   4.873   1.493  1.00  0.00     0.348 HD
ATOM     14  C   UNL     1       2.720   7.626  -0.105  1.00  0.00     0.091 C 
ATOM     15  C   UNL     1       0.618   6.606  -1.225  1.00  0.00     0.091 C 
ATOM     16  C   UNL     1       1.525   7.849  -1.061  1.00  0.00     0.067 C 
ATOM     17  N   UNL     1       0.722   9.026  -0.658  1.00  0.00    -0.339 N 
ATOM     18  C   UNL     1       1.123   9.346  -2.925  1.00  0.00     0.118 C 
ATOM     19  C   UNL     1       0.558   9.950  -1.683  1.00  0.00     0.223 C 
ATOM     20  C   UNL     1      -0.198   9.065   0.459  1.00  0.00     0.147 C 
ATOM     21  O   UNL     1      -0.050  11.005  -1.635  1.00  0.00    -0.275 OA
BRANCH  10  22
ATOM     22  C   UNL     1       2.674   4.598  -0.155  1.00  0.00     0.264 C 
BRANCH  22  23
ATOM     23  C   UNL     1       2.752   3.163   0.374  1.00  0.00     0.083 C 
BRANCH  23  24
ATOM     24  C   UNL     1       1.420   2.433   0.533  1.00  0.00     0.129 C 
BRANCH  24  25
ATOM     25  N   UNL     1       0.888   1.822  -0.673  1.00  0.00    -0.335 N 
ATOM     26  C   UNL     1       0.886  -0.570   0.156  1.00  0.00     0.087 C 
ATOM     27  C   UNL     1       0.597   0.485  -0.847  1.00  0.00     0.105 A 
ATOM     28  N   UNL     1       0.014   0.281  -2.012  1.00  0.00    -0.242 NA
ATOM     29  C   UNL     1      -0.082   1.508  -2.603  1.00  0.00     0.131 A 
ATOM     30  C   UNL     1       0.467   2.475  -1.799  1.00  0.00     0.107 A 
ENDBRANCH  24  25
ENDBRANCH  23  24
ENDBRANCH  22  23
ENDBRANCH  10  22
ENDBRANCH   7   9
ENDBRANCH   6   7
ENDBRANCH   5   6
ENDBRANCH   4   5
ENDBRANCH   3   4
ENDBRANCH   2   3
ENDBRANCH   1   2
BRANCH   1  31
ATOM     31  O   UNL     1      -0.041   7.733  -6.503  1.00  0.00    -0.377 OA
BRANCH  31  32
ATOM     32  C   UNL     1      -0.818   7.951  -7.675  1.00  0.00     0.188 C 
BRANCH  32  33
ATOM     33  C   UNL     1      -0.012   8.066  -8.985  1.00  0.00     0.188 C 
BRANCH  33  34
ATOM     34  O   UNL     1       1.073   8.998  -8.934  1.00  0.00    -0.376 OA
BRANCH  34  35
ATOM     35  C   UNL     1       0.925  10.253  -9.590  1.00  0.00     0.202 C 
BRANCH  35  36
ATOM     36  C   UNL     1       0.173  11.321  -8.786  1.00  0.00     0.261 C 
BRANCH  36  37
ATOM     37  O   UNL     1      -1.132  10.932  -8.373  1.00  0.00    -0.460 OA
BRANCH  37  38
ATOM     38  C   UNL     1      -1.964  10.581  -9.375  1.00  0.00     0.338 C 
ATOM     39  O   UNL     1      -1.693  10.503 -10.558  1.00  0.00    -0.246 OA
BRANCH  38  40
ATOM     40  C   UNL     1      -3.307  10.345  -8.839  1.00  0.00     0.060 A 
ATOM     41  C   UNL     1      -4.256   9.938  -9.776  1.00  0.00     0.016 A 
ATOM     42  C   UNL     1      -3.659  10.787  -7.554  1.00  0.00     0.016 A 
ATOM     43  C   UNL     1      -5.566  10.257  -9.536  1.00  0.00     0.010 A 
ATOM     44  C   UNL     1      -4.978  11.094  -7.308  1.00  0.00     0.010 A 
ATOM     45  C   UNL     1      -5.880  10.941  -8.357  1.00  0.00    -0.014 A 
BRANCH  45  46
ATOM     46  C   UNL     1      -7.159  11.612  -8.345  1.00  0.00     0.031 A 
ATOM     47  C   UNL     1      -8.322  10.724  -8.201  1.00  0.00     0.074 A 
ATOM     48  C   UNL     1      -7.249  12.946  -8.490  1.00  0.00     0.049 A 
ATOM     49  N   UNL     1      -9.243  10.471  -9.068  1.00  0.00    -0.248 NA
ATOM     50  C   UNL     1      -8.389   9.917  -6.976  1.00  0.00     0.031 C 
ATOM     51  C   UNL     1      -6.176  13.940  -8.379  1.00  0.00     0.029 A 
ATOM     52  N   UNL     1      -8.362  13.704  -8.666  1.00  0.00    -0.354 N 
ATOM     53  C   UNL     1     -10.136   9.634  -8.414  1.00  0.00     0.074 A 
ATOM     54  C   UNL     1      -9.486   9.197  -7.204  1.00  0.00     0.031 C 
ATOM     55  C   UNL     1      -6.728  15.168  -8.263  1.00  0.00     0.029 A 
ATOM     56  C   UNL     1      -8.169  15.052  -8.412  1.00  0.00     0.049 A 
ATOM     57  H   UNL     1      -9.228  13.330  -8.949  1.00  0.00     0.167 HD
ATOM     58  C   UNL     1     -11.440   9.555  -8.785  1.00  0.00     0.037 A 
ATOM     59  C   UNL     1      -9.144  15.973  -8.227  1.00  0.00     0.037 A 
ATOM     60  C   UNL     1     -11.654  10.022 -10.130  1.00  0.00     0.049 A 
ATOM     61  C   UNL     1     -10.392  15.438  -8.836  1.00  0.00     0.074 A 
ATOM     62  C   UNL     1     -11.167   9.654 -11.369  1.00  0.00     0.029 A 
ATOM     63  N   UNL     1     -12.238  11.253 -10.307  1.00  0.00    -0.354 N 
ATOM     64  N   UNL     1     -10.576  15.272 -10.118  1.00  0.00    -0.248 NA
ATOM     65  C   UNL     1     -11.313  14.703  -7.981  1.00  0.00     0.031 C 
ATOM     66  C   UNL     1     -11.089  10.861 -12.121  1.00  0.00     0.029 A 
ATOM     67  C   UNL     1     -11.548  11.896 -11.305  1.00  0.00     0.049 A 
ATOM     68  H   UNL     1     -13.010  11.609  -9.811  1.00  0.00     0.167 HD
ATOM     69  C   UNL     1     -11.352  14.125 -10.226  1.00  0.00     0.074 A 
ATOM     70  C   UNL     1     -11.867  13.890  -8.883  1.00  0.00     0.031 C 
ATOM     71  C   UNL     1     -11.283  13.320 -11.327  1.00  0.00     0.037 A 
BRANCH  58  72
ATOM     72  C   UNL     1     -12.551   9.382  -7.786  1.00  0.00     0.058 A 
ATOM     73  C   UNL     1     -13.839   9.032  -8.227  1.00  0.00     0.135 A 
ATOM     74  C   UNL     1     -12.453   9.812  -6.442  1.00  0.00     0.135 A 
ATOM     75  F   UNL     1     -14.043   8.633  -9.492  1.00  0.00    -0.206 F 
ATOM     76  C   UNL     1     -14.961   9.158  -7.407  1.00  0.00     0.059 A 
ATOM     77  C   UNL     1     -13.545   9.885  -5.591  1.00  0.00     0.059 A 
ATOM     78  F   UNL     1     -11.310  10.282  -5.924  1.00  0.00    -0.206 F 
ATOM     79  C   UNL     1     -14.802   9.604  -6.097  1.00  0.00     0.060 A 
BRANCH  79  80
ATOM     80  S   UNL     1     -16.253   9.908  -5.076  1.00  0.00     0.124 S 
ATOM     81  O   UNL     1     -16.749  11.152  -5.651  1.00  0.00    -0.237 OA
ATOM     82  O   UNL     1     -17.060   8.718  -5.327  1.00  0.00    -0.237 OA
ATOM     83  O   UNL     1     -15.697  10.008  -3.730  1.00  0.00    -0.744 OA
ENDBRANCH  79  80
ENDBRANCH  58  72
BRANCH  59  84
ATOM     84  C   UNL     1      -9.131  17.099  -7.258  1.00  0.00     0.058 A 
ATOM     85  C   UNL     1     -10.097  18.116  -7.318  1.00  0.00     0.135 A 
ATOM     86  C   UNL     1      -8.330  17.071  -6.096  1.00  0.00     0.135 A 
ATOM     87  F   UNL     1     -10.925  18.200  -8.371  1.00  0.00    -0.206 F 
ATOM     88  C   UNL     1     -10.284  19.027  -6.273  1.00  0.00     0.059 A 
ATOM     89  C   UNL     1      -8.482  17.980  -5.054  1.00  0.00     0.059 A 
ATOM     90  F   UNL     1      -7.430  16.098  -5.891  1.00  0.00    -0.206 F 
ATOM     91  C   UNL     1      -9.480  18.941  -5.137  1.00  0.00     0.060 A 
BRANCH  91  92
ATOM     92  S   UNL     1      -9.823  20.005  -3.718  1.00  0.00     0.124 S 
ATOM     93  O   UNL     1      -9.421  21.314  -4.221  1.00  0.00    -0.237 OA
ATOM     94  O   UNL     1     -11.256  19.807  -3.525  1.00  0.00    -0.237 OA
ATOM     95  O   UNL     1      -8.974  19.452  -2.666  1.00  0.00    -0.744 OA
ENDBRANCH  91  92
ENDBRANCH  59  84
BRANCH  71  96
ATOM     96  C   UNL     1     -10.631  13.868 -12.570  1.00  0.00     0.058 A 
ATOM     97  C   UNL     1      -9.270  14.209 -12.657  1.00  0.00     0.135 A 
ATOM     98  C   UNL     1     -11.379  13.904 -13.758  1.00  0.00     0.135 A 
ATOM     99  F   UNL     1      -8.463  14.097 -11.592  1.00  0.00    -0.206 F 
ATOM    100  C   UNL     1      -8.689  14.608 -13.862  1.00  0.00     0.059 A 
ATOM    101  C   UNL     1     -10.812  14.270 -14.977  1.00  0.00     0.059 A 
ATOM    102  F   UNL     1     -12.668  13.527 -13.753  1.00  0.00    -0.206 F 
ATOM    103  C   UNL     1      -9.468  14.633 -15.019  1.00  0.00     0.060 A 
BRANCH 103 104
ATOM    104  S   UNL     1      -8.689  15.053 -16.595  1.00  0.00     0.124 S 
ATOM    105  O   UNL     1      -8.543  16.500 -16.489  1.00  0.00    -0.237 OA
ATOM    106  O   UNL     1      -7.447  14.285 -16.553  1.00  0.00    -0.237 OA
ATOM    107  O   UNL     1      -9.658  14.593 -17.587  1.00  0.00    -0.744 OA
ENDBRANCH 103 104
ENDBRANCH  71  96
ENDBRANCH  45  46
ENDBRANCH  38  40
ENDBRANCH  37  38
ENDBRANCH  36  37
ENDBRANCH  35  36
ENDBRANCH  34  35
ENDBRANCH  33  34
ENDBRANCH  32  33
ENDBRANCH  31  32
ENDBRANCH   1  31
TORSDOF 27
