REMARK SMILES COc1ccc([C@H](CC(=O)OCCOCCOCCOCCOC(=O)c2ccc(-c3c4nc(c(-c5c(F)cc(S(=O)(=O)[O-])cc5F)c5ccc([nH]5)c(-c5c(F)cc(S(=O)(=O)[O-])cc5F)c5nc(c(-c6c(F)cc(S(=O)(=O)[O-])cc6F)c6ccc3[nH]6)C=C5)C=C4)cc2)NC(C)=O)cc1
REMARK SMILES IDX 17 1 16 2 15 3 14 4 13 5 12 6 11 7 9 8 10 9 8 10 7 11 6 12
REMARK SMILES IDX 3 13 4 14 97 15 5 16 96 17 2 18 1 19 92 20 93 21 94 23 95 24
REMARK SMILES IDX 18 25 19 26 20 27 21 28 22 29 23 30 24 31 25 32 26 33 27 34
REMARK SMILES IDX 91 35 28 36 90 37 29 38 30 39 31 40 84 41 32 42 89 43 83 44
REMARK SMILES IDX 85 45 33 46 88 47 82 48 81 49 34 51 68 52 47 53 67 54 48 55
REMARK SMILES IDX 51 56 66 57 86 58 49 59 50 60 65 62 87 63 52 64 35 65 36 66
REMARK SMILES IDX 45 67 37 68 38 69 44 70 46 71 39 72 40 73 41 74 42 75 43 76
REMARK SMILES IDX 69 77 70 78 79 79 71 80 72 81 78 82 80 83 73 84 74 85 75 86
REMARK SMILES IDX 76 87 77 88 53 89 54 90 63 91 55 92 56 93 62 94 64 95 57 96
REMARK SMILES IDX 58 97 59 98 60 99 61 100
REMARK H PARENT 92 22 85 50 51 61
REMARK Flexibility Score: inf
ROOT
ATOM      1  O   UNL     1       3.084   0.895   5.886  1.00  0.00    -0.377 OA
ENDROOT
BRANCH   1   2
ATOM      2  C   UNL     1       1.769   0.480   5.593  1.00  0.00     0.188 C 
BRANCH   2   3
ATOM      3  C   UNL     1       1.618  -0.533   4.460  1.00  0.00     0.188 C 
BRANCH   3   4
ATOM      4  O   UNL     1       2.707  -1.367   4.125  1.00  0.00    -0.376 OA
BRANCH   4   5
ATOM      5  C   UNL     1       3.965  -0.788   3.787  1.00  0.00     0.202 C 
BRANCH   5   6
ATOM      6  C   UNL     1       4.087   0.521   2.975  1.00  0.00     0.261 C 
BRANCH   6   7
ATOM      7  O   UNL     1       3.565   1.732   3.587  1.00  0.00    -0.463 OA
BRANCH   7   8
ATOM      8  C   UNL     1       2.533   2.316   2.950  1.00  0.00     0.308 C 
ATOM      9  O   UNL     1       2.072   1.892   1.888  1.00  0.00    -0.252 OA
BRANCH   8  10
ATOM     10  C   UNL     1       1.899   3.548   3.563  1.00  0.00     0.152 C 
BRANCH  10  11
ATOM     11  C   UNL     1       2.098   4.162   4.965  1.00  0.00     0.123 C 
BRANCH  11  12
ATOM     12  C   UNL     1       1.362   5.520   4.911  1.00  0.00    -0.025 A 
ATOM     13  C   UNL     1      -0.075   7.939   4.955  1.00  0.00     0.118 A 
ATOM     14  C   UNL     1       1.323   7.939   4.899  1.00  0.00     0.047 A 
ATOM     15  C   UNL     1      -0.763   6.732   4.925  1.00  0.00     0.047 A 
ATOM     16  C   UNL     1       2.045   6.737   4.893  1.00  0.00     0.010 A 
ATOM     17  C   UNL     1      -0.052   5.540   4.894  1.00  0.00     0.010 A 
BRANCH  13  18
ATOM     18  O   UNL     1      -0.696   9.158   4.991  1.00  0.00    -0.497 OA
ATOM     19  C   UNL     1      -1.863   9.194   5.811  1.00  0.00     0.278 C 
ENDBRANCH  13  18
ENDBRANCH  11  12
BRANCH  11  20
ATOM     20  N   UNL     1       1.429   3.472   6.072  1.00  0.00    -0.349 N 
ATOM     21  C   UNL     1       1.724   3.715   7.399  1.00  0.00     0.217 C 
ATOM     22  H   UNL     1       0.737   2.805   5.860  1.00  0.00     0.164 HD
ATOM     23  C   UNL     1       0.592   3.311   8.313  1.00  0.00     0.114 C 
ATOM     24  O   UNL     1       2.734   4.271   7.808  1.00  0.00    -0.275 OA
ENDBRANCH  11  20
ENDBRANCH  10  11
ENDBRANCH   8  10
ENDBRANCH   7   8
ENDBRANCH   6   7
ENDBRANCH   5   6
ENDBRANCH   4   5
ENDBRANCH   3   4
ENDBRANCH   2   3
ENDBRANCH   1   2
BRANCH   1  25
ATOM     25  C   UNL     1       3.805   0.284   6.948  1.00  0.00     0.188 C 
BRANCH  25  26
ATOM     26  C   UNL     1       3.388  -1.127   7.381  1.00  0.00     0.188 C 
BRANCH  26  27
ATOM     27  O   UNL     1       2.010  -1.222   7.688  1.00  0.00    -0.376 OA
BRANCH  27  28
ATOM     28  C   UNL     1       1.512  -0.950   8.984  1.00  0.00     0.202 C 
BRANCH  28  29
ATOM     29  C   UNL     1       2.030   0.170   9.900  1.00  0.00     0.261 C 
BRANCH  29  30
ATOM     30  O   UNL     1       3.419   0.474   9.893  1.00  0.00    -0.460 OA
BRANCH  30  31
ATOM     31  C   UNL     1       4.265  -0.433  10.422  1.00  0.00     0.338 C 
ATOM     32  O   UNL     1       3.983  -1.516  10.882  1.00  0.00    -0.246 OA
BRANCH  31  33
ATOM     33  C   UNL     1       5.627   0.079  10.157  1.00  0.00     0.060 A 
ATOM     34  C   UNL     1       6.517  -0.707   9.417  1.00  0.00     0.016 A 
ATOM     35  C   UNL     1       6.007   1.337  10.633  1.00  0.00     0.016 A 
ATOM     36  C   UNL     1       7.817  -0.257   9.196  1.00  0.00     0.010 A 
ATOM     37  C   UNL     1       7.311   1.780  10.425  1.00  0.00     0.010 A 
ATOM     38  C   UNL     1       8.231   0.964   9.743  1.00  0.00    -0.014 A 
BRANCH  38  39
ATOM     39  C   UNL     1       9.669   1.300   9.805  1.00  0.00     0.031 A 
ATOM     40  C   UNL     1      10.394   1.038  11.095  1.00  0.00     0.074 A 
ATOM     41  C   UNL     1      10.300   1.850   8.754  1.00  0.00     0.049 A 
ATOM     42  N   UNL     1      11.612   1.352  11.444  1.00  0.00    -0.248 NA
ATOM     43  C   UNL     1       9.629   0.337  12.142  1.00  0.00     0.031 C 
ATOM     44  C   UNL     1       9.694   2.116   7.451  1.00  0.00     0.029 A 
ATOM     45  N   UNL     1      11.587   2.309   8.630  1.00  0.00    -0.354 N 
ATOM     46  C   UNL     1      11.751   0.912  12.755  1.00  0.00     0.074 A 
ATOM     47  C   UNL     1      10.489   0.328  13.147  1.00  0.00     0.031 C 
ATOM     48  C   UNL     1      10.601   2.722   6.666  1.00  0.00     0.029 A 
ATOM     49  C   UNL     1      11.834   2.924   7.427  1.00  0.00     0.049 A 
ATOM     50  H   UNL     1      12.267   2.208   9.335  1.00  0.00     0.167 HD
ATOM     51  C   UNL     1      12.838   0.994  13.557  1.00  0.00     0.037 A 
ATOM     52  C   UNL     1      12.918   3.607   7.008  1.00  0.00     0.037 A 
ATOM     53  C   UNL     1      14.083   1.586  13.144  1.00  0.00     0.049 A 
ATOM     54  C   UNL     1      14.103   3.729   7.931  1.00  0.00     0.074 A 
ATOM     55  C   UNL     1      15.263   1.692  13.857  1.00  0.00     0.029 A 
ATOM     56  N   UNL     1      14.300   2.189  11.912  1.00  0.00    -0.354 N 
ATOM     57  N   UNL     1      14.243   3.277   9.156  1.00  0.00    -0.248 NA
ATOM     58  C   UNL     1      15.278   4.447   7.419  1.00  0.00     0.031 C 
ATOM     59  C   UNL     1      16.171   2.420  13.083  1.00  0.00     0.029 A 
ATOM     60  C   UNL     1      15.585   2.699  11.857  1.00  0.00     0.049 A 
ATOM     61  H   UNL     1      13.638   2.246  11.186  1.00  0.00     0.167 HD
ATOM     62  C   UNL     1      15.531   3.627   9.549  1.00  0.00     0.074 A 
ATOM     63  C   UNL     1      16.128   4.328   8.431  1.00  0.00     0.031 C 
ATOM     64  C   UNL     1      16.163   3.384  10.724  1.00  0.00     0.037 A 
BRANCH  51  65
ATOM     65  C   UNL     1      12.709   0.482  14.966  1.00  0.00     0.058 A 
ATOM     66  C   UNL     1      12.554  -0.884  15.257  1.00  0.00     0.135 A 
ATOM     67  C   UNL     1      12.748   1.377  16.048  1.00  0.00     0.135 A 
ATOM     68  F   UNL     1      12.489  -1.784  14.262  1.00  0.00    -0.206 F 
ATOM     69  C   UNL     1      12.408  -1.338  16.564  1.00  0.00     0.059 A 
ATOM     70  C   UNL     1      12.639   0.941  17.365  1.00  0.00     0.059 A 
ATOM     71  F   UNL     1      12.889   2.694  15.831  1.00  0.00    -0.206 F 
ATOM     72  C   UNL     1      12.451  -0.417  17.612  1.00  0.00     0.060 A 
BRANCH  72  73
ATOM     73  S   UNL     1      12.255  -1.022  19.301  1.00  0.00     0.124 S 
ATOM     74  O   UNL     1      10.841  -1.387  19.317  1.00  0.00    -0.237 OA
ATOM     75  O   UNL     1      13.197  -2.136  19.344  1.00  0.00    -0.237 OA
ATOM     76  O   UNL     1      12.613   0.131  20.121  1.00  0.00    -0.744 OA
ENDBRANCH  72  73
ENDBRANCH  51  65
BRANCH  52  77
ATOM     77  C   UNL     1      12.912   4.239   5.661  1.00  0.00     0.058 A 
ATOM     78  C   UNL     1      13.714   3.748   4.622  1.00  0.00     0.135 A 
ATOM     79  C   UNL     1      12.065   5.323   5.375  1.00  0.00     0.135 A 
ATOM     80  F   UNL     1      14.549   2.722   4.846  1.00  0.00    -0.206 F 
ATOM     81  C   UNL     1      13.678   4.306   3.347  1.00  0.00     0.059 A 
ATOM     82  C   UNL     1      11.991   5.880   4.102  1.00  0.00     0.059 A 
ATOM     83  F   UNL     1      11.270   5.825   6.332  1.00  0.00    -0.206 F 
ATOM     84  C   UNL     1      12.804   5.365   3.094  1.00  0.00     0.060 A 
BRANCH  84  85
ATOM     85  S   UNL     1      12.707   6.025   1.416  1.00  0.00     0.124 S 
ATOM     86  O   UNL     1      13.995   6.697   1.288  1.00  0.00    -0.237 OA
ATOM     87  O   UNL     1      12.538   4.812   0.622  1.00  0.00    -0.237 OA
ATOM     88  O   UNL     1      11.540   6.901   1.465  1.00  0.00    -0.744 OA
ENDBRANCH  84  85
ENDBRANCH  52  77
BRANCH  64  89
ATOM     89  C   UNL     1      17.596   3.825  10.856  1.00  0.00     0.058 A 
ATOM     90  C   UNL     1      17.948   5.174  11.006  1.00  0.00     0.135 A 
ATOM     91  C   UNL     1      18.620   2.866  10.935  1.00  0.00     0.135 A 
ATOM     92  F   UNL     1      17.010   6.131  10.932  1.00  0.00    -0.206 F 
ATOM     93  C   UNL     1      19.268   5.559  11.223  1.00  0.00     0.059 A 
ATOM     94  C   UNL     1      19.940   3.225  11.183  1.00  0.00     0.059 A 
ATOM     95  F   UNL     1      18.335   1.560  10.809  1.00  0.00    -0.206 F 
ATOM     96  C   UNL     1      20.255   4.575  11.321  1.00  0.00     0.060 A 
BRANCH  96  97
ATOM     97  S   UNL     1      21.952   5.083  11.671  1.00  0.00     0.124 S 
ATOM     98  O   UNL     1      22.337   5.711  10.411  1.00  0.00    -0.237 OA
ATOM     99  O   UNL     1      21.777   5.988  12.803  1.00  0.00    -0.237 OA
ATOM    100  O   UNL     1      22.628   3.827  11.979  1.00  0.00    -0.744 OA
ENDBRANCH  96  97
ENDBRANCH  64  89
ENDBRANCH  38  39
ENDBRANCH  31  33
ENDBRANCH  30  31
ENDBRANCH  29  30
ENDBRANCH  28  29
ENDBRANCH  27  28
ENDBRANCH  26  27
ENDBRANCH  25  26
ENDBRANCH   1  25
TORSDOF 27
