REMARK SMILES O=C(OCCOCCOCCOCCOC(=O)[C@@H]1CN(C(=O)[C@H]2CC=CCC2)c2ccccc2O1)c1ccc(-c2c3nc(c(-c4c(F)cc(S(=O)(=O)[O-])cc4F)c4ccc([nH]4)c(-c4c(F)cc(S(=O)(=O)[O-])cc4F)c4nc(c(-c5c(F)cc(S(=O)(=O)[O-])cc5F)c5ccc2[nH]5)C=C4)C=C3)cc1
REMARK SMILES IDX 8 1 7 2 6 3 5 4 4 5 3 6 2 7 1 8 36 9 37 10 101 11 38 12
REMARK SMILES IDX 100 13 39 14 40 15 41 16 94 17 42 18 99 19 93 20 95 21 43 22
REMARK SMILES IDX 98 23 92 24 91 25 44 27 78 28 57 29 77 30 58 31 61 32 76 33
REMARK SMILES IDX 96 34 59 35 60 36 75 38 97 39 62 40 45 41 46 42 55 43 47 44
REMARK SMILES IDX 48 45 54 46 56 47 49 48 50 49 51 50 52 51 53 52 79 53 80 54
REMARK SMILES IDX 89 55 81 56 82 57 88 58 90 59 83 60 84 61 85 62 86 63 87 64
REMARK SMILES IDX 63 65 64 66 73 67 65 68 66 69 72 70 74 71 67 72 68 73 69 74
REMARK SMILES IDX 70 75 71 76 9 77 10 78 11 79 12 80 13 81 14 82 15 83 16 84
REMARK SMILES IDX 17 85 18 86 19 87 35 88 20 89 34 90 29 91 33 92 30 93 32 94
REMARK SMILES IDX 31 95 21 96 22 97 23 98 24 99 28 100 25 101 27 102 26 103
REMARK H PARENT 95 26 61 37
REMARK Flexibility Score: inf
ROOT
ATOM      1  C   UNL     1       1.623   2.403  -0.629  1.00  0.00     0.188 C 
ENDROOT
BRANCH   1   2
ATOM      2  C   UNL     1       2.259   1.011  -0.565  1.00  0.00     0.188 C 
BRANCH   2   3
ATOM      3  O   UNL     1       3.654   1.022  -0.293  1.00  0.00    -0.376 OA
BRANCH   3   4
ATOM      4  C   UNL     1       4.675   0.291  -0.956  1.00  0.00     0.202 C 
BRANCH   4   5
ATOM      5  C   UNL     1       4.370  -1.101  -1.431  1.00  0.00     0.261 C 
BRANCH   5   6
ATOM      6  O   UNL     1       3.126  -1.695  -1.025  1.00  0.00    -0.460 OA
BRANCH   6   7
ATOM      7  C   UNL     1       2.467  -1.754   0.152  1.00  0.00     0.338 C 
ATOM      8  O   UNL     1       1.260  -1.990   0.128  1.00  0.00    -0.246 OA
BRANCH   7   9
ATOM      9  C   UNL     1       3.120  -1.613   1.480  1.00  0.00     0.060 A 
ATOM     10  C   UNL     1       4.139  -0.728   1.804  1.00  0.00     0.016 A 
ATOM     11  C   UNL     1       2.582  -2.362   2.528  1.00  0.00     0.016 A 
ATOM     12  C   UNL     1       4.812  -0.755   2.989  1.00  0.00     0.010 A 
ATOM     13  C   UNL     1       3.144  -2.293   3.802  1.00  0.00     0.010 A 
ATOM     14  C   UNL     1       4.303  -1.534   3.998  1.00  0.00    -0.014 A 
BRANCH  14  15
ATOM     15  C   UNL     1       5.178  -1.667   5.151  1.00  0.00     0.031 A 
ATOM     16  C   UNL     1       5.932  -2.947   5.247  1.00  0.00     0.074 A 
ATOM     17  C   UNL     1       5.445  -0.585   5.900  1.00  0.00     0.049 A 
ATOM     18  N   UNL     1       6.720  -3.360   6.191  1.00  0.00    -0.248 NA
ATOM     19  C   UNL     1       5.788  -3.888   4.116  1.00  0.00     0.031 C 
ATOM     20  C   UNL     1       4.892   0.761   5.685  1.00  0.00     0.029 A 
ATOM     21  N   UNL     1       6.278  -0.433   6.967  1.00  0.00    -0.354 N 
ATOM     22  C   UNL     1       7.129  -4.621   5.792  1.00  0.00     0.074 A 
ATOM     23  C   UNL     1       6.492  -4.924   4.536  1.00  0.00     0.031 C 
ATOM     24  C   UNL     1       5.392   1.594   6.611  1.00  0.00     0.029 A 
ATOM     25  C   UNL     1       6.224   0.822   7.521  1.00  0.00     0.049 A 
ATOM     26  H   UNL     1       6.860  -1.151   7.306  1.00  0.00     0.167 HD
ATOM     27  C   UNL     1       7.975  -5.443   6.442  1.00  0.00     0.037 A 
ATOM     28  C   UNL     1       6.746   1.252   8.682  1.00  0.00     0.037 A 
ATOM     29  C   UNL     1       8.574  -5.082   7.694  1.00  0.00     0.049 A 
ATOM     30  C   UNL     1       7.546   0.252   9.475  1.00  0.00     0.074 A 
ATOM     31  C   UNL     1       9.374  -5.843   8.518  1.00  0.00     0.029 A 
ATOM     32  N   UNL     1       8.425  -3.838   8.299  1.00  0.00    -0.354 N 
ATOM     33  N   UNL     1       7.859  -0.987   9.162  1.00  0.00    -0.248 NA
ATOM     34  C   UNL     1       8.057   0.695  10.773  1.00  0.00     0.031 C 
ATOM     35  C   UNL     1       9.656  -5.080   9.655  1.00  0.00     0.029 A 
ATOM     36  C   UNL     1       9.103  -3.815   9.500  1.00  0.00     0.049 A 
ATOM     37  H   UNL     1       7.912  -3.086   7.924  1.00  0.00     0.167 HD
ATOM     38  C   UNL     1       8.637  -1.460  10.210  1.00  0.00     0.074 A 
ATOM     39  C   UNL     1       8.759  -0.363  11.152  1.00  0.00     0.031 C 
ATOM     40  C   UNL     1       9.201  -2.682  10.389  1.00  0.00     0.037 A 
BRANCH  27  41
ATOM     41  C   UNL     1       8.206  -6.795   5.846  1.00  0.00     0.058 A 
ATOM     42  C   UNL     1       8.909  -6.971   4.643  1.00  0.00     0.135 A 
ATOM     43  C   UNL     1       7.676  -7.933   6.472  1.00  0.00     0.135 A 
ATOM     44  F   UNL     1       9.382  -5.908   3.972  1.00  0.00    -0.206 F 
ATOM     45  C   UNL     1       9.074  -8.229   4.079  1.00  0.00     0.059 A 
ATOM     46  C   UNL     1       7.859  -9.205   5.944  1.00  0.00     0.059 A 
ATOM     47  F   UNL     1       6.959  -7.813   7.600  1.00  0.00    -0.206 F 
ATOM     48  C   UNL     1       8.556  -9.342   4.745  1.00  0.00     0.060 A 
BRANCH  48  49
ATOM     49  S   UNL     1       8.829 -10.972   4.026  1.00  0.00     0.124 S 
ATOM     50  O   UNL     1       8.008 -10.903   2.821  1.00  0.00    -0.237 OA
ATOM     51  O   UNL     1      10.273 -10.972   3.811  1.00  0.00    -0.237 OA
ATOM     52  O   UNL     1       8.351 -11.885   5.060  1.00  0.00    -0.744 OA
ENDBRANCH  48  49
ENDBRANCH  27  41
BRANCH  28  53
ATOM     53  C   UNL     1       6.462   2.621   9.190  1.00  0.00     0.058 A 
ATOM     54  C   UNL     1       7.492   3.540   9.432  1.00  0.00     0.135 A 
ATOM     55  C   UNL     1       5.149   3.026   9.489  1.00  0.00     0.135 A 
ATOM     56  F   UNL     1       8.764   3.208   9.161  1.00  0.00    -0.206 F 
ATOM     57  C   UNL     1       7.240   4.788   9.993  1.00  0.00     0.059 A 
ATOM     58  C   UNL     1       4.867   4.282  10.014  1.00  0.00     0.059 A 
ATOM     59  F   UNL     1       4.117   2.196   9.264  1.00  0.00    -0.206 F 
ATOM     60  C   UNL     1       5.923   5.148  10.285  1.00  0.00     0.060 A 
BRANCH  60  61
ATOM     61  S   UNL     1       5.610   6.766  11.021  1.00  0.00     0.124 S 
ATOM     62  O   UNL     1       6.197   6.604  12.346  1.00  0.00    -0.237 OA
ATOM     63  O   UNL     1       6.321   7.656  10.109  1.00  0.00    -0.237 OA
ATOM     64  O   UNL     1       4.154   6.874  10.986  1.00  0.00    -0.744 OA
ENDBRANCH  60  61
ENDBRANCH  28  53
BRANCH  40  65
ATOM     65  C   UNL     1      10.048  -2.861  11.614  1.00  0.00     0.058 A 
ATOM     66  C   UNL     1       9.493  -2.896  12.902  1.00  0.00     0.135 A 
ATOM     67  C   UNL     1      11.431  -3.062  11.482  1.00  0.00     0.135 A 
ATOM     68  F   UNL     1       8.176  -2.706  13.078  1.00  0.00    -0.206 F 
ATOM     69  C   UNL     1      10.290  -3.085  14.023  1.00  0.00     0.059 A 
ATOM     70  C   UNL     1      12.239  -3.301  12.584  1.00  0.00     0.059 A 
ATOM     71  F   UNL     1      12.005  -3.054  10.267  1.00  0.00    -0.206 F 
ATOM     72  C   UNL     1      11.660  -3.294  13.852  1.00  0.00     0.060 A 
BRANCH  72  73
ATOM     73  S   UNL     1      12.674  -3.575  15.314  1.00  0.00     0.124 S 
ATOM     74  O   UNL     1      12.654  -2.258  15.942  1.00  0.00    -0.237 OA
ATOM     75  O   UNL     1      11.930  -4.622  16.008  1.00  0.00    -0.237 OA
ATOM     76  O   UNL     1      13.961  -3.988  14.763  1.00  0.00    -0.744 OA
ENDBRANCH  72  73
ENDBRANCH  40  65
ENDBRANCH  14  15
ENDBRANCH   7   9
ENDBRANCH   6   7
ENDBRANCH   5   6
ENDBRANCH   4   5
ENDBRANCH   3   4
ENDBRANCH   2   3
ENDBRANCH   1   2
BRANCH   1  77
ATOM     77  O   UNL     1       2.304   3.318  -1.474  1.00  0.00    -0.377 OA
BRANCH  77  78
ATOM     78  C   UNL     1       3.719   3.288  -1.317  1.00  0.00     0.188 C 
BRANCH  78  79
ATOM     79  C   UNL     1       4.346   3.406   0.134  1.00  0.00     0.188 C 
BRANCH  79  80
ATOM     80  O   UNL     1       3.498   3.182   1.253  1.00  0.00    -0.376 OA
BRANCH  80  81
ATOM     81  C   UNL     1       2.981   4.347   1.915  1.00  0.00     0.202 C 
BRANCH  81  82
ATOM     82  C   UNL     1       2.537   5.571   1.065  1.00  0.00     0.261 C 
BRANCH  82  83
ATOM     83  O   UNL     1       3.114   5.495  -0.248  1.00  0.00    -0.460 OA
BRANCH  83  84
ATOM     84  C   UNL     1       3.564   6.567  -0.909  1.00  0.00     0.349 C 
ATOM     85  O   UNL     1       3.009   7.657  -0.807  1.00  0.00    -0.248 OA
BRANCH  84  86
ATOM     86  C   UNL     1       4.919   6.255  -1.756  1.00  0.00     0.302 C 
ATOM     87  C   UNL     1       6.562   5.429  -1.000  1.00  0.00     0.183 C 
ATOM     88  O   UNL     1       5.158   7.876  -2.245  1.00  0.00    -0.475 OA
ATOM     89  N   UNL     1       7.840   6.895  -0.276  1.00  0.00    -0.304 N 
ATOM     90  C   UNL     1       6.002   8.895  -1.519  1.00  0.00     0.144 A 
ATOM     91  C   UNL     1       7.319   8.604  -0.566  1.00  0.00     0.086 A 
ATOM     92  C   UNL     1       5.444  10.136  -1.675  1.00  0.00     0.049 A 
ATOM     93  C   UNL     1       7.830   9.671   0.119  1.00  0.00     0.030 A 
ATOM     94  C   UNL     1       6.014  11.131  -0.906  1.00  0.00     0.004 A 
ATOM     95  C   UNL     1       7.146  10.905  -0.050  1.00  0.00     0.002 A 
BRANCH  89  96
ATOM     96  C   UNL     1       9.034   6.633   0.355  1.00  0.00     0.230 C 
ATOM     97  O   UNL     1       9.887   7.260   0.922  1.00  0.00    -0.274 OA
BRANCH  96  98
ATOM     98  C   UNL     1       8.865   5.248   0.014  1.00  0.00     0.083 C 
ATOM     99  C   UNL     1       7.593   5.098   1.217  1.00  0.00     0.040 C 
ATOM    100  C   UNL     1       8.662   5.724  -1.751  1.00  0.00     0.018 C 
ATOM    101  C   UNL     1       6.245   6.218   1.093  1.00  0.00    -0.030 C 
ATOM    102  C   UNL     1       7.100   6.908  -1.952  1.00  0.00     0.028 C 
ATOM    103  C   UNL     1       5.967   7.009  -0.128  1.00  0.00    -0.031 C 
ENDBRANCH  96  98
ENDBRANCH  89  96
ENDBRANCH  84  86
ENDBRANCH  83  84
ENDBRANCH  82  83
ENDBRANCH  81  82
ENDBRANCH  80  81
ENDBRANCH  79  80
ENDBRANCH  78  79
ENDBRANCH  77  78
ENDBRANCH   1  77
TORSDOF 25
