REMARK SMILES O=C(OCCOCCOCCOCCOC(=O)[C@H](Cc1ccc(O)cc1)NC(=O)c1ccc(Cl)s1)c1ccc(-c2c3nc(c(-c4c(F)cc(S(=O)(=O)[O-])cc4F)c4ccc([nH]4)c(-c4c(F)cc(S(=O)(=O)[O-])cc4F)c4nc(c(-c5c(F)cc(S(=O)(=O)[O-])cc5F)c5ccc2[nH]5)C=C4)C=C3)cc1
REMARK SMILES IDX 9 1 8 2 7 3 6 4 5 5 4 6 3 7 2 8 1 9 36 10 37 11 101 12 38 13
REMARK SMILES IDX 100 14 39 15 40 16 41 17 94 18 42 19 99 20 93 21 95 22 43 23
REMARK SMILES IDX 98 24 92 25 91 26 44 28 78 29 57 30 77 31 58 32 61 33 76 34
REMARK SMILES IDX 96 35 59 36 60 37 75 39 97 40 62 41 45 42 46 43 55 44 47 45
REMARK SMILES IDX 48 46 54 47 56 48 49 49 50 50 51 51 52 52 53 53 79 54 80 55
REMARK SMILES IDX 89 56 81 57 82 58 88 59 90 60 83 61 84 62 85 63 86 64 87 65
REMARK SMILES IDX 63 66 64 67 73 68 65 69 66 70 72 71 74 72 67 73 68 74 69 75
REMARK SMILES IDX 70 76 71 77 10 78 11 79 12 80 13 81 14 82 15 83 16 84 17 85
REMARK SMILES IDX 18 86 27 87 28 88 29 90 30 91 31 92 35 93 32 94 33 95 34 96
REMARK SMILES IDX 19 97 20 98 21 99 26 100 22 101 25 102 23 103 24 104
REMARK H PARENT 95 27 61 38 27 89 24 105
REMARK Flexibility Score: inf
ROOT
ATOM      1  O   UNL     1       5.941   1.028   3.178  1.00  0.00    -0.377 OA
ENDROOT
BRANCH   1   2
ATOM      2  C   UNL     1       5.716   1.796   1.994  1.00  0.00     0.188 C 
BRANCH   2   3
ATOM      3  C   UNL     1       5.779   0.969   0.710  1.00  0.00     0.188 C 
BRANCH   3   4
ATOM      4  O   UNL     1       4.643   0.103   0.652  1.00  0.00    -0.376 OA
BRANCH   4   5
ATOM      5  C   UNL     1       4.861  -1.156   0.025  1.00  0.00     0.202 C 
BRANCH   5   6
ATOM      6  C   UNL     1       4.455  -1.163  -1.448  1.00  0.00     0.261 C 
BRANCH   6   7
ATOM      7  O   UNL     1       4.867   0.041  -2.107  1.00  0.00    -0.460 OA
BRANCH   7   8
ATOM      8  C   UNL     1       4.174   1.200  -2.238  1.00  0.00     0.338 C 
ATOM      9  O   UNL     1       4.742   2.141  -2.794  1.00  0.00    -0.246 OA
BRANCH   8  10
ATOM     10  C   UNL     1       2.756   1.413  -1.789  1.00  0.00     0.060 A 
ATOM     11  C   UNL     1       2.087   0.710  -0.780  1.00  0.00     0.016 A 
ATOM     12  C   UNL     1       2.063   2.470  -2.408  1.00  0.00     0.016 A 
ATOM     13  C   UNL     1       0.769   1.004  -0.433  1.00  0.00     0.010 A 
ATOM     14  C   UNL     1       0.748   2.785  -2.054  1.00  0.00     0.010 A 
ATOM     15  C   UNL     1       0.089   2.034  -1.077  1.00  0.00    -0.014 A 
BRANCH  15  16
ATOM     16  C   UNL     1      -1.347   2.229  -0.804  1.00  0.00     0.031 A 
ATOM     17  C   UNL     1      -2.332   1.671  -1.788  1.00  0.00     0.074 A 
ATOM     18  C   UNL     1      -1.746   2.841   0.326  1.00  0.00     0.049 A 
ATOM     19  N   UNL     1      -3.628   1.805  -1.826  1.00  0.00    -0.248 NA
ATOM     20  C   UNL     1      -1.779   0.837  -2.871  1.00  0.00     0.031 C 
ATOM     21  C   UNL     1      -0.856   3.326   1.383  1.00  0.00     0.029 A 
ATOM     22  N   UNL     1      -3.001   3.162   0.773  1.00  0.00    -0.354 N 
ATOM     23  C   UNL     1      -4.043   1.106  -2.953  1.00  0.00     0.074 A 
ATOM     24  C   UNL     1      -2.866   0.533  -3.564  1.00  0.00     0.031 C 
ATOM     25  C   UNL     1      -1.594   3.901   2.348  1.00  0.00     0.029 A 
ATOM     26  C   UNL     1      -2.999   3.874   1.950  1.00  0.00     0.049 A 
ATOM     27  H   UNL     1      -3.825   2.907   0.298  1.00  0.00     0.167 HD
ATOM     28  C   UNL     1      -5.299   0.975  -3.435  1.00  0.00     0.037 A 
ATOM     29  C   UNL     1      -4.016   4.478   2.595  1.00  0.00     0.037 A 
ATOM     30  C   UNL     1      -6.450   1.555  -2.802  1.00  0.00     0.049 A 
ATOM     31  C   UNL     1      -5.394   4.388   1.988  1.00  0.00     0.074 A 
ATOM     32  C   UNL     1      -7.772   1.503  -3.200  1.00  0.00     0.029 A 
ATOM     33  N   UNL     1      -6.407   2.306  -1.635  1.00  0.00    -0.354 N 
ATOM     34  N   UNL     1      -5.780   3.735   0.915  1.00  0.00    -0.248 NA
ATOM     35  C   UNL     1      -6.469   5.133   2.657  1.00  0.00     0.031 C 
ATOM     36  C   UNL     1      -8.523   2.263  -2.296  1.00  0.00     0.029 A 
ATOM     37  C   UNL     1      -7.674   2.754  -1.315  1.00  0.00     0.049 A 
ATOM     38  H   UNL     1      -5.593   2.492  -1.113  1.00  0.00     0.167 HD
ATOM     39  C   UNL     1      -7.138   3.994   0.779  1.00  0.00     0.074 A 
ATOM     40  C   UNL     1      -7.515   4.836   1.897  1.00  0.00     0.031 C 
ATOM     41  C   UNL     1      -8.000   3.588  -0.186  1.00  0.00     0.037 A 
BRANCH  28  42
ATOM     42  C   UNL     1      -5.475   0.239  -4.730  1.00  0.00     0.058 A 
ATOM     43  C   UNL     1      -5.414  -1.160  -4.807  1.00  0.00     0.135 A 
ATOM     44  C   UNL     1      -5.728   0.952  -5.913  1.00  0.00     0.135 A 
ATOM     45  F   UNL     1      -5.144  -1.886  -3.711  1.00  0.00    -0.206 F 
ATOM     46  C   UNL     1      -5.592  -1.828  -6.015  1.00  0.00     0.059 A 
ATOM     47  C   UNL     1      -5.926   0.304  -7.129  1.00  0.00     0.059 A 
ATOM     48  F   UNL     1      -5.778   2.293  -5.896  1.00  0.00    -0.206 F 
ATOM     49  C   UNL     1      -5.848  -1.087  -7.170  1.00  0.00     0.060 A 
BRANCH  49  50
ATOM     50  S   UNL     1      -6.093  -1.969  -8.727  1.00  0.00     0.124 S 
ATOM     51  O   UNL     1      -4.734  -2.407  -9.030  1.00  0.00    -0.237 OA
ATOM     52  O   UNL     1      -7.027  -3.022  -8.345  1.00  0.00    -0.237 OA
ATOM     53  O   UNL     1      -6.635  -0.946  -9.616  1.00  0.00    -0.744 OA
ENDBRANCH  49  50
ENDBRANCH  28  42
BRANCH  29  54
ATOM     54  C   UNL     1      -3.768   5.293   3.817  1.00  0.00     0.058 A 
ATOM     55  C   UNL     1      -4.304   4.933   5.063  1.00  0.00     0.135 A 
ATOM     56  C   UNL     1      -3.018   6.480   3.754  1.00  0.00     0.135 A 
ATOM     57  F   UNL     1      -5.037   3.816   5.179  1.00  0.00    -0.206 F 
ATOM     58  C   UNL     1      -4.129   5.730   6.192  1.00  0.00     0.059 A 
ATOM     59  C   UNL     1      -2.806   7.278   4.874  1.00  0.00     0.059 A 
ATOM     60  F   UNL     1      -2.475   6.872   2.591  1.00  0.00    -0.206 F 
ATOM     61  C   UNL     1      -3.382   6.904   6.086  1.00  0.00     0.060 A 
BRANCH  61  62
ATOM     62  S   UNL     1      -3.150   7.931   7.554  1.00  0.00     0.124 S 
ATOM     63  O   UNL     1      -4.444   8.594   7.655  1.00  0.00    -0.237 OA
ATOM     64  O   UNL     1      -2.857   6.939   8.583  1.00  0.00    -0.237 OA
ATOM     65  O   UNL     1      -2.026   8.789   7.186  1.00  0.00    -0.744 OA
ENDBRANCH  61  62
ENDBRANCH  29  54
BRANCH  41  66
ATOM     66  C   UNL     1      -9.422   4.051  -0.073  1.00  0.00     0.058 A 
ATOM     67  C   UNL     1      -9.787   5.359  -0.421  1.00  0.00     0.135 A 
ATOM     68  C   UNL     1     -10.436   3.154   0.298  1.00  0.00     0.135 A 
ATOM     69  F   UNL     1      -8.849   6.252  -0.775  1.00  0.00    -0.206 F 
ATOM     70  C   UNL     1     -11.115   5.767  -0.402  1.00  0.00     0.059 A 
ATOM     71  C   UNL     1     -11.773   3.534   0.302  1.00  0.00     0.059 A 
ATOM     72  F   UNL     1     -10.132   1.889   0.629  1.00  0.00    -0.206 F 
ATOM     73  C   UNL     1     -12.101   4.844  -0.046  1.00  0.00     0.060 A 
BRANCH  73  74
ATOM     74  S   UNL     1     -13.828   5.365  -0.092  1.00  0.00     0.124 S 
ATOM     75  O   UNL     1     -13.924   6.170   1.121  1.00  0.00    -0.237 OA
ATOM     76  O   UNL     1     -13.901   6.101  -1.350  1.00  0.00    -0.237 OA
ATOM     77  O   UNL     1     -14.563   4.103  -0.069  1.00  0.00    -0.744 OA
ENDBRANCH  73  74
ENDBRANCH  41  66
ENDBRANCH  15  16
ENDBRANCH   8  10
ENDBRANCH   7   8
ENDBRANCH   6   7
ENDBRANCH   5   6
ENDBRANCH   4   5
ENDBRANCH   3   4
ENDBRANCH   2   3
ENDBRANCH   1   2
BRANCH   1  78
ATOM     78  C   UNL     1       5.044  -0.056   3.406  1.00  0.00     0.188 C 
BRANCH  78  79
ATOM     79  C   UNL     1       3.529   0.244   3.409  1.00  0.00     0.188 C 
BRANCH  79  80
ATOM     80  O   UNL     1       3.209   1.604   3.671  1.00  0.00    -0.376 OA
BRANCH  80  81
ATOM     81  C   UNL     1       2.702   1.876   4.974  1.00  0.00     0.202 C 
BRANCH  81  82
ATOM     82  C   UNL     1       3.806   1.932   6.030  1.00  0.00     0.261 C 
BRANCH  82  83
ATOM     83  O   UNL     1       4.484   0.677   6.236  1.00  0.00    -0.462 OA
BRANCH  83  84
ATOM     84  C   UNL     1       3.784  -0.370   6.747  1.00  0.00     0.329 C 
ATOM     85  O   UNL     1       2.623  -0.333   7.125  1.00  0.00    -0.250 OA
BRANCH  84  86
ATOM     86  C   UNL     1       4.683  -1.615   6.794  1.00  0.00     0.197 C 
BRANCH  86  87
ATOM     87  N   UNL     1       4.714  -2.049   8.190  1.00  0.00    -0.338 N 
ATOM     88  C   UNL     1       5.763  -2.144   9.068  1.00  0.00     0.262 C 
ATOM     89  H   UNL     1       3.841  -2.315   8.559  1.00  0.00     0.164 HD
ATOM     90  O   UNL     1       5.508  -2.533  10.209  1.00  0.00    -0.268 OA
BRANCH  88  91
ATOM     91  C   UNL     1       7.107  -1.836   8.615  1.00  0.00     0.093 A 
ATOM     92  C   UNL     1       7.607  -0.740   7.931  1.00  0.00     0.027 A 
ATOM     93  S   UNL     1       8.355  -2.971   8.959  1.00  0.00    -0.118 S 
ATOM     94  C   UNL     1       8.982  -0.902   7.577  1.00  0.00     0.033 A 
ATOM     95  C   UNL     1       9.482  -2.077   8.073  1.00  0.00     0.094 A 
ATOM     96  Cl  UNL     1      11.078  -2.678   7.875  1.00  0.00    -0.072 Cl
ENDBRANCH  88  91
ENDBRANCH  86  87
BRANCH  86  97
ATOM     97  C   UNL     1       4.159  -2.713   5.843  1.00  0.00     0.072 C 
BRANCH  97  98
ATOM     98  C   UNL     1       5.097  -3.860   5.498  1.00  0.00    -0.045 A 
ATOM     99  C   UNL     1       4.554  -5.030   4.937  1.00  0.00     0.007 A 
ATOM    100  C   UNL     1       6.489  -3.799   5.653  1.00  0.00     0.007 A 
ATOM    101  C   UNL     1       5.365  -6.127   4.623  1.00  0.00     0.046 A 
ATOM    102  C   UNL     1       7.300  -4.900   5.364  1.00  0.00     0.046 A 
ATOM    103  C   UNL     1       6.731  -6.061   4.866  1.00  0.00     0.115 A 
BRANCH 103 104
ATOM    104  O   UNL     1       7.555  -7.119   4.622  1.00  0.00    -0.508 OA
ATOM    105  H   UNL     1       7.202  -7.919   4.285  1.00  0.00     0.293 HD
ENDBRANCH 103 104
ENDBRANCH  97  98
ENDBRANCH  86  97
ENDBRANCH  84  86
ENDBRANCH  83  84
ENDBRANCH  82  83
ENDBRANCH  81  82
ENDBRANCH  80  81
ENDBRANCH  79  80
ENDBRANCH  78  79
ENDBRANCH   1  78
TORSDOF 28
