REMARK SMILES CC1=C(C)C(=O)N(C[C@H](CC(C)C)C(=O)OCCOCCOCCOCCOC(=O)c2ccc(-c3c4nc(c(-c5c(F)cc(S(=O)(=O)[O-])cc5F)c5ccc([nH]5)c(-c5c(F)cc(S(=O)(=O)[O-])cc5F)c5nc(c(-c6c(F)cc(S(=O)(=O)[O-])cc6F)c6ccc3[nH]6)C=C5)C=C4)cc2)C1=O
REMARK SMILES IDX 23 1 22 2 21 3 20 4 19 5 18 6 17 7 16 8 14 9 15 10 9 11 8 12
REMARK SMILES IDX 7 13 1 14 2 15 3 16 97 17 4 18 5 19 98 20 6 21 10 22 11 23
REMARK SMILES IDX 12 24 13 25 24 26 25 27 26 28 27 29 28 30 29 31 30 32 31 33
REMARK SMILES IDX 32 34 96 35 33 36 95 37 34 38 35 39 36 40 89 41 37 42 94 43
REMARK SMILES IDX 88 44 90 45 38 46 93 47 87 48 86 49 39 51 73 52 52 53 72 54
REMARK SMILES IDX 53 55 56 56 71 57 91 58 54 59 55 60 70 62 92 63 57 64 40 65
REMARK SMILES IDX 41 66 50 67 42 68 43 69 49 70 51 71 44 72 45 73 46 74 47 75
REMARK SMILES IDX 48 76 74 77 75 78 84 79 76 80 77 81 83 82 85 83 78 84 79 85
REMARK SMILES IDX 80 86 81 87 82 88 58 89 59 90 68 91 60 92 61 93 67 94 69 95
REMARK SMILES IDX 62 96 63 97 64 98 65 99 66 100
REMARK H PARENT 90 50 56 61
REMARK Flexibility Score: inf
ROOT
ATOM      1  C   UNL     1      -2.771   7.768  -2.087  1.00  0.00     0.188 C 
ENDROOT
BRANCH   1   2
ATOM      2  O   UNL     1      -2.399   7.009  -3.242  1.00  0.00    -0.377 OA
BRANCH   2   3
ATOM      3  C   UNL     1      -2.161   7.653  -4.492  1.00  0.00     0.188 C 
BRANCH   3   4
ATOM      4  C   UNL     1      -3.034   7.180  -5.733  1.00  0.00     0.188 C 
BRANCH   4   5
ATOM      5  O   UNL     1      -4.491   7.164  -5.674  1.00  0.00    -0.376 OA
BRANCH   5   6
ATOM      6  C   UNL     1      -5.349   6.121  -6.290  1.00  0.00     0.202 C 
BRANCH   6   7
ATOM      7  C   UNL     1      -6.022   4.674  -5.508  1.00  0.00     0.261 C 
BRANCH   7   8
ATOM      8  O   UNL     1      -5.127   3.620  -4.368  1.00  0.00    -0.463 OA
BRANCH   8   9
ATOM      9  C   UNL     1      -3.328   3.526  -3.511  1.00  0.00     0.310 C 
ATOM     10  O   UNL     1      -2.289   4.205  -3.761  1.00  0.00    -0.252 OA
BRANCH   9  11
ATOM     11  C   UNL     1      -2.987   2.396  -2.425  1.00  0.00     0.119 C 
BRANCH  11  12
ATOM     12  C   UNL     1      -4.171   1.530  -2.326  1.00  0.00     0.144 C 
BRANCH  12  13
ATOM     13  N   UNL     1      -4.870   2.265  -3.288  1.00  0.00    -0.274 N 
ATOM     14  C   UNL     1      -5.126   6.439  -3.444  1.00  0.00     0.051 C 
ATOM     15  C   UNL     1      -4.378   5.178  -3.931  1.00  0.00     0.023 C 
ATOM     16  C   UNL     1      -3.757   4.264  -5.302  1.00  0.00     0.023 C 
ATOM     17  C   UNL     1      -5.137   3.910  -2.577  1.00  0.00     0.256 C 
ATOM     18  C   UNL     1      -3.335   4.163  -6.759  1.00  0.00     0.051 C 
ATOM     19  C   UNL     1      -4.053   2.292  -4.925  1.00  0.00     0.256 C 
ATOM     20  O   UNL     1      -5.340   4.167  -1.401  1.00  0.00    -0.269 OA
ATOM     21  O   UNL     1      -3.445   1.375  -5.452  1.00  0.00    -0.269 OA
ENDBRANCH  12  13
ENDBRANCH  11  12
BRANCH  11  22
ATOM     22  C   UNL     1      -2.392   3.187  -1.225  1.00  0.00     0.020 C 
BRANCH  22  23
ATOM     23  C   UNL     1      -2.327   2.514   0.142  1.00  0.00    -0.017 C 
ATOM     24  C   UNL     1      -1.233   1.450   0.177  1.00  0.00     0.007 C 
ATOM     25  C   UNL     1      -2.048   3.578   1.215  1.00  0.00     0.007 C 
ENDBRANCH  22  23
ENDBRANCH  11  22
ENDBRANCH   9  11
ENDBRANCH   8   9
ENDBRANCH   7   8
ENDBRANCH   6   7
ENDBRANCH   5   6
ENDBRANCH   4   5
ENDBRANCH   3   4
ENDBRANCH   2   3
ENDBRANCH   1   2
BRANCH   1  26
ATOM     26  C   UNL     1      -3.215   9.216  -2.313  1.00  0.00     0.188 C 
BRANCH  26  27
ATOM     27  O   UNL     1      -2.172  10.189  -2.251  1.00  0.00    -0.376 OA
BRANCH  27  28
ATOM     28  C   UNL     1      -1.262  10.076  -1.161  1.00  0.00     0.202 C 
BRANCH  28  29
ATOM     29  C   UNL     1      -1.792  10.392   0.248  1.00  0.00     0.261 C 
BRANCH  29  30
ATOM     30  O   UNL     1      -3.081   9.841   0.570  1.00  0.00    -0.460 OA
BRANCH  30  31
ATOM     31  C   UNL     1      -4.106  10.728   0.456  1.00  0.00     0.338 C 
ATOM     32  O   UNL     1      -4.029  11.884   0.072  1.00  0.00    -0.246 OA
BRANCH  31  33
ATOM     33  C   UNL     1      -5.405  10.084   0.749  1.00  0.00     0.060 A 
ATOM     34  C   UNL     1      -6.448  10.248  -0.175  1.00  0.00     0.016 A 
ATOM     35  C   UNL     1      -5.641   9.454   1.972  1.00  0.00     0.016 A 
ATOM     36  C   UNL     1      -7.743   9.838   0.148  1.00  0.00     0.010 A 
ATOM     37  C   UNL     1      -6.943   9.056   2.300  1.00  0.00     0.010 A 
ATOM     38  C   UNL     1      -8.007   9.289   1.409  1.00  0.00    -0.014 A 
BRANCH  38  39
ATOM     39  C   UNL     1      -9.410   9.169   1.885  1.00  0.00     0.031 A 
ATOM     40  C   UNL     1      -9.979  10.287   2.719  1.00  0.00     0.074 A 
ATOM     41  C   UNL     1     -10.168   8.099   1.588  1.00  0.00     0.049 A 
ATOM     42  N   UNL     1     -11.138  10.374   3.318  1.00  0.00    -0.248 NA
ATOM     43  C   UNL     1      -9.115  11.465   2.904  1.00  0.00     0.031 C 
ATOM     44  C   UNL     1      -9.750   6.970   0.760  1.00  0.00     0.029 A 
ATOM     45  N   UNL     1     -11.449   7.782   1.971  1.00  0.00    -0.354 N 
ATOM     46  C   UNL     1     -11.142  11.610   3.955  1.00  0.00     0.074 A 
ATOM     47  C   UNL     1      -9.858  12.225   3.693  1.00  0.00     0.031 C 
ATOM     48  C   UNL     1     -10.747   6.068   0.722  1.00  0.00     0.029 A 
ATOM     49  C   UNL     1     -11.859   6.542   1.546  1.00  0.00     0.049 A 
ATOM     50  H   UNL     1     -12.018   8.387   2.499  1.00  0.00     0.167 HD
ATOM     51  C   UNL     1     -12.125  12.184   4.690  1.00  0.00     0.037 A 
ATOM     52  C   UNL     1     -12.987   5.854   1.819  1.00  0.00     0.037 A 
ATOM     53  C   UNL     1     -13.393  11.563   4.965  1.00  0.00     0.049 A 
ATOM     54  C   UNL     1     -14.046   6.481   2.690  1.00  0.00     0.074 A 
ATOM     55  C   UNL     1     -14.454  12.058   5.702  1.00  0.00     0.029 A 
ATOM     56  N   UNL     1     -13.768  10.303   4.522  1.00  0.00    -0.354 N 
ATOM     57  N   UNL     1     -14.043   7.654   3.279  1.00  0.00    -0.248 NA
ATOM     58  C   UNL     1     -15.263   5.692   2.933  1.00  0.00     0.031 C 
ATOM     59  C   UNL     1     -15.454  11.079   5.740  1.00  0.00     0.029 A 
ATOM     60  C   UNL     1     -15.036   9.994   4.985  1.00  0.00     0.049 A 
ATOM     61  H   UNL     1     -13.213   9.714   3.960  1.00  0.00     0.167 HD
ATOM     62  C   UNL     1     -15.262   7.752   3.945  1.00  0.00     0.074 A 
ATOM     63  C   UNL     1     -15.982   6.524   3.677  1.00  0.00     0.031 C 
ATOM     64  C   UNL     1     -15.741   8.766   4.708  1.00  0.00     0.037 A 
BRANCH  51  65
ATOM     65  C   UNL     1     -11.839  13.541   5.274  1.00  0.00     0.058 A 
ATOM     66  C   UNL     1     -11.754  14.689   4.469  1.00  0.00     0.135 A 
ATOM     67  C   UNL     1     -11.627  13.693   6.654  1.00  0.00     0.135 A 
ATOM     68  F   UNL     1     -11.930  14.598   3.141  1.00  0.00    -0.206 F 
ATOM     69  C   UNL     1     -11.427  15.930   5.005  1.00  0.00     0.059 A 
ATOM     70  C   UNL     1     -11.326  14.930   7.215  1.00  0.00     0.059 A 
ATOM     71  F   UNL     1     -11.695  12.629   7.470  1.00  0.00    -0.206 F 
ATOM     72  C   UNL     1     -11.206  16.039   6.378  1.00  0.00     0.060 A 
BRANCH  72  73
ATOM     73  S   UNL     1     -10.747  17.648   7.056  1.00  0.00     0.124 S 
ATOM     74  O   UNL     1      -9.357  17.760   6.623  1.00  0.00    -0.237 OA
ATOM     75  O   UNL     1     -11.689  18.547   6.397  1.00  0.00    -0.237 OA
ATOM     76  O   UNL     1     -10.945  17.481   8.492  1.00  0.00    -0.744 OA
ENDBRANCH  72  73
ENDBRANCH  51  65
BRANCH  52  77
ATOM     77  C   UNL     1     -13.158   4.479   1.278  1.00  0.00     0.058 A 
ATOM     78  C   UNL     1     -14.081   4.204   0.259  1.00  0.00     0.135 A 
ATOM     79  C   UNL     1     -12.379   3.413   1.758  1.00  0.00     0.135 A 
ATOM     80  F   UNL     1     -14.861   5.184  -0.222  1.00  0.00    -0.206 F 
ATOM     81  C   UNL     1     -14.225   2.924  -0.269  1.00  0.00     0.059 A 
ATOM     82  C   UNL     1     -12.488   2.130   1.231  1.00  0.00     0.059 A 
ATOM     83  F   UNL     1     -11.480   3.624   2.732  1.00  0.00    -0.206 F 
ATOM     84  C   UNL     1     -13.416   1.895   0.218  1.00  0.00     0.060 A 
BRANCH  84  85
ATOM     85  S   UNL     1     -13.551   0.256  -0.532  1.00  0.00     0.124 S 
ATOM     86  O   UNL     1     -14.822  -0.212   0.009  1.00  0.00    -0.237 OA
ATOM     87  O   UNL     1     -13.540   0.571  -1.957  1.00  0.00    -0.237 OA
ATOM     88  O   UNL     1     -12.362  -0.436  -0.043  1.00  0.00    -0.744 OA
ENDBRANCH  84  85
ENDBRANCH  52  77
BRANCH  64  89
ATOM     89  C   UNL     1     -17.121   8.611   5.288  1.00  0.00     0.058 A 
ATOM     90  C   UNL     1     -17.376   7.752   6.368  1.00  0.00     0.135 A 
ATOM     91  C   UNL     1     -18.188   9.382   4.798  1.00  0.00     0.135 A 
ATOM     92  F   UNL     1     -16.392   6.990   6.872  1.00  0.00    -0.206 F 
ATOM     93  C   UNL     1     -18.645   7.647   6.930  1.00  0.00     0.059 A 
ATOM     94  C   UNL     1     -19.460   9.312   5.360  1.00  0.00     0.059 A 
ATOM     95  F   UNL     1     -17.997  10.229   3.775  1.00  0.00    -0.206 F 
ATOM     96  C   UNL     1     -19.681   8.433   6.420  1.00  0.00     0.060 A 
BRANCH  96  97
ATOM     97  S   UNL     1     -21.315   8.316   7.180  1.00  0.00     0.124 S 
ATOM     98  O   UNL     1     -21.787   7.034   6.665  1.00  0.00    -0.237 OA
ATOM     99  O   UNL     1     -21.002   8.350   8.605  1.00  0.00    -0.237 OA
ATOM    100  O   UNL     1     -22.012   9.492   6.669  1.00  0.00    -0.744 OA
ENDBRANCH  96  97
ENDBRANCH  64  89
ENDBRANCH  38  39
ENDBRANCH  31  33
ENDBRANCH  30  31
ENDBRANCH  29  30
ENDBRANCH  28  29
ENDBRANCH  27  28
ENDBRANCH  26  27
ENDBRANCH   1  26
TORSDOF 27
