REMARK SMILES O=C(OCCOCCOCCOCCOC(=O)c1c[nH]c(=O)c(-c2cccc([N+](=O)[O-])c2)c1)c1ccc(-c2c3nc(c(-c4c(F)cc(S(=O)(=O)[O-])cc4F)c4ccc([nH]4)c(-c4c(F)cc(S(=O)(=O)[O-])cc4F)c4nc(c(-c5c(F)cc(S(=O)(=O)[O-])cc5F)c5ccc2[nH]5)C=C4)C=C3)cc1
REMARK SMILES IDX 8 1 7 2 6 3 5 4 4 5 3 6 2 7 1 8 34 9 35 10 99 11 36 12 98 13
REMARK SMILES IDX 37 14 38 15 39 16 92 17 40 18 97 19 91 20 93 21 41 22 96 23
REMARK SMILES IDX 90 24 89 25 42 27 76 28 55 29 75 30 56 31 59 32 74 33 94 34
REMARK SMILES IDX 57 35 58 36 73 38 95 39 60 40 43 41 44 42 53 43 45 44 46 45
REMARK SMILES IDX 52 46 54 47 47 48 48 49 49 50 50 51 51 52 77 53 78 54 87 55
REMARK SMILES IDX 79 56 80 57 86 58 88 59 81 60 82 61 83 62 84 63 85 64 61 65
REMARK SMILES IDX 62 66 71 67 63 68 64 69 70 70 72 71 65 72 66 73 67 74 68 75
REMARK SMILES IDX 69 76 9 77 10 78 11 79 12 80 13 81 14 82 15 83 16 84 17 85
REMARK SMILES IDX 18 86 19 87 33 88 20 89 23 90 21 91 22 93 24 94 25 95 32 96
REMARK SMILES IDX 26 97 28 98 27 99 29 100 30 101 31 102
REMARK H PARENT 93 26 59 37 20 92
REMARK Flexibility Score: inf
ROOT
ATOM      1  C   UNL     1       1.908  -0.262  -2.792  1.00  0.00     0.188 C 
ENDROOT
BRANCH   1   2
ATOM      2  C   UNL     1       2.402  -0.673  -1.404  1.00  0.00     0.188 C 
BRANCH   2   3
ATOM      3  O   UNL     1       3.745  -0.255  -1.165  1.00  0.00    -0.376 OA
BRANCH   3   4
ATOM      4  C   UNL     1       4.614  -1.175  -0.504  1.00  0.00     0.202 C 
BRANCH   4   5
ATOM      5  C   UNL     1       4.322  -1.416   0.976  1.00  0.00     0.261 C 
BRANCH   5   6
ATOM      6  O   UNL     1       2.955  -1.181   1.341  1.00  0.00    -0.460 OA
BRANCH   6   7
ATOM      7  C   UNL     1       2.357  -0.012   1.680  1.00  0.00     0.338 C 
ATOM      8  O   UNL     1       1.163  -0.042   1.975  1.00  0.00    -0.246 OA
BRANCH   7   9
ATOM      9  C   UNL     1       3.044   1.317   1.705  1.00  0.00     0.060 A 
ATOM     10  C   UNL     1       4.173   1.664   0.964  1.00  0.00     0.016 A 
ATOM     11  C   UNL     1       2.455   2.317   2.497  1.00  0.00     0.016 A 
ATOM     12  C   UNL     1       4.757   2.912   1.050  1.00  0.00     0.010 A 
ATOM     13  C   UNL     1       3.027   3.589   2.589  1.00  0.00     0.010 A 
ATOM     14  C   UNL     1       4.210   3.864   1.897  1.00  0.00    -0.014 A 
BRANCH  14  15
ATOM     15  C   UNL     1       5.071   5.007   2.230  1.00  0.00     0.031 A 
ATOM     16  C   UNL     1       5.791   4.947   3.544  1.00  0.00     0.074 A 
ATOM     17  C   UNL     1       5.345   5.936   1.300  1.00  0.00     0.049 A 
ATOM     18  N   UNL     1       6.575   5.824   4.102  1.00  0.00    -0.248 NA
ATOM     19  C   UNL     1       5.613   3.712   4.332  1.00  0.00     0.031 C 
ATOM     20  C   UNL     1       4.827   5.936  -0.072  1.00  0.00     0.029 A 
ATOM     21  N   UNL     1       6.159   7.031   1.350  1.00  0.00    -0.354 N 
ATOM     22  C   UNL     1       6.935   5.273   5.326  1.00  0.00     0.074 A 
ATOM     23  C   UNL     1       6.292   3.986   5.432  1.00  0.00     0.031 C 
ATOM     24  C   UNL     1       5.353   6.976  -0.738  1.00  0.00     0.029 A 
ATOM     25  C   UNL     1       6.175   7.754   0.181  1.00  0.00     0.049 A 
ATOM     26  H   UNL     1       6.683   7.279   2.145  1.00  0.00     0.167 HD
ATOM     27  C   UNL     1       7.726   5.816   6.278  1.00  0.00     0.037 A 
ATOM     28  C   UNL     1       6.761   8.936  -0.083  1.00  0.00     0.037 A 
ATOM     29  C   UNL     1       8.349   7.100   6.114  1.00  0.00     0.049 A 
ATOM     30  C   UNL     1       7.541   9.580   1.031  1.00  0.00     0.074 A 
ATOM     31  C   UNL     1       9.116   7.814   7.011  1.00  0.00     0.029 A 
ATOM     32  N   UNL     1       8.263   7.864   4.954  1.00  0.00    -0.354 N 
ATOM     33  N   UNL     1       7.795   9.114   2.234  1.00  0.00    -0.248 NA
ATOM     34  C   UNL     1       8.099  10.909   0.768  1.00  0.00     0.031 C 
ATOM     35  C   UNL     1       9.444   9.037   6.415  1.00  0.00     0.029 A 
ATOM     36  C   UNL     1       8.944   9.054   5.118  1.00  0.00     0.049 A 
ATOM     37  H   UNL     1       7.787   7.595   4.135  1.00  0.00     0.167 HD
ATOM     38  C   UNL     1       8.570  10.078   2.864  1.00  0.00     0.074 A 
ATOM     39  C   UNL     1       8.744  11.152   1.901  1.00  0.00     0.031 C 
ATOM     40  C   UNL     1       9.094  10.084   4.116  1.00  0.00     0.037 A 
BRANCH  27  41
ATOM     41  C   UNL     1       7.839   5.071   7.579  1.00  0.00     0.058 A 
ATOM     42  C   UNL     1       8.503   3.838   7.694  1.00  0.00     0.135 A 
ATOM     43  C   UNL     1       7.189   5.568   8.721  1.00  0.00     0.135 A 
ATOM     44  F   UNL     1       9.108   3.294   6.625  1.00  0.00    -0.206 F 
ATOM     45  C   UNL     1       8.478   3.104   8.877  1.00  0.00     0.059 A 
ATOM     46  C   UNL     1       7.178   4.867   9.923  1.00  0.00     0.059 A 
ATOM     47  F   UNL     1       6.523   6.732   8.667  1.00  0.00    -0.206 F 
ATOM     48  C   UNL     1       7.806   3.625   9.985  1.00  0.00     0.060 A 
BRANCH  48  49
ATOM     49  S   UNL     1       7.745   2.646  11.500  1.00  0.00     0.124 S 
ATOM     50  O   UNL     1       6.820   1.582  11.123  1.00  0.00    -0.237 OA
ATOM     51  O   UNL     1       9.138   2.245  11.667  1.00  0.00    -0.237 OA
ATOM     52  O   UNL     1       7.244   3.590  12.495  1.00  0.00    -0.744 OA
ENDBRANCH  48  49
ENDBRANCH  27  41
BRANCH  28  53
ATOM     53  C   UNL     1       6.593   9.580  -1.414  1.00  0.00     0.058 A 
ATOM     54  C   UNL     1       7.681   9.766  -2.278  1.00  0.00     0.135 A 
ATOM     55  C   UNL     1       5.329  10.001  -1.863  1.00  0.00     0.135 A 
ATOM     56  F   UNL     1       8.911   9.388  -1.898  1.00  0.00    -0.206 F 
ATOM     57  C   UNL     1       7.526  10.350  -3.533  1.00  0.00     0.059 A 
ATOM     58  C   UNL     1       5.144  10.560  -3.124  1.00  0.00     0.059 A 
ATOM     59  F   UNL     1       4.248   9.841  -1.083  1.00  0.00    -0.206 F 
ATOM     60  C   UNL     1       6.252  10.738  -3.950  1.00  0.00     0.060 A 
BRANCH  60  61
ATOM     61  S   UNL     1       6.056  11.446  -5.601  1.00  0.00     0.124 S 
ATOM     62  O   UNL     1       6.714  12.738  -5.447  1.00  0.00    -0.237 OA
ATOM     63  O   UNL     1       6.751  10.470  -6.434  1.00  0.00    -0.237 OA
ATOM     64  O   UNL     1       4.608  11.492  -5.778  1.00  0.00    -0.744 OA
ENDBRANCH  60  61
ENDBRANCH  28  53
BRANCH  40  65
ATOM     65  C   UNL     1       9.954  11.257   4.483  1.00  0.00     0.058 A 
ATOM     66  C   UNL     1       9.412  12.526   4.731  1.00  0.00     0.135 A 
ATOM     67  C   UNL     1      11.337  11.080   4.652  1.00  0.00     0.135 A 
ATOM     68  F   UNL     1       8.096  12.743   4.577  1.00  0.00    -0.206 F 
ATOM     69  C   UNL     1      10.219  13.591   5.109  1.00  0.00     0.059 A 
ATOM     70  C   UNL     1      12.156  12.122   5.064  1.00  0.00     0.059 A 
ATOM     71  F   UNL     1      11.897   9.879   4.439  1.00  0.00    -0.206 F 
ATOM     72  C   UNL     1      11.589  13.377   5.277  1.00  0.00     0.060 A 
BRANCH  72  73
ATOM     73  S   UNL     1      12.620  14.759   5.804  1.00  0.00     0.124 S 
ATOM     74  O   UNL     1      12.669  15.567   4.590  1.00  0.00    -0.237 OA
ATOM     75  O   UNL     1      11.848  15.319   6.909  1.00  0.00    -0.237 OA
ATOM     76  O   UNL     1      13.876  14.120   6.185  1.00  0.00    -0.744 OA
ENDBRANCH  72  73
ENDBRANCH  40  65
ENDBRANCH  14  15
ENDBRANCH   7   9
ENDBRANCH   6   7
ENDBRANCH   5   6
ENDBRANCH   4   5
ENDBRANCH   3   4
ENDBRANCH   2   3
ENDBRANCH   1   2
BRANCH   1  77
ATOM     77  O   UNL     1       2.585  -0.863  -3.894  1.00  0.00    -0.377 OA
BRANCH  77  78
ATOM     78  C   UNL     1       4.005  -0.908  -3.808  1.00  0.00     0.188 C 
BRANCH  78  79
ATOM     79  C   UNL     1       4.784   0.425  -3.668  1.00  0.00     0.188 C 
BRANCH  79  80
ATOM     80  O   UNL     1       3.950   1.549  -3.462  1.00  0.00    -0.376 OA
BRANCH  80  81
ATOM     81  C   UNL     1       3.730   2.406  -4.572  1.00  0.00     0.202 C 
BRANCH  81  82
ATOM     82  C   UNL     1       3.203   1.817  -5.897  1.00  0.00     0.261 C 
BRANCH  82  83
ATOM     83  O   UNL     1       3.740   0.550  -6.315  1.00  0.00    -0.460 OA
BRANCH  83  84
ATOM     84  C   UNL     1       4.979   0.501  -6.870  1.00  0.00     0.339 C 
ATOM     85  O   UNL     1       5.700   1.433  -7.131  1.00  0.00    -0.246 OA
BRANCH  84  86
ATOM     86  C   UNL     1       5.378  -0.941  -6.917  1.00  0.00     0.077 A 
ATOM     87  C   UNL     1       6.444  -1.345  -6.204  1.00  0.00     0.101 A 
ATOM     88  C   UNL     1       4.574  -1.931  -7.601  1.00  0.00     0.031 A 
ATOM     89  N   UNL     1       6.711  -2.688  -6.052  1.00  0.00    -0.328 N 
ATOM     90  C   UNL     1       4.873  -3.245  -7.556  1.00  0.00     0.048 A 
ATOM     91  C   UNL     1       5.978  -3.697  -6.642  1.00  0.00     0.255 A 
ATOM     92  H   UNL     1       7.474  -2.944  -5.485  1.00  0.00     0.169 HD
ATOM     93  O   UNL     1       6.228  -4.880  -6.438  1.00  0.00    -0.269 OA
BRANCH  90  94
ATOM     94  C   UNL     1       4.217  -4.158  -8.507  1.00  0.00    -0.006 A 
ATOM     95  C   UNL     1       4.295  -3.829  -9.875  1.00  0.00     0.009 A 
ATOM     96  C   UNL     1       3.564  -5.336  -8.127  1.00  0.00     0.094 A 
ATOM     97  C   UNL     1       3.708  -4.629 -10.850  1.00  0.00     0.008 A 
ATOM     98  C   UNL     1       2.976  -6.143  -9.116  1.00  0.00     0.270 A 
ATOM     99  C   UNL     1       3.040  -5.788 -10.473  1.00  0.00     0.085 A 
BRANCH  98 100
ATOM    100  N   UNL     1       2.276  -7.378  -8.741  1.00  0.00     0.062 N 
ATOM    101  O   UNL     1       1.801  -8.070  -9.654  1.00  0.00    -0.258 OA
ATOM    102  O   UNL     1       2.193  -7.657  -7.537  1.00  0.00    -0.258 OA
ENDBRANCH  98 100
ENDBRANCH  90  94
ENDBRANCH  84  86
ENDBRANCH  83  84
ENDBRANCH  82  83
ENDBRANCH  81  82
ENDBRANCH  80  81
ENDBRANCH  79  80
ENDBRANCH  78  79
ENDBRANCH  77  78
ENDBRANCH   1  77
TORSDOF 25
