REMARK SMILES Cc1cc(Br)cc([N+](=O)[O-])c1OCCC[C@@](C)([NH3+])C(=O)OCCOCCOCCOCCOC(=O)c1ccc(-c2c3nc(c(-c4c(F)cc(S(=O)(=O)[O-])cc4F)c4ccc([nH]4)c(-c4c(F)cc(S(=O)(=O)[O-])cc4F)c4nc(c(-c5c(F)cc(S(=O)(=O)[O-])cc5F)c5ccc2[nH]5)C=C4)C=C3)cc1
REMARK SMILES IDX 25 1 24 2 23 3 22 4 21 5 19 6 20 7 16 8 17 9 15 10 14 11
REMARK SMILES IDX 13 12 12 13 11 14 1 15 2 16 3 17 4 18 7 19 5 20 6 21 8 22
REMARK SMILES IDX 9 23 10 24 18 25 26 29 27 30 28 31 29 32 30 33 31 34 32 35
REMARK SMILES IDX 33 36 34 37 35 38 36 39 37 40 101 41 38 42 100 43 39 44
REMARK SMILES IDX 40 45 41 46 94 47 42 48 99 49 93 50 95 51 43 52 98 53 92 54
REMARK SMILES IDX 91 55 44 57 78 58 57 59 77 60 58 61 61 62 76 63 96 64 59 65
REMARK SMILES IDX 60 66 75 68 97 69 62 70 45 71 46 72 55 73 47 74 48 75 54 76
REMARK SMILES IDX 56 77 49 78 50 79 51 80 52 81 53 82 79 83 80 84 89 85 81 86
REMARK SMILES IDX 82 87 88 88 90 89 83 90 84 91 85 92 86 93 87 94 63 95 64 96
REMARK SMILES IDX 73 97 65 98 66 99 72 100 74 101 67 102 68 103 69 104 70 105
REMARK SMILES IDX 71 106
REMARK H PARENT 18 26 18 27 18 28 95 56 61 67
REMARK Flexibility Score: inf
ROOT
ATOM      1  C   UNL     1      -2.438  -0.416   2.053  1.00  0.00     0.188 C 
ENDROOT
BRANCH   1   2
ATOM      2  O   UNL     1      -3.258   0.264   2.985  1.00  0.00    -0.376 OA
BRANCH   2   3
ATOM      3  C   UNL     1      -4.345  -0.409   3.610  1.00  0.00     0.202 C 
BRANCH   3   4
ATOM      4  C   UNL     1      -4.502  -1.934   3.549  1.00  0.00     0.261 C 
BRANCH   4   5
ATOM      5  O   UNL     1      -4.325  -2.526   2.252  1.00  0.00    -0.459 OA
BRANCH   5   6
ATOM      6  C   UNL     1      -5.295  -2.345   1.313  1.00  0.00     0.367 C 
ATOM      7  O   UNL     1      -6.295  -1.659   1.473  1.00  0.00    -0.245 OA
BRANCH   6   8
ATOM      8  C   UNL     1      -4.969  -3.173   0.033  1.00  0.00     0.190 C 
ATOM      9  C   UNL     1      -5.943  -4.365   0.055  1.00  0.00     0.092 C 
BRANCH   8  10
ATOM     10  C   UNL     1      -5.078  -2.400  -1.323  1.00  0.00     0.084 C 
BRANCH  10  11
ATOM     11  C   UNL     1      -5.558  -0.931  -1.381  1.00  0.00     0.049 C 
BRANCH  11  12
ATOM     12  C   UNL     1      -4.665   0.205  -0.834  1.00  0.00     0.230 C 
BRANCH  12  13
ATOM     13  O   UNL     1      -3.664   0.587  -1.793  1.00  0.00    -0.487 OA
BRANCH  13  14
ATOM     14  C   UNL     1      -2.411   0.950  -1.345  1.00  0.00     0.200 A 
ATOM     15  C   UNL     1      -1.748  -1.499  -1.421  1.00  0.00     0.049 C 
ATOM     16  C   UNL     1      -1.412  -0.047  -1.422  1.00  0.00    -0.001 A 
ATOM     17  C   UNL     1      -0.053   0.293  -1.511  1.00  0.00     0.023 A 
ATOM     18  C   UNL     1       0.338   1.619  -1.462  1.00  0.00     0.025 A 
ATOM     19  C   UNL     1      -1.986   2.284  -1.183  1.00  0.00     0.312 A 
ATOM     20  Br  UNL     1       2.162   2.058  -1.679  1.00  0.00    -0.051 Br
ATOM     21  C   UNL     1      -0.610   2.612  -1.248  1.00  0.00     0.105 A 
BRANCH  19  22
ATOM     22  N   UNL     1      -2.911   3.392  -0.902  1.00  0.00     0.066 N 
ATOM     23  O   UNL     1      -2.415   4.520  -0.739  1.00  0.00    -0.258 OA
ATOM     24  O   UNL     1      -4.120   3.161  -0.814  1.00  0.00    -0.258 OA
ENDBRANCH  19  22
ENDBRANCH  13  14
ENDBRANCH  12  13
ENDBRANCH  11  12
ENDBRANCH  10  11
ENDBRANCH   8  10
BRANCH   8  25
ATOM     25  N   UNL     1      -3.648  -3.863   0.145  1.00  0.00    -0.344 N 
ATOM     26  H   UNL     1      -3.468  -4.394  -0.708  1.00  0.00     0.345 HD
ATOM     27  H   UNL     1      -3.663  -4.498   0.943  1.00  0.00     0.345 HD
ATOM     28  H   UNL     1      -2.912  -3.170   0.275  1.00  0.00     0.345 HD
ENDBRANCH   8  25
ENDBRANCH   6   8
ENDBRANCH   5   6
ENDBRANCH   4   5
ENDBRANCH   3   4
ENDBRANCH   2   3
ENDBRANCH   1   2
BRANCH   1  29
ATOM     29  C   UNL     1      -1.473  -1.447   2.630  1.00  0.00     0.188 C 
BRANCH  29  30
ATOM     30  O   UNL     1      -1.456  -1.405   4.047  1.00  0.00    -0.377 OA
BRANCH  30  31
ATOM     31  C   UNL     1      -0.357  -0.676   4.576  1.00  0.00     0.188 C 
BRANCH  31  32
ATOM     32  C   UNL     1      -0.288   0.813   4.194  1.00  0.00     0.188 C 
BRANCH  32  33
ATOM     33  O   UNL     1      -0.071   1.016   2.792  1.00  0.00    -0.376 OA
BRANCH  33  34
ATOM     34  C   UNL     1       1.196   1.540   2.410  1.00  0.00     0.202 C 
BRANCH  34  35
ATOM     35  C   UNL     1       2.191   0.430   2.051  1.00  0.00     0.261 C 
BRANCH  35  36
ATOM     36  O   UNL     1       2.506  -0.439   3.147  1.00  0.00    -0.460 OA
BRANCH  36  37
ATOM     37  C   UNL     1       3.079   0.145   4.224  1.00  0.00     0.338 C 
ATOM     38  O   UNL     1       3.467   1.298   4.312  1.00  0.00    -0.246 OA
BRANCH  37  39
ATOM     39  C   UNL     1       2.924  -0.777   5.364  1.00  0.00     0.060 A 
ATOM     40  C   UNL     1       2.357  -0.275   6.541  1.00  0.00     0.016 A 
ATOM     41  C   UNL     1       3.251  -2.133   5.247  1.00  0.00     0.016 A 
ATOM     42  C   UNL     1       2.143  -1.126   7.620  1.00  0.00     0.010 A 
ATOM     43  C   UNL     1       3.058  -2.981   6.338  1.00  0.00     0.010 A 
ATOM     44  C   UNL     1       2.539  -2.468   7.538  1.00  0.00    -0.014 A 
BRANCH  44  45
ATOM     45  C   UNL     1       2.655  -3.239   8.794  1.00  0.00     0.031 A 
ATOM     46  C   UNL     1       3.968  -3.167   9.523  1.00  0.00     0.074 A 
ATOM     47  C   UNL     1       1.611  -3.915   9.302  1.00  0.00     0.049 A 
ATOM     48  N   UNL     1       4.300  -3.653  10.688  1.00  0.00    -0.248 NA
ATOM     49  C   UNL     1       5.054  -2.437   8.843  1.00  0.00     0.031 C 
ATOM     50  C   UNL     1       0.292  -4.032   8.682  1.00  0.00     0.029 A 
ATOM     51  N   UNL     1       1.500  -4.625  10.470  1.00  0.00    -0.354 N 
ATOM     52  C   UNL     1       5.620  -3.270  10.890  1.00  0.00     0.074 A 
ATOM     53  C   UNL     1       6.046  -2.553   9.710  1.00  0.00     0.031 C 
ATOM     54  C   UNL     1      -0.499  -4.772   9.480  1.00  0.00     0.029 A 
ATOM     55  C   UNL     1       0.259  -5.185  10.660  1.00  0.00     0.049 A 
ATOM     56  H   UNL     1       2.240  -4.724  11.112  1.00  0.00     0.167 HD
ATOM     57  C   UNL     1       6.403  -3.484  11.972  1.00  0.00     0.037 A 
ATOM     58  C   UNL     1      -0.202  -5.939  11.677  1.00  0.00     0.037 A 
ATOM     59  C   UNL     1       5.976  -4.223  13.127  1.00  0.00     0.049 A 
ATOM     60  C   UNL     1       0.707  -6.210  12.851  1.00  0.00     0.074 A 
ATOM     61  C   UNL     1       6.686  -4.514  14.277  1.00  0.00     0.029 A 
ATOM     62  N   UNL     1       4.722  -4.801  13.271  1.00  0.00    -0.354 N 
ATOM     63  N   UNL     1       1.943  -5.811  13.048  1.00  0.00    -0.248 NA
ATOM     64  C   UNL     1       0.155  -7.017  13.946  1.00  0.00     0.031 C 
ATOM     65  C   UNL     1       5.875  -5.306  15.098  1.00  0.00     0.029 A 
ATOM     66  C   UNL     1       4.642  -5.462  14.483  1.00  0.00     0.049 A 
ATOM     67  H   UNL     1       3.996  -4.747  12.608  1.00  0.00     0.167 HD
ATOM     68  C   UNL     1       2.304  -6.292  14.303  1.00  0.00     0.074 A 
ATOM     69  C   UNL     1       1.151  -7.001  14.821  1.00  0.00     0.031 C 
ATOM     70  C   UNL     1       3.478  -6.157  14.972  1.00  0.00     0.037 A 
BRANCH  57  71
ATOM     71  C   UNL     1       7.800  -2.931  11.930  1.00  0.00     0.058 A 
ATOM     72  C   UNL     1       8.049  -1.551  12.013  1.00  0.00     0.135 A 
ATOM     73  C   UNL     1       8.902  -3.790  11.799  1.00  0.00     0.135 A 
ATOM     74  F   UNL     1       7.029  -0.683  12.108  1.00  0.00    -0.206 F 
ATOM     75  C   UNL     1       9.341  -1.041  11.943  1.00  0.00     0.059 A 
ATOM     76  C   UNL     1      10.205  -3.303  11.752  1.00  0.00     0.059 A 
ATOM     77  F   UNL     1       8.718  -5.116  11.701  1.00  0.00    -0.206 F 
ATOM     78  C   UNL     1      10.413  -1.925  11.811  1.00  0.00     0.060 A 
BRANCH  78  79
ATOM     79  S   UNL     1      12.084  -1.249  11.721  1.00  0.00     0.124 S 
ATOM     80  O   UNL     1      12.094  -0.676  10.378  1.00  0.00    -0.237 OA
ATOM     81  O   UNL     1      12.092  -0.288  12.820  1.00  0.00    -0.237 OA
ATOM     82  O   UNL     1      12.935  -2.420  11.910  1.00  0.00    -0.744 OA
ENDBRANCH  78  79
ENDBRANCH  57  71
BRANCH  58  83
ATOM     83  C   UNL     1      -1.589  -6.477  11.642  1.00  0.00     0.058 A 
ATOM     84  C   UNL     1      -2.577  -6.010  12.522  1.00  0.00     0.135 A 
ATOM     85  C   UNL     1      -1.954  -7.476  10.726  1.00  0.00     0.135 A 
ATOM     86  F   UNL     1      -2.277  -5.062  13.424  1.00  0.00    -0.206 F 
ATOM     87  C   UNL     1      -3.871  -6.524  12.508  1.00  0.00     0.059 A 
ATOM     88  C   UNL     1      -3.247  -7.988  10.676  1.00  0.00     0.059 A 
ATOM     89  F   UNL     1      -1.051  -7.952   9.855  1.00  0.00    -0.206 F 
ATOM     90  C   UNL     1      -4.197  -7.513  11.579  1.00  0.00     0.060 A 
BRANCH  90  91
ATOM     91  S   UNL     1      -5.890  -8.140  11.536  1.00  0.00     0.124 S 
ATOM     92  O   UNL     1      -5.930  -8.962  12.739  1.00  0.00    -0.237 OA
ATOM     93  O   UNL     1      -6.674  -6.910  11.575  1.00  0.00    -0.237 OA
ATOM     94  O   UNL     1      -5.945  -8.869  10.271  1.00  0.00    -0.744 OA
ENDBRANCH  90  91
ENDBRANCH  58  83
BRANCH  70  95
ATOM     95  C   UNL     1       3.557  -6.756  16.350  1.00  0.00     0.058 A 
ATOM     96  C   UNL     1       3.619  -8.143  16.552  1.00  0.00     0.135 A 
ATOM     97  C   UNL     1       3.609  -5.923  17.480  1.00  0.00     0.135 A 
ATOM     98  F   UNL     1       3.574  -8.981  15.505  1.00  0.00    -0.206 F 
ATOM     99  C   UNL     1       3.691  -8.686  17.830  1.00  0.00     0.059 A 
ATOM    100  C   UNL     1       3.711  -6.444  18.765  1.00  0.00     0.059 A 
ATOM    101  F   UNL     1       3.571  -4.588  17.340  1.00  0.00    -0.206 F 
ATOM    102  C   UNL     1       3.732  -7.828  18.931  1.00  0.00     0.060 A 
BRANCH 102 103
ATOM    103  S   UNL     1       3.829  -8.543  20.585  1.00  0.00     0.124 S 
ATOM    104  O   UNL     1       2.460  -9.008  20.783  1.00  0.00    -0.237 OA
ATOM    105  O   UNL     1       4.835  -9.588  20.417  1.00  0.00    -0.237 OA
ATOM    106  O   UNL     1       4.238  -7.417  21.418  1.00  0.00    -0.744 OA
ENDBRANCH 102 103
ENDBRANCH  70  95
ENDBRANCH  44  45
ENDBRANCH  37  39
ENDBRANCH  36  37
ENDBRANCH  35  36
ENDBRANCH  34  35
ENDBRANCH  33  34
ENDBRANCH  32  33
ENDBRANCH  31  32
ENDBRANCH  30  31
ENDBRANCH  29  30
ENDBRANCH   1  29
TORSDOF 30
