REMARK SMILES O=C(OCCOCCOCCOCCOC(=O)[C@@H]1CC=CC[C@H]1C(=O)N1CC[NH+](Cc2ccc3c(c2)OCO3)CC1)c1ccc(-c2c3nc(c(-c4c(F)cc(S(=O)(=O)[O-])cc4F)c4ccc([nH]4)c(-c4c(F)cc(S(=O)(=O)[O-])cc4F)c4nc(c(-c5c(F)cc(S(=O)(=O)[O-])cc5F)c5ccc2[nH]5)C=C4)C=C3)cc1
REMARK SMILES IDX 9 1 8 2 7 3 6 4 5 5 4 6 3 7 2 8 1 9 42 10 43 11 107 12 44 13
REMARK SMILES IDX 106 14 45 15 46 16 47 17 100 18 48 19 105 20 99 21 101 22
REMARK SMILES IDX 49 23 104 24 98 25 97 26 50 28 84 29 63 30 83 31 64 32 67 33
REMARK SMILES IDX 82 34 102 35 65 36 66 37 81 39 103 40 68 41 51 42 52 43
REMARK SMILES IDX 61 44 53 45 54 46 60 47 62 48 55 49 56 50 57 51 58 52 59 53
REMARK SMILES IDX 85 54 86 55 95 56 87 57 88 58 94 59 96 60 89 61 90 62 91 63
REMARK SMILES IDX 92 64 93 65 69 66 70 67 79 68 71 69 72 70 78 71 80 72 73 73
REMARK SMILES IDX 74 74 75 75 76 76 77 77 10 78 11 79 12 80 13 81 14 82 15 83
REMARK SMILES IDX 16 84 17 85 18 86 19 87 23 88 20 89 22 90 21 91 24 92 25 93
REMARK SMILES IDX 26 94 27 95 41 96 28 97 40 98 29 99 30 101 31 102 32 103
REMARK SMILES IDX 36 104 33 105 35 106 34 107 37 108 39 109 38 110
REMARK H PARENT 101 27 67 38 29 100
REMARK Flexibility Score: inf
ROOT
ATOM      1  O   UNL     1       6.695   4.011  -3.297  1.00  0.00    -0.377 OA
ENDROOT
BRANCH   1   2
ATOM      2  C   UNL     1       7.469   5.205  -3.289  1.00  0.00     0.188 C 
BRANCH   2   3
ATOM      3  C   UNL     1       7.877   5.720  -1.919  1.00  0.00     0.188 C 
BRANCH   3   4
ATOM      4  O   UNL     1       7.382   4.907  -0.869  1.00  0.00    -0.376 OA
BRANCH   4   5
ATOM      5  C   UNL     1       6.228   5.380  -0.203  1.00  0.00     0.202 C 
BRANCH   5   6
ATOM      6  C   UNL     1       6.606   6.006   1.139  1.00  0.00     0.261 C 
BRANCH   6   7
ATOM      7  O   UNL     1       7.533   7.096   0.964  1.00  0.00    -0.460 OA
BRANCH   7   8
ATOM      8  C   UNL     1       8.888   7.103   0.938  1.00  0.00     0.338 C 
ATOM      9  O   UNL     1       9.445   8.197   0.829  1.00  0.00    -0.246 OA
BRANCH   8  10
ATOM     10  C   UNL     1       9.779   5.893   1.019  1.00  0.00     0.060 A 
ATOM     11  C   UNL     1       9.369   4.558   1.018  1.00  0.00     0.016 A 
ATOM     12  C   UNL     1      11.168   6.138   1.078  1.00  0.00     0.016 A 
ATOM     13  C   UNL     1      10.276   3.508   1.071  1.00  0.00     0.010 A 
ATOM     14  C   UNL     1      12.092   5.092   1.181  1.00  0.00     0.010 A 
ATOM     15  C   UNL     1      11.632   3.774   1.214  1.00  0.00    -0.014 A 
BRANCH  15  16
ATOM     16  C   UNL     1      12.463   2.666   1.709  1.00  0.00     0.031 A 
ATOM     17  C   UNL     1      12.600   2.546   3.200  1.00  0.00     0.074 A 
ATOM     18  C   UNL     1      12.899   1.718   0.865  1.00  0.00     0.049 A 
ATOM     19  N   UNL     1      13.217   1.643   3.910  1.00  0.00    -0.248 NA
ATOM     20  C   UNL     1      11.918   3.579   4.006  1.00  0.00     0.031 C 
ATOM     21  C   UNL     1      12.664   1.704  -0.581  1.00  0.00     0.029 A 
ATOM     22  N   UNL     1      13.593   0.565   1.104  1.00  0.00    -0.354 N 
ATOM     23  C   UNL     1      13.020   2.012   5.236  1.00  0.00     0.074 A 
ATOM     24  C   UNL     1      12.227   3.217   5.239  1.00  0.00     0.031 C 
ATOM     25  C   UNL     1      13.200   0.585  -1.099  1.00  0.00     0.029 A 
ATOM     26  C   UNL     1      13.850  -0.168  -0.030  1.00  0.00     0.049 A 
ATOM     27  H   UNL     1      13.882   0.285   2.003  1.00  0.00     0.167 HD
ATOM     28  C   UNL     1      13.474   1.395   6.350  1.00  0.00     0.037 A 
ATOM     29  C   UNL     1      14.553  -1.308  -0.171  1.00  0.00     0.037 A 
ATOM     30  C   UNL     1      14.270   0.200   6.298  1.00  0.00     0.049 A 
ATOM     31  C   UNL     1      15.134  -1.924   1.077  1.00  0.00     0.074 A 
ATOM     32  C   UNL     1      14.855  -0.498   7.335  1.00  0.00     0.029 A 
ATOM     33  N   UNL     1      14.595  -0.469   5.123  1.00  0.00    -0.354 N 
ATOM     34  N   UNL     1      15.003  -1.536   2.326  1.00  0.00    -0.248 NA
ATOM     35  C   UNL     1      15.965  -3.120   0.902  1.00  0.00     0.031 C 
ATOM     36  C   UNL     1      15.577  -1.562   6.781  1.00  0.00     0.029 A 
ATOM     37  C   UNL     1      15.391  -1.562   5.405  1.00  0.00     0.049 A 
ATOM     38  H   UNL     1      14.301  -0.203   4.222  1.00  0.00     0.167 HD
ATOM     39  C   UNL     1      15.714  -2.453   3.090  1.00  0.00     0.074 A 
ATOM     40  C   UNL     1      16.262  -3.422   2.158  1.00  0.00     0.031 C 
ATOM     41  C   UNL     1      15.903  -2.499   4.434  1.00  0.00     0.037 A 
BRANCH  28  42
ATOM     42  C   UNL     1      13.196   2.063   7.668  1.00  0.00     0.058 A 
ATOM     43  C   UNL     1      11.908   2.122   8.226  1.00  0.00     0.135 A 
ATOM     44  C   UNL     1      14.233   2.712   8.357  1.00  0.00     0.135 A 
ATOM     45  F   UNL     1      10.870   1.552   7.593  1.00  0.00    -0.206 F 
ATOM     46  C   UNL     1      11.652   2.831   9.397  1.00  0.00     0.059 A 
ATOM     47  C   UNL     1      14.006   3.404   9.544  1.00  0.00     0.059 A 
ATOM     48  F   UNL     1      15.481   2.704   7.863  1.00  0.00    -0.206 F 
ATOM     49  C   UNL     1      12.708   3.474  10.045  1.00  0.00     0.060 A 
BRANCH  49  50
ATOM     50  S   UNL     1      12.359   4.418  11.545  1.00  0.00     0.124 S 
ATOM     51  O   UNL     1      11.665   5.582  11.003  1.00  0.00    -0.237 OA
ATOM     52  O   UNL     1      11.534   3.490  12.312  1.00  0.00    -0.237 OA
ATOM     53  O   UNL     1      13.683   4.679  12.100  1.00  0.00    -0.744 OA
ENDBRANCH  49  50
ENDBRANCH  28  42
BRANCH  29  54
ATOM     54  C   UNL     1      14.765  -1.906  -1.518  1.00  0.00     0.058 A 
ATOM     55  C   UNL     1      14.229  -3.157  -1.859  1.00  0.00     0.135 A 
ATOM     56  C   UNL     1      15.509  -1.233  -2.502  1.00  0.00     0.135 A 
ATOM     57  F   UNL     1      13.516  -3.849  -0.958  1.00  0.00    -0.206 F 
ATOM     58  C   UNL     1      14.431  -3.722  -3.117  1.00  0.00     0.059 A 
ATOM     59  C   UNL     1      15.702  -1.764  -3.774  1.00  0.00     0.059 A 
ATOM     60  F   UNL     1      16.043  -0.030  -2.236  1.00  0.00    -0.206 F 
ATOM     61  C   UNL     1      15.168  -3.016  -4.069  1.00  0.00     0.060 A 
BRANCH  61  62
ATOM     62  S   UNL     1      15.395  -3.741  -5.709  1.00  0.00     0.124 S 
ATOM     63  O   UNL     1      16.331  -4.822  -5.425  1.00  0.00    -0.237 OA
ATOM     64  O   UNL     1      14.036  -4.146  -6.056  1.00  0.00    -0.237 OA
ATOM     65  O   UNL     1      15.931  -2.633  -6.495  1.00  0.00    -0.744 OA
ENDBRANCH  61  62
ENDBRANCH  29  54
BRANCH  41  66
ATOM     66  C   UNL     1      16.700  -3.654   4.964  1.00  0.00     0.058 A 
ATOM     67  C   UNL     1      18.091  -3.728   4.800  1.00  0.00     0.135 A 
ATOM     68  C   UNL     1      16.063  -4.668   5.697  1.00  0.00     0.135 A 
ATOM     69  F   UNL     1      18.741  -2.782   4.104  1.00  0.00    -0.206 F 
ATOM     70  C   UNL     1      18.823  -4.788   5.320  1.00  0.00     0.059 A 
ATOM     71  C   UNL     1      16.779  -5.720   6.253  1.00  0.00     0.059 A 
ATOM     72  F   UNL     1      14.736  -4.630   5.894  1.00  0.00    -0.206 F 
ATOM     73  C   UNL     1      18.157  -5.779   6.046  1.00  0.00     0.060 A 
BRANCH  73  74
ATOM     74  S   UNL     1      19.121  -7.135   6.742  1.00  0.00     0.124 S 
ATOM     75  O   UNL     1      19.402  -7.933   5.554  1.00  0.00    -0.237 OA
ATOM     76  O   UNL     1      20.265  -6.439   7.324  1.00  0.00    -0.237 OA
ATOM     77  O   UNL     1      18.207  -7.741   7.706  1.00  0.00    -0.744 OA
ENDBRANCH  73  74
ENDBRANCH  41  66
ENDBRANCH  15  16
ENDBRANCH   8  10
ENDBRANCH   7   8
ENDBRANCH   6   7
ENDBRANCH   5   6
ENDBRANCH   4   5
ENDBRANCH   3   4
ENDBRANCH   2   3
ENDBRANCH   1   2
BRANCH   1  78
ATOM     78  C   UNL     1       7.225   2.849  -2.654  1.00  0.00     0.188 C 
BRANCH  78  79
ATOM     79  C   UNL     1       7.724   1.733  -3.577  1.00  0.00     0.188 C 
BRANCH  79  80
ATOM     80  O   UNL     1       9.073   1.833  -4.019  1.00  0.00    -0.376 OA
BRANCH  80  81
ATOM     81  C   UNL     1       9.428   2.889  -4.905  1.00  0.00     0.202 C 
BRANCH  81  82
ATOM     82  C   UNL     1       8.556   3.073  -6.160  1.00  0.00     0.261 C 
BRANCH  82  83
ATOM     83  O   UNL     1       7.209   3.467  -5.827  1.00  0.00    -0.463 OA
BRANCH  83  84
ATOM     84  C   UNL     1       6.193   2.823  -6.461  1.00  0.00     0.310 C 
ATOM     85  O   UNL     1       6.332   2.132  -7.465  1.00  0.00    -0.252 OA
BRANCH  84  86
ATOM     86  C   UNL     1       4.859   2.999  -5.723  1.00  0.00     0.115 C 
ATOM     87  C   UNL     1       4.221   1.605  -5.562  1.00  0.00     0.043 C 
ATOM     88  C   UNL     1       4.017   4.068  -6.428  1.00  0.00     0.097 C 
ATOM     89  C   UNL     1       2.731   1.543  -5.625  1.00  0.00    -0.030 C 
ATOM     90  C   UNL     1       2.486   3.893  -6.417  1.00  0.00     0.041 C 
ATOM     91  C   UNL     1       1.962   2.558  -6.018  1.00  0.00    -0.030 C 
BRANCH  88  92
ATOM     92  C   UNL     1       4.385   5.476  -5.935  1.00  0.00     0.227 C 
ATOM     93  O   UNL     1       5.241   6.141  -6.521  1.00  0.00    -0.275 OA
ATOM     94  N   UNL     1       3.624   6.012  -4.894  1.00  0.00    -0.331 N 
ATOM     95  C   UNL     1       3.113   7.352  -5.138  1.00  0.00     0.181 C 
ATOM     96  C   UNL     1       4.032   5.771  -3.510  1.00  0.00     0.181 C 
ATOM     97  C   UNL     1       2.136   7.852  -4.055  1.00  0.00     0.284 C 
ATOM     98  C   UNL     1       3.030   6.277  -2.459  1.00  0.00     0.284 C 
ATOM     99  N   UNL     1       2.551   7.648  -2.665  1.00  0.00    -0.328 N 
ATOM    100  H   UNL     1       1.702   7.737  -2.106  1.00  0.00     0.348 HD
BRANCH  99 101
ATOM    101  C   UNL     1       3.298   8.731  -2.009  1.00  0.00     0.299 C 
BRANCH 101 102
ATOM    102  C   UNL     1       4.646   9.148  -2.563  1.00  0.00     0.010 A 
ATOM    103  C   UNL     1       4.752   9.831  -3.796  1.00  0.00     0.013 A 
ATOM    104  C   UNL     1       5.823   8.913  -1.836  1.00  0.00     0.060 A 
ATOM    105  C   UNL     1       5.992  10.108  -4.384  1.00  0.00     0.051 A 
ATOM    106  C   UNL     1       7.035   9.238  -2.420  1.00  0.00     0.166 A 
ATOM    107  C   UNL     1       7.121   9.777  -3.678  1.00  0.00     0.165 A 
ATOM    108  O   UNL     1       8.261   9.027  -1.873  1.00  0.00    -0.454 OA
ATOM    109  O   UNL     1       8.405   9.929  -4.095  1.00  0.00    -0.454 OA
ATOM    110  C   UNL     1       9.120   9.350  -2.982  1.00  0.00     0.468 C 
ENDBRANCH 101 102
ENDBRANCH  99 101
ENDBRANCH  88  92
ENDBRANCH  84  86
ENDBRANCH  83  84
ENDBRANCH  82  83
ENDBRANCH  81  82
ENDBRANCH  80  81
ENDBRANCH  79  80
ENDBRANCH  78  79
ENDBRANCH   1  78
TORSDOF 26
