REMARK SMILES Cc1ccc(N2C(=O)N=C(OCCOCCOCCOCCOC(=O)c3ccc(-c4c5nc(c(-c6c(F)cc(S(=O)(=O)[O-])cc6F)c6ccc([nH]6)c(-c6c(F)cc(S(=O)(=O)[O-])cc6F)c6nc(c(-c7c(F)cc(S(=O)(=O)[O-])cc7F)c7ccc4[nH]7)C=C6)C=C5)cc3)/C(=C\c3ccccc3OCc3cccc(C(=O)[O-])c3)C2=O)cc1
REMARK SMILES IDX 16 1 15 2 14 3 13 4 12 5 11 6 10 7 6 8 7 9 111 10 8 11 9 12
REMARK SMILES IDX 92 13 112 14 93 15 5 16 1 17 2 18 3 19 114 20 4 21 113 22
REMARK SMILES IDX 94 23 95 24 99 25 96 26 98 27 97 28 100 29 101 30 102 31
REMARK SMILES IDX 103 32 110 33 104 34 106 35 105 36 107 37 108 38 109 39
REMARK SMILES IDX 17 40 18 41 19 42 20 43 21 44 22 45 23 46 24 47 25 48 26 49
REMARK SMILES IDX 27 50 91 51 28 52 90 53 29 54 30 55 31 56 84 57 32 58 89 59
REMARK SMILES IDX 83 60 85 61 33 62 88 63 82 64 81 65 34 67 68 68 47 69 67 70
REMARK SMILES IDX 48 71 51 72 66 73 86 74 49 75 50 76 65 78 87 79 52 80 35 81
REMARK SMILES IDX 36 82 45 83 37 84 38 85 44 86 46 87 39 88 40 89 41 90 42 91
REMARK SMILES IDX 43 92 69 93 70 94 79 95 71 96 72 97 78 98 80 99 73 100
REMARK SMILES IDX 74 101 75 102 76 103 77 104 53 105 54 106 63 107 55 108
REMARK SMILES IDX 56 109 62 110 64 111 57 112 58 113 59 114 60 115 61 116
REMARK H PARENT 85 66 51 77
REMARK Flexibility Score: inf
ROOT
ATOM      1  C   UNL     1      -5.177   3.663   2.435  1.00  0.00     0.188 C 
ENDROOT
BRANCH   1   2
ATOM      2  C   UNL     1      -5.242   3.640   0.936  1.00  0.00     0.188 C 
BRANCH   2   3
ATOM      3  O   UNL     1      -6.744   3.841   0.362  1.00  0.00    -0.376 OA
BRANCH   3   4
ATOM      4  C   UNL     1      -8.125   2.930   0.265  1.00  0.00     0.201 C 
BRANCH   4   5
ATOM      5  C   UNL     1      -8.200   1.297  -0.674  1.00  0.00     0.260 C 
BRANCH   5   6
ATOM      6  O   UNL     1      -7.019  -0.021  -0.440  1.00  0.00    -0.475 OA
BRANCH   6   7
ATOM      7  C   UNL     1      -5.577  -0.379  -0.518  1.00  0.00     0.231 C 
ATOM      8  N   UNL     1      -2.768  -0.166  -0.471  1.00  0.00    -0.226 N 
ATOM      9  C   UNL     1      -3.479  -0.821   0.513  1.00  0.00     0.358 C 
ATOM     10  C   UNL     1      -3.366   0.014  -1.688  1.00  0.00     0.272 C 
ATOM     11  O   UNL     1      -2.939  -1.113   1.583  1.00  0.00    -0.245 OA
ATOM     12  N   UNL     1      -4.846  -1.019   0.366  1.00  0.00    -0.156 NA
ATOM     13  C   UNL     1      -4.862  -0.089  -1.667  1.00  0.00     0.103 C 
ATOM     14  O   UNL     1      -2.727   0.238  -2.711  1.00  0.00    -0.268 OA
ATOM     15  C   UNL     1      -5.686  -0.310  -2.677  1.00  0.00     0.031 C 
BRANCH   8  16
ATOM     16  C   UNL     1      -1.346  -0.020  -0.330  1.00  0.00     0.054 A 
ATOM     17  C   UNL     1       2.970   0.131   0.012  1.00  0.00     0.044 C 
ATOM     18  C   UNL     1       1.469   0.120  -0.042  1.00  0.00    -0.051 A 
ATOM     19  C   UNL     1       0.807  -1.108   0.006  1.00  0.00     0.005 A 
ATOM     20  C   UNL     1       0.711   1.288  -0.199  1.00  0.00     0.005 A 
ATOM     21  C   UNL     1      -0.579  -1.172  -0.123  1.00  0.00     0.027 A 
ATOM     22  C   UNL     1      -0.690   1.222  -0.363  1.00  0.00     0.027 A 
ENDBRANCH   8  16
BRANCH  15  23
ATOM     23  C   UNL     1      -7.132  -0.298  -3.041  1.00  0.00     0.018 A 
ATOM     24  C   UNL     1      -7.870   0.489  -4.019  1.00  0.00     0.012 A 
ATOM     25  C   UNL     1      -7.822  -1.191  -2.322  1.00  0.00     0.127 A 
ATOM     26  C   UNL     1      -9.260   0.531  -4.131  1.00  0.00     0.001 A 
ATOM     27  C   UNL     1      -9.250  -1.081  -2.422  1.00  0.00     0.047 A 
ATOM     28  C   UNL     1      -9.971  -0.265  -3.295  1.00  0.00     0.004 A 
BRANCH  25  29
ATOM     29  O   UNL     1      -7.101  -1.956  -1.396  1.00  0.00    -0.488 OA
BRANCH  29  30
ATOM     30  C   UNL     1      -5.930  -2.854  -1.181  1.00  0.00     0.265 C 
BRANCH  30  31
ATOM     31  C   UNL     1      -5.306  -3.503   0.126  1.00  0.00    -0.010 A 
ATOM     32  C   UNL     1      -3.920  -3.763   0.003  1.00  0.00     0.007 A 
ATOM     33  C   UNL     1      -6.080  -4.416   0.818  1.00  0.00     0.017 A 
ATOM     34  C   UNL     1      -3.417  -5.029   0.217  1.00  0.00     0.001 A 
ATOM     35  C   UNL     1      -5.680  -5.734   0.681  1.00  0.00    -0.002 A 
ATOM     36  C   UNL     1      -4.337  -6.046   0.423  1.00  0.00     0.010 A 
BRANCH  35  37
ATOM     37  C   UNL     1      -6.714  -6.767   0.369  1.00  0.00     0.071 C 
ATOM     38  O   UNL     1      -6.503  -7.816  -0.141  1.00  0.00    -0.545 OA
ATOM     39  O   UNL     1      -7.973  -6.291   0.556  1.00  0.00    -0.545 OA
ENDBRANCH  35  37
ENDBRANCH  30  31
ENDBRANCH  29  30
ENDBRANCH  25  29
ENDBRANCH  15  23
ENDBRANCH   6   7
ENDBRANCH   5   6
ENDBRANCH   4   5
ENDBRANCH   3   4
ENDBRANCH   2   3
ENDBRANCH   1   2
BRANCH   1  40
ATOM     40  O   UNL     1      -6.347   4.227   2.948  1.00  0.00    -0.377 OA
BRANCH  40  41
ATOM     41  C   UNL     1      -6.922   5.253   2.129  1.00  0.00     0.188 C 
BRANCH  41  42
ATOM     42  C   UNL     1      -5.899   6.120   1.165  1.00  0.00     0.188 C 
BRANCH  42  43
ATOM     43  O   UNL     1      -4.766   6.609   1.823  1.00  0.00    -0.376 OA
BRANCH  43  44
ATOM     44  C   UNL     1      -5.335   7.159   2.981  1.00  0.00     0.202 C 
BRANCH  44  45
ATOM     45  C   UNL     1      -6.810   7.839   2.793  1.00  0.00     0.261 C 
BRANCH  45  46
ATOM     46  O   UNL     1      -7.926   7.612   1.499  1.00  0.00    -0.460 OA
BRANCH  46  47
ATOM     47  C   UNL     1      -8.589   7.180   0.318  1.00  0.00     0.338 C 
ATOM     48  O   UNL     1      -9.732   7.617   0.141  1.00  0.00    -0.246 OA
BRANCH  47  49
ATOM     49  C   UNL     1      -8.145   6.186  -0.880  1.00  0.00     0.060 A 
ATOM     50  C   UNL     1      -8.964   5.193  -1.456  1.00  0.00     0.016 A 
ATOM     51  C   UNL     1      -6.920   6.201  -1.532  1.00  0.00     0.016 A 
ATOM     52  C   UNL     1      -8.381   3.986  -2.082  1.00  0.00     0.010 A 
ATOM     53  C   UNL     1      -6.321   4.974  -2.000  1.00  0.00     0.010 A 
ATOM     54  C   UNL     1      -6.990   3.739  -1.943  1.00  0.00    -0.014 A 
BRANCH  54  55
ATOM     55  C   UNL     1      -6.035   2.368  -1.186  1.00  0.00     0.031 A 
ATOM     56  C   UNL     1      -5.133   2.218  -2.763  1.00  0.00     0.074 A 
ATOM     57  C   UNL     1      -6.141   1.685   0.399  1.00  0.00     0.049 A 
ATOM     58  N   UNL     1      -5.610   1.591  -3.848  1.00  0.00    -0.248 NA
ATOM     59  C   UNL     1      -3.952   2.920  -3.276  1.00  0.00     0.031 C 
ATOM     60  C   UNL     1      -5.435   0.804   1.576  1.00  0.00     0.029 A 
ATOM     61  N   UNL     1      -7.377   1.435   1.462  1.00  0.00    -0.354 N 
ATOM     62  C   UNL     1      -4.610   1.155  -4.750  1.00  0.00     0.074 A 
ATOM     63  C   UNL     1      -3.738   2.332  -4.495  1.00  0.00     0.031 C 
ATOM     64  C   UNL     1      -6.269  -0.172   2.163  1.00  0.00     0.029 A 
ATOM     65  C   UNL     1      -7.643   0.084   1.858  1.00  0.00     0.049 A 
ATOM     66  H   UNL     1      -7.911   2.184   1.812  1.00  0.00     0.167 HD
ATOM     67  C   UNL     1      -4.377  -0.190  -5.360  1.00  0.00     0.037 A 
ATOM     68  C   UNL     1      -8.877  -0.570   1.701  1.00  0.00     0.037 A 
ATOM     69  C   UNL     1      -5.130  -1.711  -4.915  1.00  0.00     0.049 A 
ATOM     70  C   UNL     1      -9.177  -2.029   0.672  1.00  0.00     0.074 A 
ATOM     71  C   UNL     1      -4.523  -2.787  -4.216  1.00  0.00     0.029 A 
ATOM     72  N   UNL     1      -6.561  -2.176  -4.704  1.00  0.00    -0.354 N 
ATOM     73  N   UNL     1      -8.295  -2.767  -0.013  1.00  0.00    -0.248 NA
ATOM     74  C   UNL     1     -10.464  -2.705   0.319  1.00  0.00     0.031 C 
ATOM     75  C   UNL     1      -5.439  -3.793  -3.692  1.00  0.00     0.029 A 
ATOM     76  C   UNL     1      -6.748  -3.262  -3.580  1.00  0.00     0.049 A 
ATOM     77  H   UNL     1      -7.315  -1.825  -5.231  1.00  0.00     0.167 HD
ATOM     78  C   UNL     1      -8.798  -3.566  -1.258  1.00  0.00     0.074 A 
ATOM     79  C   UNL     1     -10.205  -3.612  -0.700  1.00  0.00     0.031 C 
ATOM     80  C   UNL     1      -8.196  -3.849  -2.733  1.00  0.00     0.037 A 
BRANCH  67  81
ATOM     81  C   UNL     1      -2.923  -0.309  -6.030  1.00  0.00     0.058 A 
ATOM     82  C   UNL     1      -2.096  -1.459  -5.980  1.00  0.00     0.135 A 
ATOM     83  C   UNL     1      -2.305   0.755  -6.730  1.00  0.00     0.135 A 
ATOM     84  F   UNL     1      -2.555  -2.665  -5.655  1.00  0.00    -0.206 F 
ATOM     85  C   UNL     1      -0.755  -1.497  -6.387  1.00  0.00     0.059 A 
ATOM     86  C   UNL     1      -0.957   0.749  -7.155  1.00  0.00     0.059 A 
ATOM     87  F   UNL     1      -3.025   1.826  -7.103  1.00  0.00    -0.206 F 
ATOM     88  C   UNL     1      -0.182  -0.385  -6.968  1.00  0.00     0.060 A 
BRANCH  88  89
ATOM     89  S   UNL     1       1.483  -0.546  -7.652  1.00  0.00     0.124 S 
ATOM     90  O   UNL     1       2.293  -0.782  -6.461  1.00  0.00    -0.237 OA
ATOM     91  O   UNL     1       1.333  -1.689  -8.548  1.00  0.00    -0.237 OA
ATOM     92  O   UNL     1       1.704   0.736  -8.313  1.00  0.00    -0.744 OA
ENDBRANCH  88  89
ENDBRANCH  67  81
BRANCH  68  93
ATOM     93  C   UNL     1      -9.897   0.558   2.364  1.00  0.00     0.058 A 
ATOM     94  C   UNL     1      -9.484   1.006   3.676  1.00  0.00     0.135 A 
ATOM     95  C   UNL     1     -10.692   1.549   1.718  1.00  0.00     0.135 A 
ATOM     96  F   UNL     1      -8.736   0.185   4.433  1.00  0.00    -0.206 F 
ATOM     97  C   UNL     1      -9.635   2.323   4.189  1.00  0.00     0.059 A 
ATOM     98  C   UNL     1     -10.915   2.882   2.257  1.00  0.00     0.059 A 
ATOM     99  F   UNL     1     -11.178   1.328   0.487  1.00  0.00    -0.206 F 
ATOM    100  C   UNL     1     -10.338   3.275   3.472  1.00  0.00     0.060 A 
BRANCH 100 101
ATOM    101  S   UNL     1     -10.354   5.011   4.088  1.00  0.00     0.124 S 
ATOM    102  O   UNL     1     -11.424   4.979   5.078  1.00  0.00    -0.237 OA
ATOM    103  O   UNL     1      -9.015   5.195   4.644  1.00  0.00    -0.237 OA
ATOM    104  O   UNL     1     -10.627   5.785   2.884  1.00  0.00    -0.744 OA
ENDBRANCH 100 101
ENDBRANCH  68  93
BRANCH  80 105
ATOM    105  C   UNL     1      -8.841  -4.837  -3.743  1.00  0.00     0.058 A 
ATOM    106  C   UNL     1      -9.898  -5.700  -3.460  1.00  0.00     0.135 A 
ATOM    107  C   UNL     1      -8.280  -5.037  -5.052  1.00  0.00     0.135 A 
ATOM    108  F   UNL     1     -10.376  -5.838  -2.220  1.00  0.00    -0.206 F 
ATOM    109  C   UNL     1     -10.444  -6.557  -4.426  1.00  0.00     0.059 A 
ATOM    110  C   UNL     1      -8.767  -5.909  -6.001  1.00  0.00     0.059 A 
ATOM    111  F   UNL     1      -7.171  -4.451  -5.512  1.00  0.00    -0.206 F 
ATOM    112  C   UNL     1      -9.874  -6.648  -5.693  1.00  0.00     0.060 A 
BRANCH 112 113
ATOM    113  S   UNL     1     -10.489  -7.818  -6.898  1.00  0.00     0.124 S 
ATOM    114  O   UNL     1     -10.513  -9.053  -6.122  1.00  0.00    -0.237 OA
ATOM    115  O   UNL     1     -11.786  -7.238  -7.226  1.00  0.00    -0.237 OA
ATOM    116  O   UNL     1      -9.495  -7.773  -7.966  1.00  0.00    -0.744 OA
ENDBRANCH 112 113
ENDBRANCH  80 105
ENDBRANCH  54  55
ENDBRANCH  47  49
ENDBRANCH  46  47
ENDBRANCH  45  46
ENDBRANCH  44  45
ENDBRANCH  43  44
ENDBRANCH  42  43
ENDBRANCH  41  42
ENDBRANCH  40  41
ENDBRANCH   1  40
TORSDOF 28
