REMARK SMILES CC1=NN(c2ccc(C(=O)OCCOCCOCCOCCOC(=O)c3ccc(-c4c5nc(c(-c6c(F)cc(S(=O)(=O)[O-])cc6F)c6ccc([nH]6)c(-c6c(F)cc(S(=O)(=O)[O-])cc6F)c6nc(c(-c7c(F)cc(S(=O)(=O)[O-])cc7F)c7ccc4[nH]7)C=C6)C=C5)cc3)cc2)C(=O)/C1=C\c1ccc(N2CCCC2)cc1
REMARK SMILES IDX 17 1 16 2 15 3 14 4 13 5 12 6 11 7 9 8 10 9 8 10 5 11 6 12
REMARK SMILES IDX 93 13 7 14 92 15 4 16 1 17 2 18 3 19 96 20 94 21 97 22 95 23
REMARK SMILES IDX 98 24 99 25 108 26 100 27 107 28 101 29 102 30 103 31 106 32
REMARK SMILES IDX 104 33 105 34 18 35 19 36 20 37 21 38 22 39 23 40 24 41
REMARK SMILES IDX 25 42 26 43 27 44 91 45 28 46 90 47 29 48 30 49 31 50 84 51
REMARK SMILES IDX 32 52 89 53 83 54 85 55 33 56 88 57 82 58 81 59 34 61 68 62
REMARK SMILES IDX 47 63 67 64 48 65 51 66 66 67 86 68 49 69 50 70 65 72 87 73
REMARK SMILES IDX 52 74 35 75 36 76 45 77 37 78 38 79 44 80 46 81 39 82 40 83
REMARK SMILES IDX 41 84 42 85 43 86 69 87 70 88 79 89 71 90 72 91 78 92 80 93
REMARK SMILES IDX 73 94 74 95 75 96 76 97 77 98 53 99 54 100 63 101 55 102
REMARK SMILES IDX 56 103 62 104 64 105 57 106 58 107 59 108 60 109 61 110
REMARK H PARENT 85 60 51 71
REMARK Flexibility Score: inf
ROOT
ATOM      1  O   UNL     1       2.416   7.605  -2.358  1.00  0.00    -0.377 OA
ENDROOT
BRANCH   1   2
ATOM      2  C   UNL     1       1.720   7.396  -1.140  1.00  0.00     0.188 C 
BRANCH   2   3
ATOM      3  C   UNL     1       2.265   8.053   0.145  1.00  0.00     0.188 C 
BRANCH   3   4
ATOM      4  O   UNL     1       3.308   8.987  -0.080  1.00  0.00    -0.376 OA
BRANCH   4   5
ATOM      5  C   UNL     1       4.629   8.646   0.300  1.00  0.00     0.202 C 
BRANCH   5   6
ATOM      6  C   UNL     1       5.295   7.441  -0.375  1.00  0.00     0.261 C 
BRANCH   6   7
ATOM      7  O   UNL     1       4.503   6.253  -0.446  1.00  0.00    -0.460 OA
BRANCH   7   8
ATOM      8  C   UNL     1       4.236   5.609   0.710  1.00  0.00     0.338 C 
ATOM      9  O   UNL     1       4.607   5.913   1.829  1.00  0.00    -0.246 OA
BRANCH   8  10
ATOM     10  C   UNL     1       3.228   4.568   0.405  1.00  0.00     0.060 A 
ATOM     11  C   UNL     1       1.367   2.552  -0.093  1.00  0.00     0.069 A 
ATOM     12  C   UNL     1       1.155   3.434   0.970  1.00  0.00     0.029 A 
ATOM     13  C   UNL     1       2.444   2.762  -0.967  1.00  0.00     0.029 A 
ATOM     14  C   UNL     1       2.113   4.417   1.245  1.00  0.00     0.018 A 
ATOM     15  C   UNL     1       3.362   3.778  -0.735  1.00  0.00     0.018 A 
BRANCH  11  16
ATOM     16  N   UNL     1       0.638   1.356  -0.188  1.00  0.00    -0.196 N 
ATOM     17  C   UNL     1      -2.429  -0.494   0.122  1.00  0.00     0.069 C 
ATOM     18  C   UNL     1      -1.038   0.033   0.005  1.00  0.00     0.071 C 
ATOM     19  N   UNL     1      -0.721   1.301   0.093  1.00  0.00    -0.169 NA
ATOM     20  C   UNL     1       0.143  -0.828  -0.196  1.00  0.00     0.065 C 
ATOM     21  C   UNL     1       1.250   0.120  -0.424  1.00  0.00     0.280 C 
ATOM     22  C   UNL     1       0.228  -2.157  -0.043  1.00  0.00     0.024 C 
ATOM     23  O   UNL     1       2.410  -0.150  -0.684  1.00  0.00    -0.267 OA
BRANCH  22  24
ATOM     24  C   UNL     1       1.518  -2.855   0.028  1.00  0.00    -0.025 A 
ATOM     25  C   UNL     1       1.984  -3.632  -1.029  1.00  0.00     0.010 A 
ATOM     26  C   UNL     1       2.331  -2.694   1.156  1.00  0.00     0.010 A 
ATOM     27  C   UNL     1       3.256  -4.222  -0.960  1.00  0.00     0.026 A 
ATOM     28  C   UNL     1       3.593  -3.296   1.217  1.00  0.00     0.026 A 
ATOM     29  C   UNL     1       4.083  -4.073   0.164  1.00  0.00     0.037 A 
BRANCH  29  30
ATOM     30  N   UNL     1       5.338  -4.643   0.192  1.00  0.00    -0.372 N 
ATOM     31  C   UNL     1       5.984  -5.144   1.400  1.00  0.00     0.116 C 
ATOM     32  C   UNL     1       6.320  -4.245  -0.820  1.00  0.00     0.116 C 
ATOM     33  C   UNL     1       7.432  -4.692   1.253  1.00  0.00     0.023 C 
ATOM     34  C   UNL     1       7.653  -4.734  -0.251  1.00  0.00     0.023 C 
ENDBRANCH  29  30
ENDBRANCH  22  24
ENDBRANCH  11  16
ENDBRANCH   8  10
ENDBRANCH   7   8
ENDBRANCH   6   7
ENDBRANCH   5   6
ENDBRANCH   4   5
ENDBRANCH   3   4
ENDBRANCH   2   3
ENDBRANCH   1   2
BRANCH   1  35
ATOM     35  C   UNL     1       2.774   8.925  -2.758  1.00  0.00     0.188 C 
BRANCH  35  36
ATOM     36  C   UNL     1       2.042  10.175  -2.212  1.00  0.00     0.188 C 
BRANCH  36  37
ATOM     37  O   UNL     1       0.845   9.905  -1.498  1.00  0.00    -0.376 OA
BRANCH  37  38
ATOM     38  C   UNL     1      -0.376  10.247  -2.128  1.00  0.00     0.202 C 
BRANCH  38  39
ATOM     39  C   UNL     1      -0.735   9.439  -3.382  1.00  0.00     0.261 C 
BRANCH  39  40
ATOM     40  O   UNL     1       0.232   9.463  -4.441  1.00  0.00    -0.460 OA
BRANCH  40  41
ATOM     41  C   UNL     1       0.486  10.656  -5.023  1.00  0.00     0.338 C 
ATOM     42  O   UNL     1      -0.025  11.728  -4.754  1.00  0.00    -0.246 OA
BRANCH  41  43
ATOM     43  C   UNL     1       1.638  10.470  -5.929  1.00  0.00     0.060 A 
ATOM     44  C   UNL     1       2.811  11.204  -5.710  1.00  0.00     0.016 A 
ATOM     45  C   UNL     1       1.560   9.554  -6.981  1.00  0.00     0.016 A 
ATOM     46  C   UNL     1       3.901  11.045  -6.566  1.00  0.00     0.010 A 
ATOM     47  C   UNL     1       2.644   9.413  -7.849  1.00  0.00     0.010 A 
ATOM     48  C   UNL     1       3.807  10.180  -7.665  1.00  0.00    -0.014 A 
BRANCH  48  49
ATOM     49  C   UNL     1       4.833  10.225  -8.736  1.00  0.00     0.031 A 
ATOM     50  C   UNL     1       4.538  11.046  -9.963  1.00  0.00     0.074 A 
ATOM     51  C   UNL     1       6.000   9.567  -8.622  1.00  0.00     0.049 A 
ATOM     52  N   UNL     1       5.236  11.185 -11.059  1.00  0.00    -0.248 NA
ATOM     53  C   UNL     1       3.280  11.814  -9.950  1.00  0.00     0.031 C 
ATOM     54  C   UNL     1       6.420   8.779  -7.465  1.00  0.00     0.029 A 
ATOM     55  N   UNL     1       7.047   9.453  -9.504  1.00  0.00    -0.354 N 
ATOM     56  C   UNL     1       4.508  12.055 -11.862  1.00  0.00     0.074 A 
ATOM     57  C   UNL     1       3.294  12.380 -11.147  1.00  0.00     0.031 C 
ATOM     58  C   UNL     1       7.634   8.253  -7.713  1.00  0.00     0.029 A 
ATOM     59  C   UNL     1       8.060   8.637  -9.058  1.00  0.00     0.049 A 
ATOM     60  H   UNL     1       7.071   9.913 -10.374  1.00  0.00     0.167 HD
ATOM     61  C   UNL     1       4.828  12.549 -13.081  1.00  0.00     0.037 A 
ATOM     62  C   UNL     1       9.186   8.230  -9.678  1.00  0.00     0.037 A 
ATOM     63  C   UNL     1       6.033  12.214 -13.793  1.00  0.00     0.049 A 
ATOM     64  C   UNL     1       9.473   8.717 -11.079  1.00  0.00     0.074 A 
ATOM     65  C   UNL     1       6.446  12.652 -15.039  1.00  0.00     0.029 A 
ATOM     66  N   UNL     1       7.017  11.357 -13.323  1.00  0.00    -0.354 N 
ATOM     67  N   UNL     1       8.780   9.545 -11.826  1.00  0.00    -0.248 NA
ATOM     68  C   UNL     1      10.697   8.214 -11.721  1.00  0.00     0.031 C 
ATOM     69  C   UNL     1       7.656  12.022 -15.343  1.00  0.00     0.029 A 
ATOM     70  C   UNL     1       8.028  11.238 -14.262  1.00  0.00     0.049 A 
ATOM     71  H   UNL     1       7.000  10.900 -12.451  1.00  0.00     0.167 HD
ATOM     72  C   UNL     1       9.505   9.692 -13.006  1.00  0.00     0.074 A 
ATOM     73  C   UNL     1      10.692   8.875 -12.870  1.00  0.00     0.031 C 
ATOM     74  C   UNL     1       9.216  10.437 -14.102  1.00  0.00     0.037 A 
BRANCH  61  75
ATOM     75  C   UNL     1       3.854  13.495 -13.728  1.00  0.00     0.058 A 
ATOM     76  C   UNL     1       3.665  14.800 -13.245  1.00  0.00     0.135 A 
ATOM     77  C   UNL     1       3.133  13.108 -14.868  1.00  0.00     0.135 A 
ATOM     78  F   UNL     1       4.311  15.214 -12.143  1.00  0.00    -0.206 F 
ATOM     79  C   UNL     1       2.782  15.682 -13.859  1.00  0.00     0.059 A 
ATOM     80  C   UNL     1       2.266  13.983 -15.517  1.00  0.00     0.059 A 
ATOM     81  F   UNL     1       3.271  11.870 -15.368  1.00  0.00    -0.206 F 
ATOM     82  C   UNL     1       2.091  15.265 -14.998  1.00  0.00     0.060 A 
BRANCH  82  83
ATOM     83  S   UNL     1       0.967  16.431 -15.796  1.00  0.00     0.124 S 
ATOM     84  O   UNL     1      -0.119  16.503 -14.823  1.00  0.00    -0.237 OA
ATOM     85  O   UNL     1       1.793  17.629 -15.912  1.00  0.00    -0.237 OA
ATOM     86  O   UNL     1       0.635  15.777 -17.057  1.00  0.00    -0.744 OA
ENDBRANCH  82  83
ENDBRANCH  61  75
BRANCH  62  87
ATOM     87  C   UNL     1      10.131   7.298  -8.999  1.00  0.00     0.058 A 
ATOM     88  C   UNL     1      11.427   7.707  -8.652  1.00  0.00     0.135 A 
ATOM     89  C   UNL     1       9.773   5.968  -8.726  1.00  0.00     0.135 A 
ATOM     90  F   UNL     1      11.824   8.964  -8.903  1.00  0.00    -0.206 F 
ATOM     91  C   UNL     1      12.345   6.826  -8.087  1.00  0.00     0.059 A 
ATOM     92  C   UNL     1      10.663   5.077  -8.133  1.00  0.00     0.059 A 
ATOM     93  F   UNL     1       8.544   5.525  -9.031  1.00  0.00    -0.206 F 
ATOM     94  C   UNL     1      11.953   5.511  -7.833  1.00  0.00     0.060 A 
BRANCH  94  95
ATOM     95  S   UNL     1      13.148   4.380  -7.088  1.00  0.00     0.124 S 
ATOM     96  O   UNL     1      14.068   4.151  -8.196  1.00  0.00    -0.237 OA
ATOM     97  O   UNL     1      13.668   5.173  -5.979  1.00  0.00    -0.237 OA
ATOM     98  O   UNL     1      12.329   3.234  -6.701  1.00  0.00    -0.744 OA
ENDBRANCH  94  95
ENDBRANCH  62  87
BRANCH  74  99
ATOM     99  C   UNL     1      10.223  10.454 -15.222  1.00  0.00     0.058 A 
ATOM    100  C   UNL     1      10.429   9.344 -16.055  1.00  0.00     0.135 A 
ATOM    101  C   UNL     1      10.949  11.624 -15.502  1.00  0.00     0.135 A 
ATOM    102  F   UNL     1       9.764   8.199 -15.831  1.00  0.00    -0.206 F 
ATOM    103  C   UNL     1      11.338   9.383 -17.107  1.00  0.00     0.059 A 
ATOM    104  C   UNL     1      11.840  11.696 -16.568  1.00  0.00     0.059 A 
ATOM    105  F   UNL     1      10.782  12.721 -14.746  1.00  0.00    -0.206 F 
ATOM    106  C   UNL     1      12.037  10.566 -17.358  1.00  0.00     0.060 A 
BRANCH 106 107
ATOM    107  S   UNL     1      13.186  10.613 -18.750  1.00  0.00     0.124 S 
ATOM    108  O   UNL     1      14.285   9.791 -18.253  1.00  0.00    -0.237 OA
ATOM    109  O   UNL     1      12.395  10.028 -19.828  1.00  0.00    -0.237 OA
ATOM    110  O   UNL     1      13.483  12.034 -18.899  1.00  0.00    -0.744 OA
ENDBRANCH 106 107
ENDBRANCH  74  99
ENDBRANCH  48  49
ENDBRANCH  41  43
ENDBRANCH  40  41
ENDBRANCH  39  40
ENDBRANCH  38  39
ENDBRANCH  37  38
ENDBRANCH  36  37
ENDBRANCH  35  36
ENDBRANCH   1  35
TORSDOF 26
