REMARK SMILES CCCn1cc(S(=O)(=O)N[C@H]2C=C[C@@H](C(=O)OCCOCCOCCOCCOC(=O)c3ccc(-c4c5nc(c(-c6c(F)cc(S(=O)(=O)[O-])cc6F)c6ccc([nH]6)c(-c6c(F)cc(S(=O)(=O)[O-])cc6F)c6nc(c(-c7c(F)cc(S(=O)(=O)[O-])cc7F)c7ccc4[nH]7)C=C6)C=C5)cc3)C2)nc1C
REMARK SMILES IDX 22 1 21 2 20 3 19 4 18 5 17 6 15 7 16 8 14 9 11 10 12 11
REMARK SMILES IDX 98 12 13 13 10 14 7 16 8 17 9 18 6 19 4 20 5 21 100 22 99 23
REMARK SMILES IDX 101 24 3 25 2 26 1 27 23 28 24 29 25 30 26 31 27 32 28 33
REMARK SMILES IDX 29 34 30 35 31 36 32 37 33 38 97 39 34 40 96 41 35 42 36 43
REMARK SMILES IDX 37 44 90 45 38 46 95 47 89 48 91 49 39 50 94 51 88 52 87 53
REMARK SMILES IDX 40 55 74 56 53 57 73 58 54 59 57 60 72 61 92 62 55 63 56 64
REMARK SMILES IDX 71 66 93 67 58 68 41 69 42 70 51 71 43 72 44 73 50 74 52 75
REMARK SMILES IDX 45 76 46 77 47 78 48 79 49 80 75 81 76 82 85 83 77 84 78 85
REMARK SMILES IDX 84 86 86 87 79 88 80 89 81 90 82 91 83 92 59 93 60 94 69 95
REMARK SMILES IDX 61 96 62 97 68 98 70 99 63 100 64 101 65 102 66 103 67 104
REMARK H PARENT 10 15 91 54 57 65
REMARK Flexibility Score: inf
ROOT
ATOM      1  C   UNL     1       4.703  -9.350   2.125  1.00  0.00     0.188 C 
ENDROOT
BRANCH   1   2
ATOM      2  C   UNL     1       5.985  -8.633   2.589  1.00  0.00     0.188 C 
BRANCH   2   3
ATOM      3  O   UNL     1       6.206  -8.320   3.961  1.00  0.00    -0.376 OA
BRANCH   3   4
ATOM      4  C   UNL     1       5.139  -7.823   4.760  1.00  0.00     0.202 C 
BRANCH   4   5
ATOM      5  C   UNL     1       4.316  -6.619   4.279  1.00  0.00     0.261 C 
BRANCH   5   6
ATOM      6  O   UNL     1       4.023  -6.641   2.876  1.00  0.00    -0.463 OA
BRANCH   6   7
ATOM      7  C   UNL     1       4.487  -5.612   2.133  1.00  0.00     0.312 C 
ATOM      8  O   UNL     1       5.075  -4.633   2.585  1.00  0.00    -0.252 OA
BRANCH   7   9
ATOM      9  C   UNL     1       4.371  -5.867   0.629  1.00  0.00     0.123 C 
ATOM     10  C   UNL     1       2.561  -6.365  -0.976  1.00  0.00     0.093 C 
ATOM     11  C   UNL     1       2.881  -4.918  -0.924  1.00  0.00    -0.011 C 
ATOM     12  C   UNL     1       3.441  -6.973   0.104  1.00  0.00     0.043 C 
ATOM     13  C   UNL     1       3.859  -4.641  -0.058  1.00  0.00    -0.015 C 
BRANCH  10  14
ATOM     14  N   UNL     1       1.151  -6.718  -0.835  1.00  0.00    -0.203 NA
ATOM     15  H   UNL     1       0.696  -6.392  -1.687  1.00  0.00     0.142 HD
BRANCH  14  16
ATOM     16  S   UNL     1       0.179  -6.185   0.443  1.00  0.00     0.260 S 
ATOM     17  O   UNL     1       0.968  -6.160   1.657  1.00  0.00    -0.205 OA
ATOM     18  O   UNL     1      -1.054  -6.925   0.331  1.00  0.00    -0.205 OA
BRANCH  16  19
ATOM     19  C   UNL     1      -0.257  -4.533   0.136  1.00  0.00     0.188 A 
ATOM     20  N   UNL     1      -0.161  -2.563  -0.784  1.00  0.00    -0.334 N 
ATOM     21  C   UNL     1      -0.141  -3.908  -1.085  1.00  0.00     0.129 A 
ATOM     22  C   UNL     1      -0.687  -2.455   0.483  1.00  0.00     0.107 A 
ATOM     23  N   UNL     1      -0.663  -3.630   1.087  1.00  0.00    -0.221 NA
ATOM     24  C   UNL     1      -1.220  -1.240   1.143  1.00  0.00     0.088 C 
BRANCH  20  25
ATOM     25  C   UNL     1       0.505  -1.625  -1.669  1.00  0.00     0.123 C 
BRANCH  25  26
ATOM     26  C   UNL     1       0.478  -0.126  -1.402  1.00  0.00     0.018 C 
ATOM     27  C   UNL     1       1.384   0.306  -0.258  1.00  0.00     0.006 C 
ENDBRANCH  25  26
ENDBRANCH  20  25
ENDBRANCH  16  19
ENDBRANCH  14  16
ENDBRANCH  10  14
ENDBRANCH   7   9
ENDBRANCH   6   7
ENDBRANCH   5   6
ENDBRANCH   4   5
ENDBRANCH   3   4
ENDBRANCH   2   3
ENDBRANCH   1   2
BRANCH   1  28
ATOM     28  O   UNL     1       3.632  -9.342   3.042  1.00  0.00    -0.377 OA
BRANCH  28  29
ATOM     29  C   UNL     1       3.402 -10.570   3.725  1.00  0.00     0.188 C 
BRANCH  29  30
ATOM     30  C   UNL     1       4.640 -11.344   4.246  1.00  0.00     0.188 C 
BRANCH  30  31
ATOM     31  O   UNL     1       5.757 -11.394   3.356  1.00  0.00    -0.376 OA
BRANCH  31  32
ATOM     32  C   UNL     1       6.020 -12.558   2.582  1.00  0.00     0.202 C 
BRANCH  32  33
ATOM     33  C   UNL     1       5.057 -12.890   1.437  1.00  0.00     0.261 C 
BRANCH  33  34
ATOM     34  O   UNL     1       3.690 -12.848   1.798  1.00  0.00    -0.460 OA
BRANCH  34  35
ATOM     35  C   UNL     1       3.328 -13.719   2.753  1.00  0.00     0.338 C 
ATOM     36  O   UNL     1       4.069 -14.434   3.422  1.00  0.00    -0.246 OA
BRANCH  35  37
ATOM     37  C   UNL     1       1.872 -13.774   2.812  1.00  0.00     0.060 A 
ATOM     38  C   UNL     1       1.345 -14.630   3.777  1.00  0.00     0.016 A 
ATOM     39  C   UNL     1       1.135 -13.324   1.704  1.00  0.00     0.016 A 
ATOM     40  C   UNL     1       0.196 -15.300   3.454  1.00  0.00     0.010 A 
ATOM     41  C   UNL     1      -0.007 -14.003   1.379  1.00  0.00     0.010 A 
ATOM     42  C   UNL     1      -0.381 -15.058   2.203  1.00  0.00    -0.014 A 
BRANCH  42  43
ATOM     43  C   UNL     1      -1.437 -15.944   1.788  1.00  0.00     0.031 A 
ATOM     44  C   UNL     1      -2.696 -15.672   2.501  1.00  0.00     0.074 A 
ATOM     45  C   UNL     1      -1.260 -16.859   0.819  1.00  0.00     0.049 A 
ATOM     46  N   UNL     1      -3.245 -16.386   3.424  1.00  0.00    -0.248 NA
ATOM     47  C   UNL     1      -3.288 -14.337   2.327  1.00  0.00     0.031 C 
ATOM     48  C   UNL     1      -0.138 -17.006  -0.112  1.00  0.00     0.029 A 
ATOM     49  N   UNL     1      -2.126 -17.813   0.402  1.00  0.00    -0.354 N 
ATOM     50  C   UNL     1      -4.402 -15.698   3.763  1.00  0.00     0.074 A 
ATOM     51  C   UNL     1      -4.252 -14.364   3.246  1.00  0.00     0.031 C 
ATOM     52  C   UNL     1      -0.507 -17.831  -1.121  1.00  0.00     0.029 A 
ATOM     53  C   UNL     1      -1.831 -18.360  -0.839  1.00  0.00     0.049 A 
ATOM     54  H   UNL     1      -2.903 -18.095   0.936  1.00  0.00     0.167 HD
ATOM     55  C   UNL     1      -5.511 -16.367   4.173  1.00  0.00     0.037 A 
ATOM     56  C   UNL     1      -2.683 -19.106  -1.589  1.00  0.00     0.037 A 
ATOM     57  C   UNL     1      -5.183 -17.693   4.636  1.00  0.00     0.049 A 
ATOM     58  C   UNL     1      -3.735 -19.620  -0.663  1.00  0.00     0.074 A 
ATOM     59  C   UNL     1      -4.345 -18.191   5.617  1.00  0.00     0.029 A 
ATOM     60  N   UNL     1      -5.449 -18.754   3.802  1.00  0.00    -0.354 N 
ATOM     61  N   UNL     1      -3.507 -20.489   0.285  1.00  0.00    -0.248 NA
ATOM     62  C   UNL     1      -4.934 -18.811  -0.485  1.00  0.00     0.031 C 
ATOM     63  C   UNL     1      -3.776 -19.373   5.058  1.00  0.00     0.029 A 
ATOM     64  C   UNL     1      -4.340 -19.564   3.797  1.00  0.00     0.049 A 
ATOM     65  H   UNL     1      -6.282 -18.904   3.300  1.00  0.00     0.167 HD
ATOM     66  C   UNL     1      -4.274 -20.059   1.361  1.00  0.00     0.074 A 
ATOM     67  C   UNL     1      -5.189 -19.067   0.802  1.00  0.00     0.031 C 
ATOM     68  C   UNL     1      -3.906 -20.330   2.649  1.00  0.00     0.037 A 
BRANCH  55  69
ATOM     69  C   UNL     1      -6.905 -15.953   3.772  1.00  0.00     0.058 A 
ATOM     70  C   UNL     1      -8.007 -16.595   4.367  1.00  0.00     0.135 A 
ATOM     71  C   UNL     1      -7.202 -15.153   2.642  1.00  0.00     0.135 A 
ATOM     72  F   UNL     1      -7.838 -17.390   5.435  1.00  0.00    -0.206 F 
ATOM     73  C   UNL     1      -9.293 -16.506   3.837  1.00  0.00     0.059 A 
ATOM     74  C   UNL     1      -8.484 -15.001   2.136  1.00  0.00     0.059 A 
ATOM     75  F   UNL     1      -6.256 -14.561   1.904  1.00  0.00    -0.206 F 
ATOM     76  C   UNL     1      -9.517 -15.717   2.711  1.00  0.00     0.060 A 
BRANCH  76  77
ATOM     77  S   UNL     1     -11.148 -15.688   1.956  1.00  0.00     0.124 S 
ATOM     78  O   UNL     1     -11.235 -17.036   1.407  1.00  0.00    -0.237 OA
ATOM     79  O   UNL     1     -12.005 -15.404   3.102  1.00  0.00    -0.237 OA
ATOM     80  O   UNL     1     -11.045 -14.611   0.976  1.00  0.00    -0.744 OA
ENDBRANCH  76  77
ENDBRANCH  55  69
BRANCH  56  81
ATOM     81  C   UNL     1      -2.879 -19.063  -3.065  1.00  0.00     0.058 A 
ATOM     82  C   UNL     1      -3.720 -19.994  -3.703  1.00  0.00     0.135 A 
ATOM     83  C   UNL     1      -2.497 -17.947  -3.837  1.00  0.00     0.135 A 
ATOM     84  F   UNL     1      -4.142 -21.084  -3.043  1.00  0.00    -0.206 F 
ATOM     85  C   UNL     1      -4.214 -19.793  -4.997  1.00  0.00     0.059 A 
ATOM     86  C   UNL     1      -2.965 -17.732  -5.132  1.00  0.00     0.059 A 
ATOM     87  F   UNL     1      -1.731 -16.973  -3.324  1.00  0.00    -0.206 F 
ATOM     88  C   UNL     1      -3.851 -18.642  -5.694  1.00  0.00     0.060 A 
BRANCH  88  89
ATOM     89  S   UNL     1      -4.644 -18.270  -7.276  1.00  0.00     0.124 S 
ATOM     90  O   UNL     1      -4.054 -19.275  -8.153  1.00  0.00    -0.237 OA
ATOM     91  O   UNL     1      -6.058 -18.448  -6.961  1.00  0.00    -0.237 OA
ATOM     92  O   UNL     1      -4.238 -16.893  -7.543  1.00  0.00    -0.744 OA
ENDBRANCH  88  89
ENDBRANCH  56  81
BRANCH  68  93
ATOM     93  C   UNL     1      -2.810 -21.342   2.876  1.00  0.00     0.058 A 
ATOM     94  C   UNL     1      -1.482 -21.194   2.433  1.00  0.00     0.135 A 
ATOM     95  C   UNL     1      -3.087 -22.446   3.696  1.00  0.00     0.135 A 
ATOM     96  F   UNL     1      -1.104 -20.112   1.739  1.00  0.00    -0.206 F 
ATOM     97  C   UNL     1      -0.492 -22.129   2.745  1.00  0.00     0.059 A 
ATOM     98  C   UNL     1      -2.108 -23.373   4.048  1.00  0.00     0.059 A 
ATOM     99  F   UNL     1      -4.318 -22.612   4.208  1.00  0.00    -0.206 F 
ATOM    100  C   UNL     1      -0.816 -23.218   3.553  1.00  0.00     0.060 A 
BRANCH 100 101
ATOM    101  S   UNL     1       0.477 -24.396   4.005  1.00  0.00     0.124 S 
ATOM    102  O   UNL     1       0.711 -25.093   2.744  1.00  0.00    -0.237 OA
ATOM    103  O   UNL     1       1.557 -23.526   4.459  1.00  0.00    -0.237 OA
ATOM    104  O   UNL     1      -0.146 -25.200   5.054  1.00  0.00    -0.744 OA
ENDBRANCH 100 101
ENDBRANCH  68  93
ENDBRANCH  42  43
ENDBRANCH  35  37
ENDBRANCH  34  35
ENDBRANCH  33  34
ENDBRANCH  32  33
ENDBRANCH  31  32
ENDBRANCH  30  31
ENDBRANCH  29  30
ENDBRANCH  28  29
ENDBRANCH   1  28
TORSDOF 28
