REMARK SMILES CNc1nc(C(=O)N2C[C@@H](C(=O)OCCOCCOCCOCCOC(=O)c3ccc(-c4c5nc(c(-c6c(F)cc(S(=O)(=O)[O-])cc6F)c6ccc([nH]6)c(-c6c(F)cc(S(=O)(=O)[O-])cc6F)c6nc(c(-c7c(F)cc(S(=O)(=O)[O-])cc7F)c7ccc4[nH]7)C=C6)C=C5)cc3)[C@H](c3ccccc3C)C2)cs1
REMARK SMILES IDX 19 1 18 2 17 3 16 4 15 5 14 6 13 7 11 8 12 9 10 10 8 11 9 12
REMARK SMILES IDX 102 13 94 14 6 15 7 16 5 17 3 18 4 19 104 20 103 21 2 22
REMARK SMILES IDX 1 23 95 25 96 26 100 27 97 28 99 29 101 30 98 31 20 32 21 33
REMARK SMILES IDX 22 34 23 35 24 36 25 37 26 38 27 39 28 40 29 41 93 42 30 43
REMARK SMILES IDX 92 44 31 45 32 46 33 47 86 48 34 49 91 50 85 51 87 52 35 53
REMARK SMILES IDX 90 54 84 55 83 56 36 58 70 59 49 60 69 61 50 62 53 63 68 64
REMARK SMILES IDX 88 65 51 66 52 67 67 69 89 70 54 71 37 72 38 73 47 74 39 75
REMARK SMILES IDX 40 76 46 77 48 78 41 79 42 80 43 81 44 82 45 83 71 84 72 85
REMARK SMILES IDX 81 86 73 87 74 88 80 89 82 90 75 91 76 92 77 93 78 94 79 95
REMARK SMILES IDX 55 96 56 97 65 98 57 99 58 100 64 101 66 102 59 103 60 104
REMARK SMILES IDX 61 105 62 106 63 107
REMARK H PARENT 2 24 87 57 53 68
REMARK Flexibility Score: inf
ROOT
ATOM      1  O   UNL     1      -3.233   5.212  -1.205  1.00  0.00    -0.377 OA
ENDROOT
BRANCH   1   2
ATOM      2  C   UNL     1      -3.228   3.801  -1.198  1.00  0.00     0.188 C 
BRANCH   2   3
ATOM      3  C   UNL     1      -3.767   2.944  -2.345  1.00  0.00     0.188 C 
BRANCH   3   4
ATOM      4  O   UNL     1      -5.037   3.240  -2.907  1.00  0.00    -0.376 OA
BRANCH   4   5
ATOM      5  C   UNL     1      -6.156   3.498  -2.060  1.00  0.00     0.202 C 
BRANCH   5   6
ATOM      6  C   UNL     1      -6.604   2.374  -1.134  1.00  0.00     0.261 C 
BRANCH   6   7
ATOM      7  O   UNL     1      -5.822   2.419   0.076  1.00  0.00    -0.463 OA
BRANCH   7   8
ATOM      8  C   UNL     1      -5.170   1.288   0.407  1.00  0.00     0.311 C 
ATOM      9  O   UNL     1      -5.283   0.232  -0.207  1.00  0.00    -0.252 OA
BRANCH   8  10
ATOM     10  C   UNL     1      -4.151   1.494   1.508  1.00  0.00     0.128 C 
ATOM     11  N   UNL     1      -3.436   0.308   3.387  1.00  0.00    -0.336 N 
ATOM     12  C   UNL     1      -3.890   0.098   2.044  1.00  0.00     0.136 C 
ATOM     13  C   UNL     1      -4.186   1.405   3.968  1.00  0.00     0.129 C 
ATOM     14  C   UNL     1      -4.513   2.350   2.763  1.00  0.00     0.055 C 
BRANCH  11  15
ATOM     15  C   UNL     1      -2.631  -0.571   4.086  1.00  0.00     0.273 C 
ATOM     16  O   UNL     1      -2.659  -0.663   5.310  1.00  0.00    -0.267 OA
BRANCH  15  17
ATOM     17  C   UNL     1      -1.710  -1.382   3.270  1.00  0.00     0.141 A 
ATOM     18  C   UNL     1      -0.236  -1.719   1.622  1.00  0.00     0.183 A 
ATOM     19  N   UNL     1      -1.028  -0.835   2.177  1.00  0.00    -0.215 NA
ATOM     20  S   UNL     1      -0.300  -3.284   2.338  1.00  0.00    -0.105 S 
ATOM     21  C   UNL     1      -1.398  -2.704   3.520  1.00  0.00     0.102 A 
BRANCH  18  22
ATOM     22  N   UNL     1       0.598  -1.474   0.592  1.00  0.00    -0.365 N 
ATOM     23  C   UNL     1       0.795  -0.140   0.086  1.00  0.00     0.142 C 
ATOM     24  H   UNL     1       1.083  -2.224   0.177  1.00  0.00     0.162 HD
ENDBRANCH  18  22
ENDBRANCH  15  17
ENDBRANCH  11  15
BRANCH  14  25
ATOM     25  C   UNL     1      -3.761   3.699   2.805  1.00  0.00    -0.039 A 
ATOM     26  C   UNL     1      -2.479   3.780   3.398  1.00  0.00     0.004 A 
ATOM     27  C   UNL     1      -4.289   4.897   2.261  1.00  0.00    -0.048 A 
ATOM     28  C   UNL     1      -1.762   4.982   3.466  1.00  0.00     0.000 A 
ATOM     29  C   UNL     1      -3.518   6.082   2.275  1.00  0.00     0.004 A 
ATOM     30  C   UNL     1      -5.630   5.021   1.592  1.00  0.00     0.044 C 
ATOM     31  C   UNL     1      -2.273   6.132   2.888  1.00  0.00     0.000 A 
ENDBRANCH  14  25
ENDBRANCH   8  10
ENDBRANCH   7   8
ENDBRANCH   6   7
ENDBRANCH   5   6
ENDBRANCH   4   5
ENDBRANCH   3   4
ENDBRANCH   2   3
ENDBRANCH   1   2
BRANCH   1  32
ATOM     32  C   UNL     1      -3.791   5.967  -2.253  1.00  0.00     0.188 C 
BRANCH  32  33
ATOM     33  C   UNL     1      -2.923   6.147  -3.497  1.00  0.00     0.188 C 
BRANCH  33  34
ATOM     34  O   UNL     1      -1.597   6.659  -3.404  1.00  0.00    -0.376 OA
BRANCH  34  35
ATOM     35  C   UNL     1      -0.837   6.443  -2.228  1.00  0.00     0.202 C 
BRANCH  35  36
ATOM     36  C   UNL     1      -0.769   7.690  -1.337  1.00  0.00     0.261 C 
BRANCH  36  37
ATOM     37  O   UNL     1      -2.046   8.193  -0.907  1.00  0.00    -0.460 OA
BRANCH  37  38
ATOM     38  C   UNL     1      -2.591   9.138  -1.715  1.00  0.00     0.338 C 
ATOM     39  O   UNL     1      -2.133   9.576  -2.756  1.00  0.00    -0.246 OA
BRANCH  38  40
ATOM     40  C   UNL     1      -3.915   9.549  -1.202  1.00  0.00     0.060 A 
ATOM     41  C   UNL     1      -5.002   9.525  -2.086  1.00  0.00     0.016 A 
ATOM     42  C   UNL     1      -4.066  10.059   0.090  1.00  0.00     0.016 A 
ATOM     43  C   UNL     1      -6.229  10.064  -1.699  1.00  0.00     0.010 A 
ATOM     44  C   UNL     1      -5.294  10.613   0.471  1.00  0.00     0.010 A 
ATOM     45  C   UNL     1      -6.366  10.660  -0.438  1.00  0.00    -0.014 A 
BRANCH  45  46
ATOM     46  C   UNL     1      -7.557  11.505  -0.162  1.00  0.00     0.031 A 
ATOM     47  C   UNL     1      -7.434  12.999  -0.324  1.00  0.00     0.074 A 
ATOM     48  C   UNL     1      -8.740  10.958   0.171  1.00  0.00     0.049 A 
ATOM     49  N   UNL     1      -8.332  13.931  -0.138  1.00  0.00    -0.248 NA
ATOM     50  C   UNL     1      -6.121  13.507  -0.756  1.00  0.00     0.031 C 
ATOM     51  C   UNL     1      -8.996   9.527   0.326  1.00  0.00     0.029 A 
ATOM     52  N   UNL     1      -9.950  11.547   0.442  1.00  0.00    -0.354 N 
ATOM     53  C   UNL     1      -7.699  15.132  -0.440  1.00  0.00     0.074 A 
ATOM     54  C   UNL     1      -6.328  14.815  -0.775  1.00  0.00     0.031 C 
ATOM     55  C   UNL     1     -10.281   9.350   0.681  1.00  0.00     0.029 A 
ATOM     56  C   UNL     1     -10.932  10.654   0.802  1.00  0.00     0.049 A 
ATOM     57  H   UNL     1     -10.101  12.518   0.384  1.00  0.00     0.167 HD
ATOM     58  C   UNL     1      -8.215  16.385  -0.454  1.00  0.00     0.037 A 
ATOM     59  C   UNL     1     -12.202  10.868   1.202  1.00  0.00     0.037 A 
ATOM     60  C   UNL     1      -9.576  16.701  -0.110  1.00  0.00     0.049 A 
ATOM     61  C   UNL     1     -12.736  12.278   1.246  1.00  0.00     0.074 A 
ATOM     62  C   UNL     1     -10.193  17.940  -0.082  1.00  0.00     0.029 A 
ATOM     63  N   UNL     1     -10.533  15.771   0.269  1.00  0.00    -0.354 N 
ATOM     64  N   UNL     1     -12.129  13.402   0.945  1.00  0.00    -0.248 NA
ATOM     65  C   UNL     1     -14.133  12.448   1.674  1.00  0.00     0.031 C 
ATOM     66  C   UNL     1     -11.510  17.764   0.355  1.00  0.00     0.029 A 
ATOM     67  C   UNL     1     -11.730  16.410   0.548  1.00  0.00     0.049 A 
ATOM     68  H   UNL     1     -10.384  14.800   0.331  1.00  0.00     0.167 HD
ATOM     69  C   UNL     1     -13.076  14.407   1.122  1.00  0.00     0.074 A 
ATOM     70  C   UNL     1     -14.300  13.757   1.539  1.00  0.00     0.031 C 
ATOM     71  C   UNL     1     -12.945  15.747   0.955  1.00  0.00     0.037 A 
BRANCH  58  72
ATOM     72  C   UNL     1      -7.297  17.510  -0.847  1.00  0.00     0.058 A 
ATOM     73  C   UNL     1      -6.862  17.675  -2.173  1.00  0.00     0.135 A 
ATOM     74  C   UNL     1      -6.875  18.456   0.101  1.00  0.00     0.135 A 
ATOM     75  F   UNL     1      -7.218  16.789  -3.116  1.00  0.00    -0.206 F 
ATOM     76  C   UNL     1      -6.024  18.723  -2.539  1.00  0.00     0.059 A 
ATOM     77  C   UNL     1      -6.060  19.528  -0.248  1.00  0.00     0.059 A 
ATOM     78  F   UNL     1      -7.258  18.345   1.383  1.00  0.00    -0.206 F 
ATOM     79  C   UNL     1      -5.629  19.646  -1.569  1.00  0.00     0.060 A 
BRANCH  79  80
ATOM     80  S   UNL     1      -4.553  21.009  -2.064  1.00  0.00     0.124 S 
ATOM     81  O   UNL     1      -3.287  20.315  -2.284  1.00  0.00    -0.237 OA
ATOM     82  O   UNL     1      -5.217  21.511  -3.262  1.00  0.00    -0.237 OA
ATOM     83  O   UNL     1      -4.584  21.904  -0.911  1.00  0.00    -0.744 OA
ENDBRANCH  79  80
ENDBRANCH  58  72
BRANCH  59  84
ATOM     84  C   UNL     1     -13.056   9.721   1.618  1.00  0.00     0.058 A 
ATOM     85  C   UNL     1     -14.175   9.330   0.868  1.00  0.00     0.135 A 
ATOM     86  C   UNL     1     -12.775   9.005   2.792  1.00  0.00     0.135 A 
ATOM     87  F   UNL     1     -14.493   9.990  -0.256  1.00  0.00    -0.206 F 
ATOM     88  C   UNL     1     -14.999   8.286   1.278  1.00  0.00     0.059 A 
ATOM     89  C   UNL     1     -13.567   7.939   3.208  1.00  0.00     0.059 A 
ATOM     90  F   UNL     1     -11.710   9.330   3.541  1.00  0.00    -0.206 F 
ATOM     91  C   UNL     1     -14.685   7.595   2.450  1.00  0.00     0.060 A 
BRANCH  91  92
ATOM     92  S   UNL     1     -15.735   6.215   2.954  1.00  0.00     0.124 S 
ATOM     93  O   UNL     1     -16.923   6.910   3.434  1.00  0.00    -0.237 OA
ATOM     94  O   UNL     1     -15.887   5.475   1.705  1.00  0.00    -0.237 OA
ATOM     95  O   UNL     1     -14.938   5.543   3.976  1.00  0.00    -0.744 OA
ENDBRANCH  91  92
ENDBRANCH  59  84
BRANCH  71  96
ATOM     96  C   UNL     1     -14.164  16.599   1.186  1.00  0.00     0.058 A 
ATOM     97  C   UNL     1     -14.679  16.823   2.473  1.00  0.00     0.135 A 
ATOM     98  C   UNL     1     -14.802  17.235   0.108  1.00  0.00     0.135 A 
ATOM     99  F   UNL     1     -14.110  16.238   3.539  1.00  0.00    -0.206 F 
ATOM    100  C   UNL     1     -15.801  17.620   2.679  1.00  0.00     0.059 A 
ATOM    101  C   UNL     1     -15.907  18.060   0.294  1.00  0.00     0.059 A 
ATOM    102  F   UNL     1     -14.344  17.067  -1.143  1.00  0.00    -0.206 F 
ATOM    103  C   UNL     1     -16.409  18.234   1.582  1.00  0.00     0.060 A 
BRANCH 103 104
ATOM    104  S   UNL     1     -17.854  19.279   1.865  1.00  0.00     0.124 S 
ATOM    105  O   UNL     1     -18.885  18.285   2.145  1.00  0.00    -0.237 OA
ATOM    106  O   UNL     1     -17.434  20.093   3.001  1.00  0.00    -0.237 OA
ATOM    107  O   UNL     1     -18.004  20.001   0.606  1.00  0.00    -0.744 OA
ENDBRANCH 103 104
ENDBRANCH  71  96
ENDBRANCH  45  46
ENDBRANCH  38  40
ENDBRANCH  37  38
ENDBRANCH  36  37
ENDBRANCH  35  36
ENDBRANCH  34  35
ENDBRANCH  33  34
ENDBRANCH  32  33
ENDBRANCH   1  32
TORSDOF 27
