REMARK SMILES C=CCc1c(C)nn(CC(=O)OCCOCCOCCOCCOC(=O)c2ccc(-c3c4nc(c(-c5c(F)cc(S(=O)(=O)[O-])cc5F)c5ccc([nH]5)c(-c5c(F)cc(S(=O)(=O)[O-])cc5F)c5nc(c(-c6c(F)cc(S(=O)(=O)[O-])cc6F)c6ccc3[nH]6)C=C5)C=C4)cc2)c1-c1ccccc1
REMARK SMILES IDX 18 1 17 2 16 3 15 4 14 5 13 6 12 7 10 8 11 9 9 10 8 11 4 12
REMARK SMILES IDX 5 13 93 14 6 15 7 16 3 17 2 18 1 19 94 20 95 21 99 22 96 23
REMARK SMILES IDX 98 24 97 25 19 26 20 27 21 28 22 29 23 30 24 31 25 32 26 33
REMARK SMILES IDX 27 34 28 35 92 36 29 37 91 38 30 39 31 40 32 41 85 42 33 43
REMARK SMILES IDX 90 44 84 45 86 46 34 47 89 48 83 49 82 50 35 52 69 53 48 54
REMARK SMILES IDX 68 55 49 56 52 57 67 58 87 59 50 60 51 61 66 63 88 64 53 65
REMARK SMILES IDX 36 66 37 67 46 68 38 69 39 70 45 71 47 72 40 73 41 74 42 75
REMARK SMILES IDX 43 76 44 77 70 78 71 79 80 80 72 81 73 82 79 83 81 84 74 85
REMARK SMILES IDX 75 86 76 87 77 88 78 89 54 90 55 91 64 92 56 93 57 94 63 95
REMARK SMILES IDX 65 96 58 97 59 98 60 99 61 100 62 101
REMARK H PARENT 86 51 52 62
REMARK Flexibility Score: inf
ROOT
ATOM      1  O   UNL     1      -0.171  -1.889  -6.376  1.00  0.00    -0.377 OA
ENDROOT
BRANCH   1   2
ATOM      2  C   UNL     1      -1.541  -2.191  -6.530  1.00  0.00     0.188 C 
BRANCH   2   3
ATOM      3  C   UNL     1      -2.199  -1.643  -7.809  1.00  0.00     0.188 C 
BRANCH   3   4
ATOM      4  O   UNL     1      -1.416  -0.957  -8.782  1.00  0.00    -0.376 OA
BRANCH   4   5
ATOM      5  C   UNL     1      -0.362  -0.104  -8.352  1.00  0.00     0.202 C 
BRANCH   5   6
ATOM      6  C   UNL     1      -0.664   0.988  -7.303  1.00  0.00     0.261 C 
BRANCH   6   7
ATOM      7  O   UNL     1      -1.327   0.529  -6.100  1.00  0.00    -0.462 OA
BRANCH   7   8
ATOM      8  C   UNL     1      -2.501   1.115  -5.758  1.00  0.00     0.327 C 
ATOM      9  O   UNL     1      -2.935   2.124  -6.314  1.00  0.00    -0.250 OA
BRANCH   8  10
ATOM     10  C   UNL     1      -3.366   0.325  -4.801  1.00  0.00     0.267 C 
BRANCH  10  11
ATOM     11  N   UNL     1      -2.736  -0.395  -3.695  1.00  0.00    -0.253 N 
ATOM     12  C   UNL     1      -1.835  -0.982  -1.764  1.00  0.00     0.005 A 
ATOM     13  C   UNL     1      -2.218  -2.109  -2.543  1.00  0.00     0.064 A 
ATOM     14  C   UNL     1      -2.234   0.119  -2.519  1.00  0.00     0.073 A 
ATOM     15  C   UNL     1      -2.009  -3.557  -2.275  1.00  0.00     0.069 C 
ATOM     16  N   UNL     1      -2.889  -1.739  -3.638  1.00  0.00    -0.177 NA
BRANCH  12  17
ATOM     17  C   UNL     1      -1.218  -1.005  -0.402  1.00  0.00     0.066 C 
BRANCH  17  18
ATOM     18  C   UNL     1       0.283  -1.018  -0.446  1.00  0.00    -0.030 C 
ATOM     19  C   UNL     1       1.058  -0.056   0.073  1.00  0.00     0.004 C 
ENDBRANCH  17  18
ENDBRANCH  12  17
BRANCH  14  20
ATOM     20  C   UNL     1      -2.189   1.547  -2.243  1.00  0.00     0.000 A 
ATOM     21  C   UNL     1      -3.383   2.273  -2.151  1.00  0.00     0.010 A 
ATOM     22  C   UNL     1      -0.968   2.216  -2.150  1.00  0.00     0.010 A 
ATOM     23  C   UNL     1      -3.360   3.661  -2.051  1.00  0.00     0.001 A 
ATOM     24  C   UNL     1      -0.945   3.605  -2.018  1.00  0.00     0.001 A 
ATOM     25  C   UNL     1      -2.139   4.327  -1.990  1.00  0.00     0.000 A 
ENDBRANCH  14  20
ENDBRANCH  10  11
ENDBRANCH   8  10
ENDBRANCH   7   8
ENDBRANCH   6   7
ENDBRANCH   5   6
ENDBRANCH   4   5
ENDBRANCH   3   4
ENDBRANCH   2   3
ENDBRANCH   1   2
BRANCH   1  26
ATOM     26  C   UNL     1       0.730  -2.928  -6.707  1.00  0.00     0.188 C 
BRANCH  26  27
ATOM     27  C   UNL     1       0.421  -3.764  -7.970  1.00  0.00     0.188 C 
BRANCH  27  28
ATOM     28  O   UNL     1      -0.939  -4.175  -8.120  1.00  0.00    -0.376 OA
BRANCH  28  29
ATOM     29  C   UNL     1      -1.364  -5.484  -7.756  1.00  0.00     0.202 C 
BRANCH  29  30
ATOM     30  C   UNL     1      -1.413  -5.833  -6.264  1.00  0.00     0.261 C 
BRANCH  30  31
ATOM     31  O   UNL     1      -0.216  -5.527  -5.577  1.00  0.00    -0.460 OA
BRANCH  31  32
ATOM     32  C   UNL     1       0.890  -6.108  -6.071  1.00  0.00     0.338 C 
ATOM     33  O   UNL     1       0.960  -6.886  -7.015  1.00  0.00    -0.246 OA
BRANCH  32  34
ATOM     34  C   UNL     1       2.040  -5.692  -5.267  1.00  0.00     0.060 A 
ATOM     35  C   UNL     1       3.256  -6.236  -5.674  1.00  0.00     0.016 A 
ATOM     36  C   UNL     1       1.780  -5.283  -3.952  1.00  0.00     0.016 A 
ATOM     37  C   UNL     1       4.025  -6.796  -4.695  1.00  0.00     0.010 A 
ATOM     38  C   UNL     1       2.526  -5.868  -2.978  1.00  0.00     0.010 A 
ATOM     39  C   UNL     1       3.544  -6.725  -3.387  1.00  0.00    -0.014 A 
BRANCH  39  40
ATOM     40  C   UNL     1       4.085  -7.643  -2.425  1.00  0.00     0.031 A 
ATOM     41  C   UNL     1       5.301  -7.117  -1.792  1.00  0.00     0.074 A 
ATOM     42  C   UNL     1       3.417  -8.767  -2.111  1.00  0.00     0.049 A 
ATOM     43  N   UNL     1       6.521  -7.484  -1.989  1.00  0.00    -0.248 NA
ATOM     44  C   UNL     1       5.159  -5.851  -1.050  1.00  0.00     0.031 C 
ATOM     45  C   UNL     1       2.061  -9.171  -2.505  1.00  0.00     0.029 A 
ATOM     46  N   UNL     1       3.792  -9.749  -1.258  1.00  0.00    -0.354 N 
ATOM     47  C   UNL     1       7.269  -6.639  -1.181  1.00  0.00     0.074 A 
ATOM     48  C   UNL     1       6.434  -5.508  -0.889  1.00  0.00     0.031 C 
ATOM     49  C   UNL     1       1.654 -10.188  -1.711  1.00  0.00     0.029 A 
ATOM     50  C   UNL     1       2.755 -10.577  -0.848  1.00  0.00     0.049 A 
ATOM     51  H   UNL     1       4.721  -9.866  -0.953  1.00  0.00     0.167 HD
ATOM     52  C   UNL     1       8.379  -7.081  -0.535  1.00  0.00     0.037 A 
ATOM     53  C   UNL     1       2.817 -11.406   0.224  1.00  0.00     0.037 A 
ATOM     54  C   UNL     1       8.874  -8.302  -1.118  1.00  0.00     0.049 A 
ATOM     55  C   UNL     1       4.269 -11.599   0.527  1.00  0.00     0.074 A 
ATOM     56  C   UNL     1       9.332  -8.649  -2.375  1.00  0.00     0.029 A 
ATOM     57  N   UNL     1       8.557  -9.485  -0.491  1.00  0.00    -0.354 N 
ATOM     58  N   UNL     1       5.106 -12.197  -0.283  1.00  0.00    -0.248 NA
ATOM     59  C   UNL     1       4.886 -10.689   1.484  1.00  0.00     0.031 C 
ATOM     60  C   UNL     1       8.843  -9.968  -2.601  1.00  0.00     0.029 A 
ATOM     61  C   UNL     1       8.159 -10.380  -1.455  1.00  0.00     0.049 A 
ATOM     62  H   UNL     1       8.607  -9.660   0.476  1.00  0.00     0.167 HD
ATOM     63  C   UNL     1       6.284 -11.460  -0.207  1.00  0.00     0.074 A 
ATOM     64  C   UNL     1       6.106 -10.583   0.948  1.00  0.00     0.031 C 
ATOM     65  C   UNL     1       7.169 -11.420  -1.248  1.00  0.00     0.037 A 
BRANCH  52  66
ATOM     66  C   UNL     1       8.769  -6.595   0.837  1.00  0.00     0.058 A 
ATOM     67  C   UNL     1      10.047  -6.900   1.336  1.00  0.00     0.135 A 
ATOM     68  C   UNL     1       7.863  -6.044   1.777  1.00  0.00     0.135 A 
ATOM     69  F   UNL     1      10.977  -7.447   0.537  1.00  0.00    -0.206 F 
ATOM     70  C   UNL     1      10.382  -6.720   2.678  1.00  0.00     0.059 A 
ATOM     71  C   UNL     1       8.198  -5.790   3.098  1.00  0.00     0.059 A 
ATOM     72  F   UNL     1       6.575  -5.816   1.498  1.00  0.00    -0.206 F 
ATOM     73  C   UNL     1       9.445  -6.174   3.552  1.00  0.00     0.060 A 
BRANCH  73  74
ATOM     74  S   UNL     1       9.826  -6.044   5.304  1.00  0.00     0.124 S 
ATOM     75  O   UNL     1       9.831  -7.447   5.702  1.00  0.00    -0.237 OA
ATOM     76  O   UNL     1      11.123  -5.376   5.282  1.00  0.00    -0.237 OA
ATOM     77  O   UNL     1       8.723  -5.243   5.829  1.00  0.00    -0.744 OA
ENDBRANCH  73  74
ENDBRANCH  52  66
BRANCH  53  78
ATOM     78  C   UNL     1       1.732 -11.653   1.213  1.00  0.00     0.058 A 
ATOM     79  C   UNL     1       1.802 -12.713   2.132  1.00  0.00     0.135 A 
ATOM     80  C   UNL     1       0.715 -10.702   1.444  1.00  0.00     0.135 A 
ATOM     81  F   UNL     1       2.760 -13.646   2.011  1.00  0.00    -0.206 F 
ATOM     82  C   UNL     1       0.933 -12.812   3.227  1.00  0.00     0.059 A 
ATOM     83  C   UNL     1      -0.169 -10.785   2.517  1.00  0.00     0.059 A 
ATOM     84  F   UNL     1       0.602  -9.605   0.680  1.00  0.00    -0.206 F 
ATOM     85  C   UNL     1      -0.043 -11.833   3.418  1.00  0.00     0.060 A 
BRANCH  85  86
ATOM     86  S   UNL     1      -1.074 -11.870   4.903  1.00  0.00     0.124 S 
ATOM     87  O   UNL     1      -1.895 -13.052   4.671  1.00  0.00    -0.237 OA
ATOM     88  O   UNL     1      -0.079 -11.982   5.965  1.00  0.00    -0.237 OA
ATOM     89  O   UNL     1      -1.787 -10.596   4.854  1.00  0.00    -0.744 OA
ENDBRANCH  85  86
ENDBRANCH  53  78
BRANCH  65  90
ATOM     90  C   UNL     1       6.957 -12.379  -2.397  1.00  0.00     0.058 A 
ATOM     91  C   UNL     1       5.865 -12.313  -3.282  1.00  0.00     0.135 A 
ATOM     92  C   UNL     1       7.986 -13.274  -2.725  1.00  0.00     0.135 A 
ATOM     93  F   UNL     1       4.891 -11.412  -3.100  1.00  0.00    -0.206 F 
ATOM     94  C   UNL     1       5.783 -13.118  -4.421  1.00  0.00     0.059 A 
ATOM     95  C   UNL     1       7.941 -14.066  -3.871  1.00  0.00     0.059 A 
ATOM     96  F   UNL     1       9.087 -13.340  -1.958  1.00  0.00    -0.206 F 
ATOM     97  C   UNL     1       6.832 -13.989  -4.711  1.00  0.00     0.060 A 
BRANCH  97  98
ATOM     98  S   UNL     1       6.775 -14.955  -6.237  1.00  0.00     0.124 S 
ATOM     99  O   UNL     1       5.741 -15.940  -5.939  1.00  0.00    -0.237 OA
ATOM    100  O   UNL     1       6.424 -13.950  -7.237  1.00  0.00    -0.237 OA
ATOM    101  O   UNL     1       8.130 -15.489  -6.354  1.00  0.00    -0.744 OA
ENDBRANCH  97  98
ENDBRANCH  65  90
ENDBRANCH  39  40
ENDBRANCH  32  34
ENDBRANCH  31  32
ENDBRANCH  30  31
ENDBRANCH  29  30
ENDBRANCH  28  29
ENDBRANCH  27  28
ENDBRANCH  26  27
ENDBRANCH   1  26
TORSDOF 27
