REMARK SMILES N#Cc1cccnc1N1CC[NH+]([C@@H](C(=O)OCCOCCOCCOCCOC(=O)c2ccc(-c3c4nc(c(-c5c(F)cc(S(=O)(=O)[O-])cc5F)c5ccc([nH]5)c(-c5c(F)cc(S(=O)(=O)[O-])cc5F)c5nc(c(-c6c(F)cc(S(=O)(=O)[O-])cc6F)c6ccc3[nH]6)C=C5)C=C4)cc2)c2c[nH]c3cc(CO)ccc23)CC1
REMARK SMILES IDX 22 1 21 2 20 3 19 4 18 5 17 6 16 7 14 8 15 9 13 10 12 11
REMARK SMILES IDX 9 12 10 13 109 14 11 15 108 16 8 18 3 19 4 20 5 21 7 22 6 23
REMARK SMILES IDX 2 24 1 25 97 26 98 27 107 28 99 29 100 30 106 31 101 33
REMARK SMILES IDX 105 34 102 35 103 36 104 37 23 39 24 40 25 41 26 42 27 43
REMARK SMILES IDX 28 44 29 45 30 46 31 47 32 48 96 49 33 50 95 51 34 52 35 53
REMARK SMILES IDX 36 54 89 55 37 56 94 57 88 58 90 59 38 60 93 61 87 62 86 63
REMARK SMILES IDX 39 65 73 66 52 67 72 68 53 69 56 70 71 71 91 72 54 73 55 74
REMARK SMILES IDX 70 76 92 77 57 78 40 79 41 80 50 81 42 82 43 83 49 84 51 85
REMARK SMILES IDX 44 86 45 87 46 88 47 89 48 90 74 91 75 92 84 93 76 94 77 95
REMARK SMILES IDX 83 96 85 97 78 98 79 99 80 100 81 101 82 102 58 103 59 104
REMARK SMILES IDX 68 105 60 106 61 107 67 108 69 109 62 110 63 111 64 112
REMARK SMILES IDX 65 113 66 114
REMARK H PARENT 12 17 99 32 104 38 90 64 56 75
REMARK Flexibility Score: inf
ROOT
ATOM      1  O   UNL     1      -2.202  -3.414   0.514  1.00  0.00    -0.377 OA
ENDROOT
BRANCH   1   2
ATOM      2  C   UNL     1      -3.053  -4.424   0.048  1.00  0.00     0.188 C 
BRANCH   2   3
ATOM      3  C   UNL     1      -3.196  -5.657   0.931  1.00  0.00     0.188 C 
BRANCH   3   4
ATOM      4  O   UNL     1      -3.534  -5.445   2.290  1.00  0.00    -0.376 OA
BRANCH   4   5
ATOM      5  C   UNL     1      -2.722  -4.539   3.032  1.00  0.00     0.202 C 
BRANCH   5   6
ATOM      6  C   UNL     1      -1.190  -4.733   3.067  1.00  0.00     0.261 C 
BRANCH   6   7
ATOM      7  O   UNL     1      -0.517  -4.741   1.778  1.00  0.00    -0.459 OA
BRANCH   7   8
ATOM      8  C   UNL     1      -0.079  -5.925   1.273  1.00  0.00     0.370 C 
ATOM      9  O   UNL     1      -0.181  -6.982   1.894  1.00  0.00    -0.245 OA
BRANCH   8  10
ATOM     10  C   UNL     1       0.590  -5.832  -0.130  1.00  0.00     0.328 C 
BRANCH  10  11
ATOM     11  N   UNL     1       1.891  -5.026  -0.244  1.00  0.00    -0.316 N 
ATOM     12  N   UNL     1       1.296  -2.131  -0.027  1.00  0.00    -0.344 N 
ATOM     13  C   UNL     1       1.055  -2.946  -1.197  1.00  0.00     0.179 C 
ATOM     14  C   UNL     1       1.739  -2.806   1.205  1.00  0.00     0.179 C 
ATOM     15  C   UNL     1       2.051  -4.070  -1.331  1.00  0.00     0.285 C 
ATOM     16  C   UNL     1       2.309  -4.265   0.972  1.00  0.00     0.285 C 
ATOM     17  H   UNL     1       2.475  -5.843  -0.424  1.00  0.00     0.349 HD
BRANCH  12  18
ATOM     18  C   UNL     1       0.799  -0.815   0.002  1.00  0.00     0.146 A 
ATOM     19  C   UNL     1       1.944   0.395   0.375  1.00  0.00     0.095 A 
ATOM     20  C   UNL     1       1.383   2.060   0.389  1.00  0.00     0.025 A 
ATOM     21  C   UNL     1      -0.542   2.505  -0.071  1.00  0.00     0.022 A 
ATOM     22  N   UNL     1      -0.877  -0.447  -0.368  1.00  0.00    -0.238 NA
ATOM     23  C   UNL     1      -1.608   1.142  -0.393  1.00  0.00     0.113 A 
BRANCH  19  24
ATOM     24  C   UNL     1       3.338   0.127   0.466  1.00  0.00     0.103 C 
ATOM     25  N   UNL     1       4.480  -0.079   0.487  1.00  0.00    -0.192 NA
ENDBRANCH  19  24
ENDBRANCH  12  18
ENDBRANCH  10  11
BRANCH  10  26
ATOM     26  C   UNL     1      -0.205  -6.390  -1.457  1.00  0.00     0.046 A 
ATOM     27  C   UNL     1       0.489  -7.223  -2.352  1.00  0.00     0.094 A 
ATOM     28  C   UNL     1      -1.148  -5.845  -2.462  1.00  0.00     0.009 A 
ATOM     29  N   UNL     1       0.810  -6.237  -3.304  1.00  0.00    -0.361 N 
ATOM     30  C   UNL     1      -0.340  -5.524  -3.555  1.00  0.00     0.046 A 
ATOM     31  C   UNL     1      -2.545  -5.778  -2.755  1.00  0.00     0.011 A 
ATOM     32  H   UNL     1       1.692  -6.085  -3.713  1.00  0.00     0.166 HD
ATOM     33  C   UNL     1      -0.742  -4.665  -4.595  1.00  0.00     0.032 A 
ATOM     34  C   UNL     1      -3.007  -4.974  -3.828  1.00  0.00     0.007 A 
ATOM     35  C   UNL     1      -2.104  -4.304  -4.663  1.00  0.00    -0.021 A 
BRANCH  35  36
ATOM     36  C   UNL     1      -2.576  -3.208  -5.602  1.00  0.00     0.191 C 
BRANCH  36  37
ATOM     37  O   UNL     1      -3.542  -2.337  -5.016  1.00  0.00    -0.392 OA
ATOM     38  H   UNL     1      -4.334  -2.844  -4.779  1.00  0.00     0.211 HD
ENDBRANCH  36  37
ENDBRANCH  35  36
ENDBRANCH  10  26
ENDBRANCH   8  10
ENDBRANCH   7   8
ENDBRANCH   6   7
ENDBRANCH   5   6
ENDBRANCH   4   5
ENDBRANCH   3   4
ENDBRANCH   2   3
ENDBRANCH   1   2
BRANCH   1  39
ATOM     39  C   UNL     1      -2.779  -2.132   0.612  1.00  0.00     0.188 C 
BRANCH  39  40
ATOM     40  C   UNL     1      -3.518  -1.574  -0.632  1.00  0.00     0.188 C 
BRANCH  40  41
ATOM     41  O   UNL     1      -3.000  -1.468  -1.973  1.00  0.00    -0.376 OA
BRANCH  41  42
ATOM     42  C   UNL     1      -1.750  -2.077  -2.249  1.00  0.00     0.202 C 
BRANCH  42  43
ATOM     43  C   UNL     1      -0.897  -1.350  -3.323  1.00  0.00     0.261 C 
BRANCH  43  44
ATOM     44  O   UNL     1       0.167  -0.586  -2.724  1.00  0.00    -0.460 OA
BRANCH  44  45
ATOM     45  C   UNL     1      -0.202   0.654  -2.390  1.00  0.00     0.338 C 
ATOM     46  O   UNL     1      -0.987   1.341  -3.037  1.00  0.00    -0.246 OA
BRANCH  45  47
ATOM     47  C   UNL     1       0.432   1.170  -1.033  1.00  0.00     0.060 A 
ATOM     48  C   UNL     1      -0.064   0.963   0.936  1.00  0.00     0.016 A 
ATOM     49  C   UNL     1       0.997   2.783  -1.577  1.00  0.00     0.016 A 
ATOM     50  C   UNL     1      -0.039   2.386   1.986  1.00  0.00     0.010 A 
ATOM     51  C   UNL     1       1.052   4.081  -0.413  1.00  0.00     0.010 A 
ATOM     52  C   UNL     1       0.542   3.897   1.296  1.00  0.00    -0.014 A 
BRANCH  52  53
ATOM     53  C   UNL     1       0.628   5.058   2.170  1.00  0.00     0.031 A 
ATOM     54  C   UNL     1       0.333   6.387   1.574  1.00  0.00     0.074 A 
ATOM     55  C   UNL     1       1.061   4.874   3.429  1.00  0.00     0.049 A 
ATOM     56  N   UNL     1       0.787   7.542   1.953  1.00  0.00    -0.248 NA
ATOM     57  C   UNL     1      -0.417   6.423   0.301  1.00  0.00     0.031 C 
ATOM     58  C   UNL     1       1.441   3.598   4.053  1.00  0.00     0.029 A 
ATOM     59  N   UNL     1       1.248   5.773   4.432  1.00  0.00    -0.354 N 
ATOM     60  C   UNL     1       0.465   8.400   0.916  1.00  0.00     0.074 A 
ATOM     61  C   UNL     1      -0.065   7.611  -0.164  1.00  0.00     0.031 C 
ATOM     62  C   UNL     1       1.651   3.772   5.360  1.00  0.00     0.029 A 
ATOM     63  C   UNL     1       1.644   5.194   5.614  1.00  0.00     0.049 A 
ATOM     64  H   UNL     1       1.112   6.742   4.323  1.00  0.00     0.167 HD
ATOM     65  C   UNL     1       0.523   9.745   0.922  1.00  0.00     0.037 A 
ATOM     66  C   UNL     1       2.041   5.773   6.753  1.00  0.00     0.037 A 
ATOM     67  C   UNL     1       0.900  10.467   2.100  1.00  0.00     0.049 A 
ATOM     68  C   UNL     1       2.085   7.269   6.734  1.00  0.00     0.074 A 
ATOM     69  C   UNL     1       0.955  11.829   2.299  1.00  0.00     0.029 A 
ATOM     70  N   UNL     1       1.236   9.858   3.305  1.00  0.00    -0.354 N 
ATOM     71  N   UNL     1       1.801   8.086   5.744  1.00  0.00    -0.248 NA
ATOM     72  C   UNL     1       2.503   7.923   7.970  1.00  0.00     0.031 C 
ATOM     73  C   UNL     1       1.377  12.043   3.614  1.00  0.00     0.029 A 
ATOM     74  C   UNL     1       1.510  10.817   4.255  1.00  0.00     0.049 A 
ATOM     75  H   UNL     1       1.272   8.886   3.457  1.00  0.00     0.167 HD
ATOM     76  C   UNL     1       1.973   9.362   6.249  1.00  0.00     0.074 A 
ATOM     77  C   UNL     1       2.348   9.197   7.644  1.00  0.00     0.031 C 
ATOM     78  C   UNL     1       1.852  10.565   5.633  1.00  0.00     0.037 A 
BRANCH  65  79
ATOM     79  C   UNL     1       0.117  10.467  -0.325  1.00  0.00     0.058 A 
ATOM     80  C   UNL     1      -1.200  10.420  -0.817  1.00  0.00     0.135 A 
ATOM     81  C   UNL     1       1.059  11.216  -1.043  1.00  0.00     0.135 A 
ATOM     82  F   UNL     1      -2.132   9.678  -0.197  1.00  0.00    -0.206 F 
ATOM     83  C   UNL     1      -1.564  11.083  -1.981  1.00  0.00     0.059 A 
ATOM     84  C   UNL     1       0.706  11.923  -2.187  1.00  0.00     0.059 A 
ATOM     85  F   UNL     1       2.337  11.266  -0.636  1.00  0.00    -0.206 F 
ATOM     86  C   UNL     1      -0.609  11.850  -2.646  1.00  0.00     0.060 A 
BRANCH  86  87
ATOM     87  S   UNL     1      -1.131  12.791  -4.091  1.00  0.00     0.124 S 
ATOM     88  O   UNL     1      -1.414  11.728  -5.050  1.00  0.00    -0.237 OA
ATOM     89  O   UNL     1      -2.293  13.511  -3.580  1.00  0.00    -0.237 OA
ATOM     90  O   UNL     1       0.032  13.619  -4.396  1.00  0.00    -0.744 OA
ENDBRANCH  86  87
ENDBRANCH  65  79
BRANCH  66  91
ATOM     91  C   UNL     1       2.445   4.966   7.932  1.00  0.00     0.058 A 
ATOM     92  C   UNL     1       1.738   5.066   9.138  1.00  0.00     0.135 A 
ATOM     93  C   UNL     1       3.542   4.088   7.892  1.00  0.00     0.135 A 
ATOM     94  F   UNL     1       0.661   5.863   9.219  1.00  0.00    -0.206 F 
ATOM     95  C   UNL     1       2.147   4.390  10.280  1.00  0.00     0.059 A 
ATOM     96  C   UNL     1       3.940   3.361   9.008  1.00  0.00     0.059 A 
ATOM     97  F   UNL     1       4.229   3.910   6.752  1.00  0.00    -0.206 F 
ATOM     98  C   UNL     1       3.256   3.547  10.207  1.00  0.00     0.060 A 
BRANCH  98  99
ATOM     99  S   UNL     1       3.803   2.710  11.707  1.00  0.00     0.124 S 
ATOM    100  O   UNL     1       4.298   3.830  12.499  1.00  0.00    -0.237 OA
ATOM    101  O   UNL     1       2.567   2.091  12.176  1.00  0.00    -0.237 OA
ATOM    102  O   UNL     1       4.819   1.781  11.223  1.00  0.00    -0.744 OA
ENDBRANCH  98  99
ENDBRANCH  66  91
BRANCH  78 103
ATOM    103  C   UNL     1       2.056  11.763   6.502  1.00  0.00     0.058 A 
ATOM    104  C   UNL     1       3.313  12.081   7.033  1.00  0.00     0.135 A 
ATOM    105  C   UNL     1       0.971  12.605   6.787  1.00  0.00     0.135 A 
ATOM    106  F   UNL     1       4.374  11.295   6.788  1.00  0.00    -0.206 F 
ATOM    107  C   UNL     1       3.476  13.168   7.876  1.00  0.00     0.059 A 
ATOM    108  C   UNL     1       1.125  13.731   7.578  1.00  0.00     0.059 A 
ATOM    109  F   UNL     1      -0.245  12.345   6.282  1.00  0.00    -0.206 F 
ATOM    110  C   UNL     1       2.375  13.987   8.138  1.00  0.00     0.060 A 
BRANCH 110 111
ATOM    111  S   UNL     1       2.607  15.401   9.226  1.00  0.00     0.124 S 
ATOM    112  O   UNL     1       2.795  14.747  10.516  1.00  0.00    -0.237 OA
ATOM    113  O   UNL     1       3.791  16.035   8.655  1.00  0.00    -0.237 OA
ATOM    114  O   UNL     1       1.364  16.152   9.076  1.00  0.00    -0.744 OA
ENDBRANCH 110 111
ENDBRANCH  78 103
ENDBRANCH  52  53
ENDBRANCH  45  47
ENDBRANCH  44  45
ENDBRANCH  43  44
ENDBRANCH  42  43
ENDBRANCH  41  42
ENDBRANCH  40  41
ENDBRANCH  39  40
ENDBRANCH   1  39
TORSDOF 29
