REMARK SMILES O=C(OCCOCCOCCOCCOC(=O)[C@H]1[C@@H](C(=O)Nc2ccccc2-c2ccccc2)[C@@H]2C=C[C@H]1O2)c1ccc(-c2c3nc(c(-c4c(F)cc(S(=O)(=O)[O-])cc4F)c4ccc([nH]4)c(-c4c(F)cc(S(=O)(=O)[O-])cc4F)c4nc(c(-c5c(F)cc(S(=O)(=O)[O-])cc5F)c5ccc2[nH]5)C=C4)C=C3)cc1
REMARK SMILES IDX 9 1 8 2 7 3 6 4 5 5 4 6 3 7 2 8 1 9 40 10 41 11 105 12 42 13
REMARK SMILES IDX 104 14 43 15 44 16 45 17 98 18 46 19 103 20 97 21 99 22
REMARK SMILES IDX 47 23 102 24 96 25 95 26 48 28 82 29 61 30 81 31 62 32 65 33
REMARK SMILES IDX 80 34 100 35 63 36 64 37 79 39 101 40 66 41 49 42 50 43
REMARK SMILES IDX 59 44 51 45 52 46 58 47 60 48 53 49 54 50 55 51 56 52 57 53
REMARK SMILES IDX 83 54 84 55 93 56 85 57 86 58 92 59 94 60 87 61 88 62 89 63
REMARK SMILES IDX 90 64 91 65 67 66 68 67 77 68 69 69 70 70 76 71 78 72 71 73
REMARK SMILES IDX 72 74 73 75 74 76 75 77 10 78 11 79 12 80 13 81 14 82 15 83
REMARK SMILES IDX 16 84 17 85 18 86 19 87 38 88 35 89 37 90 39 91 36 92 20 93
REMARK SMILES IDX 21 94 22 95 23 97 24 98 28 99 25 100 27 101 26 102 29 103
REMARK SMILES IDX 30 104 34 105 31 106 33 107 32 108
REMARK H PARENT 99 27 65 38 22 96
REMARK Flexibility Score: inf
ROOT
ATOM      1  O   UNL     1       5.242   8.321  -2.755  1.00  0.00    -0.377 OA
ENDROOT
BRANCH   1   2
ATOM      2  C   UNL     1       5.849   9.546  -3.152  1.00  0.00     0.188 C 
BRANCH   2   3
ATOM      3  C   UNL     1       5.288  10.810  -2.513  1.00  0.00     0.188 C 
BRANCH   3   4
ATOM      4  O   UNL     1       5.518  10.714  -1.122  1.00  0.00    -0.376 OA
BRANCH   4   5
ATOM      5  C   UNL     1       4.578  11.257  -0.214  1.00  0.00     0.202 C 
BRANCH   5   6
ATOM      6  C   UNL     1       4.496  12.772  -0.211  1.00  0.00     0.261 C 
BRANCH   6   7
ATOM      7  O   UNL     1       5.228  13.418  -1.266  1.00  0.00    -0.460 OA
BRANCH   7   8
ATOM      8  C   UNL     1       6.552  13.654  -1.407  1.00  0.00     0.338 C 
ATOM      9  O   UNL     1       6.927  14.268  -2.407  1.00  0.00    -0.246 OA
BRANCH   8  10
ATOM     10  C   UNL     1       7.598  13.253  -0.425  1.00  0.00     0.060 A 
ATOM     11  C   UNL     1       7.637  12.044   0.262  1.00  0.00     0.016 A 
ATOM     12  C   UNL     1       8.705  14.106  -0.295  1.00  0.00     0.016 A 
ATOM     13  C   UNL     1       8.661  11.715   1.126  1.00  0.00     0.010 A 
ATOM     14  C   UNL     1       9.776  13.767   0.538  1.00  0.00     0.010 A 
ATOM     15  C   UNL     1       9.730  12.580   1.279  1.00  0.00    -0.014 A 
BRANCH  15  16
ATOM     16  C   UNL     1      10.652  12.296   2.385  1.00  0.00     0.031 A 
ATOM     17  C   UNL     1      10.526  13.154   3.604  1.00  0.00     0.074 A 
ATOM     18  C   UNL     1      11.422  11.194   2.355  1.00  0.00     0.049 A 
ATOM     19  N   UNL     1      11.267  13.184   4.674  1.00  0.00    -0.248 NA
ATOM     20  C   UNL     1       9.398  14.106   3.624  1.00  0.00     0.031 C 
ATOM     21  C   UNL     1      11.447  10.206   1.269  1.00  0.00     0.029 A 
ATOM     22  N   UNL     1      12.303  10.696   3.274  1.00  0.00    -0.354 N 
ATOM     23  C   UNL     1      10.725  14.185   5.470  1.00  0.00     0.074 A 
ATOM     24  C   UNL     1       9.599  14.746   4.763  1.00  0.00     0.031 C 
ATOM     25  C   UNL     1      12.295   9.217   1.594  1.00  0.00     0.029 A 
ATOM     26  C   UNL     1      12.935   9.547   2.861  1.00  0.00     0.049 A 
ATOM     27  H   UNL     1      12.469  11.120   4.147  1.00  0.00     0.167 HD
ATOM     28  C   UNL     1      11.149  14.593   6.685  1.00  0.00     0.037 A 
ATOM     29  C   UNL     1      13.957   8.883   3.429  1.00  0.00     0.037 A 
ATOM     30  C   UNL     1      12.271  13.989   7.348  1.00  0.00     0.049 A 
ATOM     31  C   UNL     1      14.500   9.436   4.721  1.00  0.00     0.074 A 
ATOM     32  C   UNL     1      12.874  14.349   8.536  1.00  0.00     0.029 A 
ATOM     33  N   UNL     1      12.955  12.879   6.864  1.00  0.00    -0.354 N 
ATOM     34  N   UNL     1      14.066  10.460   5.423  1.00  0.00    -0.248 NA
ATOM     35  C   UNL     1      15.675   8.768   5.289  1.00  0.00     0.031 C 
ATOM     36  C   UNL     1      13.954  13.484   8.745  1.00  0.00     0.029 A 
ATOM     37  C   UNL     1      13.985  12.547   7.720  1.00  0.00     0.049 A 
ATOM     38  H   UNL     1      12.736  12.399   6.032  1.00  0.00     0.167 HD
ATOM     39  C   UNL     1      14.901  10.545   6.530  1.00  0.00     0.074 A 
ATOM     40  C   UNL     1      15.854   9.457   6.408  1.00  0.00     0.031 C 
ATOM     41  C   UNL     1      14.893  11.437   7.552  1.00  0.00     0.037 A 
BRANCH  28  42
ATOM     42  C   UNL     1      10.452  15.774   7.296  1.00  0.00     0.058 A 
ATOM     43  C   UNL     1       9.135  15.701   7.779  1.00  0.00     0.135 A 
ATOM     44  C   UNL     1      11.100  17.018   7.354  1.00  0.00     0.135 A 
ATOM     45  F   UNL     1       8.451  14.547   7.708  1.00  0.00    -0.206 F 
ATOM     46  C   UNL     1       8.478  16.824   8.274  1.00  0.00     0.059 A 
ATOM     47  C   UNL     1      10.473  18.148   7.870  1.00  0.00     0.059 A 
ATOM     48  F   UNL     1      12.350  17.151   6.883  1.00  0.00    -0.206 F 
ATOM     49  C   UNL     1       9.156  18.044   8.315  1.00  0.00     0.060 A 
BRANCH  49  50
ATOM     50  S   UNL     1       8.287  19.489   8.956  1.00  0.00     0.124 S 
ATOM     51  O   UNL     1       7.329  19.753   7.889  1.00  0.00    -0.237 OA
ATOM     52  O   UNL     1       7.729  18.989  10.204  1.00  0.00    -0.237 OA
ATOM     53  O   UNL     1       9.350  20.487   9.102  1.00  0.00    -0.744 OA
ENDBRANCH  49  50
ENDBRANCH  28  42
BRANCH  29  54
ATOM     54  C   UNL     1      14.571   7.704   2.756  1.00  0.00     0.058 A 
ATOM     55  C   UNL     1      14.558   6.431   3.345  1.00  0.00     0.135 A 
ATOM     56  C   UNL     1      15.205   7.831   1.507  1.00  0.00     0.135 A 
ATOM     57  F   UNL     1      13.970   6.251   4.538  1.00  0.00    -0.206 F 
ATOM     58  C   UNL     1      15.170   5.337   2.738  1.00  0.00     0.059 A 
ATOM     59  C   UNL     1      15.795   6.746   0.865  1.00  0.00     0.059 A 
ATOM     60  F   UNL     1      15.242   9.021   0.886  1.00  0.00    -0.206 F 
ATOM     61  C   UNL     1      15.788   5.506   1.497  1.00  0.00     0.060 A 
BRANCH  61  62
ATOM     62  S   UNL     1      16.573   4.080   0.713  1.00  0.00     0.124 S 
ATOM     63  O   UNL     1      17.744   3.888   1.561  1.00  0.00    -0.237 OA
ATOM     64  O   UNL     1      15.533   3.062   0.818  1.00  0.00    -0.237 OA
ATOM     65  O   UNL     1      16.846   4.551  -0.642  1.00  0.00    -0.744 OA
ENDBRANCH  61  62
ENDBRANCH  29  54
BRANCH  41  66
ATOM     66  C   UNL     1      15.911  11.232   8.634  1.00  0.00     0.058 A 
ATOM     67  C   UNL     1      17.268  11.518   8.432  1.00  0.00     0.135 A 
ATOM     68  C   UNL     1      15.502  10.809   9.909  1.00  0.00     0.135 A 
ATOM     69  F   UNL     1      17.705  11.919   7.228  1.00  0.00    -0.206 F 
ATOM     70  C   UNL     1      18.195  11.367   9.456  1.00  0.00     0.059 A 
ATOM     71  C   UNL     1      16.405  10.685  10.955  1.00  0.00     0.059 A 
ATOM     72  F   UNL     1      14.209  10.537  10.150  1.00  0.00    -0.206 F 
ATOM     73  C   UNL     1      17.751  10.956  10.715  1.00  0.00     0.060 A 
BRANCH  73  74
ATOM     74  S   UNL     1      18.958  10.810  12.047  1.00  0.00     0.124 S 
ATOM     75  O   UNL     1      19.677   9.601  11.659  1.00  0.00    -0.237 OA
ATOM     76  O   UNL     1      19.704  12.059  11.929  1.00  0.00    -0.237 OA
ATOM     77  O   UNL     1      18.130  10.692  13.243  1.00  0.00    -0.744 OA
ENDBRANCH  73  74
ENDBRANCH  41  66
ENDBRANCH  15  16
ENDBRANCH   8  10
ENDBRANCH   7   8
ENDBRANCH   6   7
ENDBRANCH   5   6
ENDBRANCH   4   5
ENDBRANCH   3   4
ENDBRANCH   2   3
ENDBRANCH   1   2
BRANCH   1  78
ATOM     78  C   UNL     1       4.862   8.145  -1.397  1.00  0.00     0.188 C 
BRANCH  78  79
ATOM     79  C   UNL     1       5.910   7.836  -0.299  1.00  0.00     0.188 C 
BRANCH  79  80
ATOM     80  O   UNL     1       7.132   8.539  -0.289  1.00  0.00    -0.376 OA
BRANCH  80  81
ATOM     81  C   UNL     1       8.215   8.132  -1.115  1.00  0.00     0.202 C 
BRANCH  81  82
ATOM     82  C   UNL     1       8.222   6.835  -1.948  1.00  0.00     0.261 C 
BRANCH  82  83
ATOM     83  O   UNL     1       6.924   6.373  -2.347  1.00  0.00    -0.463 OA
BRANCH  83  84
ATOM     84  C   UNL     1       6.664   5.052  -2.180  1.00  0.00     0.312 C 
ATOM     85  O   UNL     1       7.519   4.223  -1.890  1.00  0.00    -0.252 OA
BRANCH  84  86
ATOM     86  C   UNL     1       5.180   4.785  -2.057  1.00  0.00     0.147 C 
ATOM     87  C   UNL     1       4.086   5.226  -3.068  1.00  0.00     0.129 C 
ATOM     88  C   UNL     1       4.934   3.267  -1.982  1.00  0.00     0.157 C 
ATOM     89  C   UNL     1       3.420   3.896  -3.413  1.00  0.00     0.155 C 
ATOM     90  C   UNL     1       3.606   2.971  -1.341  1.00  0.00     0.004 C 
ATOM     91  O   UNL     1       4.557   3.007  -3.343  1.00  0.00    -0.365 OA
ATOM     92  C   UNL     1       2.672   3.357  -2.223  1.00  0.00     0.004 C 
BRANCH  87  93
ATOM     93  C   UNL     1       4.139   6.191  -4.254  1.00  0.00     0.231 C 
ATOM     94  O   UNL     1       3.111   6.858  -4.481  1.00  0.00    -0.274 OA
ATOM     95  N   UNL     1       5.187   6.473  -5.064  1.00  0.00    -0.325 N 
ATOM     96  H   UNL     1       5.099   7.330  -5.540  1.00  0.00     0.169 HD
BRANCH  95  97
ATOM     97  C   UNL     1       6.368   5.787  -5.356  1.00  0.00     0.049 A 
ATOM     98  C   UNL     1       7.527   6.575  -5.381  1.00  0.00     0.027 A 
ATOM     99  C   UNL     1       6.431   4.407  -5.636  1.00  0.00     0.005 A 
ATOM    100  C   UNL     1       8.778   5.971  -5.372  1.00  0.00     0.002 A 
ATOM    101  C   UNL     1       7.703   3.815  -5.531  1.00  0.00     0.011 A 
ATOM    102  C   UNL     1       8.859   4.586  -5.357  1.00  0.00     0.001 A 
BRANCH  99 103
ATOM    103  C   UNL     1       5.260   3.639  -6.154  1.00  0.00    -0.016 A 
ATOM    104  C   UNL     1       5.073   2.274  -5.880  1.00  0.00     0.009 A 
ATOM    105  C   UNL     1       4.258   4.268  -6.923  1.00  0.00     0.009 A 
ATOM    106  C   UNL     1       3.870   1.626  -6.190  1.00  0.00     0.001 A 
ATOM    107  C   UNL     1       3.060   3.623  -7.248  1.00  0.00     0.001 A 
ATOM    108  C   UNL     1       2.853   2.309  -6.848  1.00  0.00     0.000 A 
ENDBRANCH  99 103
ENDBRANCH  95  97
ENDBRANCH  87  93
ENDBRANCH  84  86
ENDBRANCH  83  84
ENDBRANCH  82  83
ENDBRANCH  81  82
ENDBRANCH  80  81
ENDBRANCH  79  80
ENDBRANCH  78  79
ENDBRANCH   1  78
TORSDOF 26
