REMARK SMILES Cc1ccccc1OCCN1C(=O)CC[C@H](C(=O)OCCOCCOCCOCCOC(=O)c2ccc(-c3c4nc(c(-c5c(F)cc(S(=O)(=O)[O-])cc5F)c5ccc([nH]5)c(-c5c(F)cc(S(=O)(=O)[O-])cc5F)c5nc(c(-c6c(F)cc(S(=O)(=O)[O-])cc6F)c6ccc3[nH]6)C=C5)C=C4)cc2)[C@@H]1c1ccco1
REMARK SMILES IDX 24 1 23 2 22 3 21 4 20 5 19 6 17 7 18 8 16 9 11 10 12 11
REMARK SMILES IDX 100 12 13 13 14 14 15 15 10 16 9 17 8 18 7 19 1 20 2 21 3 22
REMARK SMILES IDX 4 23 6 24 5 25 101 26 102 27 105 28 103 29 104 30 25 31
REMARK SMILES IDX 26 32 27 33 28 34 29 35 30 36 31 37 32 38 33 39 34 40 35 41
REMARK SMILES IDX 99 42 36 43 98 44 37 45 38 46 39 47 92 48 40 49 97 50 91 51
REMARK SMILES IDX 93 52 41 53 96 54 90 55 89 56 42 58 76 59 55 60 75 61 56 62
REMARK SMILES IDX 59 63 74 64 94 65 57 66 58 67 73 69 95 70 60 71 43 72 44 73
REMARK SMILES IDX 53 74 45 75 46 76 52 77 54 78 47 79 48 80 49 81 50 82 51 83
REMARK SMILES IDX 77 84 78 85 87 86 79 87 80 88 86 89 88 90 81 91 82 92 83 93
REMARK SMILES IDX 84 94 85 95 61 96 62 97 71 98 63 99 64 100 70 101 72 102
REMARK SMILES IDX 65 103 66 104 67 105 68 106 69 107
REMARK H PARENT 93 57 59 68
REMARK Flexibility Score: inf
ROOT
ATOM      1  C   UNL     1       1.712  -4.518  -1.426  1.00  0.00     0.188 C 
ENDROOT
BRANCH   1   2
ATOM      2  C   UNL     1       3.210  -4.452  -1.655  1.00  0.00     0.188 C 
BRANCH   2   3
ATOM      3  O   UNL     1       3.635  -3.368  -0.844  1.00  0.00    -0.376 OA
BRANCH   3   4
ATOM      4  C   UNL     1       4.985  -3.517  -0.473  1.00  0.00     0.202 C 
BRANCH   4   5
ATOM      5  C   UNL     1       5.260  -2.919   0.876  1.00  0.00     0.261 C 
BRANCH   5   6
ATOM      6  O   UNL     1       4.532  -1.810   1.308  1.00  0.00    -0.463 OA
BRANCH   6   7
ATOM      7  C   UNL     1       4.118  -1.025   0.321  1.00  0.00     0.311 C 
ATOM      8  O   UNL     1       4.706  -0.746  -0.717  1.00  0.00    -0.252 OA
BRANCH   7   9
ATOM      9  C   UNL     1       2.829  -0.420   0.705  1.00  0.00     0.130 C 
ATOM     10  N   UNL     1       1.947   1.600   1.615  1.00  0.00    -0.328 N 
ATOM     11  C   UNL     1       0.806   1.015   2.133  1.00  0.00     0.223 C 
ATOM     12  C   UNL     1       3.164   0.838   1.442  1.00  0.00     0.166 C 
ATOM     13  O   UNL     1      -0.160   1.677   2.517  1.00  0.00    -0.275 OA
ATOM     14  C   UNL     1       0.796  -0.508   2.240  1.00  0.00     0.101 C 
ATOM     15  C   UNL     1       1.662  -1.240   1.225  1.00  0.00     0.028 C 
BRANCH  10  16
ATOM     16  C   UNL     1       1.990   2.996   1.223  1.00  0.00     0.162 C 
BRANCH  16  17
ATOM     17  C   UNL     1       1.829   3.211  -0.295  1.00  0.00     0.251 C 
BRANCH  17  18
ATOM     18  O   UNL     1       0.511   3.028  -0.819  1.00  0.00    -0.491 OA
BRANCH  18  19
ATOM     19  C   UNL     1       0.008   1.766  -0.976  1.00  0.00     0.122 A 
ATOM     20  C   UNL     1       1.871   0.770  -2.461  1.00  0.00     0.048 C 
ATOM     21  C   UNL     1       0.568   0.707  -1.708  1.00  0.00    -0.009 A 
ATOM     22  C   UNL     1      -0.151  -0.510  -1.778  1.00  0.00     0.007 A 
ATOM     23  C   UNL     1      -1.400  -0.666  -1.175  1.00  0.00     0.001 A 
ATOM     24  C   UNL     1      -1.272   1.608  -0.416  1.00  0.00     0.047 A 
ATOM     25  C   UNL     1      -1.970   0.403  -0.504  1.00  0.00     0.004 A 
ENDBRANCH  18  19
ENDBRANCH  17  18
ENDBRANCH  16  17
ENDBRANCH  10  16
BRANCH  12  26
ATOM     26  C   UNL     1       3.917   0.774   2.742  1.00  0.00     0.127 A 
ATOM     27  C   UNL     1       5.255   0.968   3.035  1.00  0.00     0.048 A 
ATOM     28  O   UNL     1       3.215   0.650   3.908  1.00  0.00    -0.467 OA
ATOM     29  C   UNL     1       5.367   1.008   4.442  1.00  0.00     0.042 A 
ATOM     30  C   UNL     1       4.099   0.802   4.927  1.00  0.00     0.195 A 
ENDBRANCH  12  26
ENDBRANCH   7   9
ENDBRANCH   6   7
ENDBRANCH   5   6
ENDBRANCH   4   5
ENDBRANCH   3   4
ENDBRANCH   2   3
ENDBRANCH   1   2
BRANCH   1  31
ATOM     31  O   UNL     1       1.382  -4.908  -0.095  1.00  0.00    -0.377 OA
BRANCH  31  32
ATOM     32  C   UNL     1       1.449  -6.315   0.107  1.00  0.00     0.188 C 
BRANCH  32  33
ATOM     33  C   UNL     1       0.093  -6.933  -0.214  1.00  0.00     0.188 C 
BRANCH  33  34
ATOM     34  O   UNL     1      -1.023  -6.466   0.590  1.00  0.00    -0.376 OA
BRANCH  34  35
ATOM     35  C   UNL     1      -1.466  -6.617   2.011  1.00  0.00     0.202 C 
BRANCH  35  36
ATOM     36  C   UNL     1      -1.372  -7.703   3.539  1.00  0.00     0.261 C 
BRANCH  36  37
ATOM     37  O   UNL     1      -0.224  -8.779   4.422  1.00  0.00    -0.460 OA
BRANCH  37  38
ATOM     38  C   UNL     1       1.072  -9.676   4.721  1.00  0.00     0.338 C 
ATOM     39  O   UNL     1       1.025 -10.274   5.807  1.00  0.00    -0.246 OA
BRANCH  38  40
ATOM     40  C   UNL     1       2.726  -9.678   3.950  1.00  0.00     0.060 A 
ATOM     41  C   UNL     1       3.852  -9.136   4.593  1.00  0.00     0.016 A 
ATOM     42  C   UNL     1       3.134 -10.047   2.636  1.00  0.00     0.016 A 
ATOM     43  C   UNL     1       4.996  -8.571   3.864  1.00  0.00     0.010 A 
ATOM     44  C   UNL     1       4.168  -9.342   1.862  1.00  0.00     0.010 A 
ATOM     45  C   UNL     1       5.046  -8.443   2.447  1.00  0.00    -0.014 A 
BRANCH  45  46
ATOM     46  C   UNL     1       5.427  -7.098   1.756  1.00  0.00     0.031 A 
ATOM     47  C   UNL     1       6.268  -6.628   0.520  1.00  0.00     0.074 A 
ATOM     48  C   UNL     1       4.614  -6.161   2.274  1.00  0.00     0.049 A 
ATOM     49  N   UNL     1       7.073  -5.562   0.456  1.00  0.00    -0.248 NA
ATOM     50  C   UNL     1       6.201  -7.295  -0.778  1.00  0.00     0.031 C 
ATOM     51  C   UNL     1       3.776  -5.166   1.686  1.00  0.00     0.029 A 
ATOM     52  N   UNL     1       4.511  -5.883   3.612  1.00  0.00    -0.354 N 
ATOM     53  C   UNL     1       7.498  -5.341  -0.897  1.00  0.00     0.074 A 
ATOM     54  C   UNL     1       6.941  -6.505  -1.582  1.00  0.00     0.031 C 
ATOM     55  C   UNL     1       3.435  -4.256   2.592  1.00  0.00     0.029 A 
ATOM     56  C   UNL     1       4.117  -4.598   3.789  1.00  0.00     0.049 A 
ATOM     57  H   UNL     1       4.696  -6.523   4.338  1.00  0.00     0.167 HD
ATOM     58  C   UNL     1       8.095  -4.176  -1.422  1.00  0.00     0.037 A 
ATOM     59  C   UNL     1       3.705  -3.916   4.843  1.00  0.00     0.037 A 
ATOM     60  C   UNL     1       8.146  -3.002  -0.457  1.00  0.00     0.049 A 
ATOM     61  C   UNL     1       5.063  -3.083   4.886  1.00  0.00     0.074 A 
ATOM     62  C   UNL     1       7.693  -1.685  -0.577  1.00  0.00     0.029 A 
ATOM     63  N   UNL     1       8.466  -3.112   0.923  1.00  0.00    -0.354 N 
ATOM     64  N   UNL     1       5.751  -2.710   3.778  1.00  0.00    -0.248 NA
ATOM     65  C   UNL     1       5.811  -2.644   6.062  1.00  0.00     0.031 C 
ATOM     66  C   UNL     1       7.633  -1.058   0.706  1.00  0.00     0.029 A 
ATOM     67  C   UNL     1       7.983  -1.998   1.679  1.00  0.00     0.049 A 
ATOM     68  H   UNL     1       8.963  -3.867   1.313  1.00  0.00     0.167 HD
ATOM     69  C   UNL     1       7.021  -2.181   4.057  1.00  0.00     0.074 A 
ATOM     70  C   UNL     1       6.914  -2.069   5.523  1.00  0.00     0.031 C 
ATOM     71  C   UNL     1       8.092  -1.906   3.166  1.00  0.00     0.037 A 
BRANCH  58  72
ATOM     72  C   UNL     1       8.445  -3.915  -3.022  1.00  0.00     0.058 A 
ATOM     73  C   UNL     1       8.613  -2.620  -3.617  1.00  0.00     0.135 A 
ATOM     74  C   UNL     1       8.702  -4.929  -3.985  1.00  0.00     0.135 A 
ATOM     75  F   UNL     1       8.582  -1.494  -2.904  1.00  0.00    -0.206 F 
ATOM     76  C   UNL     1       8.902  -2.361  -4.983  1.00  0.00     0.059 A 
ATOM     77  C   UNL     1       8.998  -4.695  -5.368  1.00  0.00     0.059 A 
ATOM     78  F   UNL     1       8.765  -6.217  -3.620  1.00  0.00    -0.206 F 
ATOM     79  C   UNL     1       9.098  -3.403  -5.864  1.00  0.00     0.060 A 
BRANCH  79  80
ATOM     80  S   UNL     1       9.598  -3.032  -7.575  1.00  0.00     0.124 S 
ATOM     81  O   UNL     1       8.450  -2.292  -8.090  1.00  0.00    -0.237 OA
ATOM     82  O   UNL     1      10.815  -2.248  -7.386  1.00  0.00    -0.237 OA
ATOM     83  O   UNL     1       9.799  -4.352  -8.168  1.00  0.00    -0.744 OA
ENDBRANCH  79  80
ENDBRANCH  58  72
BRANCH  59  84
ATOM     84  C   UNL     1       2.387  -4.682   5.278  1.00  0.00     0.058 A 
ATOM     85  C   UNL     1       1.308  -4.595   4.337  1.00  0.00     0.135 A 
ATOM     86  C   UNL     1       2.411  -6.023   5.625  1.00  0.00     0.135 A 
ATOM     87  F   UNL     1       0.772  -3.378   4.138  1.00  0.00    -0.206 F 
ATOM     88  C   UNL     1       0.836  -5.687   3.391  1.00  0.00     0.059 A 
ATOM     89  C   UNL     1       1.811  -7.111   4.796  1.00  0.00     0.059 A 
ATOM     90  F   UNL     1       3.189  -6.430   6.644  1.00  0.00    -0.206 F 
ATOM     91  C   UNL     1       1.194  -7.046   3.491  1.00  0.00     0.060 A 
BRANCH  91  92
ATOM     92  S   UNL     1       0.666  -8.723   2.050  1.00  0.00     0.124 S 
ATOM     93  O   UNL     1       0.605 -10.067   2.659  1.00  0.00    -0.237 OA
ATOM     94  O   UNL     1      -0.708  -8.627   1.529  1.00  0.00    -0.237 OA
ATOM     95  O   UNL     1       1.684  -8.611   1.073  1.00  0.00    -0.744 OA
ENDBRANCH  91  92
ENDBRANCH  59  84
BRANCH  71  96
ATOM     96  C   UNL     1       9.513  -1.407   3.541  1.00  0.00     0.058 A 
ATOM     97  C   UNL     1      10.115  -1.573   4.790  1.00  0.00     0.135 A 
ATOM     98  C   UNL     1      10.392  -0.850   2.548  1.00  0.00     0.135 A 
ATOM     99  F   UNL     1       9.525  -2.264   5.770  1.00  0.00    -0.206 F 
ATOM    100  C   UNL     1      11.407  -1.114   5.070  1.00  0.00     0.059 A 
ATOM    101  C   UNL     1      11.707  -0.477   2.781  1.00  0.00     0.059 A 
ATOM    102  F   UNL     1      10.039  -0.658   1.271  1.00  0.00    -0.206 F 
ATOM    103  C   UNL     1      12.195  -0.570   4.062  1.00  0.00     0.060 A 
BRANCH 103 104
ATOM    104  S   UNL     1      13.878  -0.058   4.414  1.00  0.00     0.124 S 
ATOM    105  O   UNL     1      13.658   1.249   5.024  1.00  0.00    -0.237 OA
ATOM    106  O   UNL     1      14.340  -1.110   5.314  1.00  0.00    -0.237 OA
ATOM    107  O   UNL     1      14.514  -0.042   3.100  1.00  0.00    -0.744 OA
ENDBRANCH 103 104
ENDBRANCH  71  96
ENDBRANCH  45  46
ENDBRANCH  38  40
ENDBRANCH  37  38
ENDBRANCH  36  37
ENDBRANCH  35  36
ENDBRANCH  34  35
ENDBRANCH  33  34
ENDBRANCH  32  33
ENDBRANCH  31  32
ENDBRANCH   1  31
TORSDOF 28
