REMARK SMILES C[C@@H](C(=O)OCCOCCOCCOCCOC(=O)c1ccc(-c2c3nc(c(-c4c(F)cc(S(=O)(=O)[O-])cc4F)c4ccc([nH]4)c(-c4c(F)cc(S(=O)(=O)[O-])cc4F)c4nc(c(-c5c(F)cc(S(=O)(=O)[O-])cc5F)c5ccc2[nH]5)C=C4)C=C3)cc1)c1ccc(-c2cccc(OC(=O)NCCCc3ccccc3)c2)c(F)c1
REMARK SMILES IDX 9 1 8 2 7 3 6 4 5 5 3 6 4 7 2 8 1 9 86 10 87 11 111 12 88 13
REMARK SMILES IDX 109 14 89 15 110 16 90 17 91 18 108 19 92 20 94 21 93 22
REMARK SMILES IDX 95 23 96 24 97 25 98 26 99 28 100 29 101 30 102 31 103 32
REMARK SMILES IDX 107 33 104 34 106 35 105 36 10 37 11 38 12 39 13 40 14 41
REMARK SMILES IDX 15 42 16 43 17 44 18 45 19 46 20 47 21 48 85 49 22 50 84 51
REMARK SMILES IDX 23 52 24 53 25 54 78 55 26 56 83 57 77 58 79 59 27 60 82 61
REMARK SMILES IDX 76 62 75 63 28 65 62 66 41 67 61 68 42 69 45 70 60 71 80 72
REMARK SMILES IDX 43 73 44 74 59 76 81 77 46 78 29 79 30 80 39 81 31 82 32 83
REMARK SMILES IDX 38 84 40 85 33 86 34 87 35 88 36 89 37 90 63 91 64 92 73 93
REMARK SMILES IDX 65 94 66 95 72 96 74 97 67 98 68 99 69 100 70 101 71 102
REMARK SMILES IDX 47 103 48 104 57 105 49 106 50 107 56 108 58 109 51 110
REMARK SMILES IDX 52 111 53 112 54 113 55 114
REMARK H PARENT 98 27 79 64 45 75
REMARK Flexibility Score: inf
ROOT
ATOM      1  C   UNL     1       0.114  -2.390   2.556  1.00  0.00     0.188 C 
ENDROOT
BRANCH   1   2
ATOM      2  O   UNL     1       0.915  -3.319   3.251  1.00  0.00    -0.376 OA
BRANCH   2   3
ATOM      3  C   UNL     1       1.919  -4.065   2.581  1.00  0.00     0.202 C 
BRANCH   3   4
ATOM      4  C   UNL     1       2.493  -3.750   1.183  1.00  0.00     0.261 C 
BRANCH   4   5
ATOM      5  O   UNL     1       1.935  -2.631   0.488  1.00  0.00    -0.463 OA
BRANCH   5   6
ATOM      6  C   UNL     1       1.278  -2.864  -0.672  1.00  0.00     0.313 C 
ATOM      7  O   UNL     1       1.129  -3.977  -1.168  1.00  0.00    -0.252 OA
BRANCH   6   8
ATOM      8  C   UNL     1       0.639  -1.594  -1.260  1.00  0.00     0.126 C 
ATOM      9  C   UNL     1       1.514  -0.345  -1.057  1.00  0.00     0.025 C 
BRANCH   8  10
ATOM     10  C   UNL     1      -0.854  -1.448  -0.924  1.00  0.00    -0.031 A 
ATOM     11  C   UNL     1      -1.486  -0.205  -0.738  1.00  0.00     0.005 A 
ATOM     12  C   UNL     1      -1.671  -2.590  -0.871  1.00  0.00     0.044 A 
ATOM     13  C   UNL     1      -2.872  -0.115  -0.505  1.00  0.00     0.012 A 
ATOM     14  C   UNL     1      -3.041  -2.494  -0.633  1.00  0.00     0.131 A 
ATOM     15  C   UNL     1      -3.677  -1.261  -0.457  1.00  0.00     0.018 A 
ATOM     16  F   UNL     1      -3.753  -3.632  -0.601  1.00  0.00    -0.206 F 
BRANCH  15  17
ATOM     17  C   UNL     1      -5.130  -1.191  -0.234  1.00  0.00    -0.012 A 
ATOM     18  C   UNL     1      -5.974  -0.479  -1.103  1.00  0.00     0.009 A 
ATOM     19  C   UNL     1      -5.713  -1.891   0.836  1.00  0.00     0.056 A 
ATOM     20  C   UNL     1      -7.360  -0.478  -0.917  1.00  0.00     0.004 A 
ATOM     21  C   UNL     1      -7.092  -1.879   1.026  1.00  0.00     0.133 A 
ATOM     22  C   UNL     1      -7.921  -1.180   0.148  1.00  0.00     0.047 A 
BRANCH  21  23
ATOM     23  O   UNL     1      -7.759  -2.585   2.056  1.00  0.00    -0.410 OA
BRANCH  23  24
ATOM     24  C   UNL     1      -7.152  -3.208   3.141  1.00  0.00     0.412 C 
ATOM     25  O   UNL     1      -5.952  -3.207   3.410  1.00  0.00    -0.224 OA
ATOM     26  N   UNL     1      -8.035  -3.847   3.961  1.00  0.00    -0.321 N 
ATOM     27  H   UNL     1      -7.659  -4.403   4.682  1.00  0.00     0.167 HD
BRANCH  26  28
ATOM     28  C   UNL     1      -9.473  -3.780   3.865  1.00  0.00     0.120 C 
BRANCH  28  29
ATOM     29  C   UNL     1     -10.198  -5.027   4.373  1.00  0.00     0.026 C 
BRANCH  29  30
ATOM     30  C   UNL     1      -9.676  -5.708   5.646  1.00  0.00     0.037 C 
BRANCH  30  31
ATOM     31  C   UNL     1      -9.834  -5.050   6.998  1.00  0.00    -0.048 A 
ATOM     32  C   UNL     1     -10.033  -3.681   7.200  1.00  0.00     0.004 A 
ATOM     33  C   UNL     1      -9.698  -5.867   8.135  1.00  0.00     0.004 A 
ATOM     34  C   UNL     1     -10.078  -3.142   8.490  1.00  0.00     0.000 A 
ATOM     35  C   UNL     1      -9.755  -5.333   9.425  1.00  0.00     0.000 A 
ATOM     36  C   UNL     1      -9.937  -3.966   9.602  1.00  0.00     0.000 A 
ENDBRANCH  30  31
ENDBRANCH  29  30
ENDBRANCH  28  29
ENDBRANCH  26  28
ENDBRANCH  23  24
ENDBRANCH  21  23
ENDBRANCH  15  17
ENDBRANCH   8  10
ENDBRANCH   6   8
ENDBRANCH   5   6
ENDBRANCH   4   5
ENDBRANCH   3   4
ENDBRANCH   2   3
ENDBRANCH   1   2
BRANCH   1  37
ATOM     37  C   UNL     1       0.697  -0.973   2.443  1.00  0.00     0.188 C 
BRANCH  37  38
ATOM     38  O   UNL     1       2.109  -0.859   2.468  1.00  0.00    -0.377 OA
BRANCH  38  39
ATOM     39  C   UNL     1       2.807  -1.032   3.698  1.00  0.00     0.188 C 
BRANCH  39  40
ATOM     40  C   UNL     1       2.073  -1.356   5.018  1.00  0.00     0.188 C 
BRANCH  40  41
ATOM     41  O   UNL     1       0.750  -0.858   5.114  1.00  0.00    -0.376 OA
BRANCH  41  42
ATOM     42  C   UNL     1       0.535   0.360   5.810  1.00  0.00     0.202 C 
BRANCH  42  43
ATOM     43  C   UNL     1       1.208   1.625   5.253  1.00  0.00     0.261 C 
BRANCH  43  44
ATOM     44  O   UNL     1       2.641   1.600   5.167  1.00  0.00    -0.460 OA
BRANCH  44  45
ATOM     45  C   UNL     1       3.334   1.393   6.309  1.00  0.00     0.338 C 
ATOM     46  O   UNL     1       2.881   1.275   7.431  1.00  0.00    -0.246 OA
BRANCH  45  47
ATOM     47  C   UNL     1       4.743   1.138   5.937  1.00  0.00     0.060 A 
ATOM     48  C   UNL     1       5.320  -0.094   6.269  1.00  0.00     0.016 A 
ATOM     49  C   UNL     1       5.486   2.111   5.266  1.00  0.00     0.016 A 
ATOM     50  C   UNL     1       6.660  -0.342   5.965  1.00  0.00     0.010 A 
ATOM     51  C   UNL     1       6.833   1.869   4.982  1.00  0.00     0.010 A 
ATOM     52  C   UNL     1       7.436   0.657   5.364  1.00  0.00    -0.014 A 
BRANCH  52  53
ATOM     53  C   UNL     1       8.913   0.517   5.323  1.00  0.00     0.031 A 
ATOM     54  C   UNL     1       9.722   1.223   6.378  1.00  0.00     0.074 A 
ATOM     55  C   UNL     1       9.524  -0.232   4.389  1.00  0.00     0.049 A 
ATOM     56  N   UNL     1      11.020   1.305   6.515  1.00  0.00    -0.248 NA
ATOM     57  C   UNL     1       8.961   1.936   7.418  1.00  0.00     0.031 C 
ATOM     58  C   UNL     1       8.848  -0.998   3.343  1.00  0.00     0.029 A 
ATOM     59  N   UNL     1      10.859  -0.460   4.165  1.00  0.00    -0.354 N 
ATOM     60  C   UNL     1      11.231   2.083   7.649  1.00  0.00     0.074 A 
ATOM     61  C   UNL     1       9.929   2.478   8.140  1.00  0.00     0.031 C 
ATOM     62  C   UNL     1       9.775  -1.597   2.576  1.00  0.00     0.029 A 
ATOM     63  C   UNL     1      11.108  -1.230   3.053  1.00  0.00     0.049 A 
ATOM     64  H   UNL     1      11.571  -0.107   4.745  1.00  0.00     0.167 HD
ATOM     65  C   UNL     1      12.403   2.427   8.233  1.00  0.00     0.037 A 
ATOM     66  C   UNL     1      12.276  -1.571   2.471  1.00  0.00     0.037 A 
ATOM     67  C   UNL     1      13.695   2.035   7.732  1.00  0.00     0.049 A 
ATOM     68  C   UNL     1      13.572  -1.111   3.093  1.00  0.00     0.074 A 
ATOM     69  C   UNL     1      14.943   2.326   8.254  1.00  0.00     0.029 A 
ATOM     70  N   UNL     1      13.906   1.277   6.590  1.00  0.00    -0.354 N 
ATOM     71  N   UNL     1      13.760  -0.390   4.174  1.00  0.00    -0.248 NA
ATOM     72  C   UNL     1      14.815  -1.514   2.420  1.00  0.00     0.031 C 
ATOM     73  C   UNL     1      15.910   1.795   7.394  1.00  0.00     0.029 A 
ATOM     74  C   UNL     1      15.265   1.113   6.375  1.00  0.00     0.049 A 
ATOM     75  H   UNL     1      13.195   0.909   6.016  1.00  0.00     0.167 HD
ATOM     76  C   UNL     1      15.140  -0.281   4.326  1.00  0.00     0.074 A 
ATOM     77  C   UNL     1      15.738  -1.019   3.233  1.00  0.00     0.031 C 
ATOM     78  C   UNL     1      15.848   0.368   5.285  1.00  0.00     0.037 A 
BRANCH  65  79
ATOM     79  C   UNL     1      12.340   3.296   9.460  1.00  0.00     0.058 A 
ATOM     80  C   UNL     1      11.842   2.818  10.684  1.00  0.00     0.135 A 
ATOM     81  C   UNL     1      12.808   4.620   9.418  1.00  0.00     0.135 A 
ATOM     82  F   UNL     1      11.363   1.568  10.777  1.00  0.00    -0.206 F 
ATOM     83  C   UNL     1      11.783   3.630  11.812  1.00  0.00     0.059 A 
ATOM     84  C   UNL     1      12.789   5.439  10.543  1.00  0.00     0.059 A 
ATOM     85  F   UNL     1      13.291   5.131   8.275  1.00  0.00    -0.206 F 
ATOM     86  C   UNL     1      12.261   4.939  11.732  1.00  0.00     0.060 A 
BRANCH  86  87
ATOM     87  S   UNL     1      12.180   5.977  13.207  1.00  0.00     0.124 S 
ATOM     88  O   UNL     1      10.743   6.209  13.322  1.00  0.00    -0.237 OA
ATOM     89  O   UNL     1      12.766   5.113  14.227  1.00  0.00    -0.237 OA
ATOM     90  O   UNL     1      12.976   7.146  12.846  1.00  0.00    -0.744 OA
ENDBRANCH  86  87
ENDBRANCH  65  79
BRANCH  66  91
ATOM     91  C   UNL     1      12.277  -2.376   1.219  1.00  0.00     0.058 A 
ATOM     92  C   UNL     1      12.765  -3.690   1.195  1.00  0.00     0.135 A 
ATOM     93  C   UNL     1      11.787  -1.842   0.015  1.00  0.00     0.135 A 
ATOM     94  F   UNL     1      13.259  -4.242   2.314  1.00  0.00    -0.206 F 
ATOM     95  C   UNL     1      12.780  -4.443   0.025  1.00  0.00     0.059 A 
ATOM     96  C   UNL     1      11.763  -2.585  -1.161  1.00  0.00     0.059 A 
ATOM     97  F   UNL     1      11.302  -0.591  -0.018  1.00  0.00    -0.206 F 
ATOM     98  C   UNL     1      12.270  -3.883  -1.148  1.00  0.00     0.060 A 
BRANCH  98  99
ATOM     99  S   UNL     1      12.241  -4.890  -2.647  1.00  0.00     0.124 S 
ATOM    100  O   UNL     1      13.658  -4.962  -2.982  1.00  0.00    -0.237 OA
ATOM    101  O   UNL     1      11.632  -6.128  -2.170  1.00  0.00    -0.237 OA
ATOM    102  O   UNL     1      11.415  -4.107  -3.562  1.00  0.00    -0.744 OA
ENDBRANCH  98  99
ENDBRANCH  66  91
BRANCH  78 103
ATOM    103  C   UNL     1      17.351   0.278   5.229  1.00  0.00     0.058 A 
ATOM    104  C   UNL     1      18.100   0.937   4.242  1.00  0.00     0.135 A 
ATOM    105  C   UNL     1      18.055  -0.431   6.217  1.00  0.00     0.135 A 
ATOM    106  F   UNL     1      17.480   1.626   3.270  1.00  0.00    -0.206 F 
ATOM    107  C   UNL     1      19.490   0.875   4.221  1.00  0.00     0.059 A 
ATOM    108  C   UNL     1      19.445  -0.479   6.236  1.00  0.00     0.059 A 
ATOM    109  F   UNL     1      17.390  -1.071   7.194  1.00  0.00    -0.206 F 
ATOM    110  C   UNL     1      20.154   0.168   5.225  1.00  0.00     0.060 A 
BRANCH 110 111
ATOM    111  S   UNL     1      21.959   0.125   5.205  1.00  0.00     0.124 S 
ATOM    112  O   UNL     1      22.221  -0.746   4.064  1.00  0.00    -0.237 OA
ATOM    113  O   UNL     1      22.302   1.532   5.021  1.00  0.00    -0.237 OA
ATOM    114  O   UNL     1      22.302  -0.431   6.511  1.00  0.00    -0.744 OA
ENDBRANCH 110 111
ENDBRANCH  78 103
ENDBRANCH  52  53
ENDBRANCH  45  47
ENDBRANCH  44  45
ENDBRANCH  43  44
ENDBRANCH  42  43
ENDBRANCH  41  42
ENDBRANCH  40  41
ENDBRANCH  39  40
ENDBRANCH  38  39
ENDBRANCH  37  38
ENDBRANCH   1  37
TORSDOF 31
