REMARK SMILES CC1(C)CCSC[C@@]1(Nc1ccccc1Br)C(=O)OCCOCCOCCOCCOC(=O)c1ccc(-c2c3nc(c(-c4c(F)cc(S(=O)(=O)[O-])cc4F)c4ccc([nH]4)c(-c4c(F)cc(S(=O)(=O)[O-])cc4F)c4nc(c(-c5c(F)cc(S(=O)(=O)[O-])cc5F)c5ccc2[nH]5)C=C4)C=C3)cc1
REMARK SMILES IDX 26 1 25 2 24 3 23 4 22 5 21 6 20 7 19 8 17 9 18 10 8 11 1 12
REMARK SMILES IDX 2 13 3 14 4 15 5 16 7 17 6 18 9 19 10 21 11 22 15 23 12 24
REMARK SMILES IDX 14 25 16 26 13 27 27 28 28 29 29 30 30 31 31 32 32 33 33 34
REMARK SMILES IDX 34 35 35 36 99 37 36 38 98 39 37 40 38 41 39 42 92 43 40 44
REMARK SMILES IDX 97 45 91 46 93 47 41 48 96 49 90 50 89 51 42 53 76 54 55 55
REMARK SMILES IDX 75 56 56 57 59 58 74 59 94 60 57 61 58 62 73 64 95 65 60 66
REMARK SMILES IDX 43 67 44 68 53 69 45 70 46 71 52 72 54 73 47 74 48 75 49 76
REMARK SMILES IDX 50 77 51 78 77 79 78 80 87 81 79 82 80 83 86 84 88 85 81 86
REMARK SMILES IDX 82 87 83 88 84 89 85 90 61 91 62 92 71 93 63 94 64 95 70 96
REMARK SMILES IDX 72 97 65 98 66 99 67 100 68 101 69 102
REMARK H PARENT 9 20 93 52 59 63
REMARK Flexibility Score: inf
ROOT
ATOM      1  C   UNL     1       2.529   3.402  -0.680  1.00  0.00     0.188 C 
ENDROOT
BRANCH   1   2
ATOM      2  O   UNL     1       2.020   2.505   0.279  1.00  0.00    -0.377 OA
BRANCH   2   3
ATOM      3  C   UNL     1       0.804   1.882  -0.049  1.00  0.00     0.188 C 
BRANCH   3   4
ATOM      4  C   UNL     1      -0.412   2.490   0.644  1.00  0.00     0.188 C 
BRANCH   4   5
ATOM      5  O   UNL     1      -0.331   3.029   1.962  1.00  0.00    -0.376 OA
BRANCH   5   6
ATOM      6  C   UNL     1       0.880   2.945   2.693  1.00  0.00     0.202 C 
BRANCH   6   7
ATOM      7  C   UNL     1       1.291   1.559   3.222  1.00  0.00     0.261 C 
BRANCH   7   8
ATOM      8  O   UNL     1       0.961   0.424   2.387  1.00  0.00    -0.461 OA
BRANCH   8   9
ATOM      9  C   UNL     1      -0.165  -0.253   2.724  1.00  0.00     0.333 C 
ATOM     10  O   UNL     1      -0.828   0.076   3.707  1.00  0.00    -0.249 OA
BRANCH   9  11
ATOM     11  C   UNL     1      -0.432  -1.603   1.911  1.00  0.00     0.150 C 
ATOM     12  C   UNL     1       1.871  -1.567   0.547  1.00  0.00     0.014 C 
ATOM     13  C   UNL     1       0.353  -1.913   0.515  1.00  0.00     0.000 C 
ATOM     14  C   UNL     1      -0.319  -1.208  -0.701  1.00  0.00     0.014 C 
ATOM     15  C   UNL     1       0.282  -3.437   0.119  1.00  0.00     0.020 C 
ATOM     16  C   UNL     1       0.884  -4.411   1.115  1.00  0.00     0.070 C 
ATOM     17  C   UNL     1       0.018  -2.638   3.000  1.00  0.00     0.110 C 
ATOM     18  S   UNL     1      -0.122  -4.412   2.602  1.00  0.00    -0.159 SA
BRANCH  11  19
ATOM     19  N   UNL     1      -1.930  -1.721   1.584  1.00  0.00    -0.368 N 
ATOM     20  H   UNL     1      -2.212  -1.894   0.657  1.00  0.00     0.161 HD
BRANCH  19  21
ATOM     21  C   UNL     1      -2.903  -1.583   2.588  1.00  0.00     0.049 A 
ATOM     22  C   UNL     1      -3.222  -2.708   3.359  1.00  0.00     0.027 A 
ATOM     23  C   UNL     1      -3.525  -0.372   2.945  1.00  0.00     0.041 A 
ATOM     24  C   UNL     1      -3.972  -2.605   4.531  1.00  0.00     0.002 A 
ATOM     25  C   UNL     1      -4.247  -0.254   4.140  1.00  0.00     0.018 A 
ATOM     26  Br  UNL     1      -3.560   1.136   1.800  1.00  0.00    -0.049 Br
ATOM     27  C   UNL     1      -4.444  -1.367   4.948  1.00  0.00     0.001 A 
ENDBRANCH  19  21
ENDBRANCH  11  19
ENDBRANCH   9  11
ENDBRANCH   8   9
ENDBRANCH   7   8
ENDBRANCH   6   7
ENDBRANCH   5   6
ENDBRANCH   4   5
ENDBRANCH   3   4
ENDBRANCH   2   3
ENDBRANCH   1   2
BRANCH   1  28
ATOM     28  C   UNL     1       1.524   4.362  -1.324  1.00  0.00     0.188 C 
BRANCH  28  29
ATOM     29  O   UNL     1       0.582   3.694  -2.170  1.00  0.00    -0.376 OA
BRANCH  29  30
ATOM     30  C   UNL     1       0.872   3.688  -3.566  1.00  0.00     0.202 C 
BRANCH  30  31
ATOM     31  C   UNL     1       1.852   2.597  -4.030  1.00  0.00     0.261 C 
BRANCH  31  32
ATOM     32  O   UNL     1       3.221   2.713  -3.599  1.00  0.00    -0.460 OA
BRANCH  32  33
ATOM     33  C   UNL     1       3.867   3.894  -3.735  1.00  0.00     0.338 C 
ATOM     34  O   UNL     1       3.456   4.894  -4.298  1.00  0.00    -0.246 OA
BRANCH  33  35
ATOM     35  C   UNL     1       5.068   3.847  -2.868  1.00  0.00     0.060 A 
ATOM     36  C   UNL     1       5.234   4.841  -1.895  1.00  0.00     0.016 A 
ATOM     37  C   UNL     1       5.977   2.790  -2.955  1.00  0.00     0.016 A 
ATOM     38  C   UNL     1       6.301   4.773  -0.994  1.00  0.00     0.010 A 
ATOM     39  C   UNL     1       7.069   2.747  -2.083  1.00  0.00     0.010 A 
ATOM     40  C   UNL     1       7.243   3.742  -1.105  1.00  0.00    -0.014 A 
BRANCH  40  41
ATOM     41  C   UNL     1       8.510   3.795  -0.336  1.00  0.00     0.031 A 
ATOM     42  C   UNL     1       9.682   4.504  -0.958  1.00  0.00     0.074 A 
ATOM     43  C   UNL     1       8.638   3.193   0.862  1.00  0.00     0.049 A 
ATOM     44  N   UNL     1      10.918   4.582  -0.542  1.00  0.00    -0.248 NA
ATOM     45  C   UNL     1       9.424   5.215  -2.222  1.00  0.00     0.031 C 
ATOM     46  C   UNL     1       7.571   2.504   1.585  1.00  0.00     0.029 A 
ATOM     47  N   UNL     1       9.740   3.045   1.670  1.00  0.00    -0.354 N 
ATOM     48  C   UNL     1      11.588   5.337  -1.496  1.00  0.00     0.074 A 
ATOM     49  C   UNL     1      10.625   5.692  -2.515  1.00  0.00     0.031 C 
ATOM     50  C   UNL     1       8.080   1.974   2.713  1.00  0.00     0.029 A 
ATOM     51  C   UNL     1       9.514   2.257   2.775  1.00  0.00     0.049 A 
ATOM     52  H   UNL     1      10.610   3.463   1.476  1.00  0.00     0.167 HD
ATOM     53  C   UNL     1      12.890   5.699  -1.522  1.00  0.00     0.037 A 
ATOM     54  C   UNL     1      10.374   1.787   3.702  1.00  0.00     0.037 A 
ATOM     55  C   UNL     1      13.847   5.350  -0.508  1.00  0.00     0.049 A 
ATOM     56  C   UNL     1      11.840   2.138   3.603  1.00  0.00     0.074 A 
ATOM     57  C   UNL     1      15.175   5.725  -0.418  1.00  0.00     0.029 A 
ATOM     58  N   UNL     1      13.585   4.531   0.578  1.00  0.00    -0.354 N 
ATOM     59  N   UNL     1      12.448   2.906   2.730  1.00  0.00    -0.248 NA
ATOM     60  C   UNL     1      12.740   1.548   4.607  1.00  0.00     0.031 C 
ATOM     61  C   UNL     1      15.733   5.088   0.694  1.00  0.00     0.029 A 
ATOM     62  C   UNL     1      14.740   4.352   1.320  1.00  0.00     0.049 A 
ATOM     63  H   UNL     1      12.709   4.135   0.790  1.00  0.00     0.167 HD
ATOM     64  C   UNL     1      13.794   2.901   3.089  1.00  0.00     0.074 A 
ATOM     65  C   UNL     1      13.911   2.070   4.267  1.00  0.00     0.031 C 
ATOM     66  C   UNL     1      14.840   3.525   2.494  1.00  0.00     0.037 A 
BRANCH  53  67
ATOM     67  C   UNL     1      13.374   6.496  -2.696  1.00  0.00     0.058 A 
ATOM     68  C   UNL     1      13.103   7.866  -2.815  1.00  0.00     0.135 A 
ATOM     69  C   UNL     1      14.185   5.894  -3.670  1.00  0.00     0.135 A 
ATOM     70  F   UNL     1      12.312   8.480  -1.921  1.00  0.00    -0.206 F 
ATOM     71  C   UNL     1      13.626   8.618  -3.861  1.00  0.00     0.059 A 
ATOM     72  C   UNL     1      14.734   6.630  -4.715  1.00  0.00     0.059 A 
ATOM     73  F   UNL     1      14.460   4.582  -3.604  1.00  0.00    -0.206 F 
ATOM     74  C   UNL     1      14.447   7.992  -4.802  1.00  0.00     0.060 A 
BRANCH  74  75
ATOM     75  S   UNL     1      15.161   8.992  -6.124  1.00  0.00     0.124 S 
ATOM     76  O   UNL     1      13.994   9.234  -6.968  1.00  0.00    -0.237 OA
ATOM     77  O   UNL     1      15.668  10.152  -5.397  1.00  0.00    -0.237 OA
ATOM     78  O   UNL     1      16.180   8.120  -6.698  1.00  0.00    -0.744 OA
ENDBRANCH  74  75
ENDBRANCH  53  67
BRANCH  54  79
ATOM     79  C   UNL     1       9.904   0.872   4.778  1.00  0.00     0.058 A 
ATOM     80  C   UNL     1       9.910   1.266   6.125  1.00  0.00     0.135 A 
ATOM     81  C   UNL     1       9.502  -0.441   4.486  1.00  0.00     0.135 A 
ATOM     82  F   UNL     1      10.304   2.505   6.458  1.00  0.00    -0.206 F 
ATOM     83  C   UNL     1       9.564   0.385   7.145  1.00  0.00     0.059 A 
ATOM     84  C   UNL     1       9.127  -1.333   5.486  1.00  0.00     0.059 A 
ATOM     85  F   UNL     1       9.473  -0.869   3.214  1.00  0.00    -0.206 F 
ATOM     86  C   UNL     1       9.180  -0.916   6.815  1.00  0.00     0.060 A 
BRANCH  86  87
ATOM     87  S   UNL     1       8.725  -2.055   8.141  1.00  0.00     0.124 S 
ATOM     88  O   UNL     1      10.033  -2.428   8.667  1.00  0.00    -0.237 OA
ATOM     89  O   UNL     1       7.904  -1.213   9.005  1.00  0.00    -0.237 OA
ATOM     90  O   UNL     1       8.001  -3.110   7.437  1.00  0.00    -0.744 OA
ENDBRANCH  86  87
ENDBRANCH  54  79
BRANCH  66  91
ATOM     91  C   UNL     1      16.202   3.349   3.103  1.00  0.00     0.058 A 
ATOM     92  C   UNL     1      16.924   2.156   2.945  1.00  0.00     0.135 A 
ATOM     93  C   UNL     1      16.827   4.411   3.777  1.00  0.00     0.135 A 
ATOM     94  F   UNL     1      16.369   1.109   2.314  1.00  0.00    -0.206 F 
ATOM     95  C   UNL     1      18.217   2.019   3.441  1.00  0.00     0.059 A 
ATOM     96  C   UNL     1      18.127   4.304   4.261  1.00  0.00     0.059 A 
ATOM     97  F   UNL     1      16.183   5.577   3.945  1.00  0.00    -0.206 F 
ATOM     98  C   UNL     1      18.812   3.101   4.093  1.00  0.00     0.060 A 
BRANCH  98  99
ATOM     99  S   UNL     1      20.511   2.930   4.680  1.00  0.00     0.124 S 
ATOM    100  O   UNL     1      20.332   2.089   5.859  1.00  0.00    -0.237 OA
ATOM    101  O   UNL     1      21.174   2.297   3.544  1.00  0.00    -0.237 OA
ATOM    102  O   UNL     1      20.918   4.307   4.947  1.00  0.00    -0.744 OA
ENDBRANCH  98  99
ENDBRANCH  66  91
ENDBRANCH  40  41
ENDBRANCH  33  35
ENDBRANCH  32  33
ENDBRANCH  31  32
ENDBRANCH  30  31
ENDBRANCH  29  30
ENDBRANCH  28  29
ENDBRANCH   1  28
TORSDOF 25
