REMARK SMILES CC[C@@](C)([NH2+]C[C@@H]1C[N@@H+](C(C)C)CCO1)C(=O)OCCOCCOCCOCCOC(=O)c1ccc(-c2c3nc(c(-c4c(F)cc(S(=O)(=O)[O-])cc4F)c4ccc([nH]4)c(-c4c(F)cc(S(=O)(=O)[O-])cc4F)c4nc(c(-c5c(F)cc(S(=O)(=O)[O-])cc5F)c5ccc2[nH]5)C=C4)C=C3)cc1
REMARK SMILES IDX 23 1 22 2 21 3 20 4 19 5 18 6 16 7 17 8 3 9 4 10 2 11 1 12
REMARK SMILES IDX 5 13 6 16 7 17 8 18 15 19 9 20 14 21 13 22 10 24 11 25 12 26
REMARK SMILES IDX 24 27 25 28 26 29 27 30 28 31 29 32 30 33 31 34 32 35 33 36
REMARK SMILES IDX 34 37 98 38 35 39 97 40 36 41 37 42 38 43 91 44 39 45 96 46
REMARK SMILES IDX 90 47 92 48 40 49 95 50 89 51 88 52 41 54 75 55 54 56 74 57
REMARK SMILES IDX 55 58 58 59 73 60 93 61 56 62 57 63 72 65 94 66 59 67 42 68
REMARK SMILES IDX 43 69 52 70 44 71 45 72 51 73 53 74 46 75 47 76 48 77 49 78
REMARK SMILES IDX 50 79 76 80 77 81 86 82 78 83 79 84 85 85 87 86 80 87 81 88
REMARK SMILES IDX 82 89 83 90 84 91 60 92 61 93 70 94 62 95 63 96 69 97 71 98
REMARK SMILES IDX 64 99 65 100 66 101 67 102 68 103
REMARK H PARENT 5 14 5 15 9 23 92 53 58 64
REMARK Flexibility Score: inf
ROOT
ATOM      1  C   UNL     1       2.928   3.788   1.405  1.00  0.00     0.188 C 
ENDROOT
BRANCH   1   2
ATOM      2  C   UNL     1       3.823   2.536   1.389  1.00  0.00     0.188 C 
BRANCH   2   3
ATOM      3  O   UNL     1       5.105   2.729   0.806  1.00  0.00    -0.376 OA
BRANCH   3   4
ATOM      4  C   UNL     1       5.319   2.162  -0.479  1.00  0.00     0.202 C 
BRANCH   4   5
ATOM      5  C   UNL     1       4.500   2.759  -1.631  1.00  0.00     0.261 C 
BRANCH   5   6
ATOM      6  O   UNL     1       3.079   2.741  -1.425  1.00  0.00    -0.459 OA
BRANCH   6   7
ATOM      7  C   UNL     1       2.485   1.530  -1.377  1.00  0.00     0.367 C 
ATOM      8  O   UNL     1       3.104   0.482  -1.554  1.00  0.00    -0.245 OA
BRANCH   7   9
ATOM      9  C   UNL     1       0.960   1.567  -1.115  1.00  0.00     0.191 C 
ATOM     10  C   UNL     1       0.337   0.899  -2.346  1.00  0.00     0.092 C 
BRANCH   9  11
ATOM     11  C   UNL     1       0.609   0.758   0.177  1.00  0.00     0.077 C 
ATOM     12  C   UNL     1       0.985  -0.714   0.235  1.00  0.00     0.011 C 
ENDBRANCH   9  11
BRANCH   9  13
ATOM     13  N   UNL     1       0.339   2.881  -0.752  1.00  0.00    -0.330 N 
ATOM     14  H   UNL     1       0.653   3.082   0.197  1.00  0.00     0.347 HD
ATOM     15  H   UNL     1      -0.643   2.691  -0.951  1.00  0.00     0.347 HD
BRANCH  13  16
ATOM     16  C   UNL     1       0.539   4.124  -1.508  1.00  0.00     0.299 C 
BRANCH  16  17
ATOM     17  C   UNL     1      -0.035   4.119  -2.928  1.00  0.00     0.227 C 
ATOM     18  C   UNL     1      -0.516   5.514  -3.397  1.00  0.00     0.300 C 
ATOM     19  O   UNL     1      -1.157   3.212  -2.986  1.00  0.00    -0.361 OA
ATOM     20  N   UNL     1      -1.091   5.492  -4.762  1.00  0.00    -0.329 N 
ATOM     21  C   UNL     1      -1.534   3.043  -4.357  1.00  0.00     0.222 C 
ATOM     22  C   UNL     1      -2.037   4.374  -4.912  1.00  0.00     0.291 C 
ATOM     23  H   UNL     1      -1.674   6.320  -4.884  1.00  0.00     0.348 HD
BRANCH  20  24
ATOM     24  C   UNL     1      -0.128   5.760  -5.850  1.00  0.00     0.177 C 
ATOM     25  C   UNL     1       1.260   5.119  -5.724  1.00  0.00     0.075 C 
ATOM     26  C   UNL     1      -0.674   5.468  -7.253  1.00  0.00     0.075 C 
ENDBRANCH  20  24
ENDBRANCH  16  17
ENDBRANCH  13  16
ENDBRANCH   9  13
ENDBRANCH   7   9
ENDBRANCH   6   7
ENDBRANCH   5   6
ENDBRANCH   4   5
ENDBRANCH   3   4
ENDBRANCH   2   3
ENDBRANCH   1   2
BRANCH   1  27
ATOM     27  O   UNL     1       3.333   4.915   0.649  1.00  0.00    -0.377 OA
BRANCH  27  28
ATOM     28  C   UNL     1       4.636   5.452   0.836  1.00  0.00     0.188 C 
BRANCH  28  29
ATOM     29  C   UNL     1       5.454   5.186   2.121  1.00  0.00     0.188 C 
BRANCH  29  30
ATOM     30  O   UNL     1       4.729   4.630   3.208  1.00  0.00    -0.376 OA
BRANCH  30  31
ATOM     31  C   UNL     1       4.401   5.503   4.277  1.00  0.00     0.202 C 
BRANCH  31  32
ATOM     32  C   UNL     1       3.365   6.588   3.958  1.00  0.00     0.261 C 
BRANCH  32  33
ATOM     33  O   UNL     1       3.725   7.508   2.918  1.00  0.00    -0.460 OA
BRANCH  33  34
ATOM     34  C   UNL     1       4.855   8.231   3.083  1.00  0.00     0.338 C 
ATOM     35  O   UNL     1       5.614   8.214   4.035  1.00  0.00    -0.246 OA
BRANCH  34  36
ATOM     36  C   UNL     1       5.113   8.923   1.808  1.00  0.00     0.060 A 
ATOM     37  C   UNL     1       6.296   8.657   1.103  1.00  0.00     0.016 A 
ATOM     38  C   UNL     1       4.163   9.811   1.304  1.00  0.00     0.016 A 
ATOM     39  C   UNL     1       6.545   9.307  -0.106  1.00  0.00     0.010 A 
ATOM     40  C   UNL     1       4.426  10.482   0.113  1.00  0.00     0.010 A 
ATOM     41  C   UNL     1       5.632  10.259  -0.576  1.00  0.00    -0.014 A 
BRANCH  41  42
ATOM     42  C   UNL     1       6.021  11.218  -1.633  1.00  0.00     0.031 A 
ATOM     43  C   UNL     1       6.558  12.549  -1.192  1.00  0.00     0.074 A 
ATOM     44  C   UNL     1       5.832  10.949  -2.935  1.00  0.00     0.049 A 
ATOM     45  N   UNL     1       6.790  13.626  -1.892  1.00  0.00    -0.248 NA
ATOM     46  C   UNL     1       6.854  12.683   0.244  1.00  0.00     0.031 C 
ATOM     47  C   UNL     1       5.352   9.681  -3.477  1.00  0.00     0.029 A 
ATOM     48  N   UNL     1       5.988  11.755  -4.035  1.00  0.00    -0.354 N 
ATOM     49  C   UNL     1       7.231  14.575  -0.979  1.00  0.00     0.074 A 
ATOM     50  C   UNL     1       7.218  13.952   0.326  1.00  0.00     0.031 C 
ATOM     51  C   UNL     1       5.211   9.807  -4.808  1.00  0.00     0.029 A 
ATOM     52  C   UNL     1       5.548  11.176  -5.200  1.00  0.00     0.049 A 
ATOM     53  H   UNL     1       6.377  12.658  -3.993  1.00  0.00     0.167 HD
ATOM     54  C   UNL     1       7.604  15.856  -1.208  1.00  0.00     0.037 A 
ATOM     55  C   UNL     1       5.389  11.708  -6.429  1.00  0.00     0.037 A 
ATOM     56  C   UNL     1       7.593  16.466  -2.509  1.00  0.00     0.049 A 
ATOM     57  C   UNL     1       5.759  13.150  -6.663  1.00  0.00     0.074 A 
ATOM     58  C   UNL     1       7.973  17.748  -2.861  1.00  0.00     0.029 A 
ATOM     59  N   UNL     1       7.160  15.842  -3.671  1.00  0.00    -0.354 N 
ATOM     60  N   UNL     1       6.201  14.038  -5.802  1.00  0.00    -0.248 NA
ATOM     61  C   UNL     1       5.611  13.666  -8.031  1.00  0.00     0.031 C 
ATOM     62  C   UNL     1       7.715  17.917  -4.226  1.00  0.00     0.029 A 
ATOM     63  C   UNL     1       7.237  16.720  -4.738  1.00  0.00     0.049 A 
ATOM     64  H   UNL     1       6.843  14.911  -3.727  1.00  0.00     0.167 HD
ATOM     65  C   UNL     1       6.413  15.206  -6.529  1.00  0.00     0.074 A 
ATOM     66  C   UNL     1       6.047  14.913  -7.900  1.00  0.00     0.031 C 
ATOM     67  C   UNL     1       6.878  16.407  -6.101  1.00  0.00     0.037 A 
BRANCH  54  68
ATOM     68  C   UNL     1       7.991  16.681  -0.012  1.00  0.00     0.058 A 
ATOM     69  C   UNL     1       9.159  16.424   0.725  1.00  0.00     0.135 A 
ATOM     70  C   UNL     1       7.160  17.726   0.422  1.00  0.00     0.135 A 
ATOM     71  F   UNL     1       9.979  15.423   0.367  1.00  0.00    -0.206 F 
ATOM     72  C   UNL     1       9.461  17.139   1.880  1.00  0.00     0.059 A 
ATOM     73  C   UNL     1       7.460  18.476   1.555  1.00  0.00     0.059 A 
ATOM     74  F   UNL     1       6.031  18.014  -0.243  1.00  0.00    -0.206 F 
ATOM     75  C   UNL     1       8.600  18.157   2.292  1.00  0.00     0.060 A 
BRANCH  75  76
ATOM     76  S   UNL     1       8.980  19.047   3.815  1.00  0.00     0.124 S 
ATOM     77  O   UNL     1       8.641  18.049   4.826  1.00  0.00    -0.237 OA
ATOM     78  O   UNL     1      10.402  19.335   3.663  1.00  0.00    -0.237 OA
ATOM     79  O   UNL     1       8.098  20.208   3.760  1.00  0.00    -0.744 OA
ENDBRANCH  75  76
ENDBRANCH  54  68
BRANCH  55  80
ATOM     80  C   UNL     1       4.833  10.863  -7.519  1.00  0.00     0.058 A 
ATOM     81  C   UNL     1       5.646  10.392  -8.559  1.00  0.00     0.135 A 
ATOM     82  C   UNL     1       3.490  10.453  -7.500  1.00  0.00     0.135 A 
ATOM     83  F   UNL     1       6.931  10.770  -8.630  1.00  0.00    -0.206 F 
ATOM     84  C   UNL     1       5.153   9.529  -9.534  1.00  0.00     0.059 A 
ATOM     85  C   UNL     1       2.981   9.573  -8.449  1.00  0.00     0.059 A 
ATOM     86  F   UNL     1       2.673  10.870  -6.521  1.00  0.00    -0.206 F 
ATOM     87  C   UNL     1       3.822   9.112  -9.460  1.00  0.00     0.060 A 
BRANCH  87  88
ATOM     88  S   UNL     1       3.228   7.894 -10.655  1.00  0.00     0.124 S 
ATOM     89  O   UNL     1       3.140   8.692 -11.872  1.00  0.00    -0.237 OA
ATOM     90  O   UNL     1       4.290   6.892 -10.622  1.00  0.00    -0.237 OA
ATOM     91  O   UNL     1       1.955   7.460 -10.087  1.00  0.00    -0.744 OA
ENDBRANCH  87  88
ENDBRANCH  55  80
BRANCH  67  92
ATOM     92  C   UNL     1       7.074  17.494  -7.124  1.00  0.00     0.058 A 
ATOM     93  C   UNL     1       5.995  18.194  -7.682  1.00  0.00     0.135 A 
ATOM     94  C   UNL     1       8.373  17.907  -7.468  1.00  0.00     0.135 A 
ATOM     95  F   UNL     1       4.734  17.837  -7.392  1.00  0.00    -0.206 F 
ATOM     96  C   UNL     1       6.196  19.264  -8.550  1.00  0.00     0.059 A 
ATOM     97  C   UNL     1       8.597  18.989  -8.312  1.00  0.00     0.059 A 
ATOM     98  F   UNL     1       9.441  17.276  -6.953  1.00  0.00    -0.206 F 
ATOM     99  C   UNL     1       7.501  19.660  -8.852  1.00  0.00     0.060 A 
BRANCH  99 100
ATOM    100  S   UNL     1       7.748  21.091  -9.925  1.00  0.00     0.124 S 
ATOM    101  O   UNL     1       7.368  20.551 -11.227  1.00  0.00    -0.237 OA
ATOM    102  O   UNL     1       6.832  22.072  -9.353  1.00  0.00    -0.237 OA
ATOM    103  O   UNL     1       9.166  21.398  -9.764  1.00  0.00    -0.744 OA
ENDBRANCH  99 100
ENDBRANCH  67  92
ENDBRANCH  41  42
ENDBRANCH  34  36
ENDBRANCH  33  34
ENDBRANCH  32  33
ENDBRANCH  31  32
ENDBRANCH  30  31
ENDBRANCH  29  30
ENDBRANCH  28  29
ENDBRANCH  27  28
ENDBRANCH   1  27
TORSDOF 28
