REMARK SMILES O=C(C[C@@H](NC(=O)C1CC=CC1)C1CC1)OCCOCCOCCOCCOC(=O)c1ccc(-c2c3nc(c(-c4c(F)cc(S(=O)(=O)[O-])cc4F)c4ccc([nH]4)c(-c4c(F)cc(S(=O)(=O)[O-])cc4F)c4nc(c(-c5c(F)cc(S(=O)(=O)[O-])cc5F)c5ccc2[nH]5)C=C4)C=C3)cc1
REMARK SMILES IDX 22 1 21 2 20 3 19 4 18 5 17 6 16 7 2 8 1 9 3 10 4 11 5 12
REMARK SMILES IDX 6 13 7 15 8 16 9 17 12 18 10 19 11 20 13 21 14 22 15 23
REMARK SMILES IDX 23 24 24 25 25 26 26 27 27 28 28 29 29 30 30 31 31 32 32 33
REMARK SMILES IDX 96 34 33 35 95 36 34 37 35 38 36 39 89 40 37 41 94 42 88 43
REMARK SMILES IDX 90 44 38 45 93 46 87 47 86 48 39 50 73 51 52 52 72 53 53 54
REMARK SMILES IDX 56 55 71 56 91 57 54 58 55 59 70 61 92 62 57 63 40 64 41 65
REMARK SMILES IDX 50 66 42 67 43 68 49 69 51 70 44 71 45 72 46 73 47 74 48 75
REMARK SMILES IDX 74 76 75 77 84 78 76 79 77 80 83 81 85 82 78 83 79 84 80 85
REMARK SMILES IDX 81 86 82 87 58 88 59 89 68 90 60 91 61 92 67 93 69 94 62 95
REMARK SMILES IDX 63 96 64 97 65 98 66 99
REMARK H PARENT 5 14 90 49 56 60
REMARK Flexibility Score: inf
ROOT
ATOM      1  O   UNL     1       2.605   2.478  -2.994  1.00  0.00    -0.377 OA
ENDROOT
BRANCH   1   2
ATOM      2  C   UNL     1       1.891   2.205  -1.794  1.00  0.00     0.188 C 
BRANCH   2   3
ATOM      3  C   UNL     1       2.284   0.949  -1.011  1.00  0.00     0.188 C 
BRANCH   3   4
ATOM      4  O   UNL     1       3.572   0.995  -0.402  1.00  0.00    -0.376 OA
BRANCH   4   5
ATOM      5  C   UNL     1       4.563   0.015  -0.718  1.00  0.00     0.202 C 
BRANCH   5   6
ATOM      6  C   UNL     1       4.128  -1.404  -1.083  1.00  0.00     0.261 C 
BRANCH   6   7
ATOM      7  O   UNL     1       3.729  -2.239   0.030  1.00  0.00    -0.463 OA
BRANCH   7   8
ATOM      8  C   UNL     1       2.616  -1.946   0.739  1.00  0.00     0.307 C 
ATOM      9  O   UNL     1       1.528  -2.456   0.500  1.00  0.00    -0.252 OA
BRANCH   8  10
ATOM     10  C   UNL     1       2.821  -0.964   1.865  1.00  0.00     0.147 C 
BRANCH  10  11
ATOM     11  C   UNL     1       4.104  -1.014   2.726  1.00  0.00     0.096 C 
BRANCH  11  12
ATOM     12  N   UNL     1       5.284  -1.472   1.979  1.00  0.00    -0.352 N 
ATOM     13  C   UNL     1       6.608  -1.652   2.099  1.00  0.00     0.223 C 
ATOM     14  H   UNL     1       5.005  -1.740   1.073  1.00  0.00     0.163 HD
ATOM     15  O   UNL     1       7.135  -2.211   1.125  1.00  0.00    -0.275 OA
BRANCH  13  16
ATOM     16  C   UNL     1       7.509  -1.166   3.206  1.00  0.00     0.086 C 
ATOM     17  C   UNL     1       8.030   0.249   2.934  1.00  0.00     0.040 C 
ATOM     18  C   UNL     1       6.992  -1.218   4.636  1.00  0.00     0.040 C 
ATOM     19  C   UNL     1       7.825   0.949   4.235  1.00  0.00    -0.030 C 
ATOM     20  C   UNL     1       7.246   0.163   5.149  1.00  0.00    -0.030 C 
ENDBRANCH  13  16
ENDBRANCH  11  12
BRANCH  11  21
ATOM     21  C   UNL     1       4.315   0.304   3.455  1.00  0.00     0.012 C 
ATOM     22  C   UNL     1       4.886   1.542   2.795  1.00  0.00     0.006 C 
ATOM     23  C   UNL     1       3.470   1.562   3.269  1.00  0.00     0.006 C 
ENDBRANCH  11  21
ENDBRANCH  10  11
ENDBRANCH   8  10
ENDBRANCH   7   8
ENDBRANCH   6   7
ENDBRANCH   5   6
ENDBRANCH   4   5
ENDBRANCH   3   4
ENDBRANCH   2   3
ENDBRANCH   1   2
BRANCH   1  24
ATOM     24  C   UNL     1       4.018   2.355  -2.941  1.00  0.00     0.188 C 
BRANCH  24  25
ATOM     25  C   UNL     1       4.798   3.227  -1.929  1.00  0.00     0.188 C 
BRANCH  25  26
ATOM     26  O   UNL     1       3.975   3.862  -0.964  1.00  0.00    -0.376 OA
BRANCH  26  27
ATOM     27  C   UNL     1       3.774   5.260  -1.129  1.00  0.00     0.202 C 
BRANCH  27  28
ATOM     28  C   UNL     1       3.127   5.773  -2.430  1.00  0.00     0.261 C 
BRANCH  28  29
ATOM     29  O   UNL     1       3.601   5.207  -3.663  1.00  0.00    -0.460 OA
BRANCH  29  30
ATOM     30  C   UNL     1       4.806   5.593  -4.139  1.00  0.00     0.338 C 
ATOM     31  O   UNL     1       5.554   6.417  -3.643  1.00  0.00    -0.246 OA
BRANCH  30  32
ATOM     32  C   UNL     1       5.166   4.645  -5.228  1.00  0.00     0.060 A 
ATOM     33  C   UNL     1       6.375   3.936  -5.136  1.00  0.00     0.016 A 
ATOM     34  C   UNL     1       4.263   4.351  -6.256  1.00  0.00     0.016 A 
ATOM     35  C   UNL     1       6.678   2.933  -6.067  1.00  0.00     0.010 A 
ATOM     36  C   UNL     1       4.583   3.373  -7.205  1.00  0.00     0.010 A 
ATOM     37  C   UNL     1       5.798   2.669  -7.126  1.00  0.00    -0.014 A 
BRANCH  37  38
ATOM     38  C   UNL     1       6.232   1.838  -8.280  1.00  0.00     0.031 A 
ATOM     39  C   UNL     1       6.862   2.552  -9.445  1.00  0.00     0.074 A 
ATOM     40  C   UNL     1       6.039   0.506  -8.328  1.00  0.00     0.049 A 
ATOM     41  N   UNL     1       7.204   2.090 -10.618  1.00  0.00    -0.248 NA
ATOM     42  C   UNL     1       7.135   3.988  -9.260  1.00  0.00     0.031 C 
ATOM     43  C   UNL     1       5.475  -0.311  -7.255  1.00  0.00     0.029 A 
ATOM     44  N   UNL     1       6.277  -0.393  -9.342  1.00  0.00    -0.354 N 
ATOM     45  C   UNL     1       7.707   3.180 -11.318  1.00  0.00     0.074 A 
ATOM     46  C   UNL     1       7.626   4.327 -10.442  1.00  0.00     0.031 C 
ATOM     47  C   UNL     1       5.378  -1.585  -7.682  1.00  0.00     0.029 A 
ATOM     48  C   UNL     1       5.834  -1.667  -9.070  1.00  0.00     0.049 A 
ATOM     49  H   UNL     1       6.723  -0.147 -10.185  1.00  0.00     0.167 HD
ATOM     50  C   UNL     1       8.189   3.223 -12.581  1.00  0.00     0.037 A 
ATOM     51  C   UNL     1       5.765  -2.759  -9.863  1.00  0.00     0.037 A 
ATOM     52  C   UNL     1       8.274   2.081 -13.449  1.00  0.00     0.049 A 
ATOM     53  C   UNL     1       6.247  -2.669 -11.294  1.00  0.00     0.074 A 
ATOM     54  C   UNL     1       8.798   2.015 -14.727  1.00  0.00     0.029 A 
ATOM     55  N   UNL     1       7.806   0.814 -13.139  1.00  0.00    -0.354 N 
ATOM     56  N   UNL     1       6.776  -1.647 -11.925  1.00  0.00    -0.248 NA
ATOM     57  C   UNL     1       6.113  -3.876 -12.125  1.00  0.00     0.031 C 
ATOM     58  C   UNL     1       8.589   0.723 -15.216  1.00  0.00     0.029 A 
ATOM     59  C   UNL     1       7.990  -0.031 -14.219  1.00  0.00     0.049 A 
ATOM     60  H   UNL     1       7.404   0.554 -12.279  1.00  0.00     0.167 HD
ATOM     61  C   UNL     1       7.056  -2.095 -13.214  1.00  0.00     0.074 A 
ATOM     62  C   UNL     1       6.653  -3.483 -13.271  1.00  0.00     0.031 C 
ATOM     63  C   UNL     1       7.595  -1.417 -14.258  1.00  0.00     0.037 A 
BRANCH  50  64
ATOM     64  C   UNL     1       8.627   4.554 -13.120  1.00  0.00     0.058 A 
ATOM     65  C   UNL     1       9.815   5.171 -12.700  1.00  0.00     0.135 A 
ATOM     66  C   UNL     1       7.871   5.191 -14.118  1.00  0.00     0.135 A 
ATOM     67  F   UNL     1      10.560   4.616 -11.730  1.00  0.00    -0.206 F 
ATOM     68  C   UNL     1      10.236   6.377 -13.248  1.00  0.00     0.059 A 
ATOM     69  C   UNL     1       8.287   6.384 -14.698  1.00  0.00     0.059 A 
ATOM     70  F   UNL     1       6.720   4.646 -14.544  1.00  0.00    -0.206 F 
ATOM     71  C   UNL     1       9.469   6.972 -14.252  1.00  0.00     0.060 A 
BRANCH  71  72
ATOM     72  S   UNL     1      10.053   8.516 -14.982  1.00  0.00     0.124 S 
ATOM     73  O   UNL     1       9.827   9.458 -13.890  1.00  0.00    -0.237 OA
ATOM     74  O   UNL     1      11.450   8.211 -15.276  1.00  0.00    -0.237 OA
ATOM     75  O   UNL     1       9.193   8.690 -16.148  1.00  0.00    -0.744 OA
ENDBRANCH  71  72
ENDBRANCH  50  64
BRANCH  51  76
ATOM     76  C   UNL     1       5.163  -4.026  -9.357  1.00  0.00     0.058 A 
ATOM     77  C   UNL     1       5.933  -5.190  -9.200  1.00  0.00     0.135 A 
ATOM     78  C   UNL     1       3.792  -4.113  -9.067  1.00  0.00     0.135 A 
ATOM     79  F   UNL     1       7.244  -5.169  -9.482  1.00  0.00    -0.206 F 
ATOM     80  C   UNL     1       5.363  -6.396  -8.799  1.00  0.00     0.059 A 
ATOM     81  C   UNL     1       3.204  -5.299  -8.636  1.00  0.00     0.059 A 
ATOM     82  F   UNL     1       3.007  -3.031  -9.198  1.00  0.00    -0.206 F 
ATOM     83  C   UNL     1       3.996  -6.440  -8.520  1.00  0.00     0.060 A 
BRANCH  83  84
ATOM     84  S   UNL     1       3.269  -8.003  -7.979  1.00  0.00     0.124 S 
ATOM     85  O   UNL     1       3.268  -8.771  -9.218  1.00  0.00    -0.237 OA
ATOM     86  O   UNL     1       4.214  -8.442  -6.956  1.00  0.00    -0.237 OA
ATOM     87  O   UNL     1       1.956  -7.606  -7.479  1.00  0.00    -0.744 OA
ENDBRANCH  83  84
ENDBRANCH  51  76
BRANCH  63  88
ATOM     88  C   UNL     1       7.813  -2.159 -15.549  1.00  0.00     0.058 A 
ATOM     89  C   UNL     1       6.746  -2.493 -16.395  1.00  0.00     0.135 A 
ATOM     90  C   UNL     1       9.115  -2.449 -15.991  1.00  0.00     0.135 A 
ATOM     91  F   UNL     1       5.481  -2.244 -16.019  1.00  0.00    -0.206 F 
ATOM     92  C   UNL     1       6.960  -3.095 -17.632  1.00  0.00     0.059 A 
ATOM     93  C   UNL     1       9.354  -3.023 -17.235  1.00  0.00     0.059 A 
ATOM     94  F   UNL     1      10.174  -2.139 -15.225  1.00  0.00    -0.206 F 
ATOM     95  C   UNL     1       8.269  -3.347 -18.047  1.00  0.00     0.060 A 
BRANCH  95  96
ATOM     96  S   UNL     1       8.534  -4.066 -19.682  1.00  0.00     0.124 S 
ATOM     97  O   UNL     1       8.084  -5.439 -19.478  1.00  0.00    -0.237 OA
ATOM     98  O   UNL     1       7.681  -3.238 -20.529  1.00  0.00    -0.237 OA
ATOM     99  O   UNL     1       9.969  -3.902 -19.898  1.00  0.00    -0.744 OA
ENDBRANCH  95  96
ENDBRANCH  63  88
ENDBRANCH  37  38
ENDBRANCH  30  32
ENDBRANCH  29  30
ENDBRANCH  28  29
ENDBRANCH  27  28
ENDBRANCH  26  27
ENDBRANCH  25  26
ENDBRANCH  24  25
ENDBRANCH   1  24
TORSDOF 27
