REMARK SMILES Cc1ccccc1OCC(=O)N1C[C@@H](O)C[C@H]1C(=O)OCCOCCOCCOCCOC(=O)c1ccc(-c2c3nc(c(-c4c(F)cc(S(=O)(=O)[O-])cc4F)c4ccc([nH]4)c(-c4c(F)cc(S(=O)(=O)[O-])cc4F)c4nc(c(-c5c(F)cc(S(=O)(=O)[O-])cc5F)c5ccc2[nH]5)C=C4)C=C3)cc1
REMARK SMILES IDX 25 1 24 2 23 3 22 4 21 5 20 6 18 7 19 8 17 9 12 10 13 11
REMARK SMILES IDX 14 12 16 13 10 14 11 15 9 16 8 17 7 18 1 19 2 20 3 21 4 22
REMARK SMILES IDX 6 23 5 24 15 25 26 27 27 28 28 29 29 30 30 31 31 32 32 33
REMARK SMILES IDX 33 34 34 35 35 36 36 37 100 38 37 39 99 40 38 41 39 42 40 43
REMARK SMILES IDX 93 44 41 45 98 46 92 47 94 48 42 49 97 50 91 51 90 52 43 54
REMARK SMILES IDX 77 55 56 56 76 57 57 58 60 59 75 60 95 61 58 62 59 63 74 65
REMARK SMILES IDX 96 66 61 67 44 68 45 69 54 70 46 71 47 72 53 73 55 74 48 75
REMARK SMILES IDX 49 76 50 77 51 78 52 79 78 80 79 81 88 82 80 83 81 84 87 85
REMARK SMILES IDX 89 86 82 87 83 88 84 89 85 90 86 91 62 92 63 93 72 94 64 95
REMARK SMILES IDX 65 96 71 97 73 98 66 99 67 100 68 101 69 102 70 103
REMARK H PARENT 15 26 94 53 60 64
REMARK Flexibility Score: inf
ROOT
ATOM      1  C   UNL     1       3.949   0.779   1.749  1.00  0.00     0.188 C 
ENDROOT
BRANCH   1   2
ATOM      2  C   UNL     1       5.407   1.190   1.430  1.00  0.00     0.188 C 
BRANCH   2   3
ATOM      3  O   UNL     1       6.500   0.911   2.291  1.00  0.00    -0.376 OA
BRANCH   3   4
ATOM      4  C   UNL     1       6.204   0.545   3.617  1.00  0.00     0.202 C 
BRANCH   4   5
ATOM      5  C   UNL     1       5.881   1.700   4.546  1.00  0.00     0.261 C 
BRANCH   5   6
ATOM      6  O   UNL     1       4.629   2.331   4.242  1.00  0.00    -0.462 OA
BRANCH   6   7
ATOM      7  C   UNL     1       4.698   3.585   3.750  1.00  0.00     0.329 C 
ATOM      8  O   UNL     1       5.744   4.212   3.567  1.00  0.00    -0.250 OA
BRANCH   7   9
ATOM      9  C   UNL     1       3.312   4.208   3.534  1.00  0.00     0.198 C 
ATOM     10  N   UNL     1       2.364   3.671   2.521  1.00  0.00    -0.323 N 
ATOM     11  C   UNL     1       1.044   3.501   3.102  1.00  0.00     0.152 C 
ATOM     12  C   UNL     1       1.083   4.383   4.349  1.00  0.00     0.136 C 
ATOM     13  C   UNL     1       2.507   4.182   4.844  1.00  0.00     0.070 C 
BRANCH  10  14
ATOM     14  C   UNL     1       2.662   3.731   1.181  1.00  0.00     0.261 C 
ATOM     15  O   UNL     1       3.805   4.033   0.818  1.00  0.00    -0.271 OA
BRANCH  14  16
ATOM     16  C   UNL     1       1.593   3.498   0.074  1.00  0.00     0.329 C 
BRANCH  16  17
ATOM     17  O   UNL     1       0.277   3.064   0.288  1.00  0.00    -0.484 OA
BRANCH  17  18
ATOM     18  C   UNL     1      -0.278   1.884  -0.102  1.00  0.00     0.122 A 
ATOM     19  C   UNL     1       1.590   0.726  -1.444  1.00  0.00     0.048 C 
ATOM     20  C   UNL     1       0.263   0.775  -0.760  1.00  0.00    -0.009 A 
ATOM     21  C   UNL     1      -0.497  -0.420  -0.812  1.00  0.00     0.007 A 
ATOM     22  C   UNL     1      -1.819  -0.471  -0.381  1.00  0.00     0.001 A 
ATOM     23  C   UNL     1      -1.636   1.829   0.272  1.00  0.00     0.047 A 
ATOM     24  C   UNL     1      -2.410   0.677   0.113  1.00  0.00     0.004 A 
ENDBRANCH  17  18
ENDBRANCH  16  17
ENDBRANCH  14  16
ENDBRANCH  10  14
BRANCH  12  25
ATOM     25  O   UNL     1       0.107   4.047   5.315  1.00  0.00    -0.391 OA
ATOM     26  H   UNL     1       0.225   3.123   5.585  1.00  0.00     0.211 HD
ENDBRANCH  12  25
ENDBRANCH   7   9
ENDBRANCH   6   7
ENDBRANCH   5   6
ENDBRANCH   4   5
ENDBRANCH   3   4
ENDBRANCH   2   3
ENDBRANCH   1   2
BRANCH   1  27
ATOM     27  O   UNL     1       3.744  -0.575   2.105  1.00  0.00    -0.377 OA
BRANCH  27  28
ATOM     28  C   UNL     1       2.776  -1.279   1.330  1.00  0.00     0.188 C 
BRANCH  28  29
ATOM     29  C   UNL     1       3.330  -1.757   0.004  1.00  0.00     0.188 C 
BRANCH  29  30
ATOM     30  O   UNL     1       4.687  -1.363  -0.078  1.00  0.00    -0.376 OA
BRANCH  30  31
ATOM     31  C   UNL     1       5.259  -1.246  -1.358  1.00  0.00     0.202 C 
BRANCH  31  32
ATOM     32  C   UNL     1       5.155  -2.532  -2.171  1.00  0.00     0.261 C 
BRANCH  32  33
ATOM     33  O   UNL     1       5.897  -3.581  -1.510  1.00  0.00    -0.460 OA
BRANCH  33  34
ATOM     34  C   UNL     1       5.139  -4.548  -0.908  1.00  0.00     0.338 C 
ATOM     35  O   UNL     1       4.423  -5.319  -1.523  1.00  0.00    -0.246 OA
BRANCH  34  36
ATOM     36  C   UNL     1       5.221  -4.434   0.586  1.00  0.00     0.060 A 
ATOM     37  C   UNL     1       4.245  -5.013   1.421  1.00  0.00     0.016 A 
ATOM     38  C   UNL     1       6.095  -3.503   1.128  1.00  0.00     0.016 A 
ATOM     39  C   UNL     1       4.059  -4.558   2.752  1.00  0.00     0.010 A 
ATOM     40  C   UNL     1       5.829  -2.991   2.386  1.00  0.00     0.010 A 
ATOM     41  C   UNL     1       4.818  -3.493   3.232  1.00  0.00    -0.014 A 
BRANCH  41  42
ATOM     42  C   UNL     1       4.662  -2.724   4.503  1.00  0.00     0.031 A 
ATOM     43  C   UNL     1       5.941  -2.392   5.257  1.00  0.00     0.074 A 
ATOM     44  C   UNL     1       3.539  -1.990   4.742  1.00  0.00     0.049 A 
ATOM     45  N   UNL     1       6.086  -1.486   6.166  1.00  0.00    -0.248 NA
ATOM     46  C   UNL     1       7.217  -3.071   4.987  1.00  0.00     0.031 C 
ATOM     47  C   UNL     1       3.510  -0.641   5.319  1.00  0.00     0.029 A 
ATOM     48  N   UNL     1       2.195  -2.197   4.452  1.00  0.00    -0.354 N 
ATOM     49  C   UNL     1       7.440  -1.254   6.370  1.00  0.00     0.074 A 
ATOM     50  C   UNL     1       8.099  -2.304   5.640  1.00  0.00     0.031 C 
ATOM     51  C   UNL     1       2.261  -0.161   5.389  1.00  0.00     0.029 A 
ATOM     52  C   UNL     1       1.401  -1.292   5.183  1.00  0.00     0.049 A 
ATOM     53  H   UNL     1       1.850  -2.876   3.828  1.00  0.00     0.167 HD
ATOM     54  C   UNL     1       7.834  -0.127   7.044  1.00  0.00     0.037 A 
ATOM     55  C   UNL     1       0.568  -1.760   6.162  1.00  0.00     0.037 A 
ATOM     56  C   UNL     1       6.692   0.477   7.757  1.00  0.00     0.049 A 
ATOM     57  C   UNL     1       1.091  -1.426   7.560  1.00  0.00     0.074 A 
ATOM     58  C   UNL     1       6.139   1.744   7.848  1.00  0.00     0.029 A 
ATOM     59  N   UNL     1       5.818  -0.360   8.453  1.00  0.00    -0.354 N 
ATOM     60  N   UNL     1       2.330  -1.060   7.802  1.00  0.00    -0.248 NA
ATOM     61  C   UNL     1       0.273  -1.352   8.769  1.00  0.00     0.031 C 
ATOM     62  C   UNL     1       4.834   1.614   8.406  1.00  0.00     0.029 A 
ATOM     63  C   UNL     1       4.658   0.295   8.799  1.00  0.00     0.049 A 
ATOM     64  H   UNL     1       6.007  -1.302   8.669  1.00  0.00     0.167 HD
ATOM     65  C   UNL     1       2.494  -0.741   9.119  1.00  0.00     0.074 A 
ATOM     66  C   UNL     1       1.170  -0.931   9.682  1.00  0.00     0.031 C 
ATOM     67  C   UNL     1       3.688  -0.358   9.665  1.00  0.00     0.037 A 
BRANCH  54  68
ATOM     68  C   UNL     1       9.214   0.555   6.971  1.00  0.00     0.058 A 
ATOM     69  C   UNL     1       9.514   1.653   7.815  1.00  0.00     0.135 A 
ATOM     70  C   UNL     1      10.230   0.281   6.023  1.00  0.00     0.135 A 
ATOM     71  F   UNL     1       8.673   2.031   8.788  1.00  0.00    -0.206 F 
ATOM     72  C   UNL     1      10.681   2.425   7.712  1.00  0.00     0.059 A 
ATOM     73  C   UNL     1      11.436   1.007   5.938  1.00  0.00     0.059 A 
ATOM     74  F   UNL     1      10.093  -0.680   5.102  1.00  0.00    -0.206 F 
ATOM     75  C   UNL     1      11.646   2.094   6.775  1.00  0.00     0.060 A 
BRANCH  75  76
ATOM     76  S   UNL     1      13.170   3.067   6.705  1.00  0.00     0.124 S 
ATOM     77  O   UNL     1      12.701   4.338   6.164  1.00  0.00    -0.237 OA
ATOM     78  O   UNL     1      13.588   3.093   8.103  1.00  0.00    -0.237 OA
ATOM     79  O   UNL     1      14.032   2.291   5.818  1.00  0.00    -0.744 OA
ENDBRANCH  75  76
ENDBRANCH  54  68
BRANCH  55  80
ATOM     80  C   UNL     1      -0.244  -2.910   5.622  1.00  0.00     0.058 A 
ATOM     81  C   UNL     1      -1.135  -2.516   4.591  1.00  0.00     0.135 A 
ATOM     82  C   UNL     1       0.368  -4.170   5.472  1.00  0.00     0.135 A 
ATOM     83  F   UNL     1      -1.793  -1.349   4.696  1.00  0.00    -0.206 F 
ATOM     84  C   UNL     1      -1.148  -3.153   3.349  1.00  0.00     0.059 A 
ATOM     85  C   UNL     1       0.352  -4.837   4.235  1.00  0.00     0.059 A 
ATOM     86  F   UNL     1       1.186  -4.634   6.428  1.00  0.00    -0.206 F 
ATOM     87  C   UNL     1      -0.330  -4.264   3.157  1.00  0.00     0.060 A 
BRANCH  87  88
ATOM     88  S   UNL     1       0.005  -4.778   1.448  1.00  0.00     0.124 S 
ATOM     89  O   UNL     1      -1.324  -5.138   0.968  1.00  0.00    -0.237 OA
ATOM     90  O   UNL     1       0.572  -3.559   0.873  1.00  0.00    -0.237 OA
ATOM     91  O   UNL     1       0.945  -5.882   1.606  1.00  0.00    -0.744 OA
ENDBRANCH  87  88
ENDBRANCH  55  80
BRANCH  67  92
ATOM     92  C   UNL     1       4.072  -0.540  11.120  1.00  0.00     0.058 A 
ATOM     93  C   UNL     1       3.446  -1.471  11.964  1.00  0.00     0.135 A 
ATOM     94  C   UNL     1       5.239   0.071  11.654  1.00  0.00     0.135 A 
ATOM     95  F   UNL     1       2.421  -2.225  11.545  1.00  0.00    -0.206 F 
ATOM     96  C   UNL     1       3.881  -1.710  13.264  1.00  0.00     0.059 A 
ATOM     97  C   UNL     1       5.730  -0.205  12.925  1.00  0.00     0.059 A 
ATOM     98  F   UNL     1       5.971   0.946  10.951  1.00  0.00    -0.206 F 
ATOM     99  C   UNL     1       5.021  -1.071  13.738  1.00  0.00     0.060 A 
BRANCH  99 100
ATOM    100  S   UNL     1       5.574  -1.405  15.414  1.00  0.00     0.124 S 
ATOM    101  O   UNL     1       4.677  -0.549  16.185  1.00  0.00    -0.237 OA
ATOM    102  O   UNL     1       5.342  -2.840  15.543  1.00  0.00    -0.237 OA
ATOM    103  O   UNL     1       6.976  -1.001  15.399  1.00  0.00    -0.744 OA
ENDBRANCH  99 100
ENDBRANCH  67  92
ENDBRANCH  41  42
ENDBRANCH  34  36
ENDBRANCH  33  34
ENDBRANCH  32  33
ENDBRANCH  31  32
ENDBRANCH  30  31
ENDBRANCH  29  30
ENDBRANCH  28  29
ENDBRANCH  27  28
ENDBRANCH   1  27
TORSDOF 28
