REMARK SMILES Cc1ccccc1OCC(=O)N[C@@H](Cc1c[nH]c2ccccc12)C(=O)OCCOCCOCCOCCOC(=O)c1ccc(-c2c3nc(c(-c4c(F)cc(S(=O)(=O)[O-])cc4F)c4ccc([nH]4)c(-c4c(F)cc(S(=O)(=O)[O-])cc4F)c4nc(c(-c5c(F)cc(S(=O)(=O)[O-])cc5F)c5ccc2[nH]5)C=C4)C=C3)cc1
REMARK SMILES IDX 31 1 30 2 29 3 28 4 27 5 26 6 24 7 25 8 13 9 12 10 10 11
REMARK SMILES IDX 11 12 9 14 8 15 7 16 1 17 2 18 3 19 4 20 6 21 5 22 14 23
REMARK SMILES IDX 15 24 16 25 23 26 17 27 18 28 22 29 19 31 21 32 20 33 32 34
REMARK SMILES IDX 33 35 34 36 35 37 36 38 37 39 38 40 39 41 40 42 41 43 42 44
REMARK SMILES IDX 106 45 43 46 105 47 44 48 45 49 46 50 99 51 47 52 104 53
REMARK SMILES IDX 98 54 100 55 48 56 103 57 97 58 96 59 49 61 83 62 62 63
REMARK SMILES IDX 82 64 63 65 66 66 81 67 101 68 64 69 65 70 80 72 102 73
REMARK SMILES IDX 67 74 50 75 51 76 60 77 52 78 53 79 59 80 61 81 54 82 55 83
REMARK SMILES IDX 56 84 57 85 58 86 84 87 85 88 94 89 86 90 87 91 93 92 95 93
REMARK SMILES IDX 88 94 89 95 90 96 91 97 92 98 68 99 69 100 78 101 70 102
REMARK SMILES IDX 71 103 77 104 79 105 72 106 73 107 74 108 75 109 76 110
REMARK H PARENT 12 13 17 30 100 60 66 71
REMARK Flexibility Score: inf
ROOT
ATOM      1  C   UNL     1       3.697   4.737   1.002  1.00  0.00     0.188 C 
ENDROOT
BRANCH   1   2
ATOM      2  C   UNL     1       2.821   5.957   1.335  1.00  0.00     0.188 C 
BRANCH   2   3
ATOM      3  O   UNL     1       3.027   6.321   2.671  1.00  0.00    -0.376 OA
BRANCH   3   4
ATOM      4  C   UNL     1       1.913   6.420   3.535  1.00  0.00     0.202 C 
BRANCH   4   5
ATOM      5  C   UNL     1       0.969   5.281   3.849  1.00  0.00     0.261 C 
BRANCH   5   6
ATOM      6  O   UNL     1       1.124   4.153   3.030  1.00  0.00    -0.462 OA
BRANCH   6   7
ATOM      7  C   UNL     1       0.038   3.952   2.266  1.00  0.00     0.329 C 
ATOM      8  O   UNL     1      -0.737   4.828   1.858  1.00  0.00    -0.250 OA
BRANCH   7   9
ATOM      9  C   UNL     1      -0.220   2.484   2.102  1.00  0.00     0.196 C 
BRANCH   9  10
ATOM     10  N   UNL     1       0.998   1.684   2.234  1.00  0.00    -0.339 N 
ATOM     11  C   UNL     1       1.978   1.520   1.300  1.00  0.00     0.258 C 
ATOM     12  O   UNL     1       3.003   0.908   1.604  1.00  0.00    -0.271 OA
ATOM     13  H   UNL     1       1.124   1.213   3.090  1.00  0.00     0.164 HD
BRANCH  11  14
ATOM     14  C   UNL     1       1.807   2.154  -0.105  1.00  0.00     0.329 C 
BRANCH  14  15
ATOM     15  O   UNL     1       0.889   1.725  -1.100  1.00  0.00    -0.484 OA
BRANCH  15  16
ATOM     16  C   UNL     1       0.185   0.604  -0.777  1.00  0.00     0.122 A 
ATOM     17  C   UNL     1       2.233  -0.922  -0.826  1.00  0.00     0.048 C 
ATOM     18  C   UNL     1       0.774  -0.651  -0.595  1.00  0.00    -0.009 A 
ATOM     19  C   UNL     1      -0.044  -1.706  -0.164  1.00  0.00     0.007 A 
ATOM     20  C   UNL     1      -1.413  -1.518   0.046  1.00  0.00     0.001 A 
ATOM     21  C   UNL     1      -1.199   0.771  -0.648  1.00  0.00     0.047 A 
ATOM     22  C   UNL     1      -1.995  -0.280  -0.206  1.00  0.00     0.004 A 
ENDBRANCH  15  16
ENDBRANCH  14  15
ENDBRANCH  11  14
ENDBRANCH   9  10
BRANCH   9  23
ATOM     23  C   UNL     1      -1.351   2.105   3.072  1.00  0.00     0.074 C 
BRANCH  23  24
ATOM     24  C   UNL     1      -0.934   1.855   4.493  1.00  0.00    -0.020 A 
ATOM     25  C   UNL     1      -0.949   2.743   5.551  1.00  0.00     0.087 A 
ATOM     26  C   UNL     1      -0.475   0.605   5.015  1.00  0.00     0.003 A 
ATOM     27  N   UNL     1      -0.496   2.092   6.671  1.00  0.00    -0.361 N 
ATOM     28  C   UNL     1      -0.248   0.770   6.380  1.00  0.00     0.046 A 
ATOM     29  C   UNL     1      -0.234  -0.655   4.433  1.00  0.00     0.010 A 
ATOM     30  H   UNL     1      -0.367   2.510   7.553  1.00  0.00     0.166 HD
ATOM     31  C   UNL     1       0.166  -0.282   7.205  1.00  0.00     0.026 A 
ATOM     32  C   UNL     1       0.194  -1.713   5.238  1.00  0.00     0.001 A 
ATOM     33  C   UNL     1       0.376  -1.530   6.606  1.00  0.00     0.002 A 
ENDBRANCH  23  24
ENDBRANCH   9  23
ENDBRANCH   7   9
ENDBRANCH   6   7
ENDBRANCH   5   6
ENDBRANCH   4   5
ENDBRANCH   3   4
ENDBRANCH   2   3
ENDBRANCH   1   2
BRANCH   1  34
ATOM     34  O   UNL     1       5.052   4.747   1.442  1.00  0.00    -0.377 OA
BRANCH  34  35
ATOM     35  C   UNL     1       5.790   5.908   1.133  1.00  0.00     0.188 C 
BRANCH  35  36
ATOM     36  C   UNL     1       7.120   5.646   0.422  1.00  0.00     0.188 C 
BRANCH  36  37
ATOM     37  O   UNL     1       7.122   4.682  -0.622  1.00  0.00    -0.376 OA
BRANCH  37  38
ATOM     38  C   UNL     1       6.995   3.315  -0.172  1.00  0.00     0.202 C 
BRANCH  38  39
ATOM     39  C   UNL     1       7.925   2.847   0.995  1.00  0.00     0.261 C 
BRANCH  39  40
ATOM     40  O   UNL     1       7.646   3.647   2.179  1.00  0.00    -0.460 OA
BRANCH  40  41
ATOM     41  C   UNL     1       8.154   3.458   3.419  1.00  0.00     0.338 C 
ATOM     42  O   UNL     1       7.755   2.568   4.157  1.00  0.00    -0.246 OA
BRANCH  41  43
ATOM     43  C   UNL     1       8.792   4.746   3.979  1.00  0.00     0.060 A 
ATOM     44  C   UNL     1       8.748   4.864   5.361  1.00  0.00     0.016 A 
ATOM     45  C   UNL     1       8.686   5.957   3.315  1.00  0.00     0.016 A 
ATOM     46  C   UNL     1       7.952   5.870   5.935  1.00  0.00     0.010 A 
ATOM     47  C   UNL     1       7.875   6.952   3.872  1.00  0.00     0.010 A 
ATOM     48  C   UNL     1       7.224   6.697   5.079  1.00  0.00    -0.014 A 
BRANCH  48  49
ATOM     49  C   UNL     1       5.699   6.557   5.031  1.00  0.00     0.031 A 
ATOM     50  C   UNL     1       4.777   7.738   4.657  1.00  0.00     0.074 A 
ATOM     51  C   UNL     1       5.234   5.270   5.138  1.00  0.00     0.049 A 
ATOM     52  N   UNL     1       3.713   8.168   5.302  1.00  0.00    -0.248 NA
ATOM     53  C   UNL     1       5.051   8.582   3.491  1.00  0.00     0.031 C 
ATOM     54  C   UNL     1       4.051   4.641   4.598  1.00  0.00     0.029 A 
ATOM     55  N   UNL     1       5.748   4.203   5.894  1.00  0.00    -0.354 N 
ATOM     56  C   UNL     1       3.067   9.156   4.515  1.00  0.00     0.074 A 
ATOM     57  C   UNL     1       4.013   9.422   3.457  1.00  0.00     0.031 C 
ATOM     58  C   UNL     1       3.682   3.556   5.279  1.00  0.00     0.029 A 
ATOM     59  C   UNL     1       4.679   3.372   6.273  1.00  0.00     0.049 A 
ATOM     60  H   UNL     1       6.696   4.061   6.119  1.00  0.00     0.167 HD
ATOM     61  C   UNL     1       1.730   9.527   4.618  1.00  0.00     0.037 A 
ATOM     62  C   UNL     1       4.442   3.035   7.552  1.00  0.00     0.037 A 
ATOM     63  C   UNL     1       0.949   8.598   5.482  1.00  0.00     0.049 A 
ATOM     64  C   UNL     1       3.241   3.773   8.130  1.00  0.00     0.074 A 
ATOM     65  C   UNL     1      -0.233   7.896   5.258  1.00  0.00     0.029 A 
ATOM     66  N   UNL     1       1.472   8.049   6.661  1.00  0.00    -0.354 N 
ATOM     67  N   UNL     1       2.598   4.806   7.607  1.00  0.00    -0.248 NA
ATOM     68  C   UNL     1       2.628   3.317   9.373  1.00  0.00     0.031 C 
ATOM     69  C   UNL     1      -0.376   6.893   6.242  1.00  0.00     0.029 A 
ATOM     70  C   UNL     1       0.697   6.990   7.108  1.00  0.00     0.049 A 
ATOM     71  H   UNL     1       2.284   8.373   7.113  1.00  0.00     0.167 HD
ATOM     72  C   UNL     1       1.623   5.232   8.502  1.00  0.00     0.074 A 
ATOM     73  C   UNL     1       1.630   4.199   9.524  1.00  0.00     0.031 C 
ATOM     74  C   UNL     1       0.869   6.384   8.418  1.00  0.00     0.037 A 
BRANCH  61  75
ATOM     75  C   UNL     1       0.976  10.534   3.633  1.00  0.00     0.058 A 
ATOM     76  C   UNL     1      -0.444  10.617   3.539  1.00  0.00     0.135 A 
ATOM     77  C   UNL     1       1.600  11.470   2.776  1.00  0.00     0.135 A 
ATOM     78  F   UNL     1      -1.245  10.066   4.458  1.00  0.00    -0.206 F 
ATOM     79  C   UNL     1      -1.147  11.355   2.564  1.00  0.00     0.059 A 
ATOM     80  C   UNL     1       0.924  12.224   1.784  1.00  0.00     0.059 A 
ATOM     81  F   UNL     1       2.891  11.792   2.929  1.00  0.00    -0.206 F 
ATOM     82  C   UNL     1      -0.454  12.137   1.661  1.00  0.00     0.060 A 
BRANCH  82  83
ATOM     83  S   UNL     1      -1.376  13.144   0.469  1.00  0.00     0.124 S 
ATOM     84  O   UNL     1      -1.946  12.132  -0.415  1.00  0.00    -0.237 OA
ATOM     85  O   UNL     1      -2.329  13.848   1.322  1.00  0.00    -0.237 OA
ATOM     86  O   UNL     1      -0.346  13.986  -0.134  1.00  0.00    -0.744 OA
ENDBRANCH  82  83
ENDBRANCH  61  75
BRANCH  62  87
ATOM     87  C   UNL     1       5.696   2.428   8.111  1.00  0.00     0.058 A 
ATOM     88  C   UNL     1       6.068   1.185   7.524  1.00  0.00     0.135 A 
ATOM     89  C   UNL     1       6.750   3.227   8.575  1.00  0.00     0.135 A 
ATOM     90  F   UNL     1       5.109   0.358   7.071  1.00  0.00    -0.206 F 
ATOM     91  C   UNL     1       7.395   0.856   7.224  1.00  0.00     0.059 A 
ATOM     92  C   UNL     1       8.093   2.898   8.309  1.00  0.00     0.059 A 
ATOM     93  F   UNL     1       6.489   4.424   9.122  1.00  0.00    -0.206 F 
ATOM     94  C   UNL     1       8.405   1.744   7.578  1.00  0.00     0.060 A 
BRANCH  94  95
ATOM     95  S   UNL     1      10.093   1.465   6.938  1.00  0.00     0.124 S 
ATOM     96  O   UNL     1      10.554   0.359   7.770  1.00  0.00    -0.237 OA
ATOM     97  O   UNL     1       9.888   1.142   5.531  1.00  0.00    -0.237 OA
ATOM     98  O   UNL     1      10.759   2.744   7.175  1.00  0.00    -0.744 OA
ENDBRANCH  94  95
ENDBRANCH  62  87
BRANCH  74  99
ATOM     99  C   UNL     1       0.038   7.030   9.549  1.00  0.00     0.058 A 
ATOM    100  C   UNL     1       0.215   6.768  10.917  1.00  0.00     0.135 A 
ATOM    101  C   UNL     1      -0.891   8.085   9.284  1.00  0.00     0.135 A 
ATOM    102  F   UNL     1       1.163   5.932  11.357  1.00  0.00    -0.206 F 
ATOM    103  C   UNL     1      -0.525   7.409  11.919  1.00  0.00     0.059 A 
ATOM    104  C   UNL     1      -1.607   8.764  10.267  1.00  0.00     0.059 A 
ATOM    105  F   UNL     1      -1.126   8.552   8.052  1.00  0.00    -0.206 F 
ATOM    106  C   UNL     1      -1.434   8.405  11.586  1.00  0.00     0.060 A 
BRANCH 106 107
ATOM    107  S   UNL     1      -2.297   9.299  12.886  1.00  0.00     0.124 S 
ATOM    108  O   UNL     1      -3.356   8.356  13.233  1.00  0.00    -0.237 OA
ATOM    109  O   UNL     1      -1.252   9.476  13.890  1.00  0.00    -0.237 OA
ATOM    110  O   UNL     1      -2.736  10.525  12.226  1.00  0.00    -0.744 OA
ENDBRANCH 106 107
ENDBRANCH  74  99
ENDBRANCH  48  49
ENDBRANCH  41  43
ENDBRANCH  40  41
ENDBRANCH  39  40
ENDBRANCH  38  39
ENDBRANCH  37  38
ENDBRANCH  36  37
ENDBRANCH  35  36
ENDBRANCH  34  35
ENDBRANCH   1  34
TORSDOF 29
