REMARK SMILES O=C(OCCOCCOCCOCCOC(=O)c1ccc(-c2c3nc(c(-c4c(F)cc(S(=O)(=O)[O-])cc4F)c4ccc([nH]4)c(-c4c(F)cc(S(=O)(=O)[O-])cc4F)c4nc(c(-c5c(F)cc(S(=O)(=O)[O-])cc5F)c5ccc2[nH]5)C=C4)C=C3)cc1)C1=Cc2cc(Cl)cc(-c3ccc(O)cc3)c2O[C@@H]1C(F)(F)F
REMARK SMILES IDX 10 1 9 2 8 3 7 4 6 5 5 6 4 7 3 8 2 9 1 10 84 11 85 12 101 13
REMARK SMILES IDX 86 14 100 15 87 16 99 17 88 18 91 19 89 20 90 21 102 22
REMARK SMILES IDX 103 23 104 24 105 25 92 26 93 27 98 28 94 29 97 30 95 31
REMARK SMILES IDX 96 32 11 34 12 35 13 36 14 37 15 38 16 39 17 40 18 41 19 42
REMARK SMILES IDX 83 43 20 44 82 45 21 46 22 47 23 48 76 49 24 50 81 51 75 52
REMARK SMILES IDX 77 53 25 54 80 55 74 56 73 57 26 59 60 60 39 61 59 62 40 63
REMARK SMILES IDX 43 64 58 65 78 66 41 67 42 68 57 70 79 71 44 72 27 73 28 74
REMARK SMILES IDX 37 75 29 76 30 77 36 78 38 79 31 80 32 81 33 82 34 83 35 84
REMARK SMILES IDX 61 85 62 86 71 87 63 88 64 89 70 90 72 91 65 92 66 93 67 94
REMARK SMILES IDX 68 95 69 96 45 97 46 98 55 99 47 100 48 101 54 102 56 103
REMARK SMILES IDX 49 104 50 105 51 106 52 107 53 108
REMARK H PARENT 96 33 77 58 43 69
REMARK Flexibility Score: inf
ROOT
ATOM      1  C   UNL     1       3.878   3.098   2.134  1.00  0.00     0.188 C 
ENDROOT
BRANCH   1   2
ATOM      2  O   UNL     1       2.599   3.087   2.720  1.00  0.00    -0.377 OA
BRANCH   2   3
ATOM      3  C   UNL     1       1.734   2.267   1.981  1.00  0.00     0.188 C 
BRANCH   3   4
ATOM      4  C   UNL     1       2.086   0.808   2.220  1.00  0.00     0.188 C 
BRANCH   4   5
ATOM      5  O   UNL     1       3.428   0.242   2.028  1.00  0.00    -0.376 OA
BRANCH   5   6
ATOM      6  C   UNL     1       4.242  -0.410   0.741  1.00  0.00     0.202 C 
BRANCH   6   7
ATOM      7  C   UNL     1       3.518  -0.693  -1.302  1.00  0.00     0.261 C 
BRANCH   7   8
ATOM      8  O   UNL     1       2.697  -1.873  -1.816  1.00  0.00    -0.460 OA
BRANCH   8   9
ATOM      9  C   UNL     1       2.972  -3.013  -1.173  1.00  0.00     0.338 C 
ATOM     10  O   UNL     1       2.413  -4.079  -1.243  1.00  0.00    -0.246 OA
BRANCH   9  11
ATOM     11  C   UNL     1       3.775  -2.416  -0.125  1.00  0.00     0.087 C 
ATOM     12  C   UNL     1       5.138  -2.096  -0.548  1.00  0.00     0.027 C 
ATOM     13  C   UNL     1       2.438  -1.124   0.373  1.00  0.00     0.316 C 
ATOM     14  C   UNL     1       5.713  -0.431  -0.902  1.00  0.00     0.019 A 
ATOM     15  O   UNL     1       3.001   0.690  -0.094  1.00  0.00    -0.475 OA
ATOM     16  C   UNL     1       6.970  -0.306  -1.440  1.00  0.00     0.032 A 
ATOM     17  C   UNL     1       4.675   0.960  -0.821  1.00  0.00     0.135 A 
ATOM     18  C   UNL     1       7.309   0.973  -1.892  1.00  0.00     0.042 A 
ATOM     19  C   UNL     1       5.092   2.175  -1.356  1.00  0.00     0.026 A 
ATOM     20  Cl  UNL     1       8.885   1.175  -2.585  1.00  0.00    -0.084 Cl
ATOM     21  C   UNL     1       6.436   2.124  -1.856  1.00  0.00     0.033 A 
BRANCH  13  22
ATOM     22  C   UNL     1       2.156  -1.921   1.815  1.00  0.00     0.430 C 
ATOM     23  F   UNL     1       1.239  -1.425   2.665  1.00  0.00    -0.167 F 
ATOM     24  F   UNL     1       1.651  -3.152   1.485  1.00  0.00    -0.167 F 
ATOM     25  F   UNL     1       3.272  -2.207   2.535  1.00  0.00    -0.167 F 
ENDBRANCH  13  22
BRANCH  19  26
ATOM     26  C   UNL     1       4.399   3.447  -1.448  1.00  0.00    -0.014 A 
ATOM     27  C   UNL     1       3.631   3.841  -2.548  1.00  0.00     0.012 A 
ATOM     28  C   UNL     1       4.612   4.393  -0.458  1.00  0.00     0.012 A 
ATOM     29  C   UNL     1       2.937   5.061  -2.538  1.00  0.00     0.047 A 
ATOM     30  C   UNL     1       3.793   5.511  -0.363  1.00  0.00     0.047 A 
ATOM     31  C   UNL     1       2.965   5.856  -1.407  1.00  0.00     0.115 A 
BRANCH  31  32
ATOM     32  O   UNL     1       2.221   6.990  -1.354  1.00  0.00    -0.508 OA
ATOM     33  H   UNL     1       1.660   7.217  -2.070  1.00  0.00     0.293 HD
ENDBRANCH  31  32
ENDBRANCH  19  26
ENDBRANCH   9  11
ENDBRANCH   8   9
ENDBRANCH   7   8
ENDBRANCH   6   7
ENDBRANCH   5   6
ENDBRANCH   4   5
ENDBRANCH   3   4
ENDBRANCH   2   3
ENDBRANCH   1   2
BRANCH   1  34
ATOM     34  C   UNL     1       5.109   2.829   2.993  1.00  0.00     0.188 C 
BRANCH  34  35
ATOM     35  O   UNL     1       5.002   2.477   4.356  1.00  0.00    -0.376 OA
BRANCH  35  36
ATOM     36  C   UNL     1       3.830   2.854   5.051  1.00  0.00     0.202 C 
BRANCH  36  37
ATOM     37  C   UNL     1       3.440   4.349   5.137  1.00  0.00     0.261 C 
BRANCH  37  38
ATOM     38  O   UNL     1       3.883   5.239   4.093  1.00  0.00    -0.460 OA
BRANCH  38  39
ATOM     39  C   UNL     1       5.138   5.748   4.190  1.00  0.00     0.338 C 
ATOM     40  O   UNL     1       5.959   5.511   5.056  1.00  0.00    -0.246 OA
BRANCH  39  41
ATOM     41  C   UNL     1       5.412   6.538   2.956  1.00  0.00     0.060 A 
ATOM     42  C   UNL     1       6.523   6.236   2.147  1.00  0.00     0.016 A 
ATOM     43  C   UNL     1       4.544   7.561   2.572  1.00  0.00     0.016 A 
ATOM     44  C   UNL     1       6.746   6.920   0.934  1.00  0.00     0.010 A 
ATOM     45  C   UNL     1       4.773   8.251   1.372  1.00  0.00     0.010 A 
ATOM     46  C   UNL     1       5.872   7.938   0.530  1.00  0.00    -0.014 A 
BRANCH  46  47
ATOM     47  C   UNL     1       6.181   8.893  -0.581  1.00  0.00     0.031 A 
ATOM     48  C   UNL     1       6.598  10.266  -0.140  1.00  0.00     0.074 A 
ATOM     49  C   UNL     1       6.011   8.662  -1.902  1.00  0.00     0.049 A 
ATOM     50  N   UNL     1       6.673  11.376  -0.819  1.00  0.00    -0.248 NA
ATOM     51  C   UNL     1       6.939  10.396   1.287  1.00  0.00     0.031 C 
ATOM     52  C   UNL     1       5.725   7.378  -2.525  1.00  0.00     0.029 A 
ATOM     53  N   UNL     1       6.000   9.542  -2.969  1.00  0.00    -0.354 N 
ATOM     54  C   UNL     1       7.058  12.336   0.103  1.00  0.00     0.074 A 
ATOM     55  C   UNL     1       7.087  11.701   1.401  1.00  0.00     0.031 C 
ATOM     56  C   UNL     1       5.444   7.561  -3.829  1.00  0.00     0.029 A 
ATOM     57  C   UNL     1       5.558   8.980  -4.151  1.00  0.00     0.049 A 
ATOM     58  H   UNL     1       6.281  10.482  -2.892  1.00  0.00     0.167 HD
ATOM     59  C   UNL     1       7.407  13.624  -0.110  1.00  0.00     0.037 A 
ATOM     60  C   UNL     1       5.267   9.539  -5.349  1.00  0.00     0.037 A 
ATOM     61  C   UNL     1       7.379  14.256  -1.396  1.00  0.00     0.049 A 
ATOM     62  C   UNL     1       5.536  11.010  -5.560  1.00  0.00     0.074 A 
ATOM     63  C   UNL     1       7.747  15.546  -1.723  1.00  0.00     0.029 A 
ATOM     64  N   UNL     1       6.936  13.653  -2.564  1.00  0.00    -0.354 N 
ATOM     65  N   UNL     1       5.960  11.899  -4.694  1.00  0.00    -0.248 NA
ATOM     66  C   UNL     1       5.334  11.548  -6.915  1.00  0.00     0.031 C 
ATOM     67  C   UNL     1       7.451  15.751  -3.073  1.00  0.00     0.029 A 
ATOM     68  C   UNL     1       6.985  14.559  -3.608  1.00  0.00     0.049 A 
ATOM     69  H   UNL     1       6.633  12.719  -2.639  1.00  0.00     0.167 HD
ATOM     70  C   UNL     1       6.141  13.079  -5.411  1.00  0.00     0.074 A 
ATOM     71  C   UNL     1       5.754  12.800  -6.777  1.00  0.00     0.031 C 
ATOM     72  C   UNL     1       6.616  14.273  -4.975  1.00  0.00     0.037 A 
BRANCH  59  73
ATOM     73  C   UNL     1       7.808  14.413   1.102  1.00  0.00     0.058 A 
ATOM     74  C   UNL     1       8.951  14.088   1.855  1.00  0.00     0.135 A 
ATOM     75  C   UNL     1       6.990  15.454   1.564  1.00  0.00     0.135 A 
ATOM     76  F   UNL     1       9.752  13.080   1.471  1.00  0.00    -0.206 F 
ATOM     77  C   UNL     1       9.224  14.715   3.063  1.00  0.00     0.059 A 
ATOM     78  C   UNL     1       7.272  16.128   2.745  1.00  0.00     0.059 A 
ATOM     79  F   UNL     1       5.885  15.801   0.886  1.00  0.00    -0.206 F 
ATOM     80  C   UNL     1       8.373  15.730   3.503  1.00  0.00     0.060 A 
BRANCH  80  81
ATOM     81  S   UNL     1       8.712  16.501   5.096  1.00  0.00     0.124 S 
ATOM     82  O   UNL     1       8.354  15.428   6.019  1.00  0.00    -0.237 OA
ATOM     83  O   UNL     1      10.136  16.802   4.996  1.00  0.00    -0.237 OA
ATOM     84  O   UNL     1       7.826  17.660   5.107  1.00  0.00    -0.744 OA
ENDBRANCH  80  81
ENDBRANCH  59  73
BRANCH  60  85
ATOM     85  C   UNL     1       4.718   8.704  -6.461  1.00  0.00     0.058 A 
ATOM     86  C   UNL     1       5.499   8.362  -7.577  1.00  0.00     0.135 A 
ATOM     87  C   UNL     1       3.396   8.229  -6.431  1.00  0.00     0.135 A 
ATOM     88  F   UNL     1       6.759   8.812  -7.675  1.00  0.00    -0.206 F 
ATOM     89  C   UNL     1       4.997   7.576  -8.614  1.00  0.00     0.059 A 
ATOM     90  C   UNL     1       2.877   7.425  -7.447  1.00  0.00     0.059 A 
ATOM     91  F   UNL     1       2.597   8.534  -5.398  1.00  0.00    -0.206 F 
ATOM     92  C   UNL     1       3.688   7.099  -8.533  1.00  0.00     0.060 A 
BRANCH  92  93
ATOM     93  S   UNL     1       3.089   5.995  -9.835  1.00  0.00     0.124 S 
ATOM     94  O   UNL     1       3.059   6.882 -10.992  1.00  0.00    -0.237 OA
ATOM     95  O   UNL     1       4.119   4.962  -9.848  1.00  0.00    -0.237 OA
ATOM     96  O   UNL     1       1.786   5.563  -9.338  1.00  0.00    -0.744 OA
ENDBRANCH  92  93
ENDBRANCH  60  85
BRANCH  72  97
ATOM     97  C   UNL     1       6.830  15.375  -5.979  1.00  0.00     0.058 A 
ATOM     98  C   UNL     1       5.767  16.076  -6.564  1.00  0.00     0.135 A 
ATOM     99  C   UNL     1       8.137  15.820  -6.252  1.00  0.00     0.135 A 
ATOM    100  F   UNL     1       4.500  15.693  -6.344  1.00  0.00    -0.206 F 
ATOM    101  C   UNL     1       5.990  17.180  -7.384  1.00  0.00     0.059 A 
ATOM    102  C   UNL     1       8.381  16.940  -7.038  1.00  0.00     0.059 A 
ATOM    103  F   UNL     1       9.192  15.191  -5.710  1.00  0.00    -0.206 F 
ATOM    104  C   UNL     1       7.300  17.614  -7.602  1.00  0.00     0.060 A 
BRANCH 104 105
ATOM    105  S   UNL     1       7.569  19.096  -8.596  1.00  0.00     0.124 S 
ATOM    106  O   UNL     1       7.196  18.631  -9.927  1.00  0.00    -0.237 OA
ATOM    107  O   UNL     1       6.655  20.053  -7.979  1.00  0.00    -0.237 OA
ATOM    108  O   UNL     1       8.988  19.382  -8.407  1.00  0.00    -0.744 OA
ENDBRANCH 104 105
ENDBRANCH  72  97
ENDBRANCH  46  47
ENDBRANCH  39  41
ENDBRANCH  38  39
ENDBRANCH  37  38
ENDBRANCH  36  37
ENDBRANCH  35  36
ENDBRANCH  34  35
ENDBRANCH   1  34
TORSDOF 26
