REMARK SMILES Cc1c(C(=O)N[C@H]2C=C[C@@H](C(=O)OCCOCCOCCOCCOC(=O)c3ccc(-c4c5nc(c(-c6c(F)cc(S(=O)(=O)[O-])cc6F)c6ccc([nH]6)c(-c6c(F)cc(S(=O)(=O)[O-])cc6F)c6nc(c(-c7c(F)cc(S(=O)(=O)[O-])cc7F)c7ccc4[nH]7)C=C6)C=C5)cc3)C2)oc2ccccc12
REMARK SMILES IDX 20 1 19 2 18 3 17 4 16 5 15 6 14 7 13 8 11 9 12 10 10 11
REMARK SMILES IDX 7 12 8 13 94 14 9 15 6 16 4 17 5 18 3 20 1 21 2 22 101 23
REMARK SMILES IDX 95 24 96 25 100 26 97 27 99 28 98 29 21 30 22 31 23 32 24 33
REMARK SMILES IDX 25 34 26 35 27 36 28 37 29 38 93 39 30 40 92 41 31 42 32 43
REMARK SMILES IDX 33 44 86 45 34 46 91 47 85 48 87 49 35 50 90 51 84 52 83 53
REMARK SMILES IDX 36 55 70 56 49 57 69 58 50 59 53 60 68 61 88 62 51 63 52 64
REMARK SMILES IDX 67 66 89 67 54 68 37 69 38 70 47 71 39 72 40 73 46 74 48 75
REMARK SMILES IDX 41 76 42 77 43 78 44 79 45 80 71 81 72 82 81 83 73 84 74 85
REMARK SMILES IDX 80 86 82 87 75 88 76 89 77 90 78 91 79 92 55 93 56 94 65 95
REMARK SMILES IDX 57 96 58 97 64 98 66 99 59 100 60 101 61 102 62 103 63 104
REMARK H PARENT 6 19 87 54 53 65
REMARK Flexibility Score: inf
ROOT
ATOM      1  C   UNL     1       6.619  -2.611   4.917  1.00  0.00     0.188 C 
ENDROOT
BRANCH   1   2
ATOM      2  O   UNL     1       5.862  -2.733   3.716  1.00  0.00    -0.377 OA
BRANCH   2   3
ATOM      3  C   UNL     1       4.527  -3.182   3.790  1.00  0.00     0.188 C 
BRANCH   3   4
ATOM      4  C   UNL     1       4.324  -4.695   3.669  1.00  0.00     0.188 C 
BRANCH   4   5
ATOM      5  O   UNL     1       5.267  -5.589   4.229  1.00  0.00    -0.376 OA
BRANCH   5   6
ATOM      6  C   UNL     1       6.599  -5.661   3.734  1.00  0.00     0.202 C 
BRANCH   6   7
ATOM      7  C   UNL     1       6.980  -5.404   2.267  1.00  0.00     0.261 C 
BRANCH   7   8
ATOM      8  O   UNL     1       6.435  -4.217   1.667  1.00  0.00    -0.463 OA
BRANCH   8   9
ATOM      9  C   UNL     1       5.712  -4.423   0.547  1.00  0.00     0.312 C 
ATOM     10  O   UNL     1       5.506  -5.529   0.050  1.00  0.00    -0.252 OA
BRANCH   9  11
ATOM     11  C   UNL     1       5.056  -3.194  -0.048  1.00  0.00     0.124 C 
ATOM     12  C   UNL     1       4.455  -1.016  -0.608  1.00  0.00     0.106 C 
ATOM     13  C   UNL     1       5.313  -1.538  -1.704  1.00  0.00    -0.006 C 
ATOM     14  C   UNL     1       5.035  -1.801   0.572  1.00  0.00     0.048 C 
ATOM     15  C   UNL     1       5.588  -2.827  -1.420  1.00  0.00    -0.014 C 
BRANCH  12  16
ATOM     16  N   UNL     1       4.338   0.380  -0.413  1.00  0.00    -0.343 N 
ATOM     17  C   UNL     1       3.187   1.093  -0.101  1.00  0.00     0.287 C 
ATOM     18  O   UNL     1       3.379   2.302   0.078  1.00  0.00    -0.266 OA
ATOM     19  H   UNL     1       5.165   0.906  -0.509  1.00  0.00     0.164 HD
BRANCH  17  20
ATOM     20  C   UNL     1       1.819   0.519  -0.031  1.00  0.00     0.195 A 
ATOM     21  C   UNL     1       1.639  -2.111   0.306  1.00  0.00     0.049 C 
ATOM     22  C   UNL     1       1.164  -0.722   0.087  1.00  0.00     0.008 A 
ATOM     23  C   UNL     1      -0.244  -0.470  -0.009  1.00  0.00     0.024 A 
ATOM     24  O   UNL     1       0.824   1.493  -0.064  1.00  0.00    -0.451 OA
ATOM     25  C   UNL     1      -0.394   0.899  -0.039  1.00  0.00     0.135 A 
ATOM     26  C   UNL     1      -1.397  -1.281  -0.026  1.00  0.00     0.012 A 
ATOM     27  C   UNL     1      -1.630   1.541  -0.037  1.00  0.00     0.048 A 
ATOM     28  C   UNL     1      -2.655  -0.671  -0.036  1.00  0.00     0.001 A 
ATOM     29  C   UNL     1      -2.767   0.719  -0.027  1.00  0.00     0.004 A 
ENDBRANCH  17  20
ENDBRANCH  12  16
ENDBRANCH   9  11
ENDBRANCH   8   9
ENDBRANCH   7   8
ENDBRANCH   6   7
ENDBRANCH   5   6
ENDBRANCH   4   5
ENDBRANCH   3   4
ENDBRANCH   2   3
ENDBRANCH   1   2
BRANCH   1  30
ATOM     30  C   UNL     1       6.132  -3.264   6.229  1.00  0.00     0.188 C 
BRANCH  30  31
ATOM     31  O   UNL     1       4.740  -3.138   6.476  1.00  0.00    -0.376 OA
BRANCH  31  32
ATOM     32  C   UNL     1       4.298  -2.083   7.317  1.00  0.00     0.202 C 
BRANCH  32  33
ATOM     33  C   UNL     1       4.557  -0.642   6.851  1.00  0.00     0.261 C 
BRANCH  33  34
ATOM     34  O   UNL     1       5.930  -0.262   6.663  1.00  0.00    -0.460 OA
BRANCH  34  35
ATOM     35  C   UNL     1       6.776  -0.389   7.705  1.00  0.00     0.338 C 
ATOM     36  O   UNL     1       6.494  -0.747   8.838  1.00  0.00    -0.246 OA
BRANCH  35  37
ATOM     37  C   UNL     1       8.153  -0.215   7.197  1.00  0.00     0.060 A 
ATOM     38  C   UNL     1       9.070  -1.265   7.342  1.00  0.00     0.016 A 
ATOM     39  C   UNL     1       8.539   0.979   6.583  1.00  0.00     0.016 A 
ATOM     40  C   UNL     1      10.389  -1.107   6.912  1.00  0.00     0.010 A 
ATOM     41  C   UNL     1       9.865   1.142   6.171  1.00  0.00     0.010 A 
ATOM     42  C   UNL     1      10.806   0.115   6.368  1.00  0.00    -0.014 A 
BRANCH  42  43
ATOM     43  C   UNL     1      12.254   0.392   6.194  1.00  0.00     0.031 A 
ATOM     44  C   UNL     1      12.959   1.198   7.254  1.00  0.00     0.074 A 
ATOM     45  C   UNL     1      12.938  -0.068   5.130  1.00  0.00     0.049 A 
ATOM     46  N   UNL     1      14.197   1.613   7.298  1.00  0.00    -0.248 NA
ATOM     47  C   UNL     1      12.151   1.590   8.421  1.00  0.00     0.031 C 
ATOM     48  C   UNL     1      12.383  -0.897   4.062  1.00  0.00     0.029 A 
ATOM     49  N   UNL     1      14.252   0.107   4.772  1.00  0.00    -0.354 N 
ATOM     50  C   UNL     1      14.314   2.329   8.485  1.00  0.00     0.074 A 
ATOM     51  C   UNL     1      13.014   2.312   9.118  1.00  0.00     0.031 C 
ATOM     52  C   UNL     1      13.350  -1.150   3.162  1.00  0.00     0.029 A 
ATOM     53  C   UNL     1      14.580  -0.472   3.570  1.00  0.00     0.049 A 
ATOM     54  H   UNL     1      14.899   0.602   5.326  1.00  0.00     0.167 HD
ATOM     55  C   UNL     1      15.406   2.940   9.002  1.00  0.00     0.037 A 
ATOM     56  C   UNL     1      15.732  -0.438   2.869  1.00  0.00     0.037 A 
ATOM     57  C   UNL     1      16.698   2.951   8.366  1.00  0.00     0.049 A 
ATOM     58  C   UNL     1      16.916   0.314   3.429  1.00  0.00     0.074 A 
ATOM     59  C   UNL     1      17.875   3.517   8.822  1.00  0.00     0.029 A 
ATOM     60  N   UNL     1      16.980   2.384   7.131  1.00  0.00    -0.354 N 
ATOM     61  N   UNL     1      17.023   0.960   4.566  1.00  0.00    -0.248 NA
ATOM     62  C   UNL     1      18.137   0.339   2.610  1.00  0.00     0.031 C 
ATOM     63  C   UNL     1      18.851   3.351   7.835  1.00  0.00     0.029 A 
ATOM     64  C   UNL     1      18.303   2.618   6.794  1.00  0.00     0.049 A 
ATOM     65  H   UNL     1      16.335   1.888   6.577  1.00  0.00     0.167 HD
ATOM     66  C   UNL     1      18.330   1.437   4.614  1.00  0.00     0.074 A 
ATOM     67  C   UNL     1      18.977   0.997   3.395  1.00  0.00     0.031 C 
ATOM     68  C   UNL     1      18.941   2.167   5.581  1.00  0.00     0.037 A 
BRANCH  55  69
ATOM     69  C   UNL     1      15.242   3.683  10.300  1.00  0.00     0.058 A 
ATOM     70  C   UNL     1      15.020   3.019  11.518  1.00  0.00     0.135 A 
ATOM     71  C   UNL     1      15.338   5.084  10.329  1.00  0.00     0.135 A 
ATOM     72  F   UNL     1      14.900   1.682  11.548  1.00  0.00    -0.206 F 
ATOM     73  C   UNL     1      14.870   3.719  12.711  1.00  0.00     0.059 A 
ATOM     74  C   UNL     1      15.224   5.802  11.515  1.00  0.00     0.059 A 
ATOM     75  F   UNL     1      15.546   5.771   9.195  1.00  0.00    -0.206 F 
ATOM     76  C   UNL     1      14.975   5.111  12.700  1.00  0.00     0.060 A 
BRANCH  76  77
ATOM     77  S   UNL     1      14.781   6.003  14.257  1.00  0.00     0.124 S 
ATOM     78  O   UNL     1      13.354   5.836  14.513  1.00  0.00    -0.237 OA
ATOM     79  O   UNL     1      15.674   5.270  15.148  1.00  0.00    -0.237 OA
ATOM     80  O   UNL     1      15.204   7.361  13.927  1.00  0.00    -0.744 OA
ENDBRANCH  76  77
ENDBRANCH  55  69
BRANCH  56  81
ATOM     81  C   UNL     1      15.830  -1.133   1.556  1.00  0.00     0.058 A 
ATOM     82  C   UNL     1      16.654  -2.256   1.390  1.00  0.00     0.135 A 
ATOM     83  C   UNL     1      15.106  -0.686   0.439  1.00  0.00     0.135 A 
ATOM     84  F   UNL     1      17.379  -2.713   2.422  1.00  0.00    -0.206 F 
ATOM     85  C   UNL     1      16.767  -2.905   0.165  1.00  0.00     0.059 A 
ATOM     86  C   UNL     1      15.180  -1.335  -0.790  1.00  0.00     0.059 A 
ATOM     87  F   UNL     1      14.299   0.381   0.542  1.00  0.00    -0.206 F 
ATOM     88  C   UNL     1      16.019  -2.441  -0.919  1.00  0.00     0.060 A 
BRANCH  88  89
ATOM     89  S   UNL     1      16.128  -3.329  -2.488  1.00  0.00     0.124 S 
ATOM     90  O   UNL     1      17.477  -2.991  -2.925  1.00  0.00    -0.237 OA
ATOM     91  O   UNL     1      15.919  -4.711  -2.068  1.00  0.00    -0.237 OA
ATOM     92  O   UNL     1      15.044  -2.751  -3.277  1.00  0.00    -0.744 OA
ENDBRANCH  88  89
ENDBRANCH  56  81
BRANCH  68  93
ATOM     93  C   UNL     1      20.398   2.503   5.393  1.00  0.00     0.058 A 
ATOM     94  C   UNL     1      20.831   3.429   4.431  1.00  0.00     0.135 A 
ATOM     95  C   UNL     1      21.369   1.931   6.232  1.00  0.00     0.135 A 
ATOM     96  F   UNL     1      19.948   4.003   3.599  1.00  0.00    -0.206 F 
ATOM     97  C   UNL     1      22.177   3.756   4.291  1.00  0.00     0.059 A 
ATOM     98  C   UNL     1      22.715   2.268   6.133  1.00  0.00     0.059 A 
ATOM     99  F   UNL     1      21.011   1.048   7.178  1.00  0.00    -0.206 F 
ATOM    100  C   UNL     1      23.112   3.173   5.150  1.00  0.00     0.060 A 
BRANCH 100 101
ATOM    101  S   UNL     1      24.849   3.632   4.979  1.00  0.00     0.124 S 
ATOM    102  O   UNL     1      25.208   2.969   3.729  1.00  0.00    -0.237 OA
ATOM    103  O   UNL     1      24.782   5.090   4.927  1.00  0.00    -0.237 OA
ATOM    104  O   UNL     1      25.468   3.082   6.181  1.00  0.00    -0.744 OA
ENDBRANCH 100 101
ENDBRANCH  68  93
ENDBRANCH  42  43
ENDBRANCH  35  37
ENDBRANCH  34  35
ENDBRANCH  33  34
ENDBRANCH  32  33
ENDBRANCH  31  32
ENDBRANCH  30  31
ENDBRANCH   1  30
TORSDOF 25
