REMARK SMILES CC[NH2+][C@@]1(C(=O)OCCOCCOCCOCCOC(=O)c2ccc(-c3c4nc(c(-c5c(F)cc(S(=O)(=O)[O-])cc5F)c5ccc([nH]5)c(-c5c(F)cc(S(=O)(=O)[O-])cc5F)c5nc(c(-c6c(F)cc(S(=O)(=O)[O-])cc6F)c6ccc3[nH]6)C=C5)C=C4)cc2)CCC[C@H]1CCN1C(=O)CCC1=O
REMARK SMILES IDX 13 1 12 2 11 3 10 4 9 5 8 6 7 7 5 8 6 9 4 10 88 11 91 12
REMARK SMILES IDX 89 13 90 14 3 15 2 18 1 19 92 20 93 21 94 22 95 23 99 24
REMARK SMILES IDX 96 25 97 26 98 27 100 28 14 29 15 30 16 31 17 32 18 33 19 34
REMARK SMILES IDX 20 35 21 36 22 37 23 38 87 39 24 40 86 41 25 42 26 43 27 44
REMARK SMILES IDX 80 45 28 46 85 47 79 48 81 49 29 50 84 51 78 52 77 53 30 55
REMARK SMILES IDX 64 56 43 57 63 58 44 59 47 60 62 61 82 62 45 63 46 64 61 66
REMARK SMILES IDX 83 67 48 68 31 69 32 70 41 71 33 72 34 73 40 74 42 75 35 76
REMARK SMILES IDX 36 77 37 78 38 79 39 80 65 81 66 82 75 83 67 84 68 85 74 86
REMARK SMILES IDX 76 87 69 88 70 89 71 90 72 91 73 92 49 93 50 94 59 95 51 96
REMARK SMILES IDX 52 97 58 98 60 99 53 100 54 101 55 102 56 103 57 104
REMARK H PARENT 3 16 3 17 81 54 47 65
REMARK Flexibility Score: inf
ROOT
ATOM      1  O   UNL     1      -0.839   2.126   4.751  1.00  0.00    -0.377 OA
ENDROOT
BRANCH   1   2
ATOM      2  C   UNL     1      -0.435   1.169   3.796  1.00  0.00     0.188 C 
BRANCH   2   3
ATOM      3  C   UNL     1       0.980   0.612   3.970  1.00  0.00     0.188 C 
BRANCH   3   4
ATOM      4  O   UNL     1       1.635   0.761   5.207  1.00  0.00    -0.376 OA
BRANCH   4   5
ATOM      5  C   UNL     1       1.861   2.064   5.729  1.00  0.00     0.202 C 
BRANCH   5   6
ATOM      6  C   UNL     1       1.978   3.356   4.880  1.00  0.00     0.261 C 
BRANCH   6   7
ATOM      7  O   UNL     1       1.167   3.498   3.693  1.00  0.00    -0.459 OA
BRANCH   7   8
ATOM      8  C   UNL     1       1.832   3.529   2.514  1.00  0.00     0.368 C 
ATOM      9  O   UNL     1       3.053   3.391   2.421  1.00  0.00    -0.245 OA
BRANCH   8  10
ATOM     10  C   UNL     1       0.936   3.749   1.226  1.00  0.00     0.197 C 
ATOM     11  C   UNL     1       1.270   5.200   0.808  1.00  0.00     0.081 C 
ATOM     12  C   UNL     1      -0.626   3.837   1.330  1.00  0.00     0.064 C 
ATOM     13  C   UNL     1       0.395   6.056   1.716  1.00  0.00     0.008 C 
ATOM     14  C   UNL     1      -0.878   5.246   1.934  1.00  0.00     0.011 C 
BRANCH  10  15
ATOM     15  N   UNL     1       1.433   2.814   0.166  1.00  0.00    -0.332 N 
ATOM     16  H   UNL     1       0.841   2.920  -0.658  1.00  0.00     0.347 HD
ATOM     17  H   UNL     1       2.405   3.063  -0.017  1.00  0.00     0.347 HD
BRANCH  15  18
ATOM     18  C   UNL     1       1.423   1.403   0.565  1.00  0.00     0.257 C 
ATOM     19  C   UNL     1       1.815   0.475  -0.572  1.00  0.00     0.071 C 
ENDBRANCH  15  18
ENDBRANCH  10  15
BRANCH  12  20
ATOM     20  C   UNL     1      -1.454   3.738   0.010  1.00  0.00     0.033 C 
BRANCH  20  21
ATOM     21  C   UNL     1      -1.540   2.421  -0.783  1.00  0.00     0.129 C 
BRANCH  21  22
ATOM     22  N   UNL     1      -2.063   1.220  -0.143  1.00  0.00    -0.283 N 
ATOM     23  C   UNL     1      -3.108   1.168   0.731  1.00  0.00     0.229 C 
ATOM     24  C   UNL     1      -1.786  -0.025  -0.648  1.00  0.00     0.229 C 
ATOM     25  O   UNL     1      -3.764   2.099   1.169  1.00  0.00    -0.274 OA
ATOM     26  C   UNL     1      -3.376  -0.267   1.080  1.00  0.00     0.110 C 
ATOM     27  C   UNL     1      -2.543  -1.066   0.114  1.00  0.00     0.110 C 
ATOM     28  O   UNL     1      -1.085  -0.294  -1.613  1.00  0.00    -0.274 OA
ENDBRANCH  21  22
ENDBRANCH  20  21
ENDBRANCH  12  20
ENDBRANCH   8  10
ENDBRANCH   7   8
ENDBRANCH   6   7
ENDBRANCH   5   6
ENDBRANCH   4   5
ENDBRANCH   3   4
ENDBRANCH   2   3
ENDBRANCH   1   2
BRANCH   1  29
ATOM     29  C   UNL     1      -1.490   1.649   5.924  1.00  0.00     0.188 C 
BRANCH  29  30
ATOM     30  C   UNL     1      -1.211   0.208   6.393  1.00  0.00     0.188 C 
BRANCH  30  31
ATOM     31  O   UNL     1      -1.243  -0.778   5.367  1.00  0.00    -0.376 OA
BRANCH  31  32
ATOM     32  C   UNL     1      -2.465  -1.434   5.056  1.00  0.00     0.202 C 
BRANCH  32  33
ATOM     33  C   UNL     1      -3.672  -0.568   4.669  1.00  0.00     0.261 C 
BRANCH  33  34
ATOM     34  O   UNL     1      -4.221   0.252   5.692  1.00  0.00    -0.460 OA
BRANCH  34  35
ATOM     35  C   UNL     1      -4.496  -0.313   6.880  1.00  0.00     0.338 C 
ATOM     36  O   UNL     1      -4.467  -1.485   7.181  1.00  0.00    -0.246 OA
BRANCH  35  37
ATOM     37  C   UNL     1      -4.579   0.823   7.804  1.00  0.00     0.060 A 
ATOM     38  C   UNL     1      -3.762   0.803   8.935  1.00  0.00     0.016 A 
ATOM     39  C   UNL     1      -5.398   1.919   7.504  1.00  0.00     0.016 A 
ATOM     40  C   UNL     1      -3.821   1.860   9.822  1.00  0.00     0.010 A 
ATOM     41  C   UNL     1      -5.468   2.974   8.400  1.00  0.00     0.010 A 
ATOM     42  C   UNL     1      -4.727   2.904   9.587  1.00  0.00    -0.014 A 
BRANCH  42  43
ATOM     43  C   UNL     1      -5.082   3.746  10.738  1.00  0.00     0.031 A 
ATOM     44  C   UNL     1      -6.285   3.340  11.539  1.00  0.00     0.074 A 
ATOM     45  C   UNL     1      -4.263   4.738  11.116  1.00  0.00     0.049 A 
ATOM     46  N   UNL     1      -6.718   3.810  12.676  1.00  0.00    -0.248 NA
ATOM     47  C   UNL     1      -7.106   2.242  10.992  1.00  0.00     0.031 C 
ATOM     48  C   UNL     1      -3.056   5.154  10.401  1.00  0.00     0.029 A 
ATOM     49  N   UNL     1      -4.308   5.549  12.214  1.00  0.00    -0.354 N 
ATOM     50  C   UNL     1      -7.849   3.063  12.982  1.00  0.00     0.074 A 
ATOM     51  C   UNL     1      -8.067   2.140  11.894  1.00  0.00     0.031 C 
ATOM     52  C   UNL     1      -2.461   6.139  11.095  1.00  0.00     0.029 A 
ATOM     53  C   UNL     1      -3.258   6.430  12.284  1.00  0.00     0.049 A 
ATOM     54  H   UNL     1      -5.023   5.506  12.889  1.00  0.00     0.167 HD
ATOM     55  C   UNL     1      -8.624   3.136  14.087  1.00  0.00     0.037 A 
ATOM     56  C   UNL     1      -2.985   7.363  13.213  1.00  0.00     0.037 A 
ATOM     57  C   UNL     1      -8.383   4.075  15.148  1.00  0.00     0.049 A 
ATOM     58  C   UNL     1      -3.895   7.460  14.409  1.00  0.00     0.074 A 
ATOM     59  C   UNL     1      -9.098   4.259  16.316  1.00  0.00     0.029 A 
ATOM     60  N   UNL     1      -7.343   4.997  15.161  1.00  0.00    -0.354 N 
ATOM     61  N   UNL     1      -4.956   6.741  14.700  1.00  0.00    -0.248 NA
ATOM     62  C   UNL     1      -3.564   8.480  15.408  1.00  0.00     0.031 C 
ATOM     63  C   UNL     1      -8.525   5.333  17.006  1.00  0.00     0.029 A 
ATOM     64  C   UNL     1      -7.412   5.771  16.305  1.00  0.00     0.049 A 
ATOM     65  H   UNL     1      -6.659   5.086  14.459  1.00  0.00     0.167 HD
ATOM     66  C   UNL     1      -5.406   7.205  15.931  1.00  0.00     0.074 A 
ATOM     67  C   UNL     1      -4.484   8.251  16.335  1.00  0.00     0.031 C 
ATOM     68  C   UNL     1      -6.478   6.810  16.666  1.00  0.00     0.037 A 
BRANCH  55  69
ATOM     69  C   UNL     1      -9.809   2.214  14.171  1.00  0.00     0.058 A 
ATOM     70  C   UNL     1      -9.667   0.826  14.336  1.00  0.00     0.135 A 
ATOM     71  C   UNL     1     -11.112   2.731  14.090  1.00  0.00     0.135 A 
ATOM     72  F   UNL     1      -8.446   0.271  14.386  1.00  0.00    -0.206 F 
ATOM     73  C   UNL     1     -10.773  -0.017  14.401  1.00  0.00     0.059 A 
ATOM     74  C   UNL     1     -12.232   1.911  14.183  1.00  0.00     0.059 A 
ATOM     75  F   UNL     1     -11.307   4.047  13.914  1.00  0.00    -0.206 F 
ATOM     76  C   UNL     1     -12.053   0.536  14.328  1.00  0.00     0.060 A 
BRANCH  76  77
ATOM     77  S   UNL     1     -13.478  -0.567  14.433  1.00  0.00     0.124 S 
ATOM     78  O   UNL     1     -13.402  -1.265  13.153  1.00  0.00    -0.237 OA
ATOM     79  O   UNL     1     -13.163  -1.368  15.611  1.00  0.00    -0.237 OA
ATOM     80  O   UNL     1     -14.606   0.347  14.582  1.00  0.00    -0.744 OA
ENDBRANCH  76  77
ENDBRANCH  55  69
BRANCH  56  81
ATOM     81  C   UNL     1      -1.811   8.258  13.044  1.00  0.00     0.058 A 
ATOM     82  C   UNL     1      -0.707   8.193  13.906  1.00  0.00     0.135 A 
ATOM     83  C   UNL     1      -1.765   9.190  11.995  1.00  0.00     0.135 A 
ATOM     84  F   UNL     1      -0.700   7.320  14.925  1.00  0.00    -0.206 F 
ATOM     85  C   UNL     1       0.392   9.033  13.747  1.00  0.00     0.059 A 
ATOM     86  C   UNL     1      -0.666  10.018  11.796  1.00  0.00     0.059 A 
ATOM     87  F   UNL     1      -2.788   9.281  11.130  1.00  0.00    -0.206 F 
ATOM     88  C   UNL     1       0.404   9.940  12.685  1.00  0.00     0.060 A 
BRANCH  88  89
ATOM     89  S   UNL     1       1.852  10.993  12.460  1.00  0.00     0.124 S 
ATOM     90  O   UNL     1       1.725  11.913  13.585  1.00  0.00    -0.237 OA
ATOM     91  O   UNL     1       2.945  10.030  12.541  1.00  0.00    -0.237 OA
ATOM     92  O   UNL     1       1.640  11.579  11.139  1.00  0.00    -0.744 OA
ENDBRANCH  88  89
ENDBRANCH  56  81
BRANCH  68  93
ATOM     93  C   UNL     1      -6.679   7.493  17.990  1.00  0.00     0.058 A 
ATOM     94  C   UNL     1      -7.064   8.840  18.079  1.00  0.00     0.135 A 
ATOM     95  C   UNL     1      -6.494   6.781  19.187  1.00  0.00     0.135 A 
ATOM     96  F   UNL     1      -7.254   9.564  16.965  1.00  0.00    -0.206 F 
ATOM     97  C   UNL     1      -7.202   9.473  19.309  1.00  0.00     0.059 A 
ATOM     98  C   UNL     1      -6.667   7.383  20.427  1.00  0.00     0.059 A 
ATOM     99  F   UNL     1      -6.147   5.484  19.158  1.00  0.00    -0.206 F 
ATOM    100  C   UNL     1      -6.995   8.737  20.477  1.00  0.00     0.060 A 
BRANCH 100 101
ATOM    101  S   UNL     1      -7.159   9.575  22.066  1.00  0.00     0.124 S 
ATOM    102  O   UNL     1      -5.946  10.385  22.095  1.00  0.00    -0.237 OA
ATOM    103  O   UNL     1      -8.410  10.310  21.903  1.00  0.00    -0.237 OA
ATOM    104  O   UNL     1      -7.205   8.476  23.026  1.00  0.00    -0.744 OA
ENDBRANCH 100 101
ENDBRANCH  68  93
ENDBRANCH  42  43
ENDBRANCH  35  37
ENDBRANCH  34  35
ENDBRANCH  33  34
ENDBRANCH  32  33
ENDBRANCH  31  32
ENDBRANCH  30  31
ENDBRANCH  29  30
ENDBRANCH   1  29
TORSDOF 28
