REMARK SMILES CCCn1ncc(C(=O)N2CCC(C(=O)OCCOCCOCCOCCOC(=O)c3ccc(-c4c5nc(c(-c6c(F)cc(S(=O)(=O)[O-])cc6F)c6ccc([nH]6)c(-c6c(F)cc(S(=O)(=O)[O-])cc6F)c6nc(c(-c7c(F)cc(S(=O)(=O)[O-])cc7F)c7ccc4[nH]7)C=C6)C=C5)cc3)CC2)c1C
REMARK SMILES IDX 22 1 21 2 20 3 19 4 18 5 17 6 16 7 14 8 15 9 13 10 8 11 9 12
REMARK SMILES IDX 10 13 11 14 98 15 12 16 97 17 7 18 4 19 5 20 99 21 6 22
REMARK SMILES IDX 100 23 3 24 2 25 1 26 23 27 24 28 25 29 26 30 27 31 28 32
REMARK SMILES IDX 29 33 30 34 31 35 32 36 96 37 33 38 95 39 34 40 35 41 36 42
REMARK SMILES IDX 89 43 37 44 94 45 88 46 90 47 38 48 93 49 87 50 86 51 39 53
REMARK SMILES IDX 73 54 52 55 72 56 53 57 56 58 71 59 91 60 54 61 55 62 70 64
REMARK SMILES IDX 92 65 57 66 40 67 41 68 50 69 42 70 43 71 49 72 51 73 44 74
REMARK SMILES IDX 45 75 46 76 47 77 48 78 74 79 75 80 84 81 76 82 77 83 83 84
REMARK SMILES IDX 85 85 78 86 79 87 80 88 81 89 82 90 58 91 59 92 68 93 60 94
REMARK SMILES IDX 61 95 67 96 69 97 62 98 63 99 64 100 65 101 66 102
REMARK H PARENT 90 52 56 63
REMARK Flexibility Score: inf
ROOT
ATOM      1  O   UNL     1       0.018   6.020   9.122  1.00  0.00    -0.377 OA
ENDROOT
BRANCH   1   2
ATOM      2  C   UNL     1      -1.034   5.134   9.440  1.00  0.00     0.188 C 
BRANCH   2   3
ATOM      3  C   UNL     1      -0.962   4.451  10.824  1.00  0.00     0.188 C 
BRANCH   3   4
ATOM      4  O   UNL     1       0.079   4.749  11.749  1.00  0.00    -0.376 OA
BRANCH   4   5
ATOM      5  C   UNL     1       1.354   5.136  11.265  1.00  0.00     0.202 C 
BRANCH   5   6
ATOM      6  C   UNL     1       2.116   4.172  10.340  1.00  0.00     0.261 C 
BRANCH   6   7
ATOM      7  O   UNL     1       1.325   3.432   9.388  1.00  0.00    -0.463 OA
BRANCH   7   8
ATOM      8  C   UNL     1       1.026   2.156   9.732  1.00  0.00     0.309 C 
ATOM      9  O   UNL     1       1.399   1.609  10.765  1.00  0.00    -0.252 OA
BRANCH   8  10
ATOM     10  C   UNL     1       0.214   1.397   8.689  1.00  0.00     0.103 C 
ATOM     11  C   UNL     1       0.091   0.766   4.752  1.00  0.00     0.257 C 
ATOM     12  O   UNL     1       0.204   1.919   4.345  1.00  0.00    -0.269 OA
ATOM     13  N   UNL     1      -0.362   0.473   6.028  1.00  0.00    -0.338 N 
ATOM     14  C   UNL     1      -1.310   1.369   6.644  1.00  0.00     0.120 C 
ATOM     15  C   UNL     1       0.392  -0.383   6.932  1.00  0.00     0.120 C 
ATOM     16  C   UNL     1      -0.662   2.210   7.729  1.00  0.00     0.037 C 
ATOM     17  C   UNL     1       1.168   0.484   7.919  1.00  0.00     0.037 C 
BRANCH  11  18
ATOM     18  C   UNL     1       0.298  -0.383   3.890  1.00  0.00     0.080 A 
ATOM     19  N   UNL     1       0.762  -1.639   2.145  1.00  0.00    -0.269 N 
ATOM     20  N   UNL     1       0.054  -2.454   2.957  1.00  0.00    -0.180 NA
ATOM     21  C   UNL     1       1.018  -0.411   2.705  1.00  0.00     0.048 A 
ATOM     22  C   UNL     1      -0.256  -1.676   3.992  1.00  0.00     0.149 A 
ATOM     23  C   UNL     1       1.848   0.659   2.095  1.00  0.00     0.067 C 
BRANCH  19  24
ATOM     24  C   UNL     1       1.178  -2.157   0.855  1.00  0.00     0.144 C 
BRANCH  24  25
ATOM     25  C   UNL     1       0.297  -1.726  -0.320  1.00  0.00     0.020 C 
ATOM     26  C   UNL     1       0.529  -0.293  -0.776  1.00  0.00     0.006 C 
ENDBRANCH  24  25
ENDBRANCH  19  24
ENDBRANCH  11  18
ENDBRANCH   8  10
ENDBRANCH   7   8
ENDBRANCH   6   7
ENDBRANCH   5   6
ENDBRANCH   4   5
ENDBRANCH   3   4
ENDBRANCH   2   3
ENDBRANCH   1   2
BRANCH   1  27
ATOM     27  C   UNL     1      -0.350   7.390   9.118  1.00  0.00     0.188 C 
BRANCH  27  28
ATOM     28  C   UNL     1      -1.032   7.893  10.411  1.00  0.00     0.188 C 
BRANCH  28  29
ATOM     29  O   UNL     1      -2.064   7.043  10.915  1.00  0.00    -0.376 OA
BRANCH  29  30
ATOM     30  C   UNL     1      -3.437   7.369  10.735  1.00  0.00     0.202 C 
BRANCH  30  31
ATOM     31  C   UNL     1      -4.026   7.212   9.331  1.00  0.00     0.261 C 
BRANCH  31  32
ATOM     32  O   UNL     1      -3.228   7.769   8.306  1.00  0.00    -0.460 OA
BRANCH  32  33
ATOM     33  C   UNL     1      -3.038   9.100   8.399  1.00  0.00     0.338 C 
ATOM     34  O   UNL     1      -3.354   9.828   9.318  1.00  0.00    -0.246 OA
BRANCH  33  35
ATOM     35  C   UNL     1      -2.465   9.567   7.137  1.00  0.00     0.060 A 
ATOM     36  C   UNL     1      -2.175  10.929   7.089  1.00  0.00     0.016 A 
ATOM     37  C   UNL     1      -2.644   8.779   5.990  1.00  0.00     0.016 A 
ATOM     38  C   UNL     1      -2.408  11.570   5.903  1.00  0.00     0.010 A 
ATOM     39  C   UNL     1      -2.894   9.424   4.812  1.00  0.00     0.010 A 
ATOM     40  C   UNL     1      -2.885  10.813   4.828  1.00  0.00    -0.014 A 
BRANCH  40  41
ATOM     41  C   UNL     1      -3.338  11.527   3.666  1.00  0.00     0.031 A 
ATOM     42  C   UNL     1      -2.216  12.030   2.865  1.00  0.00     0.074 A 
ATOM     43  C   UNL     1      -4.641  11.649   3.363  1.00  0.00     0.049 A 
ATOM     44  N   UNL     1      -1.795  13.247   2.817  1.00  0.00    -0.248 NA
ATOM     45  C   UNL     1      -1.310  11.045   2.257  1.00  0.00     0.031 C 
ATOM     46  C   UNL     1      -5.793  10.992   3.981  1.00  0.00     0.029 A 
ATOM     47  N   UNL     1      -5.197  12.344   2.342  1.00  0.00    -0.354 N 
ATOM     48  C   UNL     1      -0.722  13.215   1.941  1.00  0.00     0.074 A 
ATOM     49  C   UNL     1      -0.321  11.836   1.842  1.00  0.00     0.031 C 
ATOM     50  C   UNL     1      -6.870  11.144   3.175  1.00  0.00     0.029 A 
ATOM     51  C   UNL     1      -6.507  11.993   2.052  1.00  0.00     0.049 A 
ATOM     52  H   UNL     1      -4.710  13.042   1.846  1.00  0.00     0.167 HD
ATOM     53  C   UNL     1      -0.461  14.277   1.136  1.00  0.00     0.037 A 
ATOM     54  C   UNL     1      -7.173  12.312   0.912  1.00  0.00     0.037 A 
ATOM     55  C   UNL     1      -1.135  15.466   1.603  1.00  0.00     0.049 A 
ATOM     56  C   UNL     1      -6.482  13.502   0.330  1.00  0.00     0.074 A 
ATOM     57  C   UNL     1      -1.134  16.168   2.795  1.00  0.00     0.029 A 
ATOM     58  N   UNL     1      -2.270  15.865   0.934  1.00  0.00    -0.354 N 
ATOM     59  N   UNL     1      -6.489  14.682   0.893  1.00  0.00    -0.248 NA
ATOM     60  C   UNL     1      -5.382  13.276  -0.600  1.00  0.00     0.031 C 
ATOM     61  C   UNL     1      -2.484  16.584   2.986  1.00  0.00     0.029 A 
ATOM     62  C   UNL     1      -3.222  16.177   1.874  1.00  0.00     0.049 A 
ATOM     63  H   UNL     1      -2.380  15.918  -0.043  1.00  0.00     0.167 HD
ATOM     64  C   UNL     1      -5.193  15.159   0.747  1.00  0.00     0.074 A 
ATOM     65  C   UNL     1      -4.583  14.295  -0.262  1.00  0.00     0.031 C 
ATOM     66  C   UNL     1      -4.644  16.008   1.668  1.00  0.00     0.037 A 
BRANCH  53  67
ATOM     67  C   UNL     1       0.060  14.130  -0.269  1.00  0.00     0.058 A 
ATOM     68  C   UNL     1       0.489  15.277  -0.959  1.00  0.00     0.135 A 
ATOM     69  C   UNL     1      -0.096  12.963  -1.054  1.00  0.00     0.135 A 
ATOM     70  F   UNL     1       0.655  16.441  -0.310  1.00  0.00    -0.206 F 
ATOM     71  C   UNL     1       0.681  15.283  -2.339  1.00  0.00     0.059 A 
ATOM     72  C   UNL     1       0.151  12.932  -2.418  1.00  0.00     0.059 A 
ATOM     73  F   UNL     1      -0.595  11.822  -0.567  1.00  0.00    -0.206 F 
ATOM     74  C   UNL     1       0.495  14.107  -3.060  1.00  0.00     0.060 A 
BRANCH  74  75
ATOM     75  S   UNL     1       0.634  14.133  -4.852  1.00  0.00     0.124 S 
ATOM     76  O   UNL     1      -0.545  14.908  -5.220  1.00  0.00    -0.237 OA
ATOM     77  O   UNL     1       1.921  14.792  -5.043  1.00  0.00    -0.237 OA
ATOM     78  O   UNL     1       0.601  12.719  -5.212  1.00  0.00    -0.744 OA
ENDBRANCH  74  75
ENDBRANCH  53  67
BRANCH  54  79
ATOM     79  C   UNL     1      -8.092  11.439   0.127  1.00  0.00     0.058 A 
ATOM     80  C   UNL     1      -8.761  11.931  -1.009  1.00  0.00     0.135 A 
ATOM     81  C   UNL     1      -8.124  10.039   0.297  1.00  0.00     0.135 A 
ATOM     82  F   UNL     1      -8.782  13.249  -1.263  1.00  0.00    -0.206 F 
ATOM     83  C   UNL     1      -9.356  11.085  -1.954  1.00  0.00     0.059 A 
ATOM     84  C   UNL     1      -8.723   9.179  -0.621  1.00  0.00     0.059 A 
ATOM     85  F   UNL     1      -7.488   9.440   1.314  1.00  0.00    -0.206 F 
ATOM     86  C   UNL     1      -9.306   9.705  -1.764  1.00  0.00     0.060 A 
BRANCH  86  87
ATOM     87  S   UNL     1      -9.866   8.594  -3.076  1.00  0.00     0.124 S 
ATOM     88  O   UNL     1     -11.315   8.744  -3.001  1.00  0.00    -0.237 OA
ATOM     89  O   UNL     1      -9.225   9.163  -4.257  1.00  0.00    -0.237 OA
ATOM     90  O   UNL     1      -9.349   7.293  -2.659  1.00  0.00    -0.744 OA
ENDBRANCH  86  87
ENDBRANCH  54  79
BRANCH  66  91
ATOM     91  C   UNL     1      -5.567  16.639   2.682  1.00  0.00     0.058 A 
ATOM     92  C   UNL     1      -6.328  15.919   3.623  1.00  0.00     0.135 A 
ATOM     93  C   UNL     1      -5.597  18.037   2.780  1.00  0.00     0.135 A 
ATOM     94  F   UNL     1      -6.259  14.583   3.688  1.00  0.00    -0.206 F 
ATOM     95  C   UNL     1      -7.140  16.558   4.561  1.00  0.00     0.059 A 
ATOM     96  C   UNL     1      -6.371  18.697   3.732  1.00  0.00     0.059 A 
ATOM     97  F   UNL     1      -4.835  18.785   1.965  1.00  0.00    -0.206 F 
ATOM     98  C   UNL     1      -7.163  17.950   4.601  1.00  0.00     0.060 A 
BRANCH  98  99
ATOM     99  S   UNL     1      -8.194  18.778   5.830  1.00  0.00     0.124 S 
ATOM    100  O   UNL     1      -9.536  18.564   5.297  1.00  0.00    -0.237 OA
ATOM    101  O   UNL     1      -7.876  18.052   7.057  1.00  0.00    -0.237 OA
ATOM    102  O   UNL     1      -7.722  20.160   5.796  1.00  0.00    -0.744 OA
ENDBRANCH  98  99
ENDBRANCH  66  91
ENDBRANCH  40  41
ENDBRANCH  33  35
ENDBRANCH  32  33
ENDBRANCH  31  32
ENDBRANCH  30  31
ENDBRANCH  29  30
ENDBRANCH  28  29
ENDBRANCH  27  28
ENDBRANCH   1  27
TORSDOF 26
