REMARK SMILES [NH3+][C@H]1C=C[C@@H](C(=O)N2CCC(CC(=O)OCCOCCOCCOCCOC(=O)c3ccc(-c4c5nc(c(-c6c(F)cc(S(=O)(=O)[O-])cc6F)c6ccc([nH]6)c(-c6c(F)cc(S(=O)(=O)[O-])cc6F)c6nc(c(-c7c(F)cc(S(=O)(=O)[O-])cc7F)c7ccc4[nH]7)C=C6)C=C5)cc3)CC2)C1
REMARK SMILES IDX 21 1 20 2 19 3 18 4 17 5 16 6 15 7 13 8 14 9 12 10 11 11
REMARK SMILES IDX 6 12 7 13 8 14 9 15 97 16 10 17 96 18 5 19 2 20 3 21 98 22
REMARK SMILES IDX 4 23 1 24 22 28 23 29 24 30 25 31 26 32 27 33 28 34 29 35
REMARK SMILES IDX 30 36 31 37 95 38 32 39 94 40 33 41 34 42 35 43 88 44 36 45
REMARK SMILES IDX 93 46 87 47 89 48 37 49 92 50 86 51 85 52 38 54 72 55 51 56
REMARK SMILES IDX 71 57 52 58 55 59 70 60 90 61 53 62 54 63 69 65 91 66 56 67
REMARK SMILES IDX 39 68 40 69 49 70 41 71 42 72 48 73 50 74 43 75 44 76 45 77
REMARK SMILES IDX 46 78 47 79 73 80 74 81 83 82 75 83 76 84 82 85 84 86 77 87
REMARK SMILES IDX 78 88 79 89 80 90 81 91 57 92 58 93 67 94 59 95 60 96 66 97
REMARK SMILES IDX 68 98 61 99 62 100 63 101 64 102 65 103
REMARK H PARENT 1 25 1 26 1 27 89 53 55 64
REMARK Flexibility Score: inf
ROOT
ATOM      1  O   UNL     1       8.593  -1.629  -3.557  1.00  0.00    -0.377 OA
ENDROOT
BRANCH   1   2
ATOM      2  C   UNL     1       9.173  -2.242  -2.420  1.00  0.00     0.188 C 
BRANCH   2   3
ATOM      3  C   UNL     1      10.311  -3.249  -2.625  1.00  0.00     0.188 C 
BRANCH   3   4
ATOM      4  O   UNL     1      11.212  -2.995  -3.675  1.00  0.00    -0.376 OA
BRANCH   4   5
ATOM      5  C   UNL     1      10.954  -3.455  -4.993  1.00  0.00     0.202 C 
BRANCH   5   6
ATOM      6  C   UNL     1       9.710  -4.244  -5.448  1.00  0.00     0.261 C 
BRANCH   6   7
ATOM      7  O   UNL     1       8.494  -4.075  -4.705  1.00  0.00    -0.463 OA
BRANCH   7   8
ATOM      8  C   UNL     1       8.024  -5.185  -4.093  1.00  0.00     0.306 C 
ATOM      9  O   UNL     1       8.618  -6.261  -4.063  1.00  0.00    -0.252 OA
BRANCH   8  10
ATOM     10  C   UNL     1       6.708  -5.020  -3.361  1.00  0.00     0.126 C 
BRANCH  10  11
ATOM     11  C   UNL     1       5.980  -3.674  -3.267  1.00  0.00     0.003 C 
ATOM     12  C   UNL     1       2.385  -2.099  -3.963  1.00  0.00     0.229 C 
ATOM     13  O   UNL     1       2.209  -2.784  -4.974  1.00  0.00    -0.274 OA
ATOM     14  N   UNL     1       3.653  -1.936  -3.425  1.00  0.00    -0.342 N 
ATOM     15  C   UNL     1       4.765  -1.771  -4.359  1.00  0.00     0.120 C 
ATOM     16  C   UNL     1       4.022  -2.505  -2.140  1.00  0.00     0.120 C 
ATOM     17  C   UNL     1       5.512  -3.087  -4.603  1.00  0.00     0.026 C 
ATOM     18  C   UNL     1       4.771  -3.826  -2.322  1.00  0.00     0.026 C 
BRANCH  12  19
ATOM     19  C   UNL     1       1.227  -1.244  -3.410  1.00  0.00     0.107 C 
ATOM     20  C   UNL     1       0.454  -0.080  -1.388  1.00  0.00     0.205 C 
ATOM     21  C   UNL     1       1.157   0.843  -2.318  1.00  0.00     0.033 C 
ATOM     22  C   UNL     1       0.724  -1.473  -1.984  1.00  0.00     0.087 C 
ATOM     23  C   UNL     1       1.575   0.218  -3.423  1.00  0.00    -0.012 C 
BRANCH  20  24
ATOM     24  N   UNL     1       0.965   0.060  -0.034  1.00  0.00    -0.352 N 
ATOM     25  H   UNL     1       0.761   0.997   0.312  1.00  0.00     0.345 HD
ATOM     26  H   UNL     1       1.974  -0.090  -0.034  1.00  0.00     0.345 HD
ATOM     27  H   UNL     1       0.520  -0.630   0.571  1.00  0.00     0.345 HD
ENDBRANCH  20  24
ENDBRANCH  12  19
ENDBRANCH  10  11
ENDBRANCH   8  10
ENDBRANCH   7   8
ENDBRANCH   6   7
ENDBRANCH   5   6
ENDBRANCH   4   5
ENDBRANCH   3   4
ENDBRANCH   2   3
ENDBRANCH   1   2
BRANCH   1  28
ATOM     28  C   UNL     1       9.335  -0.683  -4.323  1.00  0.00     0.188 C 
BRANCH  28  29
ATOM     29  C   UNL     1      10.646  -0.074  -3.785  1.00  0.00     0.188 C 
BRANCH  29  30
ATOM     30  O   UNL     1      10.752  -0.033  -2.373  1.00  0.00    -0.376 OA
BRANCH  30  31
ATOM     31  C   UNL     1      10.362   1.157  -1.705  1.00  0.00     0.202 C 
BRANCH  31  32
ATOM     32  C   UNL     1       8.922   1.653  -1.907  1.00  0.00     0.261 C 
BRANCH  32  33
ATOM     33  O   UNL     1       8.554   2.019  -3.248  1.00  0.00    -0.460 OA
BRANCH  33  34
ATOM     34  C   UNL     1       9.298   2.953  -3.884  1.00  0.00     0.338 C 
ATOM     35  O   UNL     1      10.236   3.576  -3.438  1.00  0.00    -0.246 OA
BRANCH  34  36
ATOM     36  C   UNL     1       8.880   2.949  -5.303  1.00  0.00     0.060 A 
ATOM     37  C   UNL     1       9.795   2.550  -6.286  1.00  0.00     0.016 A 
ATOM     38  C   UNL     1       7.585   3.332  -5.653  1.00  0.00     0.016 A 
ATOM     39  C   UNL     1       9.419   2.553  -7.631  1.00  0.00     0.010 A 
ATOM     40  C   UNL     1       7.218   3.356  -7.000  1.00  0.00     0.010 A 
ATOM     41  C   UNL     1       8.140   2.990  -7.998  1.00  0.00    -0.014 A 
BRANCH  41  42
ATOM     42  C   UNL     1       7.809   3.227  -9.425  1.00  0.00     0.031 A 
ATOM     43  C   UNL     1       7.869   4.636  -9.948  1.00  0.00     0.074 A 
ATOM     44  C   UNL     1       7.444   2.218 -10.236  1.00  0.00     0.049 A 
ATOM     45  N   UNL     1       7.519   5.104 -11.117  1.00  0.00    -0.248 NA
ATOM     46  C   UNL     1       8.391   5.655  -9.022  1.00  0.00     0.031 C 
ATOM     47  C   UNL     1       7.390   0.807  -9.857  1.00  0.00     0.029 A 
ATOM     48  N   UNL     1       7.027   2.232 -11.544  1.00  0.00    -0.354 N 
ATOM     49  C   UNL     1       7.761   6.471 -11.064  1.00  0.00     0.074 A 
ATOM     50  C   UNL     1       8.267   6.761  -9.740  1.00  0.00     0.031 C 
ATOM     51  C   UNL     1       6.939   0.093 -10.904  1.00  0.00     0.029 A 
ATOM     52  C   UNL     1       6.633   1.000 -12.010  1.00  0.00     0.049 A 
ATOM     53  H   UNL     1       7.013   3.047 -12.096  1.00  0.00     0.167 HD
ATOM     54  C   UNL     1       7.580   7.400 -12.033  1.00  0.00     0.037 A 
ATOM     55  C   UNL     1       6.055   0.652 -13.178  1.00  0.00     0.037 A 
ATOM     56  C   UNL     1       7.071   7.102 -13.346  1.00  0.00     0.049 A 
ATOM     57  C   UNL     1       5.786   1.715 -14.215  1.00  0.00     0.074 A 
ATOM     58  C   UNL     1       6.872   7.967 -14.407  1.00  0.00     0.029 A 
ATOM     59  N   UNL     1       6.663   5.846 -13.773  1.00  0.00    -0.354 N 
ATOM     60  N   UNL     1       6.048   3.001 -14.167  1.00  0.00    -0.248 NA
ATOM     61  C   UNL     1       5.142   1.283 -15.464  1.00  0.00     0.031 C 
ATOM     62  C   UNL     1       6.285   7.248 -15.452  1.00  0.00     0.029 A 
ATOM     63  C   UNL     1       6.181   5.920 -15.069  1.00  0.00     0.049 A 
ATOM     64  H   UNL     1       6.710   5.023 -13.234  1.00  0.00     0.167 HD
ATOM     65  C   UNL     1       5.626   3.523 -15.386  1.00  0.00     0.074 A 
ATOM     66  C   UNL     1       5.103   2.414 -16.156  1.00  0.00     0.031 C 
ATOM     67  C   UNL     1       5.669   4.805 -15.829  1.00  0.00     0.037 A 
BRANCH  54  68
ATOM     68  C   UNL     1       7.899   8.832 -11.697  1.00  0.00     0.058 A 
ATOM     69  C   UNL     1       9.216   9.275 -11.500  1.00  0.00     0.135 A 
ATOM     70  C   UNL     1       6.869   9.782 -11.600  1.00  0.00     0.135 A 
ATOM     71  F   UNL     1      10.239   8.407 -11.562  1.00  0.00    -0.206 F 
ATOM     72  C   UNL     1       9.499  10.602 -11.191  1.00  0.00     0.059 A 
ATOM     73  C   UNL     1       7.131  11.120 -11.324  1.00  0.00     0.059 A 
ATOM     74  F   UNL     1       5.590   9.414 -11.776  1.00  0.00    -0.206 F 
ATOM     75  C   UNL     1       8.449  11.518 -11.107  1.00  0.00     0.060 A 
BRANCH  75  76
ATOM     76  S   UNL     1       8.834  13.235 -10.708  1.00  0.00     0.124 S 
ATOM     77  O   UNL     1       9.226  13.127  -9.306  1.00  0.00    -0.237 OA
ATOM     78  O   UNL     1       9.911  13.537 -11.645  1.00  0.00    -0.237 OA
ATOM     79  O   UNL     1       7.577  13.934 -10.954  1.00  0.00    -0.744 OA
ENDBRANCH  75  76
ENDBRANCH  54  68
BRANCH  55  80
ATOM     80  C   UNL     1       5.664  -0.764 -13.422  1.00  0.00     0.058 A 
ATOM     81  C   UNL     1       6.310  -1.540 -14.396  1.00  0.00     0.135 A 
ATOM     82  C   UNL     1       4.633  -1.370 -12.686  1.00  0.00     0.135 A 
ATOM     83  F   UNL     1       7.290  -1.003 -15.138  1.00  0.00    -0.206 F 
ATOM     84  C   UNL     1       5.944  -2.860 -14.638  1.00  0.00     0.059 A 
ATOM     85  C   UNL     1       4.268  -2.698 -12.888  1.00  0.00     0.059 A 
ATOM     86  F   UNL     1       3.984  -0.674 -11.739  1.00  0.00    -0.206 F 
ATOM     87  C   UNL     1       4.925  -3.433 -13.874  1.00  0.00     0.060 A 
BRANCH  87  88
ATOM     88  S   UNL     1       4.501  -5.165 -14.161  1.00  0.00     0.124 S 
ATOM     89  O   UNL     1       3.856  -5.098 -15.467  1.00  0.00    -0.237 OA
ATOM     90  O   UNL     1       5.811  -5.807 -14.128  1.00  0.00    -0.237 OA
ATOM     91  O   UNL     1       3.624  -5.487 -13.039  1.00  0.00    -0.744 OA
ENDBRANCH  87  88
ENDBRANCH  55  80
BRANCH  67  92
ATOM     92  C   UNL     1       5.173   5.086 -17.223  1.00  0.00     0.058 A 
ATOM     93  C   UNL     1       3.808   5.052 -17.546  1.00  0.00     0.135 A 
ATOM     94  C   UNL     1       6.072   5.476 -18.231  1.00  0.00     0.135 A 
ATOM     95  F   UNL     1       2.905   4.679 -16.625  1.00  0.00    -0.206 F 
ATOM     96  C   UNL     1       3.352   5.380 -18.819  1.00  0.00     0.059 A 
ATOM     97  C   UNL     1       5.637   5.839 -19.501  1.00  0.00     0.059 A 
ATOM     98  F   UNL     1       7.389   5.536 -17.975  1.00  0.00    -0.206 F 
ATOM     99  C   UNL     1       4.274   5.782 -19.788  1.00  0.00     0.060 A 
BRANCH  99 100
ATOM    100  S   UNL     1       3.662   6.260 -21.419  1.00  0.00     0.124 S 
ATOM    101  O   UNL     1       3.248   4.973 -21.968  1.00  0.00    -0.237 OA
ATOM    102  O   UNL     1       2.583   7.184 -21.086  1.00  0.00    -0.237 OA
ATOM    103  O   UNL     1       4.827   6.868 -22.055  1.00  0.00    -0.744 OA
ENDBRANCH  99 100
ENDBRANCH  67  92
ENDBRANCH  41  42
ENDBRANCH  34  36
ENDBRANCH  33  34
ENDBRANCH  32  33
ENDBRANCH  31  32
ENDBRANCH  30  31
ENDBRANCH  29  30
ENDBRANCH  28  29
ENDBRANCH   1  28
TORSDOF 26
