REMARK SMILES CCC[NH2+][C@]1(C(=O)OCCOCCOCCOCCOC(=O)c2ccc(-c3c4nc(c(-c5c(F)cc(S(=O)(=O)[O-])cc5F)c5ccc([nH]5)c(-c5c(F)cc(S(=O)(=O)[O-])cc5F)c5nc(c(-c6c(F)cc(S(=O)(=O)[O-])cc6F)c6ccc3[nH]6)C=C5)C=C4)cc2)CCC[C@H](OC(C)(C)C)C1
REMARK SMILES IDX 14 1 13 2 12 3 11 4 10 5 9 6 8 7 6 8 7 9 5 10 89 11 98 12
REMARK SMILES IDX 90 13 92 14 91 15 4 16 3 19 2 20 1 21 93 22 94 23 95 24
REMARK SMILES IDX 96 25 97 26 15 27 16 28 17 29 18 30 19 31 20 32 21 33 22 34
REMARK SMILES IDX 23 35 24 36 88 37 25 38 87 39 26 40 27 41 28 42 81 43 29 44
REMARK SMILES IDX 86 45 80 46 82 47 30 48 85 49 79 50 78 51 31 53 65 54 44 55
REMARK SMILES IDX 64 56 45 57 48 58 63 59 83 60 46 61 47 62 62 64 84 65 49 66
REMARK SMILES IDX 32 67 33 68 42 69 34 70 35 71 41 72 43 73 36 74 37 75 38 76
REMARK SMILES IDX 39 77 40 78 66 79 67 80 76 81 68 82 69 83 75 84 77 85 70 86
REMARK SMILES IDX 71 87 72 88 73 89 74 90 50 91 51 92 60 93 52 94 53 95 59 96
REMARK SMILES IDX 61 97 54 98 55 99 56 100 57 101 58 102
REMARK H PARENT 4 17 4 18 82 52 48 63
REMARK Flexibility Score: inf
ROOT
ATOM      1  O   UNL     1      -1.095  -2.051  -1.377  1.00  0.00    -0.377 OA
ENDROOT
BRANCH   1   2
ATOM      2  C   UNL     1       0.214  -2.241  -1.866  1.00  0.00     0.188 C 
BRANCH   2   3
ATOM      3  C   UNL     1       1.327  -1.473  -1.128  1.00  0.00     0.188 C 
BRANCH   3   4
ATOM      4  O   UNL     1       1.034  -0.697   0.026  1.00  0.00    -0.376 OA
BRANCH   4   5
ATOM      5  C   UNL     1      -0.204  -0.008   0.107  1.00  0.00     0.202 C 
BRANCH   5   6
ATOM      6  C   UNL     1      -0.637   0.941  -1.024  1.00  0.00     0.261 C 
BRANCH   6   7
ATOM      7  O   UNL     1      -0.243   0.589  -2.360  1.00  0.00    -0.459 OA
BRANCH   7   8
ATOM      8  C   UNL     1       0.831   1.259  -2.879  1.00  0.00     0.368 C 
ATOM      9  O   UNL     1       1.543   2.020  -2.235  1.00  0.00    -0.245 OA
BRANCH   8  10
ATOM     10  C   UNL     1       1.045   0.905  -4.390  1.00  0.00     0.196 C 
ATOM     11  C   UNL     1       1.973   1.963  -5.027  1.00  0.00     0.081 C 
ATOM     12  C   UNL     1       1.812  -0.443  -4.500  1.00  0.00     0.113 C 
ATOM     13  C   UNL     1       2.424   1.593  -6.442  1.00  0.00     0.010 C 
ATOM     14  C   UNL     1       2.217  -0.898  -5.902  1.00  0.00     0.125 C 
ATOM     15  C   UNL     1       3.082   0.212  -6.513  1.00  0.00     0.032 C 
BRANCH  10  16
ATOM     16  N   UNL     1      -0.271   0.765  -5.068  1.00  0.00    -0.332 N 
ATOM     17  H   UNL     1      -0.093   0.473  -6.029  1.00  0.00     0.347 HD
ATOM     18  H   UNL     1      -0.789   0.091  -4.504  1.00  0.00     0.347 HD
BRANCH  16  19
ATOM     19  C   UNL     1      -1.120   1.950  -5.117  1.00  0.00     0.261 C 
BRANCH  19  20
ATOM     20  C   UNL     1      -2.352   1.710  -6.004  1.00  0.00     0.058 C 
ATOM     21  C   UNL     1      -3.347   0.688  -5.469  1.00  0.00     0.010 C 
ENDBRANCH  19  20
ENDBRANCH  16  19
ENDBRANCH  10  16
BRANCH  14  22
ATOM     22  O   UNL     1       1.141  -1.187  -6.796  1.00  0.00    -0.372 OA
BRANCH  22  23
ATOM     23  C   UNL     1       0.376  -2.406  -6.732  1.00  0.00     0.060 C 
ATOM     24  C   UNL     1       1.210  -3.670  -6.508  1.00  0.00     0.042 C 
ATOM     25  C   UNL     1      -0.765  -2.371  -5.715  1.00  0.00     0.042 C 
ATOM     26  C   UNL     1      -0.311  -2.495  -8.107  1.00  0.00     0.042 C 
ENDBRANCH  22  23
ENDBRANCH  14  22
ENDBRANCH   8  10
ENDBRANCH   7   8
ENDBRANCH   6   7
ENDBRANCH   5   6
ENDBRANCH   4   5
ENDBRANCH   3   4
ENDBRANCH   2   3
ENDBRANCH   1   2
BRANCH   1  27
ATOM     27  C   UNL     1      -1.634  -3.177  -0.711  1.00  0.00     0.188 C 
BRANCH  27  28
ATOM     28  C   UNL     1      -0.749  -3.745   0.416  1.00  0.00     0.188 C 
BRANCH  28  29
ATOM     29  O   UNL     1       0.591  -4.022   0.019  1.00  0.00    -0.376 OA
BRANCH  29  30
ATOM     30  C   UNL     1       0.973  -5.345  -0.326  1.00  0.00     0.202 C 
BRANCH  30  31
ATOM     31  C   UNL     1       0.375  -5.997  -1.588  1.00  0.00     0.261 C 
BRANCH  31  32
ATOM     32  O   UNL     1      -1.051  -5.972  -1.713  1.00  0.00    -0.460 OA
BRANCH  32  33
ATOM     33  C   UNL     1      -1.760  -6.621  -0.759  1.00  0.00     0.338 C 
ATOM     34  O   UNL     1      -1.317  -7.259   0.167  1.00  0.00    -0.246 OA
BRANCH  33  35
ATOM     35  C   UNL     1      -3.178  -6.218  -0.916  1.00  0.00     0.060 A 
ATOM     36  C   UNL     1      -3.807  -5.565   0.153  1.00  0.00     0.016 A 
ATOM     37  C   UNL     1      -3.868  -6.451  -2.108  1.00  0.00     0.016 A 
ATOM     38  C   UNL     1      -5.135  -5.163   0.043  1.00  0.00     0.010 A 
ATOM     39  C   UNL     1      -5.213  -6.086  -2.202  1.00  0.00     0.010 A 
ATOM     40  C   UNL     1      -5.859  -5.473  -1.114  1.00  0.00    -0.014 A 
BRANCH  40  41
ATOM     41  C   UNL     1      -7.336  -5.379  -1.077  1.00  0.00     0.031 A 
ATOM     42  C   UNL     1      -8.107  -6.625  -0.733  1.00  0.00     0.074 A 
ATOM     43  C   UNL     1      -7.975  -4.216  -1.294  1.00  0.00     0.049 A 
ATOM     44  N   UNL     1      -9.397  -6.814  -0.671  1.00  0.00    -0.248 NA
ATOM     45  C   UNL     1      -7.306  -7.820  -0.413  1.00  0.00     0.031 C 
ATOM     46  C   UNL     1      -7.330  -2.935  -1.575  1.00  0.00     0.029 A 
ATOM     47  N   UNL     1      -9.317  -3.931  -1.315  1.00  0.00    -0.354 N 
ATOM     48  C   UNL     1      -9.565  -8.146  -0.314  1.00  0.00     0.074 A 
ATOM     49  C   UNL     1      -8.246  -8.728  -0.203  1.00  0.00     0.031 C 
ATOM     50  C   UNL     1      -8.280  -2.001  -1.756  1.00  0.00     0.029 A 
ATOM     51  C   UNL     1      -9.598  -2.626  -1.639  1.00  0.00     0.049 A 
ATOM     52  H   UNL     1     -10.012  -4.599  -1.116  1.00  0.00     0.167 HD
ATOM     53  C   UNL     1     -10.716  -8.822  -0.092  1.00  0.00     0.037 A 
ATOM     54  C   UNL     1     -10.784  -2.018  -1.843  1.00  0.00     0.037 A 
ATOM     55  C   UNL     1     -12.023  -8.234  -0.213  1.00  0.00     0.049 A 
ATOM     56  C   UNL     1     -12.055  -2.813  -1.676  1.00  0.00     0.074 A 
ATOM     57  C   UNL     1     -13.255  -8.829  -0.007  1.00  0.00     0.029 A 
ATOM     58  N   UNL     1     -12.269  -6.920  -0.583  1.00  0.00    -0.354 N 
ATOM     59  N   UNL     1     -12.204  -4.070  -1.327  1.00  0.00    -0.248 NA
ATOM     60  C   UNL     1     -13.320  -2.108  -1.927  1.00  0.00     0.031 C 
ATOM     61  C   UNL     1     -14.247  -7.891  -0.311  1.00  0.00     0.029 A 
ATOM     62  C   UNL     1     -13.634  -6.692  -0.639  1.00  0.00     0.049 A 
ATOM     63  H   UNL     1     -11.576  -6.248  -0.777  1.00  0.00     0.167 HD
ATOM     64  C   UNL     1     -13.577  -4.295  -1.284  1.00  0.00     0.074 A 
ATOM     65  C   UNL     1     -14.214  -3.042  -1.633  1.00  0.00     0.031 C 
ATOM     66  C   UNL     1     -14.251  -5.433  -0.980  1.00  0.00     0.037 A 
BRANCH  53  67
ATOM     67  C   UNL     1     -10.610 -10.279   0.265  1.00  0.00     0.058 A 
ATOM     68  C   UNL     1     -10.105 -10.706   1.504  1.00  0.00     0.135 A 
ATOM     69  C   UNL     1     -11.044 -11.263  -0.638  1.00  0.00     0.135 A 
ATOM     70  F   UNL     1      -9.653  -9.811   2.396  1.00  0.00    -0.206 F 
ATOM     71  C   UNL     1     -10.011 -12.057   1.824  1.00  0.00     0.059 A 
ATOM     72  C   UNL     1     -10.989 -12.617  -0.327  1.00  0.00     0.059 A 
ATOM     73  F   UNL     1     -11.527 -10.911  -1.840  1.00  0.00    -0.206 F 
ATOM     74  C   UNL     1     -10.459 -13.005   0.902  1.00  0.00     0.060 A 
BRANCH  74  75
ATOM     75  S   UNL     1     -10.339 -14.753   1.337  1.00  0.00     0.124 S 
ATOM     76  O   UNL     1      -8.896 -14.969   1.281  1.00  0.00    -0.237 OA
ATOM     77  O   UNL     1     -10.932 -14.782   2.670  1.00  0.00    -0.237 OA
ATOM     78  O   UNL     1     -11.113 -15.418   0.294  1.00  0.00    -0.744 OA
ENDBRANCH  74  75
ENDBRANCH  53  67
BRANCH  54  79
ATOM     79  C   UNL     1     -10.828  -0.585  -2.245  1.00  0.00     0.058 A 
ATOM     80  C   UNL     1     -11.351   0.395  -1.389  1.00  0.00     0.135 A 
ATOM     81  C   UNL     1     -10.354  -0.169  -3.500  1.00  0.00     0.135 A 
ATOM     82  F   UNL     1     -11.830   0.047  -0.185  1.00  0.00    -0.206 F 
ATOM     83  C   UNL     1     -11.415   1.733  -1.765  1.00  0.00     0.059 A 
ATOM     84  C   UNL     1     -10.380   1.167  -3.887  1.00  0.00     0.059 A 
ATOM     85  F   UNL     1      -9.838  -1.065  -4.356  1.00  0.00    -0.206 F 
ATOM     86  C   UNL     1     -10.921   2.110  -3.015  1.00  0.00     0.060 A 
BRANCH  86  87
ATOM     87  S   UNL     1     -10.963   3.858  -3.470  1.00  0.00     0.124 S 
ATOM     88  O   UNL     1     -12.390   4.077  -3.671  1.00  0.00    -0.237 OA
ATOM     89  O   UNL     1     -10.377   4.492  -2.293  1.00  0.00    -0.237 OA
ATOM     90  O   UNL     1     -10.140   3.910  -4.676  1.00  0.00    -0.744 OA
ENDBRANCH  86  87
ENDBRANCH  54  79
BRANCH  66  91
ATOM     91  C   UNL     1     -15.756  -5.372  -0.964  1.00  0.00     0.058 A 
ATOM     92  C   UNL     1     -16.508  -5.255  -2.142  1.00  0.00     0.135 A 
ATOM     93  C   UNL     1     -16.455  -5.497   0.249  1.00  0.00     0.135 A 
ATOM     94  F   UNL     1     -15.892  -5.128  -3.328  1.00  0.00    -0.206 F 
ATOM     95  C   UNL     1     -17.899  -5.237  -2.118  1.00  0.00     0.059 A 
ATOM     96  C   UNL     1     -17.845  -5.515   0.294  1.00  0.00     0.059 A 
ATOM     97  F   UNL     1     -15.786  -5.626   1.406  1.00  0.00    -0.206 F 
ATOM     98  C   UNL     1     -18.559  -5.372  -0.894  1.00  0.00     0.060 A 
BRANCH  98  99
ATOM     99  S   UNL     1     -20.364  -5.383  -0.882  1.00  0.00     0.124 S 
ATOM    100  O   UNL     1     -20.669  -3.987  -1.177  1.00  0.00    -0.237 OA
ATOM    101  O   UNL     1     -20.677  -6.338  -1.940  1.00  0.00    -0.237 OA
ATOM    102  O   UNL     1     -20.693  -5.824   0.470  1.00  0.00    -0.744 OA
ENDBRANCH  98  99
ENDBRANCH  66  91
ENDBRANCH  40  41
ENDBRANCH  33  35
ENDBRANCH  32  33
ENDBRANCH  31  32
ENDBRANCH  30  31
ENDBRANCH  29  30
ENDBRANCH  28  29
ENDBRANCH  27  28
ENDBRANCH   1  27
TORSDOF 28
