REMARK SMILES O=C(OCCOCCOCCOCCOC(=O)c1ccc(-c2c3nc(c(-c4c(F)cc(S(=O)(=O)[O-])cc4F)c4ccc([nH]4)c(-c4c(F)cc(S(=O)(=O)[O-])cc4F)c4nc(c(-c5c(F)cc(S(=O)(=O)[O-])cc5F)c5ccc2[nH]5)C=C4)C=C3)cc1)C1=Cc2cc(OC(F)(F)F)ccc2O[C@@H]1C(F)(F)F
REMARK SMILES IDX 10 1 9 2 8 3 7 4 6 5 5 6 4 7 3 8 2 9 1 10 84 11 85 12 98 13
REMARK SMILES IDX 86 14 97 15 87 16 96 17 88 18 95 19 94 20 99 21 100 22
REMARK SMILES IDX 101 23 102 24 89 25 90 26 91 27 92 28 93 29 11 30 12 31
REMARK SMILES IDX 13 32 14 33 15 34 16 35 17 36 18 37 19 38 83 39 20 40 82 41
REMARK SMILES IDX 21 42 22 43 23 44 76 45 24 46 81 47 75 48 77 49 25 50 80 51
REMARK SMILES IDX 74 52 73 53 26 55 60 56 39 57 59 58 40 59 43 60 58 61 78 62
REMARK SMILES IDX 41 63 42 64 57 66 79 67 44 68 27 69 28 70 37 71 29 72 30 73
REMARK SMILES IDX 36 74 38 75 31 76 32 77 33 78 34 79 35 80 61 81 62 82 71 83
REMARK SMILES IDX 63 84 64 85 70 86 72 87 65 88 66 89 67 90 68 91 69 92 45 93
REMARK SMILES IDX 46 94 55 95 47 96 48 97 54 98 56 99 49 100 50 101 51 102
REMARK SMILES IDX 52 103 53 104
REMARK H PARENT 77 54 43 65
REMARK Flexibility Score: inf
ROOT
ATOM      1  C   UNL     1       4.223   3.449   1.269  1.00  0.00     0.188 C 
ENDROOT
BRANCH   1   2
ATOM      2  O   UNL     1       2.897   3.750   1.633  1.00  0.00    -0.377 OA
BRANCH   2   3
ATOM      3  C   UNL     1       2.005   2.717   1.284  1.00  0.00     0.188 C 
BRANCH   3   4
ATOM      4  C   UNL     1       2.286   1.359   1.947  1.00  0.00     0.188 C 
BRANCH   4   5
ATOM      5  O   UNL     1       3.588   0.672   1.930  1.00  0.00    -0.376 OA
BRANCH   5   6
ATOM      6  C   UNL     1       4.322  -0.343   0.835  1.00  0.00     0.202 C 
BRANCH   6   7
ATOM      7  C   UNL     1       3.537  -0.978  -1.102  1.00  0.00     0.261 C 
BRANCH   7   8
ATOM      8  O   UNL     1       2.621  -2.158  -1.357  1.00  0.00    -0.460 OA
BRANCH   8   9
ATOM      9  C   UNL     1       2.858  -3.172  -0.519  1.00  0.00     0.338 C 
ATOM     10  O   UNL     1       2.225  -4.187  -0.371  1.00  0.00    -0.246 OA
BRANCH   9  11
ATOM     11  C   UNL     1       3.738  -2.456   0.391  1.00  0.00     0.087 C 
ATOM     12  C   UNL     1       5.104  -2.279  -0.124  1.00  0.00     0.027 C 
ATOM     13  C   UNL     1       2.479  -1.025   0.658  1.00  0.00     0.316 C 
ATOM     14  C   UNL     1       5.742  -0.739  -0.804  1.00  0.00     0.021 A 
ATOM     15  O   UNL     1       3.096   0.623  -0.180  1.00  0.00    -0.475 OA
ATOM     16  C   UNL     1       6.997  -0.712  -1.344  1.00  0.00     0.058 A 
ATOM     17  C   UNL     1       4.771   0.678  -0.937  1.00  0.00     0.128 A 
ATOM     18  C   UNL     1       7.399   0.499  -1.951  1.00  0.00     0.130 A 
ATOM     19  C   UNL     1       5.226   1.823  -1.539  1.00  0.00     0.051 A 
ATOM     20  C   UNL     1       6.564   1.696  -2.029  1.00  0.00     0.050 A 
BRANCH  13  21
ATOM     21  C   UNL     1       2.197  -1.428   2.245  1.00  0.00     0.430 C 
ATOM     22  F   UNL     1       1.319  -0.685   2.942  1.00  0.00    -0.167 F 
ATOM     23  F   UNL     1       1.633  -2.677   2.233  1.00  0.00    -0.167 F 
ATOM     24  F   UNL     1       3.308  -1.580   3.009  1.00  0.00    -0.167 F 
ENDBRANCH  13  21
BRANCH  18  25
ATOM     25  O   UNL     1       8.673   0.368  -2.458  1.00  0.00    -0.406 OA
BRANCH  25  26
ATOM     26  C   UNL     1       9.274   1.433  -3.169  1.00  0.00     0.573 C 
ATOM     27  F   UNL     1       8.531   1.788  -4.233  1.00  0.00    -0.132 F 
ATOM     28  F   UNL     1       9.464   2.494  -2.360  1.00  0.00    -0.132 F 
ATOM     29  F   UNL     1      10.482   1.014  -3.611  1.00  0.00    -0.132 F 
ENDBRANCH  25  26
ENDBRANCH  18  25
ENDBRANCH   9  11
ENDBRANCH   8   9
ENDBRANCH   7   8
ENDBRANCH   6   7
ENDBRANCH   5   6
ENDBRANCH   4   5
ENDBRANCH   3   4
ENDBRANCH   2   3
ENDBRANCH   1   2
BRANCH   1  30
ATOM     30  C   UNL     1       5.217   3.267   2.421  1.00  0.00     0.188 C 
BRANCH  30  31
ATOM     31  O   UNL     1       4.813   3.018   3.758  1.00  0.00    -0.376 OA
BRANCH  31  32
ATOM     32  C   UNL     1       3.617   3.561   4.284  1.00  0.00     0.202 C 
BRANCH  32  33
ATOM     33  C   UNL     1       3.359   5.075   4.338  1.00  0.00     0.261 C 
BRANCH  33  34
ATOM     34  O   UNL     1       3.582   5.803   3.126  1.00  0.00    -0.460 OA
BRANCH  34  35
ATOM     35  C   UNL     1       4.827   6.300   2.962  1.00  0.00     0.338 C 
ATOM     36  O   UNL     1       5.747   6.253   3.761  1.00  0.00    -0.246 OA
BRANCH  35  37
ATOM     37  C   UNL     1       4.981   6.764   1.565  1.00  0.00     0.060 A 
ATOM     38  C   UNL     1       6.100   6.338   0.828  1.00  0.00     0.016 A 
ATOM     39  C   UNL     1       4.045   7.624   0.991  1.00  0.00     0.016 A 
ATOM     40  C   UNL     1       6.306   6.793  -0.472  1.00  0.00     0.010 A 
ATOM     41  C   UNL     1       4.277   8.120  -0.291  1.00  0.00     0.010 A 
ATOM     42  C   UNL     1       5.429   7.739  -1.006  1.00  0.00    -0.014 A 
BRANCH  42  43
ATOM     43  C   UNL     1       5.833   8.548  -2.177  1.00  0.00     0.031 A 
ATOM     44  C   UNL     1       6.394   9.915  -1.909  1.00  0.00     0.074 A 
ATOM     45  C   UNL     1       5.654   8.111  -3.433  1.00  0.00     0.049 A 
ATOM     46  N   UNL     1       6.624  10.896  -2.738  1.00  0.00    -0.248 NA
ATOM     47  C   UNL     1       6.713  10.219  -0.504  1.00  0.00     0.031 C 
ATOM     48  C   UNL     1       5.170   6.785  -3.805  1.00  0.00     0.029 A 
ATOM     49  N   UNL     1       5.820   8.765  -4.628  1.00  0.00    -0.354 N 
ATOM     50  C   UNL     1       7.076  11.950  -1.950  1.00  0.00     0.074 A 
ATOM     51  C   UNL     1       7.066  11.491  -0.579  1.00  0.00     0.031 C 
ATOM     52  C   UNL     1       5.029   6.738  -5.141  1.00  0.00     0.029 A 
ATOM     53  C   UNL     1       5.363   8.046  -5.705  1.00  0.00     0.049 A 
ATOM     54  H   UNL     1       6.226   9.658  -4.705  1.00  0.00     0.167 HD
ATOM     55  C   UNL     1       7.452  13.190  -2.341  1.00  0.00     0.037 A 
ATOM     56  C   UNL     1       5.178   8.424  -6.987  1.00  0.00     0.037 A 
ATOM     57  C   UNL     1       7.433  13.627  -3.712  1.00  0.00     0.049 A 
ATOM     58  C   UNL     1       5.537   9.827  -7.401  1.00  0.00     0.074 A 
ATOM     59  C   UNL     1       7.822  14.848  -4.230  1.00  0.00     0.029 A 
ATOM     60  N   UNL     1       6.976  12.865  -4.780  1.00  0.00    -0.354 N 
ATOM     61  N   UNL     1       5.985  10.815  -6.662  1.00  0.00    -0.248 NA
ATOM     62  C   UNL     1       5.371  10.169  -8.820  1.00  0.00     0.031 C 
ATOM     63  C   UNL     1       7.520  14.855  -5.595  1.00  0.00     0.029 A 
ATOM     64  C   UNL     1       7.035  13.605  -5.949  1.00  0.00     0.049 A 
ATOM     65  H   UNL     1       6.656  11.936  -4.715  1.00  0.00     0.167 HD
ATOM     66  C   UNL     1       6.188  11.884  -7.530  1.00  0.00     0.074 A 
ATOM     67  C   UNL     1       5.809  11.422  -8.850  1.00  0.00     0.031 C 
ATOM     68  C   UNL     1       6.660  13.128  -7.260  1.00  0.00     0.037 A 
BRANCH  55  69
ATOM     69  C   UNL     1       7.840  14.169  -1.264  1.00  0.00     0.058 A 
ATOM     70  C   UNL     1       8.970  13.986  -0.450  1.00  0.00     0.135 A 
ATOM     71  C   UNL     1       7.047  15.305  -1.028  1.00  0.00     0.135 A 
ATOM     72  F   UNL     1       9.760  12.913  -0.617  1.00  0.00    -0.206 F 
ATOM     73  C   UNL     1       9.266  14.858   0.594  1.00  0.00     0.059 A 
ATOM     74  C   UNL     1       7.348  16.214  -0.019  1.00  0.00     0.059 A 
ATOM     75  F   UNL     1       5.954  15.535  -1.773  1.00  0.00    -0.206 F 
ATOM     76  C   UNL     1       8.445  15.967   0.804  1.00  0.00     0.060 A 
BRANCH  76  77
ATOM     77  S   UNL     1       8.820  17.069   2.183  1.00  0.00     0.124 S 
ATOM     78  O   UNL     1       8.484  16.227   3.327  1.00  0.00    -0.237 OA
ATOM     79  O   UNL     1      10.242  17.335   1.989  1.00  0.00    -0.237 OA
ATOM     80  O   UNL     1       7.935  18.208   1.961  1.00  0.00    -0.744 OA
ENDBRANCH  76  77
ENDBRANCH  55  69
BRANCH  56  81
ATOM     81  C   UNL     1       4.597   7.452  -7.950  1.00  0.00     0.058 A 
ATOM     82  C   UNL     1       5.377   6.876  -8.962  1.00  0.00     0.135 A 
ATOM     83  C   UNL     1       3.264   7.024  -7.828  1.00  0.00     0.135 A 
ATOM     84  F   UNL     1       6.651   7.262  -9.129  1.00  0.00    -0.206 F 
ATOM     85  C   UNL     1       4.864   5.898  -9.808  1.00  0.00     0.059 A 
ATOM     86  C   UNL     1       2.737   6.029  -8.643  1.00  0.00     0.059 A 
ATOM     87  F   UNL     1       2.478   7.539  -6.869  1.00  0.00    -0.206 F 
ATOM     88  C   UNL     1       3.547   5.468  -9.628  1.00  0.00     0.060 A 
BRANCH  88  89
ATOM     89  S   UNL     1       2.934   4.114 -10.653  1.00  0.00     0.124 S 
ATOM     90  O   UNL     1       2.874   4.741 -11.968  1.00  0.00    -0.237 OA
ATOM     91  O   UNL     1       3.974   3.105 -10.472  1.00  0.00    -0.237 OA
ATOM     92  O   UNL     1       1.646   3.790 -10.047  1.00  0.00    -0.744 OA
ENDBRANCH  88  89
ENDBRANCH  56  81
BRANCH  68  93
ATOM     93  C   UNL     1       6.863  14.076  -8.414  1.00  0.00     0.058 A 
ATOM     94  C   UNL     1       5.792  14.671  -9.095  1.00  0.00     0.135 A 
ATOM     95  C   UNL     1       8.165  14.472  -8.769  1.00  0.00     0.135 A 
ATOM     96  F   UNL     1       4.527  14.326  -8.804  1.00  0.00    -0.206 F 
ATOM     97  C   UNL     1       6.003  15.620 -10.093  1.00  0.00     0.059 A 
ATOM     98  C   UNL     1       8.398  15.443  -9.736  1.00  0.00     0.059 A 
ATOM     99  F   UNL     1       9.228  13.940  -8.144  1.00  0.00    -0.206 F 
ATOM    100  C   UNL     1       7.310  16.009 -10.397  1.00  0.00     0.060 A 
BRANCH 100 101
ATOM    101  S   UNL     1       7.565  17.291 -11.642  1.00  0.00     0.124 S 
ATOM    102  O   UNL     1       7.168  16.599 -12.864  1.00  0.00    -0.237 OA
ATOM    103  O   UNL     1       6.664  18.346 -11.189  1.00  0.00    -0.237 OA
ATOM    104  O   UNL     1       8.988  17.598 -11.530  1.00  0.00    -0.744 OA
ENDBRANCH 100 101
ENDBRANCH  68  93
ENDBRANCH  42  43
ENDBRANCH  35  37
ENDBRANCH  34  35
ENDBRANCH  33  34
ENDBRANCH  32  33
ENDBRANCH  31  32
ENDBRANCH  30  31
ENDBRANCH   1  30
TORSDOF 26
