REMARK SMILES CCOc1cc2c(cc1/C=C1/C(=O)N(c3cccc(C(=O)OCCOCCOCCOCCOC(=O)c4ccc(-c5c6nc(c(-c7c(F)cc(S(=O)(=O)[O-])cc7F)c7ccc([nH]7)c(-c7c(F)cc(S(=O)(=O)[O-])cc7F)c7nc(c(-c8c(F)cc(S(=O)(=O)[O-])cc8F)c8ccc5[nH]8)C=C7)C=C6)cc4)c3)C(=S)N=C1O)OCO2
REMARK SMILES IDX 27 1 26 2 25 3 24 4 23 5 22 6 20 7 21 8 19 9 15 10 16 11
REMARK SMILES IDX 103 12 17 13 18 14 14 15 10 16 11 17 12 18 107 19 13 20
REMARK SMILES IDX 106 21 104 22 105 23 9 24 4 25 5 26 6 27 8 28 7 29 111 30
REMARK SMILES IDX 109 31 110 32 3 33 2 34 1 35 108 36 28 38 29 39 30 40 31 41
REMARK SMILES IDX 32 42 33 43 34 44 35 45 36 46 37 47 38 48 102 49 39 50
REMARK SMILES IDX 101 51 40 52 41 53 42 54 95 55 43 56 100 57 94 58 96 59
REMARK SMILES IDX 44 60 99 61 93 62 92 63 45 65 79 66 58 67 78 68 59 69 62 70
REMARK SMILES IDX 77 71 97 72 60 73 61 74 76 76 98 77 63 78 46 79 47 80 56 81
REMARK SMILES IDX 48 82 49 83 55 84 57 85 50 86 51 87 52 88 53 89 54 90 80 91
REMARK SMILES IDX 81 92 90 93 82 94 83 95 89 96 91 97 84 98 85 99 86 100
REMARK SMILES IDX 87 101 88 102 64 103 65 104 74 105 66 106 67 107 73 108
REMARK SMILES IDX 75 109 68 110 69 111 70 112 71 113 72 114
REMARK H PARENT 108 37 96 64 62 75
REMARK Flexibility Score: inf
ROOT
ATOM      1  C   UNL     1       0.264 -12.062  -3.367  1.00  0.00     0.188 C 
ENDROOT
BRANCH   1   2
ATOM      2  C   UNL     1      -1.173 -12.620  -3.430  1.00  0.00     0.188 C 
BRANCH   2   3
ATOM      3  O   UNL     1      -1.869 -12.273  -4.614  1.00  0.00    -0.376 OA
BRANCH   3   4
ATOM      4  C   UNL     1      -2.902 -11.307  -4.562  1.00  0.00     0.202 C 
BRANCH   4   5
ATOM      5  C   UNL     1      -2.614  -9.902  -4.011  1.00  0.00     0.261 C 
BRANCH   5   6
ATOM      6  O   UNL     1      -1.821  -9.842  -2.824  1.00  0.00    -0.460 OA
BRANCH   6   7
ATOM      7  C   UNL     1      -2.398 -10.204  -1.658  1.00  0.00     0.338 C 
ATOM      8  O   UNL     1      -3.547 -10.571  -1.492  1.00  0.00    -0.246 OA
BRANCH   7   9
ATOM      9  C   UNL     1      -1.309 -10.328  -0.657  1.00  0.00     0.062 A 
ATOM     10  C   UNL     1       0.847  -9.615   0.225  1.00  0.00     0.052 A 
ATOM     11  C   UNL     1       0.839 -10.747   1.062  1.00  0.00     0.027 A 
ATOM     12  C   UNL     1      -0.243  -9.417  -0.633  1.00  0.00     0.042 A 
ATOM     13  C   UNL     1      -0.219 -11.662   1.032  1.00  0.00     0.003 A 
ATOM     14  C   UNL     1      -1.298 -11.448   0.179  1.00  0.00     0.016 A 
BRANCH  10  15
ATOM     15  N   UNL     1       1.924  -8.652   0.284  1.00  0.00    -0.251 N 
ATOM     16  C   UNL     1       2.394  -5.013   0.291  1.00  0.00     0.031 C 
ATOM     17  C   UNL     1       2.684  -6.322   0.504  1.00  0.00     0.103 C 
ATOM     18  C   UNL     1       1.552  -7.295   0.362  1.00  0.00     0.270 C 
ATOM     19  C   UNL     1       3.930  -6.964   0.914  1.00  0.00     0.226 C 
ATOM     20  O   UNL     1       0.389  -6.891   0.383  1.00  0.00    -0.268 OA
ATOM     21  N   UNL     1       4.210  -8.208   0.838  1.00  0.00    -0.184 NA
ATOM     22  C   UNL     1       3.274  -9.067   0.315  1.00  0.00     0.210 C 
ATOM     23  S   UNL     1       3.843 -10.562  -0.270  1.00  0.00    -0.038 S 
BRANCH  16  24
ATOM     24  C   UNL     1       3.204  -3.771   0.414  1.00  0.00     0.021 A 
ATOM     25  C   UNL     1       2.591  -2.528   0.752  1.00  0.00     0.130 A 
ATOM     26  C   UNL     1       3.355  -1.410   1.113  1.00  0.00     0.097 A 
ATOM     27  C   UNL     1       4.719  -1.507   1.017  1.00  0.00     0.169 A 
ATOM     28  C   UNL     1       4.591  -3.769   0.205  1.00  0.00     0.062 A 
ATOM     29  C   UNL     1       5.319  -2.647   0.550  1.00  0.00     0.166 A 
ATOM     30  O   UNL     1       5.613  -0.538   1.342  1.00  0.00    -0.453 OA
ATOM     31  O   UNL     1       6.675  -2.541   0.516  1.00  0.00    -0.454 OA
ATOM     32  C   UNL     1       6.852  -1.200   1.020  1.00  0.00     0.468 C 
BRANCH  25  33
ATOM     33  O   UNL     1       1.222  -2.397   0.808  1.00  0.00    -0.493 OA
BRANCH  33  34
ATOM     34  C   UNL     1       0.701  -1.684  -0.339  1.00  0.00     0.226 C 
ATOM     35  C   UNL     1       0.697  -0.171  -0.154  1.00  0.00     0.049 C 
ENDBRANCH  33  34
ENDBRANCH  25  33
ENDBRANCH  16  24
BRANCH  19  36
ATOM     36  O   UNL     1       4.857  -6.207   1.496  1.00  0.00    -0.493 OA
ATOM     37  H   UNL     1       4.719  -5.284   1.587  1.00  0.00     0.295 HD
ENDBRANCH  19  36
ENDBRANCH  10  15
ENDBRANCH   7   9
ENDBRANCH   6   7
ENDBRANCH   5   6
ENDBRANCH   4   5
ENDBRANCH   3   4
ENDBRANCH   2   3
ENDBRANCH   1   2
BRANCH   1  38
ATOM     38  O   UNL     1       0.604 -11.027  -4.275  1.00  0.00    -0.377 OA
BRANCH  38  39
ATOM     39  C   UNL     1       0.459 -11.236  -5.679  1.00  0.00     0.188 C 
BRANCH  39  40
ATOM     40  C   UNL     1       0.238 -12.638  -6.305  1.00  0.00     0.188 C 
BRANCH  40  41
ATOM     41  O   UNL     1       0.484 -13.729  -5.435  1.00  0.00    -0.376 OA
BRANCH  41  42
ATOM     42  C   UNL     1       1.625 -14.530  -5.669  1.00  0.00     0.202 C 
BRANCH  42  43
ATOM     43  C   UNL     1       2.994 -13.856  -5.524  1.00  0.00     0.261 C 
BRANCH  43  44
ATOM     44  O   UNL     1       3.178 -12.634  -6.248  1.00  0.00    -0.460 OA
BRANCH  44  45
ATOM     45  C   UNL     1       3.188 -12.700  -7.596  1.00  0.00     0.338 C 
ATOM     46  O   UNL     1       3.030 -13.695  -8.288  1.00  0.00    -0.246 OA
BRANCH  45  47
ATOM     47  C   UNL     1       3.252 -11.313  -8.094  1.00  0.00     0.060 A 
ATOM     48  C   UNL     1       2.204 -10.798  -8.871  1.00  0.00     0.016 A 
ATOM     49  C   UNL     1       4.346 -10.516  -7.756  1.00  0.00     0.016 A 
ATOM     50  C   UNL     1       2.265  -9.482  -9.337  1.00  0.00     0.010 A 
ATOM     51  C   UNL     1       4.417  -9.212  -8.242  1.00  0.00     0.010 A 
ATOM     52  C   UNL     1       3.394  -8.700  -9.060  1.00  0.00    -0.014 A 
BRANCH  52  53
ATOM     53  C   UNL     1       3.652  -7.442  -9.799  1.00  0.00     0.031 A 
ATOM     54  C   UNL     1       4.580  -7.515 -10.980  1.00  0.00     0.074 A 
ATOM     55  C   UNL     1       3.130  -6.265  -9.409  1.00  0.00     0.049 A 
ATOM     56  N   UNL     1       5.138  -6.551 -11.661  1.00  0.00    -0.248 NA
ATOM     57  C   UNL     1       4.937  -8.868 -11.445  1.00  0.00     0.031 C 
ATOM     58  C   UNL     1       2.173  -6.079  -8.320  1.00  0.00     0.029 A 
ATOM     59  N   UNL     1       3.361  -4.994  -9.876  1.00  0.00    -0.354 N 
ATOM     60  C   UNL     1       5.920  -7.177 -12.624  1.00  0.00     0.074 A 
ATOM     61  C   UNL     1       5.790  -8.602 -12.423  1.00  0.00     0.031 C 
ATOM     62  C   UNL     1       1.920  -4.764  -8.184  1.00  0.00     0.029 A 
ATOM     63  C   UNL     1       2.735  -4.015  -9.140  1.00  0.00     0.049 A 
ATOM     64  H   UNL     1       3.921  -4.802 -10.662  1.00  0.00     0.167 HD
ATOM     65  C   UNL     1       6.676  -6.612 -13.593  1.00  0.00     0.037 A 
ATOM     66  C   UNL     1       2.846  -2.672  -9.207  1.00  0.00     0.037 A 
ATOM     67  C   UNL     1       6.804  -5.192 -13.777  1.00  0.00     0.049 A 
ATOM     68  C   UNL     1       3.775  -2.062 -10.232  1.00  0.00     0.074 A 
ATOM     69  C   UNL     1       7.560  -4.511 -14.714  1.00  0.00     0.029 A 
ATOM     70  N   UNL     1       6.157  -4.235 -13.009  1.00  0.00    -0.354 N 
ATOM     71  N   UNL     1       4.525  -2.660 -11.129  1.00  0.00    -0.248 NA
ATOM     72  C   UNL     1       3.879  -0.595 -10.254  1.00  0.00     0.031 C 
ATOM     73  C   UNL     1       7.407  -3.142 -14.483  1.00  0.00     0.029 A 
ATOM     74  C   UNL     1       6.503  -2.969 -13.447  1.00  0.00     0.049 A 
ATOM     75  H   UNL     1       5.544  -4.428 -12.264  1.00  0.00     0.167 HD
ATOM     76  C   UNL     1       5.140  -1.643 -11.854  1.00  0.00     0.074 A 
ATOM     77  C   UNL     1       4.686  -0.392 -11.287  1.00  0.00     0.031 C 
ATOM     78  C   UNL     1       5.997  -1.735 -12.901  1.00  0.00     0.037 A 
BRANCH  65  79
ATOM     79  C   UNL     1       7.431  -7.524 -14.517  1.00  0.00     0.058 A 
ATOM     80  C   UNL     1       6.773  -8.301 -15.483  1.00  0.00     0.135 A 
ATOM     81  C   UNL     1       8.834  -7.582 -14.473  1.00  0.00     0.135 A 
ATOM     82  F   UNL     1       5.432  -8.302 -15.551  1.00  0.00    -0.206 F 
ATOM     83  C   UNL     1       7.477  -9.111 -16.367  1.00  0.00     0.059 A 
ATOM     84  C   UNL     1       9.560  -8.363 -15.367  1.00  0.00     0.059 A 
ATOM     85  F   UNL     1       9.512  -6.867 -13.562  1.00  0.00    -0.206 F 
ATOM     86  C   UNL     1       8.872  -9.129 -16.306  1.00  0.00     0.060 A 
BRANCH  86  87
ATOM     87  S   UNL     1       9.769 -10.157 -17.486  1.00  0.00     0.124 S 
ATOM     88  O   UNL     1       9.441 -11.499 -17.014  1.00  0.00    -0.237 OA
ATOM     89  O   UNL     1       9.166  -9.768 -18.757  1.00  0.00    -0.237 OA
ATOM     90  O   UNL     1      11.159  -9.752 -17.305  1.00  0.00    -0.744 OA
ENDBRANCH  86  87
ENDBRANCH  65  79
BRANCH  66  91
ATOM     91  C   UNL     1       2.089  -1.798  -8.266  1.00  0.00     0.058 A 
ATOM     92  C   UNL     1       1.096  -0.921  -8.731  1.00  0.00     0.135 A 
ATOM     93  C   UNL     1       2.376  -1.783  -6.892  1.00  0.00     0.135 A 
ATOM     94  F   UNL     1       0.791  -0.887 -10.037  1.00  0.00    -0.206 F 
ATOM     95  C   UNL     1       0.441  -0.038  -7.877  1.00  0.00     0.059 A 
ATOM     96  C   UNL     1       1.712  -0.932  -6.013  1.00  0.00     0.059 A 
ATOM     97  F   UNL     1       3.309  -2.606  -6.388  1.00  0.00    -0.206 F 
ATOM     98  C   UNL     1       0.759  -0.049  -6.518  1.00  0.00     0.060 A 
BRANCH  98  99
ATOM     99  S   UNL     1      -0.100   1.092  -5.413  1.00  0.00     0.124 S 
ATOM    100  O   UNL     1       0.505   2.367  -5.779  1.00  0.00    -0.237 OA
ATOM    101  O   UNL     1      -1.494   0.909  -5.806  1.00  0.00    -0.237 OA
ATOM    102  O   UNL     1       0.238   0.590  -4.083  1.00  0.00    -0.744 OA
ENDBRANCH  98  99
ENDBRANCH  66  91
BRANCH  78 103
ATOM    103  C   UNL     1       6.432  -0.464 -13.579  1.00  0.00     0.058 A 
ATOM    104  C   UNL     1       7.356   0.417 -12.998  1.00  0.00     0.135 A 
ATOM    105  C   UNL     1       5.993  -0.187 -14.885  1.00  0.00     0.135 A 
ATOM    106  F   UNL     1       7.802   0.203 -11.750  1.00  0.00    -0.206 F 
ATOM    107  C   UNL     1       7.826   1.531 -13.687  1.00  0.00     0.059 A 
ATOM    108  C   UNL     1       6.473   0.902 -15.603  1.00  0.00     0.059 A 
ATOM    109  F   UNL     1       5.117  -1.005 -15.491  1.00  0.00    -0.206 F 
ATOM    110  C   UNL     1       7.388   1.758 -14.994  1.00  0.00     0.060 A 
BRANCH 110 111
ATOM    111  S   UNL     1       8.068   3.163 -15.903  1.00  0.00     0.124 S 
ATOM    112  O   UNL     1       7.432   4.288 -15.225  1.00  0.00    -0.237 OA
ATOM    113  O   UNL     1       9.502   3.014 -15.676  1.00  0.00    -0.237 OA
ATOM    114  O   UNL     1       7.628   2.927 -17.275  1.00  0.00    -0.744 OA
ENDBRANCH 110 111
ENDBRANCH  78 103
ENDBRANCH  52  53
ENDBRANCH  45  47
ENDBRANCH  44  45
ENDBRANCH  43  44
ENDBRANCH  42  43
ENDBRANCH  41  42
ENDBRANCH  40  41
ENDBRANCH  39  40
ENDBRANCH  38  39
ENDBRANCH   1  38
TORSDOF 28
