REMARK SMILES O=C(OCCOCCOCCOCCOC(=O)c1ccc([C@@H]2CC(O)=Nc3c2c(=O)[nH]n3C2CCCCCCC2)cc1)c1ccc(-c2c3nc(c(-c4c(F)cc(S(=O)(=O)[O-])cc4F)c4ccc([nH]4)c(-c4c(F)cc(S(=O)(=O)[O-])cc4F)c4nc(c(-c5c(F)cc(S(=O)(=O)[O-])cc5F)c5ccc2[nH]5)C=C4)C=C3)cc1
REMARK SMILES IDX 11 1 10 2 9 3 8 4 7 5 6 6 5 7 4 8 3 9 2 10 1 11 43 12 44 13
REMARK SMILES IDX 108 14 45 15 107 16 46 17 47 18 48 19 101 20 49 21 106 22
REMARK SMILES IDX 100 23 102 24 50 25 105 26 99 27 98 28 51 30 85 31 64 32
REMARK SMILES IDX 84 33 65 34 68 35 83 36 103 37 66 38 67 39 82 41 104 42
REMARK SMILES IDX 69 43 52 44 53 45 62 46 54 47 55 48 61 49 63 50 56 51 57 52
REMARK SMILES IDX 58 53 59 54 60 55 86 56 87 57 96 58 88 59 89 60 95 61 97 62
REMARK SMILES IDX 90 63 91 64 92 65 93 66 94 67 70 68 71 69 80 70 72 71 73 72
REMARK SMILES IDX 79 73 81 74 74 75 75 76 76 77 77 78 78 79 12 80 13 81 14 82
REMARK SMILES IDX 15 83 16 84 17 85 18 86 19 87 42 88 20 89 41 90 21 91 22 92
REMARK SMILES IDX 23 93 28 94 24 95 27 96 29 97 26 98 32 99 30 100 31 101
REMARK SMILES IDX 25 103 33 105 34 106 35 107 40 109 39 110 38 111 37 112
REMARK SMILES IDX 36 113
REMARK H PARENT 102 29 68 40 31 102 25 104
REMARK Flexibility Score: 80.00
ROOT
ATOM      1  C   UNL     1       5.035   3.817   0.455  1.00  0.00     0.188 C 
ENDROOT
BRANCH   1   2
ATOM      2  C   UNL     1       4.003   3.558  -0.659  1.00  0.00     0.188 C 
BRANCH   2   3
ATOM      3  O   UNL     1       2.679   3.495  -0.182  1.00  0.00    -0.377 OA
BRANCH   3   4
ATOM      4  C   UNL     1       2.202   2.168  -0.035  1.00  0.00     0.188 C 
BRANCH   4   5
ATOM      5  C   UNL     1       2.952   1.270   0.965  1.00  0.00     0.188 C 
BRANCH   5   6
ATOM      6  O   UNL     1       4.241   0.690   0.804  1.00  0.00    -0.376 OA
BRANCH   6   7
ATOM      7  C   UNL     1       5.027   0.470  -0.347  1.00  0.00     0.202 C 
BRANCH   7   8
ATOM      8  C   UNL     1       4.538  -0.246  -1.607  1.00  0.00     0.261 C 
BRANCH   8   9
ATOM      9  O   UNL     1       3.176  -0.044  -1.945  1.00  0.00    -0.460 OA
BRANCH   9  10
ATOM     10  C   UNL     1       2.113  -0.731  -1.479  1.00  0.00     0.338 C 
ATOM     11  O   UNL     1       1.018  -0.531  -2.004  1.00  0.00    -0.246 OA
BRANCH  10  12
ATOM     12  C   UNL     1       2.165  -1.602  -0.274  1.00  0.00     0.060 A 
ATOM     13  C   UNL     1       3.304  -2.224   0.252  1.00  0.00     0.016 A 
ATOM     14  C   UNL     1       0.924  -1.810   0.358  1.00  0.00     0.016 A 
ATOM     15  C   UNL     1       3.195  -3.168   1.244  1.00  0.00     0.010 A 
ATOM     16  C   UNL     1       0.804  -2.738   1.371  1.00  0.00     0.010 A 
ATOM     17  C   UNL     1       1.929  -3.491   1.697  1.00  0.00    -0.014 A 
BRANCH  17  18
ATOM     18  C   UNL     1       1.804  -4.796   2.309  1.00  0.00     0.031 A 
ATOM     19  C   UNL     1       2.389  -4.934   3.666  1.00  0.00     0.074 A 
ATOM     20  C   UNL     1       1.167  -5.740   1.586  1.00  0.00     0.049 A 
ATOM     21  N   UNL     1       3.238  -5.810   4.100  1.00  0.00    -0.248 NA
ATOM     22  C   UNL     1       2.088  -3.865   4.635  1.00  0.00     0.031 C 
ATOM     23  C   UNL     1       0.456  -5.566   0.307  1.00  0.00     0.029 A 
ATOM     24  N   UNL     1       0.889  -7.026   1.908  1.00  0.00    -0.354 N 
ATOM     25  C   UNL     1       3.386  -5.542   5.460  1.00  0.00     0.074 A 
ATOM     26  C   UNL     1       2.798  -4.250   5.693  1.00  0.00     0.031 C 
ATOM     27  C   UNL     1      -0.388  -6.599   0.121  1.00  0.00     0.029 A 
ATOM     28  C   UNL     1      -0.174  -7.556   1.184  1.00  0.00     0.049 A 
ATOM     29  H   UNL     1       1.389  -7.535   2.586  1.00  0.00     0.167 HD
ATOM     30  C   UNL     1       3.741  -6.509   6.349  1.00  0.00     0.037 A 
ATOM     31  C   UNL     1      -0.925  -8.611   1.577  1.00  0.00     0.037 A 
ATOM     32  C   UNL     1       4.462  -7.581   5.719  1.00  0.00     0.049 A 
ATOM     33  C   UNL     1      -0.097  -9.371   2.558  1.00  0.00     0.074 A 
ATOM     34  C   UNL     1       5.660  -7.662   5.036  1.00  0.00     0.029 A 
ATOM     35  N   UNL     1       3.789  -8.742   5.426  1.00  0.00    -0.354 N 
ATOM     36  N   UNL     1       1.030  -9.959   2.247  1.00  0.00    -0.248 NA
ATOM     37  C   UNL     1      -0.263  -9.061   3.971  1.00  0.00     0.031 C 
ATOM     38  C   UNL     1       5.437  -8.617   4.003  1.00  0.00     0.029 A 
ATOM     39  C   UNL     1       4.133  -9.097   4.144  1.00  0.00     0.049 A 
ATOM     40  H   UNL     1       3.175  -9.229   6.022  1.00  0.00     0.167 HD
ATOM     41  C   UNL     1       1.867  -9.745   3.336  1.00  0.00     0.074 A 
ATOM     42  C   UNL     1       0.991  -9.245   4.393  1.00  0.00     0.031 C 
ATOM     43  C   UNL     1       3.228  -9.722   3.203  1.00  0.00     0.037 A 
BRANCH  30  44
ATOM     44  C   UNL     1       3.100  -6.628   7.710  1.00  0.00     0.058 A 
ATOM     45  C   UNL     1       3.636  -7.509   8.668  1.00  0.00     0.135 A 
ATOM     46  C   UNL     1       1.813  -6.116   8.003  1.00  0.00     0.135 A 
ATOM     47  F   UNL     1       4.845  -8.063   8.485  1.00  0.00    -0.206 F 
ATOM     48  C   UNL     1       2.916  -7.906   9.797  1.00  0.00     0.059 A 
ATOM     49  C   UNL     1       1.104  -6.454   9.146  1.00  0.00     0.059 A 
ATOM     50  F   UNL     1       1.137  -5.344   7.143  1.00  0.00    -0.206 F 
ATOM     51  C   UNL     1       1.641  -7.388  10.013  1.00  0.00     0.060 A 
BRANCH  51  52
ATOM     52  S   UNL     1       0.645  -8.006  11.380  1.00  0.00     0.124 S 
ATOM     53  O   UNL     1       0.346  -9.361  10.928  1.00  0.00    -0.237 OA
ATOM     54  O   UNL     1       1.567  -7.894  12.504  1.00  0.00    -0.237 OA
ATOM     55  O   UNL     1      -0.489  -7.087  11.412  1.00  0.00    -0.744 OA
ENDBRANCH  51  52
ENDBRANCH  30  44
BRANCH  31  56
ATOM     56  C   UNL     1      -2.411  -8.651   1.515  1.00  0.00     0.058 A 
ATOM     57  C   UNL     1      -3.116  -9.855   1.650  1.00  0.00     0.135 A 
ATOM     58  C   UNL     1      -3.190  -7.470   1.534  1.00  0.00     0.135 A 
ATOM     59  F   UNL     1      -2.453 -11.021   1.680  1.00  0.00    -0.206 F 
ATOM     60  C   UNL     1      -4.508  -9.888   1.808  1.00  0.00     0.059 A 
ATOM     61  C   UNL     1      -4.575  -7.478   1.669  1.00  0.00     0.059 A 
ATOM     62  F   UNL     1      -2.620  -6.256   1.505  1.00  0.00    -0.206 F 
ATOM     63  C   UNL     1      -5.228  -8.691   1.825  1.00  0.00     0.060 A 
BRANCH  63  64
ATOM     64  S   UNL     1      -7.003  -8.719   2.159  1.00  0.00     0.124 S 
ATOM     65  O   UNL     1      -7.526  -9.367   0.961  1.00  0.00    -0.237 OA
ATOM     66  O   UNL     1      -7.071  -9.501   3.389  1.00  0.00    -0.237 OA
ATOM     67  O   UNL     1      -7.346  -7.306   2.302  1.00  0.00    -0.744 OA
ENDBRANCH  63  64
ENDBRANCH  31  56
BRANCH  43  68
ATOM     68  C   UNL     1       3.823 -10.126   1.874  1.00  0.00     0.058 A 
ATOM     69  C   UNL     1       3.676  -9.366   0.699  1.00  0.00     0.135 A 
ATOM     70  C   UNL     1       4.728 -11.195   1.829  1.00  0.00     0.135 A 
ATOM     71  F   UNL     1       2.922  -8.260   0.691  1.00  0.00    -0.206 F 
ATOM     72  C   UNL     1       4.368  -9.672  -0.474  1.00  0.00     0.059 A 
ATOM     73  C   UNL     1       5.453 -11.503   0.677  1.00  0.00     0.059 A 
ATOM     74  F   UNL     1       4.972 -11.915   2.937  1.00  0.00    -0.206 F 
ATOM     75  C   UNL     1       5.261 -10.741  -0.474  1.00  0.00     0.060 A 
BRANCH  75  76
ATOM     76  S   UNL     1       6.239 -11.064  -1.959  1.00  0.00     0.124 S 
ATOM     77  O   UNL     1       5.243 -11.621  -2.868  1.00  0.00    -0.237 OA
ATOM     78  O   UNL     1       6.740  -9.736  -2.305  1.00  0.00    -0.237 OA
ATOM     79  O   UNL     1       7.259 -12.003  -1.499  1.00  0.00    -0.744 OA
ENDBRANCH  75  76
ENDBRANCH  43  68
ENDBRANCH  17  18
ENDBRANCH  10  12
ENDBRANCH   9  10
ENDBRANCH   8   9
ENDBRANCH   7   8
ENDBRANCH   6   7
ENDBRANCH   5   6
ENDBRANCH   4   5
ENDBRANCH   3   4
ENDBRANCH   2   3
ENDBRANCH   1   2
BRANCH   1  80
ATOM     80  O   UNL     1       4.643   3.957   1.808  1.00  0.00    -0.376 OA
BRANCH  80  81
ATOM     81  C   UNL     1       3.487   4.692   2.170  1.00  0.00     0.202 C 
BRANCH  81  82
ATOM     82  C   UNL     1       3.107   6.039   1.524  1.00  0.00     0.261 C 
BRANCH  82  83
ATOM     83  O   UNL     1       3.532   6.273   0.180  1.00  0.00    -0.460 OA
BRANCH  83  84
ATOM     84  C   UNL     1       4.686   6.958   0.014  1.00  0.00     0.338 C 
ATOM     85  O   UNL     1       5.405   7.435   0.874  1.00  0.00    -0.246 OA
BRANCH  84  86
ATOM     86  C   UNL     1       5.048   6.858  -1.415  1.00  0.00     0.060 A 
ATOM     87  C   UNL     1       6.246   6.225  -1.769  1.00  0.00     0.016 A 
ATOM     88  C   UNL     1       4.163   7.292  -2.398  1.00  0.00     0.016 A 
ATOM     89  C   UNL     1       6.545   5.995  -3.109  1.00  0.00     0.005 A 
ATOM     90  C   UNL     1       4.493   7.114  -3.740  1.00  0.00     0.005 A 
ATOM     91  C   UNL     1       5.688   6.466  -4.113  1.00  0.00    -0.040 A 
BRANCH  91  92
ATOM     92  C   UNL     1       6.163   6.395  -5.558  1.00  0.00     0.068 C 
ATOM     93  C   UNL     1       6.940   7.689  -5.868  1.00  0.00     0.110 C 
ATOM     94  C   UNL     1       5.087   6.266  -6.558  1.00  0.00     0.071 A 
ATOM     95  C   UNL     1       5.973   8.777  -6.265  1.00  0.00     0.188 C 
ATOM     96  C   UNL     1       4.525   7.306  -7.197  1.00  0.00     0.160 A 
ATOM     97  C   UNL     1       4.507   5.042  -7.133  1.00  0.00     0.270 A 
ATOM     98  N   UNL     1       4.858   8.600  -6.891  1.00  0.00    -0.198 NA
ATOM     99  N   UNL     1       3.612   6.847  -8.127  1.00  0.00    -0.264 N 
ATOM    100  O   UNL     1       4.804   3.904  -6.824  1.00  0.00    -0.268 OA
ATOM    101  N   UNL     1       3.598   5.462  -8.086  1.00  0.00    -0.262 N 
ATOM    102  H   UNL     1       3.036   4.875  -8.642  1.00  0.00     0.191 HD
BRANCH  95 103
ATOM    103  O   UNL     1       6.363  10.031  -5.979  1.00  0.00    -0.496 OA
ATOM    104  H   UNL     1       7.170  10.179  -5.526  1.00  0.00     0.294 HD
ENDBRANCH  95 103
BRANCH  99 105
ATOM    105  C   UNL     1       2.836   7.588  -9.120  1.00  0.00     0.107 C 
BRANCH 105 106
ATOM    106  C   UNL     1       1.971   8.633  -8.405  1.00  0.00     0.027 C 
BRANCH 106 107
ATOM    107  C   UNL     1       1.130   9.554  -9.281  1.00  0.00     0.002 CG0
ATOM    108  G   UNL     1       1.869  10.578 -10.141  1.00  0.00     0.000 G0
ENDBRANCH 106 107
ENDBRANCH 105 106
BRANCH 105 109
ATOM    109  C   UNL     1       3.727   8.028 -10.302  1.00  0.00     0.027 C 
BRANCH 109 110
ATOM    110  C   UNL     1       4.795   9.105 -10.091  1.00  0.00     0.002 C 
BRANCH 110 111
ATOM    111  C   UNL     1       4.414  10.571 -10.297  1.00  0.00     0.000 C 
BRANCH 111 112
ATOM    112  C   UNL     1       3.184  11.113  -9.575  1.00  0.00     0.000 C 
BRANCH 112 113
ATOM    113  C   UNL     1       1.869  10.578 -10.141  1.00  0.00     0.000 CG0
ATOM    114  G   UNL     1       1.130   9.554  -9.281  1.00  0.00     0.000 G0
ENDBRANCH 112 113
ENDBRANCH 111 112
ENDBRANCH 110 111
ENDBRANCH 109 110
ENDBRANCH 105 109
ENDBRANCH  99 105
ENDBRANCH  91  92
ENDBRANCH  84  86
ENDBRANCH  83  84
ENDBRANCH  82  83
ENDBRANCH  81  82
ENDBRANCH  80  81
ENDBRANCH   1  80
TORSDOF 26
