REMARK SMILES CC(C)C[C@@H](CNc1ccc(C(N)=O)cc1)C(=O)OCCOCCOCCOCCOC(=O)c1ccc(-c2c3nc(c(-c4c(F)cc(S(=O)(=O)[O-])cc4F)c4ccc([nH]4)c(-c4c(F)cc(S(=O)(=O)[O-])cc4F)c4nc(c(-c5c(F)cc(S(=O)(=O)[O-])cc5F)c5ccc2[nH]5)C=C4)C=C3)cc1
REMARK SMILES IDX 24 1 23 2 22 3 21 4 20 5 19 6 17 7 18 8 5 9 4 10 2 11 1 12
REMARK SMILES IDX 3 13 6 14 7 15 8 17 9 18 16 19 10 20 15 21 11 22 12 23 13 24
REMARK SMILES IDX 14 25 25 28 26 29 27 30 28 31 29 32 30 33 31 34 32 35 33 36
REMARK SMILES IDX 34 37 35 38 99 39 36 40 98 41 37 42 38 43 39 44 92 45 40 46
REMARK SMILES IDX 97 47 91 48 93 49 41 50 96 51 90 52 89 53 42 55 76 56 55 57
REMARK SMILES IDX 75 58 56 59 59 60 74 61 94 62 57 63 58 64 73 66 95 67 60 68
REMARK SMILES IDX 43 69 44 70 53 71 45 72 46 73 52 74 54 75 47 76 48 77 49 78
REMARK SMILES IDX 50 79 51 80 77 81 78 82 87 83 79 84 80 85 86 86 88 87 81 88
REMARK SMILES IDX 82 89 83 90 84 91 85 92 61 93 62 94 71 95 63 96 64 97 70 98
REMARK SMILES IDX 72 99 65 100 66 101 67 102 68 103 69 104
REMARK H PARENT 7 16 13 26 13 27 93 54 59 65
REMARK Flexibility Score: inf
ROOT
ATOM      1  C   UNL     1      -3.577   0.937   0.160  1.00  0.00     0.188 C 
ENDROOT
BRANCH   1   2
ATOM      2  C   UNL     1      -4.407   0.185  -0.884  1.00  0.00     0.188 C 
BRANCH   2   3
ATOM      3  O   UNL     1      -5.694  -0.306  -0.570  1.00  0.00    -0.376 OA
BRANCH   3   4
ATOM      4  C   UNL     1      -5.911  -1.196   0.515  1.00  0.00     0.202 C 
BRANCH   4   5
ATOM      5  C   UNL     1      -4.904  -2.263   0.983  1.00  0.00     0.261 C 
BRANCH   5   6
ATOM      6  O   UNL     1      -3.559  -1.835   1.272  1.00  0.00    -0.463 OA
BRANCH   6   7
ATOM      7  C   UNL     1      -2.626  -2.225   0.377  1.00  0.00     0.310 C 
ATOM      8  O   UNL     1      -2.885  -2.817  -0.672  1.00  0.00    -0.252 OA
BRANCH   7   9
ATOM      9  C   UNL     1      -1.181  -1.930   0.747  1.00  0.00     0.118 C 
BRANCH   9  10
ATOM     10  C   UNL     1      -0.788  -0.728   1.639  1.00  0.00     0.020 C 
BRANCH  10  11
ATOM     11  C   UNL     1       0.727  -0.382   1.576  1.00  0.00    -0.017 C 
ATOM     12  C   UNL     1       1.201  -0.026   0.160  1.00  0.00     0.007 C 
ATOM     13  C   UNL     1       1.058   0.786   2.509  1.00  0.00     0.007 C 
ENDBRANCH  10  11
ENDBRANCH   9  10
BRANCH   9  14
ATOM     14  C   UNL     1      -0.587  -3.250   1.242  1.00  0.00     0.128 C 
BRANCH  14  15
ATOM     15  N   UNL     1      -1.056  -3.565   2.584  1.00  0.00    -0.384 N 
ATOM     16  H   UNL     1      -0.705  -3.054   3.349  1.00  0.00     0.160 HD
BRANCH  15  17
ATOM     17  C   UNL     1      -1.984  -4.566   2.807  1.00  0.00     0.034 A 
ATOM     18  C   UNL     1      -3.082  -4.322   3.642  1.00  0.00     0.026 A 
ATOM     19  C   UNL     1      -1.896  -5.807   2.178  1.00  0.00     0.026 A 
ATOM     20  C   UNL     1      -4.052  -5.307   3.872  1.00  0.00     0.016 A 
ATOM     21  C   UNL     1      -2.849  -6.799   2.412  1.00  0.00     0.016 A 
ATOM     22  C   UNL     1      -3.928  -6.563   3.271  1.00  0.00     0.039 A 
BRANCH  22  23
ATOM     23  C   UNL     1      -4.887  -7.681   3.493  1.00  0.00     0.248 C 
ATOM     24  N   UNL     1      -5.832  -7.545   4.469  1.00  0.00    -0.366 N 
ATOM     25  O   UNL     1      -4.823  -8.710   2.828  1.00  0.00    -0.270 OA
ATOM     26  H   UNL     1      -5.877  -6.717   4.998  1.00  0.00     0.159 HD
ATOM     27  H   UNL     1      -6.468  -8.276   4.643  1.00  0.00     0.159 HD
ENDBRANCH  22  23
ENDBRANCH  15  17
ENDBRANCH  14  15
ENDBRANCH   9  14
ENDBRANCH   7   9
ENDBRANCH   6   7
ENDBRANCH   5   6
ENDBRANCH   4   5
ENDBRANCH   3   4
ENDBRANCH   2   3
ENDBRANCH   1   2
BRANCH   1  28
ATOM     28  O   UNL     1      -3.905   0.702   1.514  1.00  0.00    -0.377 OA
BRANCH  28  29
ATOM     29  C   UNL     1      -4.922   1.487   2.128  1.00  0.00     0.188 C 
BRANCH  29  30
ATOM     30  C   UNL     1      -5.894   2.299   1.252  1.00  0.00     0.188 C 
BRANCH  30  31
ATOM     31  O   UNL     1      -5.276   3.000   0.184  1.00  0.00    -0.376 OA
BRANCH  31  32
ATOM     32  C   UNL     1      -4.853   4.339   0.395  1.00  0.00     0.202 C 
BRANCH  32  33
ATOM     33  C   UNL     1      -3.836   4.618   1.515  1.00  0.00     0.261 C 
BRANCH  33  34
ATOM     34  O   UNL     1      -4.252   4.316   2.857  1.00  0.00    -0.460 OA
BRANCH  34  35
ATOM     35  C   UNL     1      -5.410   4.842   3.302  1.00  0.00     0.338 C 
ATOM     36  O   UNL     1      -6.129   5.638   2.716  1.00  0.00    -0.246 OA
BRANCH  35  37
ATOM     37  C   UNL     1      -5.782   4.141   4.546  1.00  0.00     0.060 A 
ATOM     38  C   UNL     1      -7.008   3.466   4.601  1.00  0.00     0.016 A 
ATOM     39  C   UNL     1      -4.941   4.174   5.662  1.00  0.00     0.016 A 
ATOM     40  C   UNL     1      -7.423   2.866   5.789  1.00  0.00     0.010 A 
ATOM     41  C   UNL     1      -5.368   3.590   6.858  1.00  0.00     0.010 A 
ATOM     42  C   UNL     1      -6.629   2.974   6.938  1.00  0.00    -0.014 A 
BRANCH  42  43
ATOM     43  C   UNL     1      -7.215   2.641   8.260  1.00  0.00     0.031 A 
ATOM     44  C   UNL     1      -7.745   3.768   9.107  1.00  0.00     0.074 A 
ATOM     45  C   UNL     1      -7.313   1.369   8.685  1.00  0.00     0.049 A 
ATOM     46  N   UNL     1      -8.267   3.733  10.305  1.00  0.00    -0.248 NA
ATOM     47  C   UNL     1      -7.673   5.117   8.521  1.00  0.00     0.031 C 
ATOM     48  C   UNL     1      -6.881   0.191   7.936  1.00  0.00     0.029 A 
ATOM     49  N   UNL     1      -7.806   0.859   9.861  1.00  0.00    -0.354 N 
ATOM     50  C   UNL     1      -8.577   5.052  10.620  1.00  0.00     0.074 A 
ATOM     51  C   UNL     1      -8.154   5.866   9.502  1.00  0.00     0.031 C 
ATOM     52  C   UNL     1      -7.117  -0.907   8.677  1.00  0.00     0.029 A 
ATOM     53  C   UNL     1      -7.684  -0.506   9.964  1.00  0.00     0.049 A 
ATOM     54  H   UNL     1      -8.208   1.419  10.564  1.00  0.00     0.167 HD
ATOM     55  C   UNL     1      -9.170   5.539  11.735  1.00  0.00     0.037 A 
ATOM     56  C   UNL     1      -7.976  -1.331  10.990  1.00  0.00     0.037 A 
ATOM     57  C   UNL     1      -9.588   4.723  12.844  1.00  0.00     0.049 A 
ATOM     58  C   UNL     1      -8.568  -0.758  12.253  1.00  0.00     0.074 A 
ATOM     59  C   UNL     1     -10.210   5.117  14.016  1.00  0.00     0.029 A 
ATOM     60  N   UNL     1      -9.419   3.348  12.925  1.00  0.00    -0.354 N 
ATOM     61  N   UNL     1      -8.873   0.488  12.532  1.00  0.00    -0.248 NA
ATOM     62  C   UNL     1      -8.861  -1.703  13.340  1.00  0.00     0.031 C 
ATOM     63  C   UNL     1     -10.361   3.990  14.830  1.00  0.00     0.029 A 
ATOM     64  C   UNL     1      -9.899   2.882  14.138  1.00  0.00     0.049 A 
ATOM     65  H   UNL     1      -9.018   2.786  12.223  1.00  0.00     0.167 HD
ATOM     66  C   UNL     1      -9.424   0.470  13.810  1.00  0.00     0.074 A 
ATOM     67  C   UNL     1      -9.420  -0.912  14.245  1.00  0.00     0.031 C 
ATOM     68  C   UNL     1      -9.895   1.502  14.555  1.00  0.00     0.037 A 
BRANCH  55  69
ATOM     69  C   UNL     1      -9.371   7.028  11.825  1.00  0.00     0.058 A 
ATOM     70  C   UNL     1     -10.301   7.704  11.020  1.00  0.00     0.135 A 
ATOM     71  C   UNL     1      -8.640   7.786  12.755  1.00  0.00     0.135 A 
ATOM     72  F   UNL     1     -11.012   7.033  10.098  1.00  0.00    -0.206 F 
ATOM     73  C   UNL     1     -10.482   9.080  11.114  1.00  0.00     0.059 A 
ATOM     74  C   UNL     1      -8.828   9.158  12.890  1.00  0.00     0.059 A 
ATOM     75  F   UNL     1      -7.733   7.193  13.547  1.00  0.00    -0.206 F 
ATOM     76  C   UNL     1      -9.742   9.799  12.055  1.00  0.00     0.060 A 
BRANCH  76  77
ATOM     77  S   UNL     1      -9.995  11.582  12.171  1.00  0.00     0.124 S 
ATOM     78  O   UNL     1      -9.386  12.044  10.927  1.00  0.00    -0.237 OA
ATOM     79  O   UNL     1     -11.449  11.685  12.241  1.00  0.00    -0.237 OA
ATOM     80  O   UNL     1      -9.283  11.949  13.391  1.00  0.00    -0.744 OA
ENDBRANCH  76  77
ENDBRANCH  55  69
BRANCH  56  81
ATOM     81  C   UNL     1      -7.702  -2.790  10.874  1.00  0.00     0.058 A 
ATOM     82  C   UNL     1      -8.745  -3.726  10.832  1.00  0.00     0.135 A 
ATOM     83  C   UNL     1      -6.386  -3.276  10.806  1.00  0.00     0.135 A 
ATOM     84  F   UNL     1     -10.020  -3.313  10.908  1.00  0.00    -0.206 F 
ATOM     85  C   UNL     1      -8.498  -5.091  10.736  1.00  0.00     0.059 A 
ATOM     86  C   UNL     1      -6.113  -4.634  10.680  1.00  0.00     0.059 A 
ATOM     87  F   UNL     1      -5.350  -2.424  10.834  1.00  0.00    -0.206 F 
ATOM     88  C   UNL     1      -7.177  -5.535  10.651  1.00  0.00     0.060 A 
BRANCH  88  89
ATOM     89  S   UNL     1      -6.870  -7.302  10.447  1.00  0.00     0.124 S 
ATOM     90  O   UNL     1      -7.258  -7.822  11.752  1.00  0.00    -0.237 OA
ATOM     91  O   UNL     1      -7.754  -7.633   9.333  1.00  0.00    -0.237 OA
ATOM     92  O   UNL     1      -5.444  -7.360  10.138  1.00  0.00    -0.744 OA
ENDBRANCH  88  89
ENDBRANCH  56  81
BRANCH  68  93
ATOM     93  C   UNL     1     -10.490   1.177  15.900  1.00  0.00     0.058 A 
ATOM     94  C   UNL     1      -9.701   0.757  16.982  1.00  0.00     0.135 A 
ATOM     95  C   UNL     1     -11.869   1.339  16.122  1.00  0.00     0.135 A 
ATOM     96  F   UNL     1      -8.379   0.582  16.827  1.00  0.00    -0.206 F 
ATOM     97  C   UNL     1     -10.260   0.479  18.226  1.00  0.00     0.059 A 
ATOM     98  C   UNL     1     -12.444   1.100  17.365  1.00  0.00     0.059 A 
ATOM     99  F   UNL     1     -12.670   1.751  15.126  1.00  0.00    -0.206 F 
ATOM    100  C   UNL     1     -11.633   0.656  18.408  1.00  0.00     0.060 A 
BRANCH 100 101
ATOM    101  S   UNL     1     -12.341   0.315  20.033  1.00  0.00     0.124 S 
ATOM    102  O   UNL     1     -12.273  -1.142  20.084  1.00  0.00    -0.237 OA
ATOM    103  O   UNL     1     -11.430   1.024  20.925  1.00  0.00    -0.237 OA
ATOM    104  O   UNL     1     -13.686   0.876  19.944  1.00  0.00    -0.744 OA
ENDBRANCH 100 101
ENDBRANCH  68  93
ENDBRANCH  42  43
ENDBRANCH  35  37
ENDBRANCH  34  35
ENDBRANCH  33  34
ENDBRANCH  32  33
ENDBRANCH  31  32
ENDBRANCH  30  31
ENDBRANCH  29  30
ENDBRANCH  28  29
ENDBRANCH   1  28
TORSDOF 29
