REMARK SMILES O=C(CN(C(=O)[C@H]1CC[C@H]2CCCC[C@H]2[NH2+]1)C1CC1)OCCOCCOCCOCCOC(=O)c1ccc(-c2c3nc(c(-c4c(F)cc(S(=O)(=O)[O-])cc4F)c4ccc([nH]4)c(-c4c(F)cc(S(=O)(=O)[O-])cc4F)c4nc(c(-c5c(F)cc(S(=O)(=O)[O-])cc5F)c5ccc2[nH]5)C=C4)C=C3)cc1
REMARK SMILES IDX 26 1 25 2 24 3 23 4 22 5 21 6 20 7 2 8 1 9 3 10 4 11 5 12
REMARK SMILES IDX 6 13 7 14 8 15 16 16 9 17 15 18 10 21 14 22 11 23 13 24
REMARK SMILES IDX 12 25 17 26 18 27 19 28 27 29 28 30 29 31 30 32 31 33 32 34
REMARK SMILES IDX 33 35 34 36 35 37 36 38 100 39 37 40 99 41 38 42 39 43 40 44
REMARK SMILES IDX 93 45 41 46 98 47 92 48 94 49 42 50 97 51 91 52 90 53 43 55
REMARK SMILES IDX 77 56 56 57 76 58 57 59 60 60 75 61 95 62 58 63 59 64 74 66
REMARK SMILES IDX 96 67 61 68 44 69 45 70 54 71 46 72 47 73 53 74 55 75 48 76
REMARK SMILES IDX 49 77 50 78 51 79 52 80 78 81 79 82 88 83 80 84 81 85 87 86
REMARK SMILES IDX 89 87 82 88 83 89 84 90 85 91 86 92 62 93 63 94 72 95 64 96
REMARK SMILES IDX 65 97 71 98 73 99 66 100 67 101 68 102 69 103 70 104
REMARK H PARENT 16 19 16 20 94 54 60 65
REMARK Flexibility Score: inf
ROOT
ATOM      1  O   UNL     1       9.258   4.103   0.130  1.00  0.00    -0.377 OA
ENDROOT
BRANCH   1   2
ATOM      2  C   UNL     1       8.578   4.843  -0.874  1.00  0.00     0.188 C 
BRANCH   2   3
ATOM      3  C   UNL     1       7.598   4.130  -1.809  1.00  0.00     0.188 C 
BRANCH   3   4
ATOM      4  O   UNL     1       7.788   2.725  -1.985  1.00  0.00    -0.376 OA
BRANCH   4   5
ATOM      5  C   UNL     1       8.987   2.373  -2.670  1.00  0.00     0.202 C 
BRANCH   5   6
ATOM      6  C   UNL     1       8.652   1.907  -4.077  1.00  0.00     0.261 C 
BRANCH   6   7
ATOM      7  O   UNL     1       7.896   2.894  -4.816  1.00  0.00    -0.462 OA
BRANCH   7   8
ATOM      8  C   UNL     1       6.611   3.254  -4.565  1.00  0.00     0.325 C 
ATOM      9  O   UNL     1       6.246   4.397  -4.857  1.00  0.00    -0.250 OA
BRANCH   8  10
ATOM     10  C   UNL     1       5.628   2.294  -3.868  1.00  0.00     0.242 C 
BRANCH  10  11
ATOM     11  N   UNL     1       5.711   0.908  -4.317  1.00  0.00    -0.323 N 
BRANCH  11  12
ATOM     12  C   UNL     1       5.941  -0.193  -3.485  1.00  0.00     0.281 C 
ATOM     13  O   UNL     1       6.435  -1.219  -3.970  1.00  0.00    -0.268 OA
BRANCH  12  14
ATOM     14  C   UNL     1       5.505  -0.162  -1.969  1.00  0.00     0.273 C 
ATOM     15  C   UNL     1       4.649  -1.431  -1.755  1.00  0.00     0.076 C 
ATOM     16  N   UNL     1       6.697  -0.140  -1.077  1.00  0.00    -0.333 N 
ATOM     17  C   UNL     1       4.398  -1.781  -0.293  1.00  0.00     0.016 C 
ATOM     18  C   UNL     1       6.396  -0.447   0.339  1.00  0.00     0.186 C 
ATOM     19  H   UNL     1       7.113   0.790  -1.121  1.00  0.00     0.347 HD
ATOM     20  H   UNL     1       7.327  -0.870  -1.409  1.00  0.00     0.347 HD
ATOM     21  C   UNL     1       5.697  -1.800   0.513  1.00  0.00     0.048 C 
ATOM     22  C   UNL     1       7.644  -0.480   1.239  1.00  0.00     0.065 C 
ATOM     23  C   UNL     1       6.614  -2.990   0.162  1.00  0.00     0.010 C 
ATOM     24  C   UNL     1       8.655  -1.518   0.788  1.00  0.00     0.006 C 
ATOM     25  C   UNL     1       8.052  -2.912   0.692  1.00  0.00     0.001 C 
ENDBRANCH  12  14
ENDBRANCH  11  12
BRANCH  11  26
ATOM     26  C   UNL     1       5.847   0.757  -5.761  1.00  0.00     0.086 C 
ATOM     27  C   UNL     1       4.794   0.150  -6.640  1.00  0.00     0.027 C 
ATOM     28  C   UNL     1       5.038   1.624  -6.708  1.00  0.00     0.027 C 
ENDBRANCH  11  26
ENDBRANCH  10  11
ENDBRANCH   8  10
ENDBRANCH   7   8
ENDBRANCH   6   7
ENDBRANCH   5   6
ENDBRANCH   4   5
ENDBRANCH   3   4
ENDBRANCH   2   3
ENDBRANCH   1   2
BRANCH   1  29
ATOM     29  C   UNL     1       8.646   2.936   0.650  1.00  0.00     0.188 C 
BRANCH  29  30
ATOM     30  C   UNL     1       7.265   3.063   1.307  1.00  0.00     0.188 C 
BRANCH  30  31
ATOM     31  O   UNL     1       6.546   4.188   0.845  1.00  0.00    -0.376 OA
BRANCH  31  32
ATOM     32  C   UNL     1       6.129   5.101   1.839  1.00  0.00     0.202 C 
BRANCH  32  33
ATOM     33  C   UNL     1       7.200   5.819   2.687  1.00  0.00     0.261 C 
BRANCH  33  34
ATOM     34  O   UNL     1       8.527   5.265   2.698  1.00  0.00    -0.460 OA
BRANCH  34  35
ATOM     35  C   UNL     1       8.847   4.453   3.734  1.00  0.00     0.338 C 
ATOM     36  O   UNL     1       8.090   4.102   4.630  1.00  0.00    -0.246 OA
BRANCH  35  37
ATOM     37  C   UNL     1      10.204   3.881   3.546  1.00  0.00     0.060 A 
ATOM     38  C   UNL     1      10.357   2.488   3.629  1.00  0.00     0.016 A 
ATOM     39  C   UNL     1      11.319   4.688   3.302  1.00  0.00     0.016 A 
ATOM     40  C   UNL     1      11.614   1.901   3.464  1.00  0.00     0.010 A 
ATOM     41  C   UNL     1      12.589   4.101   3.188  1.00  0.00     0.010 A 
ATOM     42  C   UNL     1      12.747   2.707   3.293  1.00  0.00    -0.014 A 
BRANCH  42  43
ATOM     43  C   UNL     1      14.095   2.107   3.482  1.00  0.00     0.031 A 
ATOM     44  C   UNL     1      14.692   2.154   4.866  1.00  0.00     0.074 A 
ATOM     45  C   UNL     1      14.760   1.491   2.486  1.00  0.00     0.049 A 
ATOM     46  N   UNL     1      15.847   1.714   5.293  1.00  0.00    -0.248 NA
ATOM     47  C   UNL     1      13.866   2.784   5.910  1.00  0.00     0.031 C 
ATOM     48  C   UNL     1      14.281   1.337   1.114  1.00  0.00     0.029 A 
ATOM     49  N   UNL     1      15.992   0.881   2.481  1.00  0.00    -0.354 N 
ATOM     50  C   UNL     1      15.880   2.002   6.653  1.00  0.00     0.074 A 
ATOM     51  C   UNL     1      14.652   2.695   6.971  1.00  0.00     0.031 C 
ATOM     52  C   UNL     1      15.219   0.693   0.395  1.00  0.00     0.029 A 
ATOM     53  C   UNL     1      16.374   0.408   1.247  1.00  0.00     0.049 A 
ATOM     54  H   UNL     1      16.551   0.791   3.287  1.00  0.00     0.167 HD
ATOM     55  C   UNL     1      16.838   1.702   7.562  1.00  0.00     0.037 A 
ATOM     56  C   UNL     1      17.529  -0.167   0.849  1.00  0.00     0.037 A 
ATOM     57  C   UNL     1      18.072   1.033   7.244  1.00  0.00     0.049 A 
ATOM     58  C   UNL     1      18.622  -0.415   1.865  1.00  0.00     0.074 A 
ATOM     59  C   UNL     1      19.115   0.703   8.091  1.00  0.00     0.029 A 
ATOM     60  N   UNL     1      18.432   0.596   5.978  1.00  0.00    -0.354 N 
ATOM     61  N   UNL     1      18.634  -0.150   3.151  1.00  0.00    -0.248 NA
ATOM     62  C   UNL     1      19.856  -1.049   1.376  1.00  0.00     0.031 C 
ATOM     63  C   UNL     1      20.127   0.110   7.329  1.00  0.00     0.029 A 
ATOM     64  C   UNL     1      19.688   0.014   6.018  1.00  0.00     0.049 A 
ATOM     65  H   UNL     1      17.877   0.686   5.170  1.00  0.00     0.167 HD
ATOM     66  C   UNL     1      19.859  -0.615   3.626  1.00  0.00     0.074 A 
ATOM     67  C   UNL     1      20.552  -1.192   2.495  1.00  0.00     0.031 C 
ATOM     68  C   UNL     1      20.365  -0.568   4.885  1.00  0.00     0.037 A 
BRANCH  55  69
ATOM     69  C   UNL     1      16.590   2.112   8.988  1.00  0.00     0.058 A 
ATOM     70  C   UNL     1      15.617   1.476   9.777  1.00  0.00     0.135 A 
ATOM     71  C   UNL     1      17.351   3.130   9.583  1.00  0.00     0.135 A 
ATOM     72  F   UNL     1      14.844   0.512   9.252  1.00  0.00    -0.206 F 
ATOM     73  C   UNL     1      15.393   1.851  11.097  1.00  0.00     0.059 A 
ATOM     74  C   UNL     1      17.165   3.501  10.912  1.00  0.00     0.059 A 
ATOM     75  F   UNL     1      18.290   3.776   8.873  1.00  0.00    -0.206 F 
ATOM     76  C   UNL     1      16.174   2.863  11.657  1.00  0.00     0.060 A 
BRANCH  76  77
ATOM     77  S   UNL     1      15.879   3.325  13.377  1.00  0.00     0.124 S 
ATOM     78  O   UNL     1      14.584   3.991  13.282  1.00  0.00    -0.237 OA
ATOM     79  O   UNL     1      15.878   2.030  14.050  1.00  0.00    -0.237 OA
ATOM     80  O   UNL     1      17.008   4.193  13.695  1.00  0.00    -0.744 OA
ENDBRANCH  76  77
ENDBRANCH  55  69
BRANCH  56  81
ATOM     81  C   UNL     1      17.739  -0.530  -0.582  1.00  0.00     0.058 A 
ATOM     82  C   UNL     1      17.878  -1.866  -0.990  1.00  0.00     0.135 A 
ATOM     83  C   UNL     1      17.853   0.463  -1.569  1.00  0.00     0.135 A 
ATOM     84  F   UNL     1      17.796  -2.855  -0.086  1.00  0.00    -0.206 F 
ATOM     85  C   UNL     1      18.149  -2.204  -2.314  1.00  0.00     0.059 A 
ATOM     86  C   UNL     1      18.091   0.149  -2.904  1.00  0.00     0.059 A 
ATOM     87  F   UNL     1      17.725   1.757  -1.238  1.00  0.00    -0.206 F 
ATOM     88  C   UNL     1      18.253  -1.187  -3.264  1.00  0.00     0.060 A 
BRANCH  88  89
ATOM     89  S   UNL     1      18.578  -1.635  -4.984  1.00  0.00     0.124 S 
ATOM     90  O   UNL     1      19.975  -2.048  -4.923  1.00  0.00    -0.237 OA
ATOM     91  O   UNL     1      17.606  -2.699  -5.212  1.00  0.00    -0.237 OA
ATOM     92  O   UNL     1      18.318  -0.394  -5.708  1.00  0.00    -0.744 OA
ENDBRANCH  88  89
ENDBRANCH  56  81
BRANCH  68  93
ATOM     93  C   UNL     1      21.714  -1.198   5.120  1.00  0.00     0.058 A 
ATOM     94  C   UNL     1      22.897  -0.637   4.615  1.00  0.00     0.135 A 
ATOM     95  C   UNL     1      21.826  -2.364   5.898  1.00  0.00     0.135 A 
ATOM     96  F   UNL     1      22.851   0.476   3.866  1.00  0.00    -0.206 F 
ATOM     97  C   UNL     1      24.137  -1.230   4.836  1.00  0.00     0.059 A 
ATOM     98  C   UNL     1      23.058  -2.955   6.160  1.00  0.00     0.059 A 
ATOM     99  F   UNL     1      20.730  -2.936   6.422  1.00  0.00    -0.206 F 
ATOM    100  C   UNL     1      24.207  -2.390   5.609  1.00  0.00     0.060 A 
BRANCH 100 101
ATOM    101  S   UNL     1      25.823  -3.144   5.896  1.00  0.00     0.124 S 
ATOM    102  O   UNL     1      26.115  -3.719   4.588  1.00  0.00    -0.237 OA
ATOM    103  O   UNL     1      26.639  -1.996   6.282  1.00  0.00    -0.237 OA
ATOM    104  O   UNL     1      25.565  -4.108   6.962  1.00  0.00    -0.744 OA
ENDBRANCH 100 101
ENDBRANCH  68  93
ENDBRANCH  42  43
ENDBRANCH  35  37
ENDBRANCH  34  35
ENDBRANCH  33  34
ENDBRANCH  32  33
ENDBRANCH  31  32
ENDBRANCH  30  31
ENDBRANCH  29  30
ENDBRANCH   1  29
TORSDOF 27
