REMARK SMILES Cc1noc(C)c1CCC(=O)N1CCC2(CC1)NC(=O)C[C@@H]2C(=O)OCCOCCOCCOCCOC(=O)c1ccc(-c2c3nc(c(-c4c(F)cc(S(=O)(=O)[O-])cc4F)c4ccc([nH]4)c(-c4c(F)cc(S(=O)(=O)[O-])cc4F)c4nc(c(-c5c(F)cc(S(=O)(=O)[O-])cc5F)c5ccc2[nH]5)C=C4)C=C3)cc1
REMARK SMILES IDX 31 1 30 2 29 3 28 4 27 5 26 6 25 7 23 8 24 9 22 10 10 11
REMARK SMILES IDX 11 12 12 13 13 14 17 15 14 16 16 17 15 18 18 19 19 20 21 22
REMARK SMILES IDX 20 23 9 24 8 25 7 26 1 27 2 28 3 29 4 30 5 31 6 32 32 33
REMARK SMILES IDX 33 34 34 35 35 36 36 37 37 38 38 39 39 40 40 41 41 42 105 43
REMARK SMILES IDX 42 44 104 45 43 46 44 47 45 48 98 49 46 50 103 51 97 52
REMARK SMILES IDX 99 53 47 54 102 55 96 56 95 57 48 59 82 60 61 61 81 62 62 63
REMARK SMILES IDX 65 64 80 65 100 66 63 67 64 68 79 70 101 71 66 72 49 73
REMARK SMILES IDX 50 74 59 75 51 76 52 77 58 78 60 79 53 80 54 81 55 82 56 83
REMARK SMILES IDX 57 84 83 85 84 86 93 87 85 88 86 89 92 90 94 91 87 92 88 93
REMARK SMILES IDX 89 94 90 95 91 96 67 97 68 98 77 99 69 100 70 101 76 102
REMARK SMILES IDX 78 103 71 104 72 105 73 106 74 107 75 108
REMARK H PARENT 18 21 99 58 65 69
REMARK Flexibility Score: inf
ROOT
ATOM      1  O   UNL     1      -6.078  -1.817  -2.603  1.00  0.00    -0.377 OA
ENDROOT
BRANCH   1   2
ATOM      2  C   UNL     1      -5.483  -2.949  -2.006  1.00  0.00     0.188 C 
BRANCH   2   3
ATOM      3  C   UNL     1      -6.053  -3.308  -0.625  1.00  0.00     0.188 C 
BRANCH   3   4
ATOM      4  O   UNL     1      -7.041  -2.475  -0.032  1.00  0.00    -0.376 OA
BRANCH   4   5
ATOM      5  C   UNL     1      -6.931  -1.061  -0.136  1.00  0.00     0.202 C 
BRANCH   5   6
ATOM      6  C   UNL     1      -5.594  -0.347   0.151  1.00  0.00     0.261 C 
BRANCH   6   7
ATOM      7  O   UNL     1      -4.423  -0.853  -0.530  1.00  0.00    -0.463 OA
BRANCH   7   8
ATOM      8  C   UNL     1      -3.495  -1.487   0.214  1.00  0.00     0.311 C 
ATOM      9  O   UNL     1      -3.623  -1.688   1.419  1.00  0.00    -0.252 OA
BRANCH   8  10
ATOM     10  C   UNL     1      -2.291  -2.049  -0.541  1.00  0.00     0.134 C 
ATOM     11  C   UNL     1      -1.661   2.495  -1.566  1.00  0.00     0.222 C 
ATOM     12  O   UNL     1      -2.724   3.114  -1.532  1.00  0.00    -0.275 OA
ATOM     13  N   UNL     1      -1.585   1.175  -2.034  1.00  0.00    -0.343 N 
ATOM     14  C   UNL     1      -2.805   0.600  -2.594  1.00  0.00     0.122 C 
ATOM     15  C   UNL     1      -0.573   0.297  -1.498  1.00  0.00     0.122 C 
ATOM     16  C   UNL     1      -2.708  -0.874  -2.979  1.00  0.00     0.051 C 
ATOM     17  C   UNL     1      -0.484  -1.097  -2.052  1.00  0.00     0.051 C 
ATOM     18  C   UNL     1      -1.875  -1.749  -2.027  1.00  0.00     0.057 C 
ATOM     19  N   UNL     1      -1.700  -3.074  -2.604  1.00  0.00    -0.350 N 
ATOM     20  C   UNL     1      -1.794  -4.109  -1.716  1.00  0.00     0.221 C 
ATOM     21  H   UNL     1      -1.526  -3.214  -3.563  1.00  0.00     0.164 HD
ATOM     22  C   UNL     1      -2.303  -3.589  -0.412  1.00  0.00     0.117 C 
ATOM     23  O   UNL     1      -1.529  -5.271  -1.972  1.00  0.00    -0.275 OA
BRANCH  11  24
ATOM     24  C   UNL     1      -0.365   3.165  -1.118  1.00  0.00     0.105 C 
BRANCH  24  25
ATOM     25  C   UNL     1      -0.066   3.171   0.384  1.00  0.00     0.051 C 
BRANCH  25  26
ATOM     26  C   UNL     1       0.161   1.855   1.064  1.00  0.00     0.018 A 
ATOM     27  C   UNL     1      -2.186   1.463   2.171  1.00  0.00     0.071 C 
ATOM     28  C   UNL     1      -0.773   1.130   1.870  1.00  0.00     0.084 A 
ATOM     29  N   UNL     1      -0.257  -0.027   2.299  1.00  0.00    -0.085 NA
ATOM     30  O   UNL     1       1.016  -0.090   1.781  1.00  0.00    -0.361 OA
ATOM     31  C   UNL     1       1.267   1.020   1.037  1.00  0.00     0.137 A 
ATOM     32  C   UNL     1       2.568   1.017   0.339  1.00  0.00     0.091 C 
ENDBRANCH  25  26
ENDBRANCH  24  25
ENDBRANCH  11  24
ENDBRANCH   8  10
ENDBRANCH   7   8
ENDBRANCH   6   7
ENDBRANCH   5   6
ENDBRANCH   4   5
ENDBRANCH   3   4
ENDBRANCH   2   3
ENDBRANCH   1   2
BRANCH   1  33
ATOM     33  C   UNL     1      -7.124  -2.056  -3.529  1.00  0.00     0.188 C 
BRANCH  33  34
ATOM     34  C   UNL     1      -8.056  -3.261  -3.301  1.00  0.00     0.188 C 
BRANCH  34  35
ATOM     35  O   UNL     1      -7.395  -4.466  -2.932  1.00  0.00    -0.376 OA
BRANCH  35  36
ATOM     36  C   UNL     1      -7.116  -5.452  -3.914  1.00  0.00     0.202 C 
BRANCH  36  37
ATOM     37  C   UNL     1      -6.059  -5.145  -4.991  1.00  0.00     0.261 C 
BRANCH  37  38
ATOM     38  O   UNL     1      -6.242  -3.941  -5.742  1.00  0.00    -0.460 OA
BRANCH  38  39
ATOM     39  C   UNL     1      -7.362  -3.855  -6.497  1.00  0.00     0.338 C 
ATOM     40  O   UNL     1      -8.229  -4.692  -6.617  1.00  0.00    -0.246 OA
BRANCH  39  41
ATOM     41  C   UNL     1      -7.440  -2.470  -7.007  1.00  0.00     0.060 A 
ATOM     42  C   UNL     1      -8.524  -1.671  -6.620  1.00  0.00     0.016 A 
ATOM     43  C   UNL     1      -6.436  -1.958  -7.833  1.00  0.00     0.016 A 
ATOM     44  C   UNL     1      -8.622  -0.361  -7.084  1.00  0.00     0.010 A 
ATOM     45  C   UNL     1      -6.554  -0.657  -8.326  1.00  0.00     0.010 A 
ATOM     46  C   UNL     1      -7.665   0.132  -7.980  1.00  0.00    -0.014 A 
BRANCH  46  47
ATOM     47  C   UNL     1      -7.957   1.368  -8.740  1.00  0.00     0.031 A 
ATOM     48  C   UNL     1      -8.606   1.219 -10.089  1.00  0.00     0.074 A 
ATOM     49  C   UNL     1      -7.681   2.585  -8.240  1.00  0.00     0.049 A 
ATOM     50  N   UNL     1      -8.921   2.135 -10.965  1.00  0.00    -0.248 NA
ATOM     51  C   UNL     1      -8.945  -0.154 -10.503  1.00  0.00     0.031 C 
ATOM     52  C   UNL     1      -7.101   2.849  -6.925  1.00  0.00     0.029 A 
ATOM     53  N   UNL     1      -7.848   3.830  -8.792  1.00  0.00    -0.354 N 
ATOM     54  C   UNL     1      -9.491   1.451 -12.033  1.00  0.00     0.074 A 
ATOM     55  C   UNL     1      -9.450   0.043 -11.710  1.00  0.00     0.031 C 
ATOM     56  C   UNL     1      -6.946   4.177  -6.777  1.00  0.00     0.029 A 
ATOM     57  C   UNL     1      -7.384   4.851  -7.999  1.00  0.00     0.049 A 
ATOM     58  H   UNL     1      -8.262   3.977  -9.673  1.00  0.00     0.167 HD
ATOM     59  C   UNL     1     -10.010   1.954 -13.177  1.00  0.00     0.037 A 
ATOM     60  C   UNL     1      -7.302   6.174  -8.247  1.00  0.00     0.037 A 
ATOM     61  C   UNL     1     -10.033   3.357 -13.493  1.00  0.00     0.049 A 
ATOM     62  C   UNL     1      -7.808   6.705  -9.566  1.00  0.00     0.074 A 
ATOM     63  C   UNL     1     -10.535   3.976 -14.623  1.00  0.00     0.029 A 
ATOM     64  N   UNL     1      -9.522   4.359 -12.680  1.00  0.00    -0.354 N 
ATOM     65  N   UNL     1      -8.359   6.053 -10.564  1.00  0.00    -0.248 NA
ATOM     66  C   UNL     1      -7.683   8.152  -9.794  1.00  0.00     0.031 C 
ATOM     67  C   UNL     1     -10.276   5.346 -14.520  1.00  0.00     0.029 A 
ATOM     68  C   UNL     1      -9.672   5.590 -13.296  1.00  0.00     0.049 A 
ATOM     69  H   UNL     1      -9.113   4.216 -11.796  1.00  0.00     0.167 HD
ATOM     70  C   UNL     1      -8.678   7.013 -11.520  1.00  0.00     0.074 A 
ATOM     71  C   UNL     1      -8.264   8.291 -10.979  1.00  0.00     0.031 C 
ATOM     72  C   UNL     1      -9.263   6.854 -12.735  1.00  0.00     0.037 A 
BRANCH  59  73
ATOM     73  C   UNL     1     -10.557   0.978 -14.180  1.00  0.00     0.058 A 
ATOM     74  C   UNL     1     -11.742   0.260 -13.947  1.00  0.00     0.135 A 
ATOM     75  C   UNL     1      -9.898   0.771 -15.402  1.00  0.00     0.135 A 
ATOM     76  F   UNL     1     -12.399   0.399 -12.784  1.00  0.00    -0.206 F 
ATOM     77  C   UNL     1     -12.239  -0.645 -14.879  1.00  0.00     0.059 A 
ATOM     78  C   UNL     1     -10.393  -0.106 -16.362  1.00  0.00     0.059 A 
ATOM     79  F   UNL     1      -8.757   1.424 -15.673  1.00  0.00    -0.206 F 
ATOM     80  C   UNL     1     -11.558  -0.820 -16.085  1.00  0.00     0.060 A 
BRANCH  80  81
ATOM     81  S   UNL     1     -12.222  -1.990 -17.287  1.00  0.00     0.124 S 
ATOM     82  O   UNL     1     -11.944  -3.267 -16.635  1.00  0.00    -0.237 OA
ATOM     83  O   UNL     1     -13.628  -1.605 -17.352  1.00  0.00    -0.237 OA
ATOM     84  O   UNL     1     -11.444  -1.720 -18.492  1.00  0.00    -0.744 OA
ENDBRANCH  80  81
ENDBRANCH  59  73
BRANCH  60  85
ATOM     85  C   UNL     1      -6.707   7.090  -7.235  1.00  0.00     0.058 A 
ATOM     86  C   UNL     1      -7.488   8.047  -6.571  1.00  0.00     0.135 A 
ATOM     87  C   UNL     1      -5.340   7.032  -6.919  1.00  0.00     0.135 A 
ATOM     88  F   UNL     1      -8.797   8.152  -6.846  1.00  0.00    -0.206 F 
ATOM     89  C   UNL     1      -6.934   8.925  -5.644  1.00  0.00     0.059 A 
ATOM     90  C   UNL     1      -4.769   7.880  -5.974  1.00  0.00     0.059 A 
ATOM     91  F   UNL     1      -4.547   6.132  -7.521  1.00  0.00    -0.206 F 
ATOM     92  C   UNL     1      -5.573   8.832  -5.350  1.00  0.00     0.060 A 
BRANCH  92  93
ATOM     93  S   UNL     1      -4.873   9.954  -4.119  1.00  0.00     0.124 S 
ATOM     94  O   UNL     1      -4.905  11.227  -4.830  1.00  0.00    -0.237 OA
ATOM     95  O   UNL     1      -5.814   9.818  -3.012  1.00  0.00    -0.237 OA
ATOM     96  O   UNL     1      -3.544   9.401  -3.876  1.00  0.00    -0.744 OA
ENDBRANCH  92  93
ENDBRANCH  60  85
BRANCH  72  97
ATOM     97  C   UNL     1      -9.536   8.092 -13.546  1.00  0.00     0.058 A 
ATOM     98  C   UNL     1      -8.506   8.821 -14.160  1.00  0.00     0.135 A 
ATOM     99  C   UNL     1     -10.858   8.516 -13.766  1.00  0.00     0.135 A 
ATOM    100  F   UNL     1      -7.224   8.463 -13.981  1.00  0.00    -0.206 F 
ATOM    101  C   UNL     1      -8.774   9.941 -14.942  1.00  0.00     0.059 A 
ATOM    102  C   UNL     1     -11.151   9.612 -14.570  1.00  0.00     0.059 A 
ATOM    103  F   UNL     1     -11.883   7.847 -13.214  1.00  0.00    -0.206 F 
ATOM    104  C   UNL     1     -10.101  10.326 -15.144  1.00  0.00     0.060 A 
BRANCH 104 105
ATOM    105  S   UNL     1     -10.435  11.758 -16.190  1.00  0.00     0.124 S 
ATOM    106  O   UNL     1      -9.996  12.856 -15.335  1.00  0.00    -0.237 OA
ATOM    107  O   UNL     1      -9.602  11.492 -17.359  1.00  0.00    -0.237 OA
ATOM    108  O   UNL     1     -11.875  11.682 -16.423  1.00  0.00    -0.744 OA
ENDBRANCH 104 105
ENDBRANCH  72  97
ENDBRANCH  46  47
ENDBRANCH  39  41
ENDBRANCH  38  39
ENDBRANCH  37  38
ENDBRANCH  36  37
ENDBRANCH  35  36
ENDBRANCH  34  35
ENDBRANCH  33  34
ENDBRANCH   1  33
TORSDOF 26
