REMARK SMILES C[C@@H]1CCC[C@H](C)[N@H+]1Cc1cc2c(cc1Cl)C=C(C(=O)OCCOCCOCCOCCOC(=O)c1ccc(-c3c4nc(c(-c5c(F)cc(S(=O)(=O)[O-])cc5F)c5ccc([nH]5)c(-c5c(F)cc(S(=O)(=O)[O-])cc5F)c5nc(c(-c6c(F)cc(S(=O)(=O)[O-])cc6F)c6ccc3[nH]6)C=C5)C=C4)cc1)[C@@H](C(F)(F)F)O2
REMARK SMILES IDX 28 1 27 2 26 3 25 4 24 5 23 6 22 7 21 8 19 9 20 10 18 11
REMARK SMILES IDX 10 12 11 13 15 14 12 15 14 16 16 17 13 18 107 19 17 20
REMARK SMILES IDX 102 21 9 22 8 23 7 24 6 25 5 26 4 27 2 28 3 30 1 31 103 32
REMARK SMILES IDX 104 33 105 34 106 35 29 36 30 37 31 38 32 39 33 40 34 41
REMARK SMILES IDX 35 42 36 43 37 44 101 45 38 46 100 47 39 48 40 49 41 50
REMARK SMILES IDX 94 51 42 52 99 53 93 54 95 55 43 56 98 57 92 58 91 59 44 61
REMARK SMILES IDX 78 62 57 63 77 64 58 65 61 66 76 67 96 68 59 69 60 70 75 72
REMARK SMILES IDX 97 73 62 74 45 75 46 76 55 77 47 78 48 79 54 80 56 81 49 82
REMARK SMILES IDX 50 83 51 84 52 85 53 86 79 87 80 88 89 89 81 90 82 91 88 92
REMARK SMILES IDX 90 93 83 94 84 95 85 96 86 97 87 98 63 99 64 100 73 101
REMARK SMILES IDX 65 102 66 103 72 104 74 105 67 106 68 107 69 108 70 109
REMARK SMILES IDX 71 110
REMARK H PARENT 8 29 95 60 61 71
REMARK Flexibility Score: inf
ROOT
ATOM      1  C   UNL     1      -7.841   3.341   4.914  1.00  0.00     0.188 C 
ENDROOT
BRANCH   1   2
ATOM      2  O   UNL     1      -7.048   2.154   4.923  1.00  0.00    -0.377 OA
BRANCH   2   3
ATOM      3  C   UNL     1      -6.832   1.477   3.697  1.00  0.00     0.188 C 
BRANCH   3   4
ATOM      4  C   UNL     1      -8.032   0.629   3.243  1.00  0.00     0.188 C 
BRANCH   4   5
ATOM      5  O   UNL     1      -9.235   0.936   3.940  1.00  0.00    -0.376 OA
BRANCH   5   6
ATOM      6  C   UNL     1      -9.645   0.054   4.978  1.00  0.00     0.202 C 
BRANCH   6   7
ATOM      7  C   UNL     1      -8.747  -0.068   6.223  1.00  0.00     0.261 C 
BRANCH   7   8
ATOM      8  O   UNL     1      -7.383  -0.436   5.965  1.00  0.00    -0.460 OA
BRANCH   8   9
ATOM      9  C   UNL     1      -7.168  -1.659   5.451  1.00  0.00     0.338 C 
ATOM     10  O   UNL     1      -8.011  -2.512   5.230  1.00  0.00    -0.246 OA
BRANCH   9  11
ATOM     11  C   UNL     1      -5.755  -1.758   5.025  1.00  0.00     0.087 C 
ATOM     12  C   UNL     1      -1.467  -2.915   2.636  1.00  0.00     0.029 A 
ATOM     13  C   UNL     1      -1.811  -2.010   3.665  1.00  0.00     0.058 A 
ATOM     14  C   UNL     1      -2.475  -3.773   2.162  1.00  0.00     0.050 A 
ATOM     15  C   UNL     1      -3.129  -1.899   4.124  1.00  0.00     0.128 A 
ATOM     16  C   UNL     1      -3.801  -3.608   2.567  1.00  0.00     0.033 A 
ATOM     17  Cl  UNL     1      -2.170  -5.099   1.095  1.00  0.00    -0.084 Cl
ATOM     18  C   UNL     1      -4.132  -2.663   3.534  1.00  0.00     0.019 A 
ATOM     19  O   UNL     1      -3.375  -0.996   5.121  1.00  0.00    -0.475 OA
ATOM     20  C   UNL     1      -5.515  -2.492   3.933  1.00  0.00     0.027 C 
ATOM     21  C   UNL     1      -4.667  -1.062   5.806  1.00  0.00     0.316 C 
BRANCH  12  22
ATOM     22  C   UNL     1      -0.053  -2.915   2.081  1.00  0.00     0.301 C 
BRANCH  22  23
ATOM     23  N   UNL     1       0.239  -2.022   0.934  1.00  0.00    -0.327 N 
ATOM     24  C   UNL     1       1.457   0.089   0.496  1.00  0.00     0.075 C 
ATOM     25  C   UNL     1       0.311  -0.590   1.263  1.00  0.00     0.181 C 
ATOM     26  C   UNL     1      -1.007   0.169   1.046  1.00  0.00     0.065 C 
ATOM     27  C   UNL     1      -1.646  -0.116  -0.306  1.00  0.00     0.012 C 
ATOM     28  C   UNL     1      -0.448  -2.373  -0.319  1.00  0.00     0.181 C 
ATOM     29  H   UNL     1       1.210  -2.232   0.703  1.00  0.00     0.348 HD
ATOM     30  C   UNL     1      -1.766  -1.615  -0.548  1.00  0.00     0.065 C 
ATOM     31  C   UNL     1       0.473  -2.246  -1.543  1.00  0.00     0.075 C 
ENDBRANCH  22  23
ENDBRANCH  12  22
BRANCH  21  32
ATOM     32  C   UNL     1      -4.504  -1.698   7.193  1.00  0.00     0.430 C 
ATOM     33  F   UNL     1      -3.496  -1.124   7.888  1.00  0.00    -0.167 F 
ATOM     34  F   UNL     1      -5.629  -1.565   7.932  1.00  0.00    -0.167 F 
ATOM     35  F   UNL     1      -4.234  -3.022   7.104  1.00  0.00    -0.167 F 
ENDBRANCH  21  32
ENDBRANCH   9  11
ENDBRANCH   8   9
ENDBRANCH   7   8
ENDBRANCH   6   7
ENDBRANCH   5   6
ENDBRANCH   4   5
ENDBRANCH   3   4
ENDBRANCH   2   3
ENDBRANCH   1   2
BRANCH   1  36
ATOM     36  C   UNL     1      -8.750   3.726   3.722  1.00  0.00     0.188 C 
BRANCH  36  37
ATOM     37  O   UNL     1      -8.161   3.511   2.442  1.00  0.00    -0.376 OA
BRANCH  37  38
ATOM     38  C   UNL     1      -7.785   4.670   1.712  1.00  0.00     0.202 C 
BRANCH  38  39
ATOM     39  C   UNL     1      -6.489   5.323   2.207  1.00  0.00     0.261 C 
BRANCH  39  40
ATOM     40  O   UNL     1      -6.535   5.831   3.548  1.00  0.00    -0.460 OA
BRANCH  40  41
ATOM     41  C   UNL     1      -7.457   6.779   3.833  1.00  0.00     0.338 C 
ATOM     42  O   UNL     1      -8.236   7.302   3.055  1.00  0.00    -0.246 OA
BRANCH  41  43
ATOM     43  C   UNL     1      -7.497   6.927   5.303  1.00  0.00     0.060 A 
ATOM     44  C   UNL     1      -6.315   7.120   6.023  1.00  0.00     0.016 A 
ATOM     45  C   UNL     1      -8.726   6.832   5.968  1.00  0.00     0.016 A 
ATOM     46  C   UNL     1      -6.369   7.252   7.411  1.00  0.00     0.010 A 
ATOM     47  C   UNL     1      -8.776   6.958   7.359  1.00  0.00     0.010 A 
ATOM     48  C   UNL     1      -7.601   7.196   8.086  1.00  0.00    -0.014 A 
BRANCH  48  49
ATOM     49  C   UNL     1      -7.664   7.584   9.517  1.00  0.00     0.031 A 
ATOM     50  C   UNL     1      -7.757   6.573  10.618  1.00  0.00     0.074 A 
ATOM     51  C   UNL     1      -7.622   8.900   9.803  1.00  0.00     0.049 A 
ATOM     52  N   UNL     1      -7.723   6.771  11.912  1.00  0.00    -0.248 NA
ATOM     53  C   UNL     1      -7.913   5.165  10.227  1.00  0.00     0.031 C 
ATOM     54  C   UNL     1      -7.560   9.971   8.804  1.00  0.00     0.029 A 
ATOM     55  N   UNL     1      -7.613   9.562  11.003  1.00  0.00    -0.354 N 
ATOM     56  C   UNL     1      -7.826   5.514  12.494  1.00  0.00     0.074 A 
ATOM     57  C   UNL     1      -7.972   4.563  11.410  1.00  0.00     0.031 C 
ATOM     58  C   UNL     1      -7.491  11.153   9.433  1.00  0.00     0.029 A 
ATOM     59  C   UNL     1      -7.526  10.928  10.875  1.00  0.00     0.049 A 
ATOM     60  H   UNL     1      -7.665   9.104  11.872  1.00  0.00     0.167 HD
ATOM     61  C   UNL     1      -7.781   5.191  13.810  1.00  0.00     0.037 A 
ATOM     62  C   UNL     1      -7.472  11.893  11.812  1.00  0.00     0.037 A 
ATOM     63  C   UNL     1      -7.650   6.151  14.880  1.00  0.00     0.049 A 
ATOM     64  C   UNL     1      -7.473  11.507  13.263  1.00  0.00     0.074 A 
ATOM     65  C   UNL     1      -7.556   5.913  16.241  1.00  0.00     0.029 A 
ATOM     66  N   UNL     1      -7.608   7.529  14.716  1.00  0.00    -0.354 N 
ATOM     67  N   UNL     1      -7.491  10.308  13.795  1.00  0.00    -0.248 NA
ATOM     68  C   UNL     1      -7.442  12.601  14.243  1.00  0.00     0.031 C 
ATOM     69  C   UNL     1      -7.508   7.144  16.902  1.00  0.00     0.029 A 
ATOM     70  C   UNL     1      -7.521   8.152  15.951  1.00  0.00     0.049 A 
ATOM     71  H   UNL     1      -7.637   7.995  13.849  1.00  0.00     0.167 HD
ATOM     72  C   UNL     1      -7.454  10.503  15.170  1.00  0.00     0.074 A 
ATOM     73  C   UNL     1      -7.396  11.934  15.389  1.00  0.00     0.031 C 
ATOM     74  C   UNL     1      -7.466   9.578  16.160  1.00  0.00     0.037 A 
BRANCH  61  75
ATOM     75  C   UNL     1      -7.852   3.736  14.187  1.00  0.00     0.058 A 
ATOM     76  C   UNL     1      -6.763   2.876  13.974  1.00  0.00     0.135 A 
ATOM     77  C   UNL     1      -8.971   3.220  14.862  1.00  0.00     0.135 A 
ATOM     78  F   UNL     1      -5.672   3.315  13.328  1.00  0.00    -0.206 F 
ATOM     79  C   UNL     1      -6.783   1.555  14.410  1.00  0.00     0.059 A 
ATOM     80  C   UNL     1      -9.003   1.908  15.328  1.00  0.00     0.059 A 
ATOM     81  F   UNL     1     -10.038   4.000  15.096  1.00  0.00    -0.206 F 
ATOM     82  C   UNL     1      -7.905   1.081  15.092  1.00  0.00     0.060 A 
BRANCH  82  83
ATOM     83  S   UNL     1      -7.896  -0.626  15.679  1.00  0.00     0.124 S 
ATOM     84  O   UNL     1      -7.970  -1.366  14.422  1.00  0.00    -0.237 OA
ATOM     85  O   UNL     1      -6.623  -0.705  16.387  1.00  0.00    -0.237 OA
ATOM     86  O   UNL     1      -9.086  -0.705  16.521  1.00  0.00    -0.744 OA
ENDBRANCH  82  83
ENDBRANCH  61  75
BRANCH  62  87
ATOM     87  C   UNL     1      -7.378  13.316  11.397  1.00  0.00     0.058 A 
ATOM     88  C   UNL     1      -6.195  14.044  11.588  1.00  0.00     0.135 A 
ATOM     89  C   UNL     1      -8.457  13.968  10.780  1.00  0.00     0.135 A 
ATOM     90  F   UNL     1      -5.138  13.463  12.175  1.00  0.00    -0.206 F 
ATOM     91  C   UNL     1      -6.088  15.373  11.196  1.00  0.00     0.059 A 
ATOM     92  C   UNL     1      -8.367  15.289  10.356  1.00  0.00     0.059 A 
ATOM     93  F   UNL     1      -9.605  13.307  10.557  1.00  0.00    -0.206 F 
ATOM     94  C   UNL     1      -7.180  15.987  10.578  1.00  0.00     0.060 A 
BRANCH  94  95
ATOM     95  S   UNL     1      -7.014  17.701  10.039  1.00  0.00     0.124 S 
ATOM     96  O   UNL     1      -7.000  18.409  11.313  1.00  0.00    -0.237 OA
ATOM     97  O   UNL     1      -5.749  17.670   9.311  1.00  0.00    -0.237 OA
ATOM     98  O   UNL     1      -8.200  17.910   9.213  1.00  0.00    -0.744 OA
ENDBRANCH  94  95
ENDBRANCH  62  87
BRANCH  74  99
ATOM     99  C   UNL     1      -7.411  10.076  17.579  1.00  0.00     0.058 A 
ATOM    100  C   UNL     1      -8.523  10.679  18.186  1.00  0.00     0.135 A 
ATOM    101  C   UNL     1      -6.262   9.880  18.362  1.00  0.00     0.135 A 
ATOM    102  F   UNL     1      -9.642  10.900  17.479  1.00  0.00    -0.206 F 
ATOM    103  C   UNL     1      -8.496  11.078  19.518  1.00  0.00     0.059 A 
ATOM    104  C   UNL     1      -6.221  10.247  19.704  1.00  0.00     0.059 A 
ATOM    105  F   UNL     1      -5.172   9.303  17.831  1.00  0.00    -0.206 F 
ATOM    106  C   UNL     1      -7.343  10.849  20.272  1.00  0.00     0.060 A 
BRANCH 106 107
ATOM    107  S   UNL     1      -7.347  11.317  22.016  1.00  0.00     0.124 S 
ATOM    108  O   UNL     1      -7.326  12.774  21.931  1.00  0.00    -0.237 OA
ATOM    109  O   UNL     1      -8.595  10.728  22.492  1.00  0.00    -0.237 OA
ATOM    110  O   UNL     1      -6.130  10.702  22.538  1.00  0.00    -0.744 OA
ENDBRANCH 106 107
ENDBRANCH  74  99
ENDBRANCH  48  49
ENDBRANCH  41  43
ENDBRANCH  40  41
ENDBRANCH  39  40
ENDBRANCH  38  39
ENDBRANCH  37  38
ENDBRANCH  36  37
ENDBRANCH   1  36
TORSDOF 26
