REMARK SMILES CC(C)c1cc(C(=O)N[C@@H](Cc2c[nH]c3ccccc23)C(=O)OCCOCCOCCOCCOC(=O)c2ccc(-c3c4nc(c(-c5c(F)cc(S(=O)(=O)[O-])cc5F)c5ccc([nH]5)c(-c5c(F)cc(S(=O)(=O)[O-])cc5F)c5nc(c(-c6c(F)cc(S(=O)(=O)[O-])cc6F)c6ccc3[nH]6)C=C5)C=C4)cc2)n(C)n1
REMARK SMILES IDX 29 1 28 2 27 3 26 4 25 5 24 6 23 7 21 8 22 9 10 10 9 11 7 12
REMARK SMILES IDX 8 13 6 15 4 16 5 17 106 18 104 19 105 20 2 21 1 22 3 23
REMARK SMILES IDX 11 24 12 25 13 26 20 27 14 28 15 29 19 30 16 32 18 33 17 34
REMARK SMILES IDX 30 35 31 36 32 37 33 38 34 39 35 40 36 41 37 42 38 43 39 44
REMARK SMILES IDX 103 45 40 46 102 47 41 48 42 49 43 50 96 51 44 52 101 53
REMARK SMILES IDX 95 54 97 55 45 56 100 57 94 58 93 59 46 61 80 62 59 63 79 64
REMARK SMILES IDX 60 65 63 66 78 67 98 68 61 69 62 70 77 72 99 73 64 74 47 75
REMARK SMILES IDX 48 76 57 77 49 78 50 79 56 80 58 81 51 82 52 83 53 84 54 85
REMARK SMILES IDX 55 86 81 87 82 88 91 89 83 90 84 91 90 92 92 93 85 94 86 95
REMARK SMILES IDX 87 96 88 97 89 98 65 99 66 100 75 101 67 102 68 103 74 104
REMARK SMILES IDX 76 105 69 106 70 107 71 108 72 109 73 110
REMARK H PARENT 9 14 14 31 97 60 63 71
REMARK Flexibility Score: inf
ROOT
ATOM      1  O   UNL     1      -7.018  -1.826   4.058  1.00  0.00    -0.377 OA
ENDROOT
BRANCH   1   2
ATOM      2  C   UNL     1      -5.710  -1.303   4.039  1.00  0.00     0.188 C 
BRANCH   2   3
ATOM      3  C   UNL     1      -5.581   0.179   4.418  1.00  0.00     0.188 C 
BRANCH   3   4
ATOM      4  O   UNL     1      -6.547   0.816   5.239  1.00  0.00    -0.376 OA
BRANCH   4   5
ATOM      5  C   UNL     1      -7.938   0.748   4.946  1.00  0.00     0.202 C 
BRANCH   5   6
ATOM      6  C   UNL     1      -8.496   0.831   3.516  1.00  0.00     0.261 C 
BRANCH   6   7
ATOM      7  O   UNL     1      -7.772   0.079   2.532  1.00  0.00    -0.462 OA
BRANCH   7   8
ATOM      8  C   UNL     1      -7.121   0.810   1.608  1.00  0.00     0.329 C 
ATOM      9  O   UNL     1      -7.166   2.037   1.525  1.00  0.00    -0.250 OA
BRANCH   8  10
ATOM     10  C   UNL     1      -6.290  -0.002   0.605  1.00  0.00     0.197 C 
BRANCH  10  11
ATOM     11  N   UNL     1      -5.755  -1.341   0.800  1.00  0.00    -0.337 N 
ATOM     12  C   UNL     1      -4.481  -1.856   0.706  1.00  0.00     0.270 C 
ATOM     13  O   UNL     1      -4.453  -3.091   0.645  1.00  0.00    -0.268 OA
ATOM     14  H   UNL     1      -6.436  -2.008   1.047  1.00  0.00     0.164 HD
BRANCH  12  15
ATOM     15  C   UNL     1      -3.218  -1.109   0.780  1.00  0.00     0.126 A 
ATOM     16  C   UNL     1      -0.992  -0.792   1.065  1.00  0.00     0.066 A 
ATOM     17  C   UNL     1      -1.991  -1.772   0.949  1.00  0.00     0.059 A 
ATOM     18  N   UNL     1      -1.536   0.418   1.040  1.00  0.00    -0.177 NA
ATOM     19  N   UNL     1      -2.824   0.216   0.711  1.00  0.00    -0.263 N 
ATOM     20  C   UNL     1      -3.459   1.416   0.225  1.00  0.00     0.174 C 
BRANCH  16  21
ATOM     21  C   UNL     1       0.498  -0.924   1.163  1.00  0.00     0.034 C 
ATOM     22  C   UNL     1       1.171  -0.262  -0.049  1.00  0.00     0.014 C 
ATOM     23  C   UNL     1       1.043  -0.314   2.458  1.00  0.00     0.014 C 
ENDBRANCH  16  21
ENDBRANCH  12  15
ENDBRANCH  10  11
BRANCH  10  24
ATOM     24  C   UNL     1      -6.953   0.080  -0.772  1.00  0.00     0.074 C 
BRANCH  24  25
ATOM     25  C   UNL     1      -8.325  -0.510  -0.736  1.00  0.00    -0.020 A 
ATOM     26  C   UNL     1      -8.665  -1.848  -0.767  1.00  0.00     0.087 A 
ATOM     27  C   UNL     1      -9.534   0.227  -0.537  1.00  0.00     0.003 A 
ATOM     28  N   UNL     1     -10.018  -1.947  -0.571  1.00  0.00    -0.361 N 
ATOM     29  C   UNL     1     -10.569  -0.696  -0.424  1.00  0.00     0.046 A 
ATOM     30  C   UNL     1      -9.828   1.599  -0.395  1.00  0.00     0.010 A 
ATOM     31  H   UNL     1     -10.522  -2.792  -0.540  1.00  0.00     0.166 HD
ATOM     32  C   UNL     1     -11.893  -0.314  -0.186  1.00  0.00     0.026 A 
ATOM     33  C   UNL     1     -11.144   1.998  -0.153  1.00  0.00     0.001 A 
ATOM     34  C   UNL     1     -12.160   1.052  -0.055  1.00  0.00     0.002 A 
ENDBRANCH  24  25
ENDBRANCH  10  24
ENDBRANCH   8  10
ENDBRANCH   7   8
ENDBRANCH   6   7
ENDBRANCH   5   6
ENDBRANCH   4   5
ENDBRANCH   3   4
ENDBRANCH   2   3
ENDBRANCH   1   2
BRANCH   1  35
ATOM     35  C   UNL     1      -7.439  -2.512   5.228  1.00  0.00     0.188 C 
BRANCH  35  36
ATOM     36  C   UNL     1      -6.769  -2.177   6.577  1.00  0.00     0.188 C 
BRANCH  36  37
ATOM     37  O   UNL     1      -5.353  -2.085   6.540  1.00  0.00    -0.376 OA
BRANCH  37  38
ATOM     38  C   UNL     1      -4.574  -3.236   6.833  1.00  0.00     0.202 C 
BRANCH  38  39
ATOM     39  C   UNL     1      -4.731  -4.490   5.955  1.00  0.00     0.261 C 
BRANCH  39  40
ATOM     40  O   UNL     1      -6.041  -5.071   5.874  1.00  0.00    -0.460 OA
BRANCH  40  41
ATOM     41  C   UNL     1      -6.666  -5.410   7.019  1.00  0.00     0.338 C 
ATOM     42  O   UNL     1      -6.209  -5.350   8.149  1.00  0.00    -0.246 OA
BRANCH  41  43
ATOM     43  C   UNL     1      -8.086  -5.666   6.696  1.00  0.00     0.060 A 
ATOM     44  C   UNL     1      -9.075  -4.896   7.323  1.00  0.00     0.016 A 
ATOM     45  C   UNL     1      -8.440  -6.649   5.769  1.00  0.00     0.016 A 
ATOM     46  C   UNL     1     -10.423  -5.136   7.058  1.00  0.00     0.010 A 
ATOM     47  C   UNL     1      -9.791  -6.907   5.523  1.00  0.00     0.010 A 
ATOM     48  C   UNL     1     -10.788  -6.177   6.197  1.00  0.00    -0.014 A 
BRANCH  48  49
ATOM     49  C   UNL     1     -12.193  -6.653   6.176  1.00  0.00     0.031 A 
ATOM     50  C   UNL     1     -12.549  -7.843   7.026  1.00  0.00     0.074 A 
ATOM     51  C   UNL     1     -13.137  -6.037   5.445  1.00  0.00     0.049 A 
ATOM     52  N   UNL     1     -13.691  -8.466   7.152  1.00  0.00    -0.248 NA
ATOM     53  C   UNL     1     -11.462  -8.406   7.843  1.00  0.00     0.031 C 
ATOM     54  C   UNL     1     -12.932  -4.842   4.630  1.00  0.00     0.029 A 
ATOM     55  N   UNL     1     -14.464  -6.341   5.272  1.00  0.00    -0.354 N 
ATOM     56  C   UNL     1     -13.458  -9.501   8.051  1.00  0.00     0.074 A 
ATOM     57  C   UNL     1     -12.057  -9.443   8.408  1.00  0.00     0.031 C 
ATOM     58  C   UNL     1     -14.096  -4.512   4.043  1.00  0.00     0.029 A 
ATOM     59  C   UNL     1     -15.117  -5.493   4.410  1.00  0.00     0.049 A 
ATOM     60  H   UNL     1     -14.907  -7.095   5.724  1.00  0.00     0.167 HD
ATOM     61  C   UNL     1     -14.332 -10.412   8.542  1.00  0.00     0.037 A 
ATOM     62  C   UNL     1     -16.388  -5.519   3.960  1.00  0.00     0.037 A 
ATOM     63  C   UNL     1     -15.721 -10.473   8.168  1.00  0.00     0.049 A 
ATOM     64  C   UNL     1     -17.321  -6.603   4.439  1.00  0.00     0.074 A 
ATOM     65  C   UNL     1     -16.695 -11.348   8.613  1.00  0.00     0.029 A 
ATOM     66  N   UNL     1     -16.329  -9.636   7.242  1.00  0.00    -0.354 N 
ATOM     67  N   UNL     1     -17.097  -7.564   5.303  1.00  0.00    -0.248 NA
ATOM     68  C   UNL     1     -18.679  -6.604   3.878  1.00  0.00     0.031 C 
ATOM     69  C   UNL     1     -17.875 -11.083   7.908  1.00  0.00     0.029 A 
ATOM     70  C   UNL     1     -17.657  -9.997   7.075  1.00  0.00     0.049 A 
ATOM     71  H   UNL     1     -15.883  -8.894   6.774  1.00  0.00     0.167 HD
ATOM     72  C   UNL     1     -18.297  -8.263   5.418  1.00  0.00     0.074 A 
ATOM     73  C   UNL     1     -19.242  -7.609   4.535  1.00  0.00     0.031 C 
ATOM     74  C   UNL     1     -18.590  -9.340   6.190  1.00  0.00     0.037 A 
BRANCH  61  75
ATOM     75  C   UNL     1     -13.784 -11.446   9.491  1.00  0.00     0.058 A 
ATOM     76  C   UNL     1     -13.316 -11.110  10.772  1.00  0.00     0.135 A 
ATOM     77  C   UNL     1     -13.697 -12.792   9.098  1.00  0.00     0.135 A 
ATOM     78  F   UNL     1     -13.360  -9.836  11.196  1.00  0.00    -0.206 F 
ATOM     79  C   UNL     1     -12.726 -12.057  11.604  1.00  0.00     0.059 A 
ATOM     80  C   UNL     1     -13.145 -13.763   9.928  1.00  0.00     0.059 A 
ATOM     81  F   UNL     1     -14.131 -13.173   7.887  1.00  0.00    -0.206 F 
ATOM     82  C   UNL     1     -12.637 -13.380  11.168  1.00  0.00     0.060 A 
BRANCH  82  83
ATOM     83  S   UNL     1     -11.821 -14.586  12.234  1.00  0.00     0.124 S 
ATOM     84  O   UNL     1     -10.423 -14.185  12.109  1.00  0.00    -0.237 OA
ATOM     85  O   UNL     1     -12.441 -14.328  13.530  1.00  0.00    -0.237 OA
ATOM     86  O   UNL     1     -12.163 -15.867  11.623  1.00  0.00    -0.744 OA
ENDBRANCH  82  83
ENDBRANCH  61  75
BRANCH  62  87
ATOM     87  C   UNL     1     -16.858  -4.469   3.018  1.00  0.00     0.058 A 
ATOM     88  C   UNL     1     -17.780  -3.495   3.431  1.00  0.00     0.135 A 
ATOM     89  C   UNL     1     -16.375  -4.395   1.702  1.00  0.00     0.135 A 
ATOM     90  F   UNL     1     -18.284  -3.534   4.674  1.00  0.00    -0.206 F 
ATOM     91  C   UNL     1     -18.201  -2.481   2.577  1.00  0.00     0.059 A 
ATOM     92  C   UNL     1     -16.763  -3.377   0.837  1.00  0.00     0.059 A 
ATOM     93  F   UNL     1     -15.488  -5.299   1.258  1.00  0.00    -0.206 F 
ATOM     94  C   UNL     1     -17.675  -2.423   1.285  1.00  0.00     0.060 A 
BRANCH  94  95
ATOM     95  S   UNL     1     -18.153  -1.044   0.221  1.00  0.00     0.124 S 
ATOM     96  O   UNL     1     -19.550  -1.355  -0.057  1.00  0.00    -0.237 OA
ATOM     97  O   UNL     1     -17.913   0.104   1.090  1.00  0.00    -0.237 OA
ATOM     98  O   UNL     1     -17.239  -1.164  -0.911  1.00  0.00    -0.744 OA
ENDBRANCH  94  95
ENDBRANCH  62  87
BRANCH  74  99
ATOM     99  C   UNL     1     -20.002  -9.865   6.150  1.00  0.00     0.058 A 
ATOM    100  C   UNL     1     -20.517 -10.535   5.029  1.00  0.00     0.135 A 
ATOM    101  C   UNL     1     -20.834  -9.745   7.277  1.00  0.00     0.135 A 
ATOM    102  F   UNL     1     -19.769 -10.674   3.923  1.00  0.00    -0.206 F 
ATOM    103  C   UNL     1     -21.812 -11.044   5.017  1.00  0.00     0.059 A 
ATOM    104  C   UNL     1     -22.120 -10.275   7.298  1.00  0.00     0.059 A 
ATOM    105  F   UNL     1     -20.391  -9.123   8.382  1.00  0.00    -0.206 F 
ATOM    106  C   UNL     1     -22.605 -10.913   6.159  1.00  0.00     0.060 A 
BRANCH 106 107
ATOM    107  S   UNL     1     -24.271 -11.609   6.140  1.00  0.00     0.124 S 
ATOM    108  O   UNL     1     -24.965 -10.689   5.244  1.00  0.00    -0.237 OA
ATOM    109  O   UNL     1     -24.041 -12.952   5.617  1.00  0.00    -0.237 OA
ATOM    110  O   UNL     1     -24.681 -11.550   7.540  1.00  0.00    -0.744 OA
ENDBRANCH 106 107
ENDBRANCH  74  99
ENDBRANCH  48  49
ENDBRANCH  41  43
ENDBRANCH  40  41
ENDBRANCH  39  40
ENDBRANCH  38  39
ENDBRANCH  37  38
ENDBRANCH  36  37
ENDBRANCH  35  36
ENDBRANCH   1  35
TORSDOF 28
