REMARK SMILES Cc1ccc(S(=O)(=O)N2c3ccc(C(=O)OCCOCCOCCOCCOC(=O)c4ccc(-c5c6nc(c(-c7c(F)cc(S(=O)(=O)[O-])cc7F)c7ccc([nH]7)c(-c7c(F)cc(S(=O)(=O)[O-])cc7F)c7nc(c(-c8c(F)cc(S(=O)(=O)[O-])cc8F)c8ccc5[nH]8)C=C7)C=C6)cc4)cc3C[C@H]2C)cc1
REMARK SMILES IDX 23 1 22 2 21 3 20 4 19 5 18 6 17 7 16 8 14 9 15 10 13 11
REMARK SMILES IDX 9 12 10 13 100 14 11 15 98 16 99 17 101 18 12 19 97 20 6 21
REMARK SMILES IDX 7 22 8 23 5 24 1 25 2 26 3 27 103 28 4 29 102 30 24 31 25 32
REMARK SMILES IDX 26 33 27 34 28 35 29 36 30 37 31 38 32 39 96 40 33 41 95 42
REMARK SMILES IDX 34 43 35 44 36 45 89 46 37 47 94 48 88 49 90 50 38 51 93 52
REMARK SMILES IDX 87 53 86 54 39 56 73 57 52 58 72 59 53 60 56 61 71 62 91 63
REMARK SMILES IDX 54 64 55 65 70 67 92 68 57 69 40 70 41 71 50 72 42 73 43 74
REMARK SMILES IDX 49 75 51 76 44 77 45 78 46 79 47 80 48 81 74 82 75 83 84 84
REMARK SMILES IDX 76 85 77 86 83 87 85 88 78 89 79 90 80 91 81 92 82 93 58 94
REMARK SMILES IDX 59 95 68 96 60 97 61 98 67 99 69 100 62 101 63 102 64 103
REMARK SMILES IDX 65 104 66 105
REMARK H PARENT 90 55 56 66
REMARK Flexibility Score: inf
ROOT
ATOM      1  C   UNL     1     -10.489   5.719   1.703  1.00  0.00     0.188 C 
ENDROOT
BRANCH   1   2
ATOM      2  O   UNL     1      -9.220   5.120   1.859  1.00  0.00    -0.377 OA
BRANCH   2   3
ATOM      3  C   UNL     1      -8.262   5.034   0.826  1.00  0.00     0.188 C 
BRANCH   3   4
ATOM      4  C   UNL     1      -8.432   5.670  -0.563  1.00  0.00     0.188 C 
BRANCH   4   5
ATOM      5  O   UNL     1      -9.682   5.609  -1.230  1.00  0.00    -0.376 OA
BRANCH   5   6
ATOM      6  C   UNL     1     -10.391   4.392  -1.127  1.00  0.00     0.202 C 
BRANCH   6   7
ATOM      7  C   UNL     1     -10.244   3.493  -2.319  1.00  0.00     0.261 C 
BRANCH   7   8
ATOM      8  O   UNL     1      -9.315   2.483  -1.964  1.00  0.00    -0.460 OA
BRANCH   8   9
ATOM      9  C   UNL     1      -8.214   2.490  -2.716  1.00  0.00     0.338 C 
ATOM     10  O   UNL     1      -8.061   2.924  -3.833  1.00  0.00    -0.246 OA
BRANCH   9  11
ATOM     11  C   UNL     1      -7.136   2.252  -1.753  1.00  0.00     0.060 A 
ATOM     12  N   UNL     1      -3.677   1.855   0.487  1.00  0.00    -0.263 N 
ATOM     13  C   UNL     1      -5.014   2.027  -0.045  1.00  0.00     0.055 A 
ATOM     14  C   UNL     1      -2.942   3.076  -0.050  1.00  0.00     0.101 C 
ATOM     15  C   UNL     1      -6.144   1.286   0.249  1.00  0.00     0.028 A 
ATOM     16  C   UNL     1      -4.988   2.929  -1.107  1.00  0.00    -0.021 A 
ATOM     17  C   UNL     1      -3.678   3.582  -1.286  1.00  0.00     0.063 C 
ATOM     18  C   UNL     1      -2.956   4.125   1.070  1.00  0.00     0.032 C 
ATOM     19  C   UNL     1      -7.224   1.404  -0.627  1.00  0.00     0.018 A 
ATOM     20  C   UNL     1      -6.031   3.051  -1.978  1.00  0.00     0.021 A 
BRANCH  12  21
ATOM     21  S   UNL     1      -3.130   0.282  -0.007  1.00  0.00     0.264 S 
ATOM     22  O   UNL     1      -3.232   0.210  -1.453  1.00  0.00    -0.201 OA
ATOM     23  O   UNL     1      -3.789  -0.700   0.834  1.00  0.00    -0.201 OA
BRANCH  21  24
ATOM     24  C   UNL     1      -1.397   0.094   0.322  1.00  0.00     0.088 A 
ATOM     25  C   UNL     1       2.857  -0.311  -0.009  1.00  0.00     0.044 C 
ATOM     26  C   UNL     1       1.374  -0.191   0.155  1.00  0.00    -0.051 A 
ATOM     27  C   UNL     1       0.543  -1.283  -0.116  1.00  0.00     0.005 A 
ATOM     28  C   UNL     1       0.808   1.003   0.614  1.00  0.00     0.005 A 
ATOM     29  C   UNL     1      -0.840  -1.134  -0.059  1.00  0.00     0.022 A 
ATOM     30  C   UNL     1      -0.573   1.125   0.753  1.00  0.00     0.022 A 
ENDBRANCH  21  24
ENDBRANCH  12  21
ENDBRANCH   9  11
ENDBRANCH   8   9
ENDBRANCH   7   8
ENDBRANCH   6   7
ENDBRANCH   5   6
ENDBRANCH   4   5
ENDBRANCH   3   4
ENDBRANCH   2   3
ENDBRANCH   1   2
BRANCH   1  31
ATOM     31  C   UNL     1     -10.493   7.209   1.349  1.00  0.00     0.188 C 
BRANCH  31  32
ATOM     32  O   UNL     1      -9.702   8.073   2.169  1.00  0.00    -0.376 OA
BRANCH  32  33
ATOM     33  C   UNL     1      -9.610   7.706   3.550  1.00  0.00     0.202 C 
BRANCH  33  34
ATOM     34  C   UNL     1     -10.874   7.926   4.412  1.00  0.00     0.261 C 
BRANCH  34  35
ATOM     35  O   UNL     1     -12.049   7.465   3.740  1.00  0.00    -0.460 OA
BRANCH  35  36
ATOM     36  C   UNL     1     -13.164   7.106   4.435  1.00  0.00     0.338 C 
ATOM     37  O   UNL     1     -13.438   7.353   5.592  1.00  0.00    -0.246 OA
BRANCH  36  38
ATOM     38  C   UNL     1     -13.961   6.296   3.463  1.00  0.00     0.060 A 
ATOM     39  C   UNL     1     -14.389   5.005   3.784  1.00  0.00     0.016 A 
ATOM     40  C   UNL     1     -13.892   6.685   2.133  1.00  0.00     0.016 A 
ATOM     41  C   UNL     1     -14.471   4.032   2.769  1.00  0.00     0.010 A 
ATOM     42  C   UNL     1     -13.818   5.697   1.171  1.00  0.00     0.010 A 
ATOM     43  C   UNL     1     -14.048   4.346   1.470  1.00  0.00    -0.014 A 
BRANCH  43  44
ATOM     44  C   UNL     1     -13.554   3.353   0.473  1.00  0.00     0.031 A 
ATOM     45  C   UNL     1     -13.845   3.514  -1.012  1.00  0.00     0.074 A 
ATOM     46  C   UNL     1     -12.542   2.540   0.882  1.00  0.00     0.049 A 
ATOM     47  N   UNL     1     -13.486   2.722  -1.974  1.00  0.00    -0.248 NA
ATOM     48  C   UNL     1     -14.528   4.686  -1.548  1.00  0.00     0.031 C 
ATOM     49  C   UNL     1     -11.601   1.810   0.045  1.00  0.00     0.029 A 
ATOM     50  N   UNL     1     -12.120   2.196   2.174  1.00  0.00    -0.354 N 
ATOM     51  C   UNL     1     -13.557   3.403  -3.197  1.00  0.00     0.074 A 
ATOM     52  C   UNL     1     -14.236   4.624  -2.849  1.00  0.00     0.031 C 
ATOM     53  C   UNL     1     -10.750   1.088   0.787  1.00  0.00     0.029 A 
ATOM     54  C   UNL     1     -11.335   1.025   2.101  1.00  0.00     0.049 A 
ATOM     55  H   UNL     1     -12.335   2.691   2.997  1.00  0.00     0.167 HD
ATOM     56  C   UNL     1     -12.915   2.911  -4.320  1.00  0.00     0.037 A 
ATOM     57  C   UNL     1     -11.863  -0.169   2.524  1.00  0.00     0.037 A 
ATOM     58  C   UNL     1     -12.337   1.560  -4.039  1.00  0.00     0.049 A 
ATOM     59  C   UNL     1     -12.278  -1.094   1.373  1.00  0.00     0.074 A 
ATOM     60  C   UNL     1     -11.069   0.999  -4.129  1.00  0.00     0.029 A 
ATOM     61  N   UNL     1     -13.087   0.613  -3.323  1.00  0.00    -0.354 N 
ATOM     62  N   UNL     1     -12.537  -0.648   0.160  1.00  0.00    -0.248 NA
ATOM     63  C   UNL     1     -12.325  -2.554   1.408  1.00  0.00     0.031 C 
ATOM     64  C   UNL     1     -11.017  -0.147  -3.282  1.00  0.00     0.029 A 
ATOM     65  C   UNL     1     -12.283  -0.367  -2.762  1.00  0.00     0.049 A 
ATOM     66  H   UNL     1     -14.067   0.642  -3.230  1.00  0.00     0.167 HD
ATOM     67  C   UNL     1     -12.688  -1.673  -0.725  1.00  0.00     0.074 A 
ATOM     68  C   UNL     1     -12.591  -2.855   0.119  1.00  0.00     0.031 C 
ATOM     69  C   UNL     1     -12.860  -1.520  -2.077  1.00  0.00     0.037 A 
BRANCH  56  70
ATOM     70  C   UNL     1     -12.574   3.732  -5.622  1.00  0.00     0.058 A 
ATOM     71  C   UNL     1     -11.638   3.267  -6.589  1.00  0.00     0.135 A 
ATOM     72  C   UNL     1     -13.113   4.991  -5.987  1.00  0.00     0.135 A 
ATOM     73  F   UNL     1     -11.088   2.052  -6.506  1.00  0.00    -0.206 F 
ATOM     74  C   UNL     1     -11.241   3.990  -7.736  1.00  0.00     0.059 A 
ATOM     75  C   UNL     1     -12.732   5.737  -7.122  1.00  0.00     0.059 A 
ATOM     76  F   UNL     1     -14.111   5.558  -5.311  1.00  0.00    -0.206 F 
ATOM     77  C   UNL     1     -11.794   5.230  -8.001  1.00  0.00     0.060 A 
BRANCH  77  78
ATOM     78  S   UNL     1     -11.382   6.093  -9.536  1.00  0.00     0.124 S 
ATOM     79  O   UNL     1      -9.956   6.357  -9.378  1.00  0.00    -0.237 OA
ATOM     80  O   UNL     1     -11.735   5.105 -10.551  1.00  0.00    -0.237 OA
ATOM     81  O   UNL     1     -12.238   7.277  -9.505  1.00  0.00    -0.744 OA
ENDBRANCH  77  78
ENDBRANCH  56  70
BRANCH  57  82
ATOM     82  C   UNL     1     -12.126  -0.155   4.011  1.00  0.00     0.058 A 
ATOM     83  C   UNL     1     -10.926  -0.122   4.759  1.00  0.00     0.135 A 
ATOM     84  C   UNL     1     -13.146   0.704   4.462  1.00  0.00     0.135 A 
ATOM     85  F   UNL     1      -9.957  -1.012   4.492  1.00  0.00    -0.206 F 
ATOM     86  C   UNL     1     -10.596   0.975   5.559  1.00  0.00     0.059 A 
ATOM     87  C   UNL     1     -12.845   1.808   5.272  1.00  0.00     0.059 A 
ATOM     88  F   UNL     1     -14.363   0.649   3.899  1.00  0.00    -0.206 F 
ATOM     89  C   UNL     1     -11.529   1.995   5.702  1.00  0.00     0.060 A 
BRANCH  89  90
ATOM     90  S   UNL     1     -10.952   3.687   6.053  1.00  0.00     0.124 S 
ATOM     91  O   UNL     1     -11.436   3.902   7.409  1.00  0.00    -0.237 OA
ATOM     92  O   UNL     1      -9.503   3.592   5.904  1.00  0.00    -0.237 OA
ATOM     93  O   UNL     1     -11.618   4.448   5.001  1.00  0.00    -0.744 OA
ENDBRANCH  89  90
ENDBRANCH  57  82
BRANCH  69  94
ATOM     94  C   UNL     1     -13.562  -2.534  -2.945  1.00  0.00     0.058 A 
ATOM     95  C   UNL     1     -14.574  -3.362  -2.438  1.00  0.00     0.135 A 
ATOM     96  C   UNL     1     -13.408  -2.537  -4.355  1.00  0.00     0.135 A 
ATOM     97  F   UNL     1     -14.902  -3.350  -1.138  1.00  0.00    -0.206 F 
ATOM     98  C   UNL     1     -15.325  -4.196  -3.257  1.00  0.00     0.059 A 
ATOM     99  C   UNL     1     -14.191  -3.316  -5.197  1.00  0.00     0.059 A 
ATOM    100  F   UNL     1     -12.510  -1.760  -4.977  1.00  0.00    -0.206 F 
ATOM    101  C   UNL     1     -15.124  -4.170  -4.633  1.00  0.00     0.060 A 
BRANCH 101 102
ATOM    102  S   UNL     1     -16.112  -5.243  -5.679  1.00  0.00     0.124 S 
ATOM    103  O   UNL     1     -15.391  -6.506  -5.551  1.00  0.00    -0.237 OA
ATOM    104  O   UNL     1     -17.422  -5.195  -5.036  1.00  0.00    -0.237 OA
ATOM    105  O   UNL     1     -16.040  -4.604  -6.989  1.00  0.00    -0.744 OA
ENDBRANCH 101 102
ENDBRANCH  69  94
ENDBRANCH  43  44
ENDBRANCH  36  38
ENDBRANCH  35  36
ENDBRANCH  34  35
ENDBRANCH  33  34
ENDBRANCH  32  33
ENDBRANCH  31  32
ENDBRANCH   1  31
TORSDOF 25
