REMARK SMILES C[C@H](NC(=O)c1ccc(C(C)(C)C)cc1)C(=O)N[C@@H](C(=O)OCCOCCOCCOCCOC(=O)c1ccc(-c2c3nc(c(-c4c(F)cc(S(=O)(=O)[O-])cc4F)c4ccc([nH]4)c(-c4c(F)cc(S(=O)(=O)[O-])cc4F)c4nc(c(-c5c(F)cc(S(=O)(=O)[O-])cc5F)c5ccc2[nH]5)C=C4)C=C3)cc1)[C@H](C)O
REMARK SMILES IDX 27 1 26 2 25 3 24 4 23 5 22 6 20 7 21 8 19 9 18 10 16 11
REMARK SMILES IDX 17 12 2 14 1 15 3 16 4 17 5 19 6 20 7 21 15 22 8 23 14 24
REMARK SMILES IDX 9 25 10 26 11 27 12 28 13 29 103 30 104 31 105 32 28 34
REMARK SMILES IDX 29 35 30 36 31 37 32 38 33 39 34 40 35 41 36 42 37 43 38 44
REMARK SMILES IDX 102 45 39 46 101 47 40 48 41 49 42 50 95 51 43 52 100 53
REMARK SMILES IDX 94 54 96 55 44 56 99 57 93 58 92 59 45 61 79 62 58 63 78 64
REMARK SMILES IDX 59 65 62 66 77 67 97 68 60 69 61 70 76 72 98 73 63 74 46 75
REMARK SMILES IDX 47 76 56 77 48 78 49 79 55 80 57 81 50 82 51 83 52 84 53 85
REMARK SMILES IDX 54 86 80 87 81 88 90 89 82 90 83 91 89 92 91 93 84 94 85 95
REMARK SMILES IDX 86 96 87 97 88 98 64 99 65 100 74 101 66 102 67 103 73 104
REMARK SMILES IDX 75 105 68 106 69 107 70 108 71 109 72 110
REMARK H PARENT 18 13 3 18 105 33 96 60 62 71
REMARK Flexibility Score: inf
ROOT
ATOM      1  C   UNL     1       2.054  -3.630   1.209  1.00  0.00     0.188 C 
ENDROOT
BRANCH   1   2
ATOM      2  C   UNL     1       2.150  -4.055   2.677  1.00  0.00     0.188 C 
BRANCH   2   3
ATOM      3  O   UNL     1       2.784  -5.260   3.050  1.00  0.00    -0.376 OA
BRANCH   3   4
ATOM      4  C   UNL     1       2.402  -6.512   2.494  1.00  0.00     0.202 C 
BRANCH   4   5
ATOM      5  C   UNL     1       0.966  -6.876   2.069  1.00  0.00     0.261 C 
BRANCH   5   6
ATOM      6  O   UNL     1       0.215  -5.851   1.404  1.00  0.00    -0.462 OA
BRANCH   6   7
ATOM      7  C   UNL     1      -0.794  -5.294   2.118  1.00  0.00     0.331 C 
ATOM      8  O   UNL     1      -1.083  -5.623   3.264  1.00  0.00    -0.250 OA
BRANCH   7   9
ATOM      9  C   UNL     1      -1.526  -4.172   1.347  1.00  0.00     0.221 C 
BRANCH   9  10
ATOM     10  N   UNL     1      -1.095  -3.891  -0.050  1.00  0.00    -0.339 N 
ATOM     11  C   UNL     1      -1.769  -4.024  -1.230  1.00  0.00     0.243 C 
ATOM     12  O   UNL     1      -1.346  -3.439  -2.226  1.00  0.00    -0.273 OA
ATOM     13  H   UNL     1      -0.174  -3.554  -0.137  1.00  0.00     0.164 HD
BRANCH  11  14
ATOM     14  C   UNL     1      -3.050  -4.855  -1.254  1.00  0.00     0.168 C 
ATOM     15  C   UNL     1      -4.149  -4.063  -0.541  1.00  0.00     0.041 C 
BRANCH  14  16
ATOM     16  N   UNL     1      -2.590  -6.151  -0.718  1.00  0.00    -0.341 N 
ATOM     17  C   UNL     1      -3.179  -7.168  -0.033  1.00  0.00     0.251 C 
ATOM     18  H   UNL     1      -1.637  -6.317  -0.896  1.00  0.00     0.164 HD
ATOM     19  O   UNL     1      -2.490  -8.069   0.433  1.00  0.00    -0.269 OA
BRANCH  17  20
ATOM     20  C   UNL     1      -4.615  -7.116   0.239  1.00  0.00     0.039 A 
ATOM     21  C   UNL     1      -5.040  -7.269   1.556  1.00  0.00     0.014 A 
ATOM     22  C   UNL     1      -5.522  -6.843  -0.779  1.00  0.00     0.014 A 
ATOM     23  C   UNL     1      -6.380  -7.054   1.865  1.00  0.00     0.005 A 
ATOM     24  C   UNL     1      -6.856  -6.603  -0.459  1.00  0.00     0.005 A 
ATOM     25  C   UNL     1      -7.307  -6.674   0.872  1.00  0.00    -0.043 A 
BRANCH  25  26
ATOM     26  C   UNL     1      -8.766  -6.390   1.252  1.00  0.00    -0.013 C 
ATOM     27  C   UNL     1      -9.428  -7.721   1.651  1.00  0.00     0.016 C 
ATOM     28  C   UNL     1      -8.832  -5.399   2.437  1.00  0.00     0.016 C 
ATOM     29  C   UNL     1      -9.591  -5.766   0.104  1.00  0.00     0.016 C 
ENDBRANCH  25  26
ENDBRANCH  17  20
ENDBRANCH  14  16
ENDBRANCH  11  14
ENDBRANCH   9  10
BRANCH   9  30
ATOM     30  C   UNL     1      -1.746  -2.852   2.175  1.00  0.00     0.145 C 
ATOM     31  C   UNL     1      -1.103  -1.559   1.661  1.00  0.00     0.041 C 
BRANCH  30  32
ATOM     32  O   UNL     1      -1.467  -2.938   3.572  1.00  0.00    -0.391 OA
ATOM     33  H   UNL     1      -0.509  -3.008   3.706  1.00  0.00     0.211 HD
ENDBRANCH  30  32
ENDBRANCH   9  30
ENDBRANCH   7   9
ENDBRANCH   6   7
ENDBRANCH   5   6
ENDBRANCH   4   5
ENDBRANCH   3   4
ENDBRANCH   2   3
ENDBRANCH   1   2
BRANCH   1  34
ATOM     34  O   UNL     1       2.205  -4.656   0.256  1.00  0.00    -0.377 OA
BRANCH  34  35
ATOM     35  C   UNL     1       3.522  -4.929  -0.212  1.00  0.00     0.188 C 
BRANCH  35  36
ATOM     36  C   UNL     1       4.731  -4.494   0.645  1.00  0.00     0.188 C 
BRANCH  36  37
ATOM     37  O   UNL     1       4.636  -3.184   1.188  1.00  0.00    -0.376 OA
BRANCH  37  38
ATOM     38  C   UNL     1       5.202  -2.089   0.483  1.00  0.00     0.202 C 
BRANCH  38  39
ATOM     39  C   UNL     1       4.694  -1.772  -0.933  1.00  0.00     0.261 C 
BRANCH  39  40
ATOM     40  O   UNL     1       4.813  -2.810  -1.913  1.00  0.00    -0.460 OA
BRANCH  40  41
ATOM     41  C   UNL     1       6.024  -3.369  -2.113  1.00  0.00     0.338 C 
ATOM     42  O   UNL     1       7.078  -3.052  -1.588  1.00  0.00    -0.246 OA
BRANCH  41  43
ATOM     43  C   UNL     1       5.816  -4.581  -2.931  1.00  0.00     0.060 A 
ATOM     44  C   UNL     1       6.212  -5.829  -2.427  1.00  0.00     0.016 A 
ATOM     45  C   UNL     1       5.220  -4.479  -4.189  1.00  0.00     0.016 A 
ATOM     46  C   UNL     1       6.054  -6.977  -3.204  1.00  0.00     0.010 A 
ATOM     47  C   UNL     1       5.088  -5.622  -4.975  1.00  0.00     0.010 A 
ATOM     48  C   UNL     1       5.544  -6.867  -4.502  1.00  0.00    -0.014 A 
BRANCH  48  49
ATOM     49  C   UNL     1       5.721  -7.969  -5.475  1.00  0.00     0.031 A 
ATOM     50  C   UNL     1       6.896  -7.880  -6.411  1.00  0.00     0.074 A 
ATOM     51  C   UNL     1       4.852  -8.990  -5.560  1.00  0.00     0.049 A 
ATOM     52  N   UNL     1       7.174  -8.593  -7.468  1.00  0.00    -0.248 NA
ATOM     53  C   UNL     1       7.883  -6.825  -6.117  1.00  0.00     0.031 C 
ATOM     54  C   UNL     1       3.716  -9.214  -4.669  1.00  0.00     0.029 A 
ATOM     55  N   UNL     1       4.780 -10.018  -6.467  1.00  0.00    -0.354 N 
ATOM     56  C   UNL     1       8.351  -8.059  -7.980  1.00  0.00     0.074 A 
ATOM     57  C   UNL     1       8.725  -6.951  -7.131  1.00  0.00     0.031 C 
ATOM     58  C   UNL     1       3.039 -10.296  -5.094  1.00  0.00     0.029 A 
ATOM     59  C   UNL     1       3.665 -10.808  -6.313  1.00  0.00     0.049 A 
ATOM     60  H   UNL     1       5.460 -10.174  -7.162  1.00  0.00     0.167 HD
ATOM     61  C   UNL     1       9.054  -8.459  -9.064  1.00  0.00     0.037 A 
ATOM     62  C   UNL     1       3.188 -11.799  -7.094  1.00  0.00     0.037 A 
ATOM     63  C   UNL     1       8.666  -9.562  -9.901  1.00  0.00     0.049 A 
ATOM     64  C   UNL     1       3.943 -12.178  -8.346  1.00  0.00     0.074 A 
ATOM     65  C   UNL     1       9.308 -10.057 -11.021  1.00  0.00     0.029 A 
ATOM     66  N   UNL     1       7.530 -10.335  -9.713  1.00  0.00    -0.354 N 
ATOM     67  N   UNL     1       5.054 -11.670  -8.826  1.00  0.00    -0.248 NA
ATOM     68  C   UNL     1       3.381 -13.263  -9.165  1.00  0.00     0.031 C 
ATOM     69  C   UNL     1       8.530 -11.092 -11.545  1.00  0.00     0.029 A 
ATOM     70  C   UNL     1       7.441 -11.291 -10.709  1.00  0.00     0.049 A 
ATOM     71  H   UNL     1       6.883 -10.220  -8.980  1.00  0.00     0.167 HD
ATOM     72  C   UNL     1       5.347 -12.403  -9.973  1.00  0.00     0.074 A 
ATOM     73  C   UNL     1       4.292 -13.383 -10.121  1.00  0.00     0.031 C 
ATOM     74  C   UNL     1       6.400 -12.283 -10.819  1.00  0.00     0.037 A 
BRANCH  61  75
ATOM     75  C   UNL     1      10.285  -7.676  -9.428  1.00  0.00     0.058 A 
ATOM     76  C   UNL     1      11.448  -7.712  -8.642  1.00  0.00     0.135 A 
ATOM     77  C   UNL     1      10.309  -6.898 -10.597  1.00  0.00     0.135 A 
ATOM     78  F   UNL     1      11.473  -8.420  -7.502  1.00  0.00    -0.206 F 
ATOM     79  C   UNL     1      12.582  -6.985  -8.990  1.00  0.00     0.059 A 
ATOM     80  C   UNL     1      11.442  -6.189 -10.981  1.00  0.00     0.059 A 
ATOM     81  F   UNL     1       9.222  -6.821 -11.381  1.00  0.00    -0.206 F 
ATOM     82  C   UNL     1      12.570  -6.229 -10.163  1.00  0.00     0.060 A 
BRANCH  82  83
ATOM     83  S   UNL     1      14.053  -5.300 -10.604  1.00  0.00     0.124 S 
ATOM     84  O   UNL     1      14.046  -4.244  -9.596  1.00  0.00    -0.237 OA
ATOM     85  O   UNL     1      15.102  -6.304 -10.460  1.00  0.00    -0.237 OA
ATOM     86  O   UNL     1      13.789  -4.863 -11.971  1.00  0.00    -0.744 OA
ENDBRANCH  82  83
ENDBRANCH  61  75
BRANCH  62  87
ATOM     87  C   UNL     1       1.920 -12.490  -6.731  1.00  0.00     0.058 A 
ATOM     88  C   UNL     1       1.916 -13.837  -6.339  1.00  0.00     0.135 A 
ATOM     89  C   UNL     1       0.686 -11.822  -6.774  1.00  0.00     0.135 A 
ATOM     90  F   UNL     1       3.067 -14.525  -6.295  1.00  0.00    -0.206 F 
ATOM     91  C   UNL     1       0.737 -14.501  -6.018  1.00  0.00     0.059 A 
ATOM     92  C   UNL     1      -0.504 -12.456  -6.429  1.00  0.00     0.059 A 
ATOM     93  F   UNL     1       0.632 -10.530  -7.136  1.00  0.00    -0.206 F 
ATOM     94  C   UNL     1      -0.470 -13.800  -6.063  1.00  0.00     0.060 A 
BRANCH  94  95
ATOM     95  S   UNL     1      -1.989 -14.664  -5.608  1.00  0.00     0.124 S 
ATOM     96  O   UNL     1      -2.159 -15.574  -6.735  1.00  0.00    -0.237 OA
ATOM     97  O   UNL     1      -1.619 -15.282  -4.339  1.00  0.00    -0.237 OA
ATOM     98  O   UNL     1      -2.972 -13.589  -5.513  1.00  0.00    -0.744 OA
ENDBRANCH  94  95
ENDBRANCH  62  87
BRANCH  74  99
ATOM     99  C   UNL     1       6.528 -13.277 -11.942  1.00  0.00     0.058 A 
ATOM    100  C   UNL     1       5.713 -13.226 -13.082  1.00  0.00     0.135 A 
ATOM    101  C   UNL     1       7.572 -14.219 -11.922  1.00  0.00     0.135 A 
ATOM    102  F   UNL     1       4.699 -12.350 -13.150  1.00  0.00    -0.206 F 
ATOM    103  C   UNL     1       5.928 -14.074 -14.165  1.00  0.00     0.059 A 
ATOM    104  C   UNL     1       7.823 -15.055 -13.004  1.00  0.00     0.059 A 
ATOM    105  F   UNL     1       8.387 -14.301 -10.859  1.00  0.00    -0.206 F 
ATOM    106  C   UNL     1       6.995 -14.976 -14.122  1.00  0.00     0.060 A 
BRANCH 106 107
ATOM    107  S   UNL     1       7.315 -16.008 -15.568  1.00  0.00     0.124 S 
ATOM    108  O   UNL     1       6.194 -16.941 -15.519  1.00  0.00    -0.237 OA
ATOM    109  O   UNL     1       7.284 -15.036 -16.656  1.00  0.00    -0.237 OA
ATOM    110  O   UNL     1       8.626 -16.588 -15.291  1.00  0.00    -0.744 OA
ENDBRANCH 106 107
ENDBRANCH  74  99
ENDBRANCH  48  49
ENDBRANCH  41  43
ENDBRANCH  40  41
ENDBRANCH  39  40
ENDBRANCH  38  39
ENDBRANCH  37  38
ENDBRANCH  36  37
ENDBRANCH  35  36
ENDBRANCH  34  35
ENDBRANCH   1  34
TORSDOF 30
