REMARK SMILES O=C(Cc1cc(C2CC[NH+](Cc3cccs3)CC2)n[nH]1)OCCOCCOCCOCCOC(=O)c1ccc(-c2c3nc(c(-c4c(F)cc(S(=O)(=O)[O-])cc4F)c4ccc([nH]4)c(-c4c(F)cc(S(=O)(=O)[O-])cc4F)c4nc(c(-c5c(F)cc(S(=O)(=O)[O-])cc5F)c5ccc2[nH]5)C=C4)C=C3)cc1
REMARK SMILES IDX 26 1 25 2 24 3 23 4 22 5 21 6 2 7 1 8 3 9 4 10 5 11 20 12
REMARK SMILES IDX 6 13 19 14 7 16 8 17 18 18 9 19 17 20 10 21 11 23 12 24
REMARK SMILES IDX 13 25 16 26 14 27 15 28 27 29 28 30 29 31 30 32 31 33 32 34
REMARK SMILES IDX 33 35 34 36 35 37 36 38 37 39 101 40 38 41 100 42 39 43
REMARK SMILES IDX 40 44 41 45 94 46 42 47 99 48 93 49 95 50 43 51 98 52 92 53
REMARK SMILES IDX 91 54 44 56 78 57 57 58 77 59 58 60 61 61 76 62 96 63 59 64
REMARK SMILES IDX 60 65 75 67 97 68 62 69 45 70 46 71 55 72 47 73 48 74 54 75
REMARK SMILES IDX 56 76 49 77 50 78 51 79 52 80 53 81 79 82 80 83 89 84 81 85
REMARK SMILES IDX 82 86 88 87 90 88 83 89 84 90 85 91 86 92 87 93 63 94 64 95
REMARK SMILES IDX 73 96 65 97 66 98 72 99 74 100 67 101 68 102 69 103 70 104
REMARK SMILES IDX 71 105
REMARK H PARENT 20 15 10 22 95 55 61 66
REMARK Flexibility Score: inf
ROOT
ATOM      1  C   UNL     1       2.038   2.089   1.229  1.00  0.00     0.188 C 
ENDROOT
BRANCH   1   2
ATOM      2  C   UNL     1       2.666   0.757   1.632  1.00  0.00     0.188 C 
BRANCH   2   3
ATOM      3  O   UNL     1       4.066   0.642   1.426  1.00  0.00    -0.376 OA
BRANCH   3   4
ATOM      4  C   UNL     1       4.709   0.461   0.178  1.00  0.00     0.202 C 
BRANCH   4   5
ATOM      5  C   UNL     1       4.023   0.750  -1.156  1.00  0.00     0.261 C 
BRANCH   5   6
ATOM      6  O   UNL     1       2.650   0.367  -1.320  1.00  0.00    -0.463 OA
BRANCH   6   7
ATOM      7  C   UNL     1       2.148  -0.880  -1.248  1.00  0.00     0.311 C 
ATOM      8  O   UNL     1       1.053  -1.135  -1.744  1.00  0.00    -0.252 OA
BRANCH   7   9
ATOM      9  C   UNL     1       2.869  -1.887  -0.409  1.00  0.00     0.178 C 
BRANCH   9  10
ATOM     10  C   UNL     1       3.733  -2.816  -1.147  1.00  0.00     0.047 A 
ATOM     11  C   UNL     1       3.463  -4.134  -1.364  1.00  0.00     0.049 A 
ATOM     12  N   UNL     1       5.029  -2.640  -1.535  1.00  0.00    -0.282 N 
ATOM     13  C   UNL     1       4.706  -4.732  -1.608  1.00  0.00     0.066 A 
ATOM     14  N   UNL     1       5.660  -3.805  -1.774  1.00  0.00    -0.180 NA
ATOM     15  H   UNL     1       5.456  -1.759  -1.631  1.00  0.00     0.190 HD
BRANCH  13  16
ATOM     16  C   UNL     1       5.039  -6.192  -1.521  1.00  0.00     0.051 C 
ATOM     17  C   UNL     1       3.935  -7.105  -2.065  1.00  0.00     0.071 C 
ATOM     18  C   UNL     1       5.343  -6.607  -0.075  1.00  0.00     0.071 C 
ATOM     19  C   UNL     1       2.704  -7.233  -1.152  1.00  0.00     0.263 C 
ATOM     20  C   UNL     1       4.093  -6.556   0.808  1.00  0.00     0.263 C 
ATOM     21  N   UNL     1       2.982  -7.346   0.278  1.00  0.00    -0.330 N 
ATOM     22  H   UNL     1       3.341  -8.299   0.344  1.00  0.00     0.348 HD
BRANCH  21  23
ATOM     23  C   UNL     1       1.771  -7.281   1.122  1.00  0.00     0.310 C 
BRANCH  23  24
ATOM     24  C   UNL     1       1.154  -5.915   1.356  1.00  0.00     0.059 A 
ATOM     25  C   UNL     1       0.301  -5.185   0.545  1.00  0.00     0.021 A 
ATOM     26  S   UNL     1       1.396  -5.107   2.858  1.00  0.00    -0.143 S 
ATOM     27  C   UNL     1      -0.125  -3.961   1.143  1.00  0.00     0.012 A 
ATOM     28  C   UNL     1       0.394  -3.799   2.407  1.00  0.00     0.065 A 
ENDBRANCH  23  24
ENDBRANCH  21  23
ENDBRANCH  13  16
ENDBRANCH   9  10
ENDBRANCH   7   9
ENDBRANCH   6   7
ENDBRANCH   5   6
ENDBRANCH   4   5
ENDBRANCH   3   4
ENDBRANCH   2   3
ENDBRANCH   1   2
BRANCH   1  29
ATOM     29  O   UNL     1       2.621   3.206   1.886  1.00  0.00    -0.377 OA
BRANCH  29  30
ATOM     30  C   UNL     1       3.982   3.423   1.552  1.00  0.00     0.188 C 
BRANCH  30  31
ATOM     31  C   UNL     1       5.025   3.015   2.622  1.00  0.00     0.188 C 
BRANCH  31  32
ATOM     32  O   UNL     1       4.656   2.431   3.864  1.00  0.00    -0.376 OA
BRANCH  32  33
ATOM     33  C   UNL     1       3.472   2.838   4.527  1.00  0.00     0.202 C 
BRANCH  33  34
ATOM     34  C   UNL     1       3.264   4.313   4.894  1.00  0.00     0.261 C 
BRANCH  34  35
ATOM     35  O   UNL     1       3.504   5.246   3.833  1.00  0.00    -0.460 OA
BRANCH  35  36
ATOM     36  C   UNL     1       4.695   5.891   3.870  1.00  0.00     0.338 C 
ATOM     37  O   UNL     1       5.556   5.803   4.729  1.00  0.00    -0.246 OA
BRANCH  36  38
ATOM     38  C   UNL     1       4.905   6.556   2.564  1.00  0.00     0.060 A 
ATOM     39  C   UNL     1       6.108   6.317   1.877  1.00  0.00     0.016 A 
ATOM     40  C   UNL     1       3.903   7.338   1.985  1.00  0.00     0.016 A 
ATOM     41  C   UNL     1       6.322   6.876   0.618  1.00  0.00     0.010 A 
ATOM     42  C   UNL     1       4.135   7.935   0.747  1.00  0.00     0.010 A 
ATOM     43  C   UNL     1       5.358   7.736   0.080  1.00  0.00    -0.014 A 
BRANCH  43  44
ATOM     44  C   UNL     1       5.734   8.679  -0.996  1.00  0.00     0.031 A 
ATOM     45  C   UNL     1       6.278  10.012  -0.565  1.00  0.00     0.074 A 
ATOM     46  C   UNL     1       5.545   8.398  -2.296  1.00  0.00     0.049 A 
ATOM     47  N   UNL     1       6.519  11.082  -1.273  1.00  0.00    -0.248 NA
ATOM     48  C   UNL     1       6.571  10.157   0.871  1.00  0.00     0.031 C 
ATOM     49  C   UNL     1       5.066   7.126  -2.828  1.00  0.00     0.029 A 
ATOM     50  N   UNL     1       5.704   9.194  -3.402  1.00  0.00    -0.354 N 
ATOM     51  C   UNL     1       6.963  12.034  -0.364  1.00  0.00     0.074 A 
ATOM     52  C   UNL     1       6.947  11.422   0.944  1.00  0.00     0.031 C 
ATOM     53  C   UNL     1       4.927   7.241  -4.161  1.00  0.00     0.029 A 
ATOM     54  C   UNL     1       5.268   8.606  -4.564  1.00  0.00     0.049 A 
ATOM     55  H   UNL     1       6.093  10.098  -3.367  1.00  0.00     0.167 HD
ATOM     56  C   UNL     1       7.338  13.312  -0.599  1.00  0.00     0.037 A 
ATOM     57  C   UNL     1       5.117   9.129  -5.798  1.00  0.00     0.037 A 
ATOM     58  C   UNL     1       7.324  13.916  -1.901  1.00  0.00     0.049 A 
ATOM     59  C   UNL     1       5.489  10.571  -6.038  1.00  0.00     0.074 A 
ATOM     60  C   UNL     1       7.698  15.197  -2.260  1.00  0.00     0.029 A 
ATOM     61  N   UNL     1       6.892  13.282  -3.058  1.00  0.00    -0.354 N 
ATOM     62  N   UNL     1       5.933  11.461  -5.181  1.00  0.00    -0.248 NA
ATOM     63  C   UNL     1       5.341  11.081  -7.409  1.00  0.00     0.031 C 
ATOM     64  C   UNL     1       7.442  15.355  -3.626  1.00  0.00     0.029 A 
ATOM     65  C   UNL     1       6.968  14.153  -4.130  1.00  0.00     0.049 A 
ATOM     66  H   UNL     1       6.579  12.350  -3.108  1.00  0.00     0.167 HD
ATOM     67  C   UNL     1       6.144  12.627  -5.912  1.00  0.00     0.074 A 
ATOM     68  C   UNL     1       5.777  12.328  -7.282  1.00  0.00     0.031 C 
ATOM     69  C   UNL     1       6.608  13.830  -5.490  1.00  0.00     0.037 A 
BRANCH  56  70
ATOM     70  C   UNL     1       7.727  14.138   0.595  1.00  0.00     0.058 A 
ATOM     71  C   UNL     1       8.901  13.885   1.325  1.00  0.00     0.135 A 
ATOM     72  C   UNL     1       6.886  15.169   1.044  1.00  0.00     0.135 A 
ATOM     73  F   UNL     1       9.727  12.893   0.955  1.00  0.00    -0.206 F 
ATOM     74  C   UNL     1       9.201  14.591   2.485  1.00  0.00     0.059 A 
ATOM     75  C   UNL     1       7.183  15.909   2.183  1.00  0.00     0.059 A 
ATOM     76  F   UNL     1       5.749  15.447   0.388  1.00  0.00    -0.206 F 
ATOM     77  C   UNL     1       8.330  15.595   2.911  1.00  0.00     0.060 A 
BRANCH  77  78
ATOM     78  S   UNL     1       8.708  16.476   4.440  1.00  0.00     0.124 S 
ATOM     79  O   UNL     1       8.366  15.472   5.444  1.00  0.00    -0.237 OA
ATOM     80  O   UNL     1      10.131  16.764   4.292  1.00  0.00    -0.237 OA
ATOM     81  O   UNL     1       7.827  17.638   4.389  1.00  0.00    -0.744 OA
ENDBRANCH  77  78
ENDBRANCH  56  70
BRANCH  57  82
ATOM     82  C   UNL     1       4.567   8.280  -6.888  1.00  0.00     0.058 A 
ATOM     83  C   UNL     1       5.386   7.807  -7.923  1.00  0.00     0.135 A 
ATOM     84  C   UNL     1       3.222   7.877  -6.882  1.00  0.00     0.135 A 
ATOM     85  F   UNL     1       6.674   8.177  -7.981  1.00  0.00    -0.206 F 
ATOM     86  C   UNL     1       4.897   6.951  -8.905  1.00  0.00     0.059 A 
ATOM     87  C   UNL     1       2.715   7.005  -7.840  1.00  0.00     0.059 A 
ATOM     88  F   UNL     1       2.398   8.298  -5.910  1.00  0.00    -0.206 F 
ATOM     89  C   UNL     1       3.562   6.544  -8.846  1.00  0.00     0.060 A 
BRANCH  89  90
ATOM     90  S   UNL     1       2.971   5.344 -10.060  1.00  0.00     0.124 S 
ATOM     91  O   UNL     1       2.921   6.151 -11.274  1.00  0.00    -0.237 OA
ATOM     92  O   UNL     1       4.015   4.325 -10.012  1.00  0.00    -0.237 OA
ATOM     93  O   UNL     1       1.678   4.931  -9.522  1.00  0.00    -0.744 OA
ENDBRANCH  89  90
ENDBRANCH  57  82
BRANCH  69  94
ATOM     94  C   UNL     1       6.801  14.911  -6.517  1.00  0.00     0.058 A 
ATOM     95  C   UNL     1       5.720  15.618  -7.064  1.00  0.00     0.135 A 
ATOM     96  C   UNL     1       8.098  15.316  -6.874  1.00  0.00     0.135 A 
ATOM     97  F   UNL     1       4.460  15.268  -6.760  1.00  0.00    -0.206 F 
ATOM     98  C   UNL     1       5.918  16.687  -7.933  1.00  0.00     0.059 A 
ATOM     99  C   UNL     1       8.320  16.398  -7.720  1.00  0.00     0.059 A 
ATOM    100  F   UNL     1       9.168  14.680  -6.369  1.00  0.00    -0.206 F 
ATOM    101  C   UNL     1       7.222  17.075  -8.248  1.00  0.00     0.060 A 
BRANCH 101 102
ATOM    102  S   UNL     1       7.467  18.506  -9.322  1.00  0.00     0.124 S 
ATOM    103  O   UNL     1       7.088  17.965 -10.623  1.00  0.00    -0.237 OA
ATOM    104  O   UNL     1       6.548  19.486  -8.750  1.00  0.00    -0.237 OA
ATOM    105  O   UNL     1       8.884  18.815  -9.159  1.00  0.00    -0.744 OA
ENDBRANCH 101 102
ENDBRANCH  69  94
ENDBRANCH  43  44
ENDBRANCH  36  38
ENDBRANCH  35  36
ENDBRANCH  34  35
ENDBRANCH  33  34
ENDBRANCH  32  33
ENDBRANCH  31  32
ENDBRANCH  30  31
ENDBRANCH  29  30
ENDBRANCH   1  29
TORSDOF 27
