REMARK SMILES CCCC[C@@H](C(=O)OCCOCCOCCOCCOC(=O)c1ccc(-c2c3nc(c(-c4c(F)cc(S(=O)(=O)[O-])cc4F)c4ccc([nH]4)c(-c4c(F)cc(S(=O)(=O)[O-])cc4F)c4nc(c(-c5c(F)cc(S(=O)(=O)[O-])cc5F)c5ccc2[nH]5)C=C4)C=C3)cc1)[C@](C)(O)c1cccc(Br)c1
REMARK SMILES IDX 14 1 13 2 12 3 11 4 10 5 9 6 8 7 6 8 7 9 5 10 4 11 3 12 2 13
REMARK SMILES IDX 1 14 89 15 90 16 91 17 92 19 93 20 98 21 94 22 96 23 95 24
REMARK SMILES IDX 97 25 15 26 16 27 17 28 18 29 19 30 20 31 21 32 22 33 23 34
REMARK SMILES IDX 24 35 88 36 25 37 87 38 26 39 27 40 28 41 81 42 29 43 86 44
REMARK SMILES IDX 80 45 82 46 30 47 85 48 79 49 78 50 31 52 65 53 44 54 64 55
REMARK SMILES IDX 45 56 48 57 63 58 83 59 46 60 47 61 62 63 84 64 49 65 32 66
REMARK SMILES IDX 33 67 42 68 34 69 35 70 41 71 43 72 36 73 37 74 38 75 39 76
REMARK SMILES IDX 40 77 66 78 67 79 76 80 68 81 69 82 75 83 77 84 70 85 71 86
REMARK SMILES IDX 72 87 73 88 74 89 50 90 51 91 60 92 52 93 53 94 59 95 61 96
REMARK SMILES IDX 54 97 55 98 56 99 57 100 58 101
REMARK H PARENT 91 18 82 51 48 62
REMARK Flexibility Score: inf
ROOT
ATOM      1  O   UNL     1       1.540  -5.889   3.024  1.00  0.00    -0.377 OA
ENDROOT
BRANCH   1   2
ATOM      2  C   UNL     1       1.294  -5.697   1.641  1.00  0.00     0.188 C 
BRANCH   2   3
ATOM      3  C   UNL     1       2.281  -4.903   0.768  1.00  0.00     0.188 C 
BRANCH   3   4
ATOM      4  O   UNL     1       3.362  -4.320   1.478  1.00  0.00    -0.376 OA
BRANCH   4   5
ATOM      5  C   UNL     1       3.294  -2.915   1.656  1.00  0.00     0.202 C 
BRANCH   5   6
ATOM      6  C   UNL     1       2.164  -2.391   2.551  1.00  0.00     0.261 C 
BRANCH   6   7
ATOM      7  O   UNL     1       0.865  -2.969   2.312  1.00  0.00    -0.463 OA
BRANCH   7   8
ATOM      8  C   UNL     1       0.059  -2.419   1.384  1.00  0.00     0.312 C 
ATOM      9  O   UNL     1       0.416  -1.493   0.663  1.00  0.00    -0.252 OA
BRANCH   8  10
ATOM     10  C   UNL     1      -1.362  -3.015   1.349  1.00  0.00     0.135 C 
BRANCH  10  11
ATOM     11  C   UNL     1      -1.820  -4.017   2.458  1.00  0.00     0.019 C 
BRANCH  11  12
ATOM     12  C   UNL     1      -1.400  -3.826   3.920  1.00  0.00     0.001 C 
BRANCH  12  13
ATOM     13  C   UNL     1      -1.898  -2.557   4.597  1.00  0.00    -0.003 C 
ATOM     14  C   UNL     1      -3.412  -2.531   4.746  1.00  0.00     0.004 C 
ENDBRANCH  12  13
ENDBRANCH  11  12
ENDBRANCH  10  11
BRANCH  10  15
ATOM     15  C   UNL     1      -1.799  -3.508  -0.102  1.00  0.00     0.100 C 
ATOM     16  C   UNL     1      -1.536  -2.454  -1.198  1.00  0.00     0.048 C 
BRANCH  15  17
ATOM     17  O   UNL     1      -3.248  -3.612  -0.076  1.00  0.00    -0.385 OA
ATOM     18  H   UNL     1      -3.566  -3.911  -0.943  1.00  0.00     0.211 HD
ENDBRANCH  15  17
BRANCH  15  19
ATOM     19  C   UNL     1      -1.313  -4.903  -0.557  1.00  0.00    -0.015 A 
ATOM     20  C   UNL     1      -1.990  -6.070  -0.139  1.00  0.00     0.007 A 
ATOM     21  C   UNL     1      -0.229  -5.090  -1.438  1.00  0.00     0.022 A 
ATOM     22  C   UNL     1      -1.583  -7.352  -0.533  1.00  0.00     0.002 A 
ATOM     23  C   UNL     1       0.170  -6.374  -1.840  1.00  0.00     0.018 A 
ATOM     24  C   UNL     1      -0.496  -7.506  -1.383  1.00  0.00     0.016 A 
ATOM     25  Br  UNL     1       1.645  -6.577  -3.009  1.00  0.00    -0.051 Br
ENDBRANCH  15  19
ENDBRANCH  10  15
ENDBRANCH   8  10
ENDBRANCH   7   8
ENDBRANCH   6   7
ENDBRANCH   5   6
ENDBRANCH   4   5
ENDBRANCH   3   4
ENDBRANCH   2   3
ENDBRANCH   1   2
BRANCH   1  26
ATOM     26  C   UNL     1       2.876  -6.118   3.441  1.00  0.00     0.188 C 
BRANCH  26  27
ATOM     27  C   UNL     1       3.779  -7.009   2.562  1.00  0.00     0.188 C 
BRANCH  27  28
ATOM     28  O   UNL     1       3.135  -7.597   1.440  1.00  0.00    -0.376 OA
BRANCH  28  29
ATOM     29  C   UNL     1       2.695  -8.941   1.561  1.00  0.00     0.202 C 
BRANCH  29  30
ATOM     30  C   UNL     1       1.629  -9.255   2.621  1.00  0.00     0.261 C 
BRANCH  30  31
ATOM     31  O   UNL     1       1.962  -8.931   3.977  1.00  0.00    -0.460 OA
BRANCH  31  32
ATOM     32  C   UNL     1       3.074  -9.476   4.515  1.00  0.00     0.338 C 
ATOM     33  O   UNL     1       3.846 -10.259   3.992  1.00  0.00    -0.246 OA
BRANCH  32  34
ATOM     34  C   UNL     1       3.294  -8.789   5.801  1.00  0.00     0.060 A 
ATOM     35  C   UNL     1       4.451  -8.017   5.988  1.00  0.00     0.016 A 
ATOM     36  C   UNL     1       2.315  -8.859   6.794  1.00  0.00     0.016 A 
ATOM     37  C   UNL     1       4.637  -7.319   7.181  1.00  0.00     0.010 A 
ATOM     38  C   UNL     1       2.521  -8.196   8.000  1.00  0.00     0.010 A 
ATOM     39  C   UNL     1       3.696  -7.452   8.209  1.00  0.00    -0.014 A 
BRANCH  39  40
ATOM     40  C   UNL     1       4.052  -7.082   9.596  1.00  0.00     0.031 A 
ATOM     41  C   UNL     1       4.638  -8.169  10.454  1.00  0.00     0.074 A 
ATOM     42  C   UNL     1       3.826  -5.854  10.090  1.00  0.00     0.049 A 
ATOM     43  N   UNL     1       4.861  -8.185  11.739  1.00  0.00    -0.248 NA
ATOM     44  C   UNL     1       5.008  -9.418   9.761  1.00  0.00     0.031 C 
ATOM     45  C   UNL     1       3.324  -4.710   9.332  1.00  0.00     0.029 A 
ATOM     46  N   UNL     1       3.971  -5.375  11.368  1.00  0.00    -0.354 N 
ATOM     47  C   UNL     1       5.385  -9.444  12.009  1.00  0.00     0.074 A 
ATOM     48  C   UNL     1       5.421 -10.174  10.764  1.00  0.00     0.031 C 
ATOM     49  C   UNL     1       3.177  -3.665  10.168  1.00  0.00     0.029 A 
ATOM     50  C   UNL     1       3.529  -4.082  11.525  1.00  0.00     0.049 A 
ATOM     51  H   UNL     1       4.355  -5.906  12.103  1.00  0.00     0.167 HD
ATOM     52  C   UNL     1       5.800  -9.944  13.194  1.00  0.00     0.037 A 
ATOM     53  C   UNL     1       3.392  -3.345  12.646  1.00  0.00     0.037 A 
ATOM     54  C   UNL     1       5.740  -9.212  14.428  1.00  0.00     0.049 A 
ATOM     55  C   UNL     1       3.769  -3.959  13.975  1.00  0.00     0.074 A 
ATOM     56  C   UNL     1       6.108  -9.627  15.695  1.00  0.00     0.029 A 
ATOM     57  N   UNL     1       5.278  -7.909  14.548  1.00  0.00    -0.354 N 
ATOM     58  N   UNL     1       4.249  -5.155  14.228  1.00  0.00    -0.248 NA
ATOM     59  C   UNL     1       3.580  -3.127  15.174  1.00  0.00     0.031 C 
ATOM     60  C   UNL     1       5.826  -8.590  16.588  1.00  0.00     0.029 A 
ATOM     61  C   UNL     1       5.343  -7.507  15.869  1.00  0.00     0.049 A 
ATOM     62  H   UNL     1       4.952  -7.354  13.803  1.00  0.00     0.167 HD
ATOM     63  C   UNL     1       4.469  -5.197  15.602  1.00  0.00     0.074 A 
ATOM     64  C   UNL     1       4.060  -3.913  16.129  1.00  0.00     0.031 C 
ATOM     65  C   UNL     1       4.971  -6.204  16.360  1.00  0.00     0.037 A 
BRANCH  52  66
ATOM     66  C   UNL     1       6.326 -11.351  13.209  1.00  0.00     0.058 A 
ATOM     67  C   UNL     1       7.558 -11.683  12.623  1.00  0.00     0.135 A 
ATOM     68  C   UNL     1       5.600 -12.377  13.835  1.00  0.00     0.135 A 
ATOM     69  F   UNL     1       8.278 -10.746  11.985  1.00  0.00    -0.206 F 
ATOM     70  C   UNL     1       8.043 -12.986  12.640  1.00  0.00     0.059 A 
ATOM     71  C   UNL     1       6.080 -13.681  13.891  1.00  0.00     0.059 A 
ATOM     72  F   UNL     1       4.410 -12.117  14.400  1.00  0.00    -0.206 F 
ATOM     73  C   UNL     1       7.299 -13.977  13.281  1.00  0.00     0.060 A 
BRANCH  73  74
ATOM     74  S   UNL     1       7.955 -15.658  13.314  1.00  0.00     0.124 S 
ATOM     75  O   UNL     1       7.793 -16.061  11.920  1.00  0.00    -0.237 OA
ATOM     76  O   UNL     1       9.329 -15.447  13.757  1.00  0.00    -0.237 OA
ATOM     77  O   UNL     1       7.089 -16.344  14.268  1.00  0.00    -0.744 OA
ENDBRANCH  73  74
ENDBRANCH  52  66
BRANCH  53  78
ATOM     78  C   UNL     1       2.860  -1.956  12.580  1.00  0.00     0.058 A 
ATOM     79  C   UNL     1       3.670  -0.856  12.906  1.00  0.00     0.135 A 
ATOM     80  C   UNL     1       1.527  -1.697  12.225  1.00  0.00     0.135 A 
ATOM     81  F   UNL     1       4.948  -1.049  13.264  1.00  0.00    -0.206 F 
ATOM     82  C   UNL     1       3.172   0.444  12.909  1.00  0.00     0.059 A 
ATOM     83  C   UNL     1       1.014  -0.403  12.192  1.00  0.00     0.059 A 
ATOM     84  F   UNL     1       0.709  -2.709  11.896  1.00  0.00    -0.206 F 
ATOM     85  C   UNL     1       1.841   0.660  12.551  1.00  0.00     0.060 A 
BRANCH  85  86
ATOM     86  S   UNL     1       1.212   2.353  12.539  1.00  0.00     0.124 S 
ATOM     87  O   UNL     1       1.139   2.649  13.965  1.00  0.00    -0.237 OA
ATOM     88  O   UNL     1       2.248   3.059  11.792  1.00  0.00    -0.237 OA
ATOM     89  O   UNL     1      -0.071   2.230  11.853  1.00  0.00    -0.744 OA
ENDBRANCH  85  86
ENDBRANCH  53  78
BRANCH  65  90
ATOM     90  C   UNL     1       5.197  -5.942  17.823  1.00  0.00     0.058 A 
ATOM     91  C   UNL     1       4.141  -5.884  18.744  1.00  0.00     0.135 A 
ATOM     92  C   UNL     1       6.510  -5.860  18.321  1.00  0.00     0.135 A 
ATOM     93  F   UNL     1       2.870  -5.953  18.319  1.00  0.00    -0.206 F 
ATOM     94  C   UNL     1       4.378  -5.748  20.108  1.00  0.00     0.059 A 
ATOM     95  C   UNL     1       6.769  -5.753  19.683  1.00  0.00     0.059 A 
ATOM     96  F   UNL     1       7.556  -5.923  17.482  1.00  0.00    -0.206 F 
ATOM     97  C   UNL     1       5.696  -5.695  20.569  1.00  0.00     0.060 A 
BRANCH  97  98
ATOM     98  S   UNL     1       5.987  -5.595  22.347  1.00  0.00     0.124 S 
ATOM     99  O   UNL     1       5.581  -4.224  22.636  1.00  0.00    -0.237 OA
ATOM    100  O   UNL     1       5.109  -6.639  22.866  1.00  0.00    -0.237 OA
ATOM    101  O   UNL     1       7.416  -5.866  22.474  1.00  0.00    -0.744 OA
ENDBRANCH  97  98
ENDBRANCH  65  90
ENDBRANCH  39  40
ENDBRANCH  32  34
ENDBRANCH  31  32
ENDBRANCH  30  31
ENDBRANCH  29  30
ENDBRANCH  28  29
ENDBRANCH  27  28
ENDBRANCH  26  27
ENDBRANCH   1  26
TORSDOF 29
