REMARK SMILES O=C(OCCOCCOCCOCCOC(=O)c1ccc(-c2c3nc(c(-c4c(F)cc(S(=O)(=O)[O-])cc4F)c4ccc([nH]4)c(-c4c(F)cc(S(=O)(=O)[O-])cc4F)c4nc(c(-c5c(F)cc(S(=O)(=O)[O-])cc5F)c5ccc2[nH]5)C=C4)C=C3)cc1)C1=Cc2cc(Cl)c(Cl)c(Cl)c2O[C@@H]1C(F)(F)F
REMARK SMILES IDX 10 1 9 2 8 3 7 4 6 5 5 6 4 7 3 8 2 9 1 10 84 11 85 12 96 13
REMARK SMILES IDX 86 14 95 15 87 16 94 17 88 18 92 19 89 20 90 21 93 22 91 23
REMARK SMILES IDX 97 24 98 25 99 26 100 27 11 28 12 29 13 30 14 31 15 32 16 33
REMARK SMILES IDX 17 34 18 35 19 36 83 37 20 38 82 39 21 40 22 41 23 42 76 43
REMARK SMILES IDX 24 44 81 45 75 46 77 47 25 48 80 49 74 50 73 51 26 53 60 54
REMARK SMILES IDX 39 55 59 56 40 57 43 58 58 59 78 60 41 61 42 62 57 64 79 65
REMARK SMILES IDX 44 66 27 67 28 68 37 69 29 70 30 71 36 72 38 73 31 74 32 75
REMARK SMILES IDX 33 76 34 77 35 78 61 79 62 80 71 81 63 82 64 83 70 84 72 85
REMARK SMILES IDX 65 86 66 87 67 88 68 89 69 90 45 91 46 92 55 93 47 94 48 95
REMARK SMILES IDX 54 96 56 97 49 98 50 99 51 100 52 101 53 102
REMARK H PARENT 77 52 43 63
REMARK Flexibility Score: inf
ROOT
ATOM      1  C   UNL     1       4.123  -2.309   2.840  1.00  0.00     0.188 C 
ENDROOT
BRANCH   1   2
ATOM      2  O   UNL     1       2.775  -2.686   2.986  1.00  0.00    -0.377 OA
BRANCH   2   3
ATOM      3  C   UNL     1       1.924  -1.968   2.127  1.00  0.00     0.188 C 
BRANCH   3   4
ATOM      4  C   UNL     1       2.216  -2.148   0.634  1.00  0.00     0.188 C 
BRANCH   4   5
ATOM      5  O   UNL     1       3.526  -1.929   0.010  1.00  0.00    -0.376 OA
BRANCH   5   6
ATOM      6  C   UNL     1       4.289  -0.605  -0.600  1.00  0.00     0.202 C 
BRANCH   6   7
ATOM      7  C   UNL     1       3.592   1.465  -0.581  1.00  0.00     0.261 C 
BRANCH   7   8
ATOM      8  O   UNL     1       2.695   2.123  -1.610  1.00  0.00    -0.460 OA
BRANCH   8   9
ATOM      9  C   UNL     1       2.884   1.635  -2.841  1.00  0.00     0.338 C 
ATOM     10  O   UNL     1       2.224   1.826  -3.832  1.00  0.00    -0.246 OA
BRANCH   9  11
ATOM     11  C   UNL     1       3.729   0.517  -2.456  1.00  0.00     0.087 C 
ATOM     12  C   UNL     1       5.117   0.888  -2.143  1.00  0.00     0.027 C 
ATOM     13  C   UNL     1       2.457  -0.145  -1.176  1.00  0.00     0.316 C 
ATOM     14  C   UNL     1       5.784   0.996  -0.471  1.00  0.00     0.020 A 
ATOM     15  O   UNL     1       3.099   0.102   0.648  1.00  0.00    -0.474 OA
ATOM     16  C   UNL     1       7.093   1.348  -0.298  1.00  0.00     0.034 A 
ATOM     17  C   UNL     1       4.804   0.738   0.933  1.00  0.00     0.148 A 
ATOM     18  C   UNL     1       7.530   1.442   1.042  1.00  0.00     0.062 A 
ATOM     19  C   UNL     1       5.290   0.943   2.208  1.00  0.00     0.103 A 
ATOM     20  Cl  UNL     1       9.231   1.817   1.193  1.00  0.00    -0.083 Cl
ATOM     21  C   UNL     1       6.685   1.262   2.235  1.00  0.00     0.082 A 
ATOM     22  Cl  UNL     1       4.296   0.945   3.601  1.00  0.00    -0.079 Cl
ATOM     23  Cl  UNL     1       7.466   1.432   3.795  1.00  0.00    -0.081 Cl
BRANCH  13  24
ATOM     24  C   UNL     1       2.130  -1.508  -2.082  1.00  0.00     0.430 C 
ATOM     25  F   UNL     1       1.232  -2.390  -1.610  1.00  0.00    -0.167 F 
ATOM     26  F   UNL     1       1.573  -1.069  -3.254  1.00  0.00    -0.167 F 
ATOM     27  F   UNL     1       3.223  -2.207  -2.481  1.00  0.00    -0.167 F 
ENDBRANCH  13  24
ENDBRANCH   9  11
ENDBRANCH   8   9
ENDBRANCH   7   8
ENDBRANCH   6   7
ENDBRANCH   5   6
ENDBRANCH   4   5
ENDBRANCH   3   4
ENDBRANCH   2   3
ENDBRANCH   1   2
BRANCH   1  28
ATOM     28  C   UNL     1       5.065  -3.361   2.248  1.00  0.00     0.188 C 
BRANCH  28  29
ATOM     29  O   UNL     1       4.597  -4.522   1.585  1.00  0.00    -0.376 OA
BRANCH  29  30
ATOM     30  C   UNL     1       3.389  -5.157   1.965  1.00  0.00     0.202 C 
BRANCH  30  31
ATOM     31  C   UNL     1       3.135  -5.663   3.394  1.00  0.00     0.261 C 
BRANCH  31  32
ATOM     32  O   UNL     1       3.430  -4.753   4.460  1.00  0.00    -0.460 OA
BRANCH  32  33
ATOM     33  C   UNL     1       4.685  -4.843   4.948  1.00  0.00     0.338 C 
ATOM     34  O   UNL     1       5.533  -5.659   4.625  1.00  0.00    -0.246 OA
BRANCH  33  35
ATOM     35  C   UNL     1       4.985  -3.680   5.813  1.00  0.00     0.060 A 
ATOM     36  C   UNL     1       6.218  -3.035   5.623  1.00  0.00     0.016 A 
ATOM     37  C   UNL     1       4.118  -3.259   6.823  1.00  0.00     0.016 A 
ATOM     38  C   UNL     1       6.633  -2.041   6.496  1.00  0.00     0.010 A 
ATOM     39  C   UNL     1       4.554  -2.287   7.730  1.00  0.00     0.010 A 
ATOM     40  C   UNL     1       5.844  -1.737   7.608  1.00  0.00    -0.014 A 
BRANCH  40  41
ATOM     41  C   UNL     1       6.512  -1.108   8.771  1.00  0.00     0.031 A 
ATOM     42  C   UNL     1       6.981  -2.012   9.884  1.00  0.00     0.074 A 
ATOM     43  C   UNL     1       6.790   0.206   8.792  1.00  0.00     0.049 A 
ATOM     44  N   UNL     1       7.609  -1.714  10.991  1.00  0.00    -0.248 NA
ATOM     45  C   UNL     1       6.701  -3.450   9.725  1.00  0.00     0.031 C 
ATOM     46  C   UNL     1       6.454   1.158   7.735  1.00  0.00     0.029 A 
ATOM     47  N   UNL     1       7.430   0.962   9.740  1.00  0.00    -0.354 N 
ATOM     48  C   UNL     1       7.779  -2.919  11.665  1.00  0.00     0.074 A 
ATOM     49  C   UNL     1       7.160  -3.948  10.862  1.00  0.00     0.031 C 
ATOM     50  C   UNL     1       6.891   2.377   8.096  1.00  0.00     0.029 A 
ATOM     51  C   UNL     1       7.503   2.296   9.421  1.00  0.00     0.049 A 
ATOM     52  H   UNL     1       7.802   0.585  10.570  1.00  0.00     0.167 HD
ATOM     53  C   UNL     1       8.401  -3.147  12.846  1.00  0.00     0.037 A 
ATOM     54  C   UNL     1       7.993   3.330  10.132  1.00  0.00     0.037 A 
ATOM     55  C   UNL     1       9.018  -2.111  13.632  1.00  0.00     0.049 A 
ATOM     56  C   UNL     1       8.610   3.063  11.482  1.00  0.00     0.074 A 
ATOM     57  C   UNL     1       9.694  -2.231  14.832  1.00  0.00     0.029 A 
ATOM     58  N   UNL     1       9.022  -0.762  13.304  1.00  0.00    -0.354 N 
ATOM     59  N   UNL     1       8.780   1.919  12.105  1.00  0.00    -0.248 NA
ATOM     60  C   UNL     1       9.112   4.228  12.222  1.00  0.00     0.031 C 
ATOM     61  C   UNL     1      10.033  -0.948  15.271  1.00  0.00     0.029 A 
ATOM     62  C   UNL     1       9.653  -0.035  14.299  1.00  0.00     0.049 A 
ATOM     63  H   UNL     1       8.633  -0.379  12.484  1.00  0.00     0.167 HD
ATOM     64  C   UNL     1       9.449   2.223  13.288  1.00  0.00     0.074 A 
ATOM     65  C   UNL     1       9.659   3.657  13.286  1.00  0.00     0.031 C 
ATOM     66  C   UNL     1       9.860   1.393  14.280  1.00  0.00     0.037 A 
BRANCH  53  67
ATOM     67  C   UNL     1       8.394  -4.554  13.384  1.00  0.00     0.058 A 
ATOM     68  C   UNL     1       9.099  -5.602  12.769  1.00  0.00     0.135 A 
ATOM     69  C   UNL     1       7.682  -4.852  14.558  1.00  0.00     0.135 A 
ATOM     70  F   UNL     1       9.782  -5.384  11.634  1.00  0.00    -0.206 F 
ATOM     71  C   UNL     1       9.072  -6.897  13.280  1.00  0.00     0.059 A 
ATOM     72  C   UNL     1       7.673  -6.130  15.108  1.00  0.00     0.059 A 
ATOM     73  F   UNL     1       6.984  -3.894  15.188  1.00  0.00    -0.206 F 
ATOM     74  C   UNL     1       8.359  -7.150  14.453  1.00  0.00     0.060 A 
BRANCH  74  75
ATOM     75  S   UNL     1       8.343  -8.832  15.108  1.00  0.00     0.124 S 
ATOM     76  O   UNL     1       7.546  -9.530  14.104  1.00  0.00    -0.237 OA
ATOM     77  O   UNL     1       9.764  -9.166  15.135  1.00  0.00    -0.237 OA
ATOM     78  O   UNL     1       7.712  -8.683  16.416  1.00  0.00    -0.744 OA
ENDBRANCH  74  75
ENDBRANCH  53  67
BRANCH  54  79
ATOM     79  C   UNL     1       7.923   4.712   9.584  1.00  0.00     0.058 A 
ATOM     80  C   UNL     1       9.086   5.421   9.249  1.00  0.00     0.135 A 
ATOM     81  C   UNL     1       6.690   5.357   9.392  1.00  0.00     0.135 A 
ATOM     82  F   UNL     1      10.290   4.855   9.426  1.00  0.00    -0.206 F 
ATOM     83  C   UNL     1       9.034   6.722   8.762  1.00  0.00     0.059 A 
ATOM     84  C   UNL     1       6.610   6.646   8.874  1.00  0.00     0.059 A 
ATOM     85  F   UNL     1       5.544   4.724   9.690  1.00  0.00    -0.206 F 
ATOM     86  C   UNL     1       7.789   7.324   8.571  1.00  0.00     0.060 A 
BRANCH  86  87
ATOM     87  S   UNL     1       7.733   8.994   7.888  1.00  0.00     0.124 S 
ATOM     88  O   UNL     1       8.292   9.780   8.982  1.00  0.00    -0.237 OA
ATOM     89  O   UNL     1       8.571   8.864   6.700  1.00  0.00    -0.237 OA
ATOM     90  O   UNL     1       6.312   9.203   7.623  1.00  0.00    -0.744 OA
ENDBRANCH  86  87
ENDBRANCH  54  79
BRANCH  66  91
ATOM     91  C   UNL     1      10.636   2.002  15.420  1.00  0.00     0.058 A 
ATOM     92  C   UNL     1      10.052   2.886  16.341  1.00  0.00     0.135 A 
ATOM     93  C   UNL     1      11.988   1.666  15.610  1.00  0.00     0.135 A 
ATOM     94  F   UNL     1       8.764   3.245  16.212  1.00  0.00    -0.206 F 
ATOM     95  C   UNL     1      10.790   3.451  17.377  1.00  0.00     0.059 A 
ATOM     96  C   UNL     1      12.733   2.184  16.663  1.00  0.00     0.059 A 
ATOM     97  F   UNL     1      12.598   0.812  14.771  1.00  0.00    -0.206 F 
ATOM     98  C   UNL     1      12.131   3.093  17.530  1.00  0.00     0.060 A 
BRANCH  98  99
ATOM     99  S   UNL     1      13.074   3.828  18.882  1.00  0.00     0.124 S 
ATOM    100  O   UNL     1      13.200   5.211  18.434  1.00  0.00    -0.237 OA
ATOM    101  O   UNL     1      12.197   3.609  20.027  1.00  0.00    -0.237 OA
ATOM    102  O   UNL     1      14.314   3.057  18.892  1.00  0.00    -0.744 OA
ENDBRANCH  98  99
ENDBRANCH  66  91
ENDBRANCH  40  41
ENDBRANCH  33  35
ENDBRANCH  32  33
ENDBRANCH  31  32
ENDBRANCH  30  31
ENDBRANCH  29  30
ENDBRANCH  28  29
ENDBRANCH   1  28
TORSDOF 24
