REMARK SMILES Cc1cc(C(=O)N[C@H]2C=C[C@H](C(=O)OCCOCCOCCOCCOC(=O)c3ccc(-c4c5nc(c(-c6c(F)cc(S(=O)(=O)[O-])cc6F)c6ccc([nH]6)c(-c6c(F)cc(S(=O)(=O)[O-])cc6F)c6nc(c(-c7c(F)cc(S(=O)(=O)[O-])cc7F)c7ccc4[nH]7)C=C6)C=C5)cc3)C2)ccc1F
REMARK SMILES IDX 21 1 20 2 19 3 18 4 17 5 16 6 15 7 14 8 12 9 13 10 11 11
REMARK SMILES IDX 8 12 9 13 95 14 10 15 7 16 5 17 6 18 4 20 1 21 2 22 3 23
REMARK SMILES IDX 98 24 97 25 99 26 96 27 22 28 23 29 24 30 25 31 26 32 27 33
REMARK SMILES IDX 28 34 29 35 30 36 94 37 31 38 93 39 32 40 33 41 34 42 87 43
REMARK SMILES IDX 35 44 92 45 86 46 88 47 36 48 91 49 85 50 84 51 37 53 71 54
REMARK SMILES IDX 50 55 70 56 51 57 54 58 69 59 89 60 52 61 53 62 68 64 90 65
REMARK SMILES IDX 55 66 38 67 39 68 48 69 40 70 41 71 47 72 49 73 42 74 43 75
REMARK SMILES IDX 44 76 45 77 46 78 72 79 73 80 82 81 74 82 75 83 81 84 83 85
REMARK SMILES IDX 76 86 77 87 78 88 79 89 80 90 56 91 57 92 66 93 58 94 59 95
REMARK SMILES IDX 65 96 67 97 60 98 61 99 62 100 63 101 64 102
REMARK H PARENT 7 19 88 52 54 63
REMARK Flexibility Score: inf
ROOT
ATOM      1  C   UNL     1       2.453   6.203   3.160  1.00  0.00     0.188 C 
ENDROOT
BRANCH   1   2
ATOM      2  O   UNL     1       1.072   5.930   2.909  1.00  0.00    -0.377 OA
BRANCH   2   3
ATOM      3  C   UNL     1       0.662   4.569   2.949  1.00  0.00     0.188 C 
BRANCH   3   4
ATOM      4  C   UNL     1       1.460   3.536   2.127  1.00  0.00     0.188 C 
BRANCH   4   5
ATOM      5  O   UNL     1       2.770   3.942   1.770  1.00  0.00    -0.376 OA
BRANCH   5   6
ATOM      6  C   UNL     1       3.024   4.299   0.422  1.00  0.00     0.202 C 
BRANCH   6   7
ATOM      7  C   UNL     1       2.119   5.305  -0.324  1.00  0.00     0.261 C 
BRANCH   7   8
ATOM      8  O   UNL     1       0.815   5.493   0.240  1.00  0.00    -0.463 OA
BRANCH   8   9
ATOM      9  C   UNL     1      -0.280   5.159  -0.481  1.00  0.00     0.312 C 
ATOM     10  O   UNL     1      -0.246   4.706  -1.622  1.00  0.00    -0.252 OA
BRANCH   9  11
ATOM     11  C   UNL     1      -1.547   5.255   0.388  1.00  0.00     0.124 C 
ATOM     12  C   UNL     1      -2.811   3.413  -0.476  1.00  0.00     0.106 C 
ATOM     13  C   UNL     1      -3.528   4.696  -0.755  1.00  0.00    -0.006 C 
ATOM     14  C   UNL     1      -2.002   3.832   0.749  1.00  0.00     0.048 C 
ATOM     15  C   UNL     1      -2.780   5.730  -0.334  1.00  0.00    -0.014 C 
BRANCH  12  16
ATOM     16  N   UNL     1      -3.681   2.299  -0.257  1.00  0.00    -0.346 N 
ATOM     17  C   UNL     1      -3.413   0.949  -0.252  1.00  0.00     0.251 C 
ATOM     18  O   UNL     1      -4.393   0.200  -0.197  1.00  0.00    -0.269 OA
ATOM     19  H   UNL     1      -4.620   2.536  -0.082  1.00  0.00     0.164 HD
BRANCH  17  20
ATOM     20  C   UNL     1      -2.038   0.327  -0.257  1.00  0.00     0.040 A 
ATOM     21  C   UNL     1       1.708   1.027  -0.610  1.00  0.00     0.047 C 
ATOM     22  C   UNL     1       0.413   0.295  -0.425  1.00  0.00    -0.015 A 
ATOM     23  C   UNL     1      -0.822   0.962  -0.549  1.00  0.00     0.020 A 
ATOM     24  C   UNL     1       0.423  -1.044  -0.050  1.00  0.00     0.126 A 
ATOM     25  C   UNL     1      -0.763  -1.720   0.188  1.00  0.00     0.040 A 
ATOM     26  F   UNL     1       1.586  -1.696   0.081  1.00  0.00    -0.207 F 
ATOM     27  C   UNL     1      -1.980  -1.038   0.091  1.00  0.00     0.017 A 
ENDBRANCH  17  20
ENDBRANCH  12  16
ENDBRANCH   9  11
ENDBRANCH   8   9
ENDBRANCH   7   8
ENDBRANCH   6   7
ENDBRANCH   5   6
ENDBRANCH   4   5
ENDBRANCH   3   4
ENDBRANCH   2   3
ENDBRANCH   1   2
BRANCH   1  28
ATOM     28  C   UNL     1       3.198   5.423   4.269  1.00  0.00     0.188 C 
BRANCH  28  29
ATOM     29  O   UNL     1       2.432   4.363   4.828  1.00  0.00    -0.376 OA
BRANCH  29  30
ATOM     30  C   UNL     1       1.973   4.548   6.161  1.00  0.00     0.202 C 
BRANCH  30  31
ATOM     31  C   UNL     1       0.934   5.642   6.445  1.00  0.00     0.261 C 
BRANCH  31  32
ATOM     32  O   UNL     1       1.077   6.830   5.674  1.00  0.00    -0.460 OA
BRANCH  32  33
ATOM     33  C   UNL     1       2.044   7.633   6.098  1.00  0.00     0.338 C 
ATOM     34  O   UNL     1       2.773   7.491   7.107  1.00  0.00    -0.246 OA
BRANCH  33  35
ATOM     35  C   UNL     1       2.119   8.821   5.242  1.00  0.00     0.060 A 
ATOM     36  C   UNL     1       3.448   9.226   5.007  1.00  0.00     0.016 A 
ATOM     37  C   UNL     1       1.129   9.715   5.635  1.00  0.00     0.016 A 
ATOM     38  C   UNL     1       3.897  10.347   5.664  1.00  0.00     0.010 A 
ATOM     39  C   UNL     1       1.576  10.800   6.333  1.00  0.00     0.010 A 
ATOM     40  C   UNL     1       2.961  11.027   6.430  1.00  0.00    -0.014 A 
BRANCH  40  41
ATOM     41  C   UNL     1       3.333  11.991   7.428  1.00  0.00     0.031 A 
ATOM     42  C   UNL     1       3.361  13.397   7.018  1.00  0.00     0.074 A 
ATOM     43  C   UNL     1       3.436  11.581   8.710  1.00  0.00     0.049 A 
ATOM     44  N   UNL     1       3.951  14.332   7.669  1.00  0.00    -0.248 NA
ATOM     45  C   UNL     1       2.753  13.845   5.767  1.00  0.00     0.031 C 
ATOM     46  C   UNL     1       3.328  12.423   9.890  1.00  0.00     0.029 A 
ATOM     47  N   UNL     1       3.812  10.329   9.213  1.00  0.00    -0.354 N 
ATOM     48  C   UNL     1       3.535  15.523   7.119  1.00  0.00     0.074 A 
ATOM     49  C   UNL     1       2.871  15.169   5.887  1.00  0.00     0.031 C 
ATOM     50  C   UNL     1       3.883  11.778  10.926  1.00  0.00     0.029 A 
ATOM     51  C   UNL     1       4.517  10.578  10.400  1.00  0.00     0.049 A 
ATOM     52  H   UNL     1       3.621   9.450   8.814  1.00  0.00     0.167 HD
ATOM     53  C   UNL     1       3.654  16.661   7.856  1.00  0.00     0.037 A 
ATOM     54  C   UNL     1       5.824  10.253  10.612  1.00  0.00     0.037 A 
ATOM     55  C   UNL     1       4.301  16.376   9.134  1.00  0.00     0.049 A 
ATOM     56  C   UNL     1       6.699  11.454  10.874  1.00  0.00     0.074 A 
ATOM     57  C   UNL     1       3.783  16.048  10.377  1.00  0.00     0.029 A 
ATOM     58  N   UNL     1       5.643  16.014   9.159  1.00  0.00    -0.354 N 
ATOM     59  N   UNL     1       6.338  12.678  10.606  1.00  0.00    -0.248 NA
ATOM     60  C   UNL     1       8.053  11.378  11.414  1.00  0.00     0.031 C 
ATOM     61  C   UNL     1       4.806  15.416  11.126  1.00  0.00     0.029 A 
ATOM     62  C   UNL     1       5.951  15.377  10.348  1.00  0.00     0.049 A 
ATOM     63  H   UNL     1       6.284  16.187   8.432  1.00  0.00     0.167 HD
ATOM     64  C   UNL     1       7.373  13.531  10.871  1.00  0.00     0.074 A 
ATOM     65  C   UNL     1       8.414  12.674  11.407  1.00  0.00     0.031 C 
ATOM     66  C   UNL     1       7.292  14.866  10.594  1.00  0.00     0.037 A 
BRANCH  53  67
ATOM     67  C   UNL     1       2.887  17.922   7.550  1.00  0.00     0.058 A 
ATOM     68  C   UNL     1       2.397  18.731   8.597  1.00  0.00     0.135 A 
ATOM     69  C   UNL     1       2.564  18.369   6.252  1.00  0.00     0.135 A 
ATOM     70  F   UNL     1       2.673  18.462   9.880  1.00  0.00    -0.206 F 
ATOM     71  C   UNL     1       1.592  19.847   8.380  1.00  0.00     0.059 A 
ATOM     72  C   UNL     1       1.711  19.451   6.011  1.00  0.00     0.059 A 
ATOM     73  F   UNL     1       3.101  17.795   5.166  1.00  0.00    -0.206 F 
ATOM     74  C   UNL     1       1.233  20.188   7.085  1.00  0.00     0.060 A 
BRANCH  74  75
ATOM     75  S   UNL     1       0.168  21.619   6.836  1.00  0.00     0.124 S 
ATOM     76  O   UNL     1      -0.969  21.313   7.699  1.00  0.00    -0.237 OA
ATOM     77  O   UNL     1       1.026  22.713   7.279  1.00  0.00    -0.237 OA
ATOM     78  O   UNL     1      -0.116  21.586   5.404  1.00  0.00    -0.744 OA
ENDBRANCH  74  75
ENDBRANCH  53  67
BRANCH  54  79
ATOM     79  C   UNL     1       6.295   8.987  10.014  1.00  0.00     0.058 A 
ATOM     80  C   UNL     1       6.036   7.804  10.721  1.00  0.00     0.135 A 
ATOM     81  C   UNL     1       6.616   8.887   8.651  1.00  0.00     0.135 A 
ATOM     82  F   UNL     1       5.754   7.850  12.033  1.00  0.00    -0.206 F 
ATOM     83  C   UNL     1       5.952   6.581  10.074  1.00  0.00     0.059 A 
ATOM     84  C   UNL     1       6.519   7.672   7.976  1.00  0.00     0.059 A 
ATOM     85  F   UNL     1       6.863   9.993   7.934  1.00  0.00    -0.206 F 
ATOM     86  C   UNL     1       6.134   6.538   8.693  1.00  0.00     0.060 A 
BRANCH  86  87
ATOM     87  S   UNL     1       5.612   5.034   7.847  1.00  0.00     0.124 S 
ATOM     88  O   UNL     1       6.640   4.082   8.239  1.00  0.00    -0.237 OA
ATOM     89  O   UNL     1       4.299   4.807   8.450  1.00  0.00    -0.237 OA
ATOM     90  O   UNL     1       5.613   5.420   6.438  1.00  0.00    -0.744 OA
ENDBRANCH  86  87
ENDBRANCH  54  79
BRANCH  66  91
ATOM     91  C   UNL     1       8.454  15.825  10.608  1.00  0.00     0.058 A 
ATOM     92  C   UNL     1       9.778  15.452  10.321  1.00  0.00     0.135 A 
ATOM     93  C   UNL     1       8.233  17.212  10.784  1.00  0.00     0.135 A 
ATOM     94  F   UNL     1      10.095  14.189  10.001  1.00  0.00    -0.206 F 
ATOM     95  C   UNL     1      10.825  16.371  10.306  1.00  0.00     0.059 A 
ATOM     96  C   UNL     1       9.252  18.155  10.707  1.00  0.00     0.059 A 
ATOM     97  F   UNL     1       7.006  17.701  11.026  1.00  0.00    -0.206 F 
ATOM     98  C   UNL     1      10.553  17.721  10.507  1.00  0.00     0.060 A 
BRANCH  98  99
ATOM     99  S   UNL     1      11.898  18.916  10.461  1.00  0.00     0.124 S 
ATOM    100  O   UNL     1      12.327  18.919  11.856  1.00  0.00    -0.237 OA
ATOM    101  O   UNL     1      12.833  18.314   9.515  1.00  0.00    -0.237 OA
ATOM    102  O   UNL     1      11.245  20.135   9.996  1.00  0.00    -0.744 OA
ENDBRANCH  98  99
ENDBRANCH  66  91
ENDBRANCH  40  41
ENDBRANCH  33  35
ENDBRANCH  32  33
ENDBRANCH  31  32
ENDBRANCH  30  31
ENDBRANCH  29  30
ENDBRANCH  28  29
ENDBRANCH   1  28
TORSDOF 25
