REMARK SMILES COc1cnc(SCC(=O)OCCOCCOCCOCCOC(=O)c2ccc(-c3c4nc(c(-c5c(F)cc(S(=O)(=O)[O-])cc5F)c5ccc([nH]5)c(-c5c(F)cc(S(=O)(=O)[O-])cc5F)c5nc(c(-c6c(F)cc(S(=O)(=O)[O-])cc6F)c6ccc3[nH]6)C=C5)C=C4)cc2)[nH]c1=O
REMARK SMILES IDX 17 1 16 2 15 3 14 4 13 5 12 6 11 7 9 8 10 9 8 10 7 11 6 12
REMARK SMILES IDX 3 13 4 14 93 15 5 16 92 17 94 18 2 20 1 21 18 22 19 23 20 24
REMARK SMILES IDX 21 25 22 26 23 27 24 28 25 29 26 30 27 31 91 32 28 33 90 34
REMARK SMILES IDX 29 35 30 36 31 37 84 38 32 39 89 40 83 41 85 42 33 43 88 44
REMARK SMILES IDX 82 45 81 46 34 48 68 49 47 50 67 51 48 52 51 53 66 54 86 55
REMARK SMILES IDX 49 56 50 57 65 59 87 60 52 61 35 62 36 63 45 64 37 65 38 66
REMARK SMILES IDX 44 67 46 68 39 69 40 70 41 71 42 72 43 73 69 74 70 75 79 76
REMARK SMILES IDX 71 77 72 78 78 79 80 80 73 81 74 82 75 83 76 84 77 85 53 86
REMARK SMILES IDX 54 87 63 88 55 89 56 90 62 91 64 92 57 93 58 94 59 95 60 96
REMARK SMILES IDX 61 97
REMARK H PARENT 92 19 85 47 51 58
REMARK Flexibility Score: inf
ROOT
ATOM      1  O   UNL     1       1.525   3.832  -4.412  1.00  0.00    -0.377 OA
ENDROOT
BRANCH   1   2
ATOM      2  C   UNL     1       0.517   4.492  -3.682  1.00  0.00     0.188 C 
BRANCH   2   3
ATOM      3  C   UNL     1      -0.962   4.742  -4.025  1.00  0.00     0.188 C 
BRANCH   3   4
ATOM      4  O   UNL     1      -1.373   4.906  -5.357  1.00  0.00    -0.376 OA
BRANCH   4   5
ATOM      5  C   UNL     1      -0.949   5.973  -6.174  1.00  0.00     0.202 C 
BRANCH   5   6
ATOM      6  C   UNL     1      -0.182   7.227  -5.705  1.00  0.00     0.261 C 
BRANCH   6   7
ATOM      7  O   UNL     1       0.428   7.224  -4.400  1.00  0.00    -0.463 OA
BRANCH   7   8
ATOM      8  C   UNL     1      -0.172   7.968  -3.440  1.00  0.00     0.316 C 
ATOM      9  O   UNL     1      -1.180   8.640  -3.658  1.00  0.00    -0.251 OA
BRANCH   8  10
ATOM     10  C   UNL     1       0.411   7.920  -2.031  1.00  0.00     0.200 C 
BRANCH  10  11
ATOM     11  S   UNL     1       1.960   7.051  -1.659  1.00  0.00    -0.076 SA
BRANCH  11  12
ATOM     12  C   UNL     1       1.426   5.576  -0.880  1.00  0.00     0.168 A 
ATOM     13  C   UNL     1       0.773   3.055   0.035  1.00  0.00     0.202 A 
ATOM     14  C   UNL     1      -0.096   4.064  -0.142  1.00  0.00     0.166 A 
ATOM     15  C   UNL     1       2.213   3.419  -0.164  1.00  0.00     0.293 A 
ATOM     16  N   UNL     1       0.193   5.341  -0.575  1.00  0.00    -0.229 NA
ATOM     17  N   UNL     1       2.429   4.671  -0.685  1.00  0.00    -0.298 N 
ATOM     18  O   UNL     1       3.144   2.669   0.106  1.00  0.00    -0.265 OA
ATOM     19  H   UNL     1       3.348   4.928  -0.928  1.00  0.00     0.172 HD
BRANCH  13  20
ATOM     20  O   UNL     1       0.277   1.784   0.277  1.00  0.00    -0.490 OA
ATOM     21  C   UNL     1       1.168   0.690   0.459  1.00  0.00     0.278 C 
ENDBRANCH  13  20
ENDBRANCH  11  12
ENDBRANCH  10  11
ENDBRANCH   8  10
ENDBRANCH   7   8
ENDBRANCH   6   7
ENDBRANCH   5   6
ENDBRANCH   4   5
ENDBRANCH   3   4
ENDBRANCH   2   3
ENDBRANCH   1   2
BRANCH   1  22
ATOM     22  C   UNL     1       1.264   3.433  -5.731  1.00  0.00     0.188 C 
BRANCH  22  23
ATOM     23  C   UNL     1       0.280   2.268  -5.830  1.00  0.00     0.188 C 
BRANCH  23  24
ATOM     24  O   UNL     1      -0.453   2.055  -4.632  1.00  0.00    -0.376 OA
BRANCH  24  25
ATOM     25  C   UNL     1       0.029   1.094  -3.700  1.00  0.00     0.202 C 
BRANCH  25  26
ATOM     26  C   UNL     1       1.468   1.151  -3.156  1.00  0.00     0.261 C 
BRANCH  26  27
ATOM     27  O   UNL     1       2.532   1.256  -4.101  1.00  0.00    -0.460 OA
BRANCH  27  28
ATOM     28  C   UNL     1       2.730   0.226  -4.939  1.00  0.00     0.338 C 
ATOM     29  O   UNL     1       2.112  -0.825  -4.985  1.00  0.00    -0.246 OA
BRANCH  28  30
ATOM     30  C   UNL     1       3.693   0.711  -5.941  1.00  0.00     0.060 A 
ATOM     31  C   UNL     1       3.275   0.802  -7.272  1.00  0.00     0.016 A 
ATOM     32  C   UNL     1       4.965   1.148  -5.554  1.00  0.00     0.016 A 
ATOM     33  C   UNL     1       4.138   1.313  -8.232  1.00  0.00     0.010 A 
ATOM     34  C   UNL     1       5.844   1.629  -6.523  1.00  0.00     0.010 A 
ATOM     35  C   UNL     1       5.440   1.677  -7.867  1.00  0.00    -0.014 A 
BRANCH  35  36
ATOM     36  C   UNL     1       6.440   1.852  -8.940  1.00  0.00     0.031 A 
ATOM     37  C   UNL     1       7.264   0.653  -9.313  1.00  0.00     0.074 A 
ATOM     38  C   UNL     1       6.551   3.016  -9.602  1.00  0.00     0.049 A 
ATOM     39  N   UNL     1       8.191   0.533 -10.224  1.00  0.00    -0.248 NA
ATOM     40  C   UNL     1       7.000  -0.585  -8.556  1.00  0.00     0.031 C 
ATOM     41  C   UNL     1       5.753   4.214  -9.344  1.00  0.00     0.029 A 
ATOM     42  N   UNL     1       7.378   3.375 -10.633  1.00  0.00    -0.354 N 
ATOM     43  C   UNL     1       8.620  -0.787 -10.147  1.00  0.00     0.074 A 
ATOM     44  C   UNL     1       7.881  -1.420  -9.080  1.00  0.00     0.031 C 
ATOM     45  C   UNL     1       6.135   5.182 -10.196  1.00  0.00     0.029 A 
ATOM     46  C   UNL     1       7.224   4.681 -11.032  1.00  0.00     0.049 A 
ATOM     47  H   UNL     1       8.021   2.757 -11.048  1.00  0.00     0.167 HD
ATOM     48  C   UNL     1       9.544  -1.414 -10.911  1.00  0.00     0.037 A 
ATOM     49  C   UNL     1       7.906   5.386 -11.956  1.00  0.00     0.037 A 
ATOM     50  C   UNL     1      10.275  -0.757 -11.960  1.00  0.00     0.049 A 
ATOM     51  C   UNL     1       8.991   4.689 -12.737  1.00  0.00     0.074 A 
ATOM     52  C   UNL     1      11.238  -1.285 -12.799  1.00  0.00     0.029 A 
ATOM     53  N   UNL     1      10.128   0.580 -12.306  1.00  0.00    -0.354 N 
ATOM     54  N   UNL     1       9.382   3.436 -12.669  1.00  0.00    -0.248 NA
ATOM     55  C   UNL     1       9.724   5.494 -13.722  1.00  0.00     0.031 C 
ATOM     56  C   UNL     1      11.718  -0.252 -13.611  1.00  0.00     0.029 A 
ATOM     57  C   UNL     1      11.004   0.903 -13.327  1.00  0.00     0.049 A 
ATOM     58  H   UNL     1       9.494   1.205 -11.886  1.00  0.00     0.167 HD
ATOM     59  C   UNL     1      10.385   3.296 -13.623  1.00  0.00     0.074 A 
ATOM     60  C   UNL     1      10.530   4.590 -14.261  1.00  0.00     0.031 C 
ATOM     61  C   UNL     1      11.119   2.201 -13.946  1.00  0.00     0.037 A 
BRANCH  48  62
ATOM     62  C   UNL     1       9.838  -2.857 -10.604  1.00  0.00     0.058 A 
ATOM     63  C   UNL     1       8.905  -3.877 -10.851  1.00  0.00     0.135 A 
ATOM     64  C   UNL     1      11.079  -3.226 -10.061  1.00  0.00     0.135 A 
ATOM     65  F   UNL     1       7.691  -3.579 -11.344  1.00  0.00    -0.206 F 
ATOM     66  C   UNL     1       9.181  -5.206 -10.547  1.00  0.00     0.059 A 
ATOM     67  C   UNL     1      11.390  -4.553  -9.779  1.00  0.00     0.059 A 
ATOM     68  F   UNL     1      12.005  -2.292  -9.793  1.00  0.00    -0.206 F 
ATOM     69  C   UNL     1      10.429  -5.535 -10.013  1.00  0.00     0.060 A 
BRANCH  69  70
ATOM     70  S   UNL     1      10.776  -7.265  -9.635  1.00  0.00     0.124 S 
ATOM     71  O   UNL     1       9.909  -7.492  -8.483  1.00  0.00    -0.237 OA
ATOM     72  O   UNL     1      10.380  -7.937 -10.869  1.00  0.00    -0.237 OA
ATOM     73  O   UNL     1      12.208  -7.272  -9.352  1.00  0.00    -0.744 OA
ENDBRANCH  69  70
ENDBRANCH  48  62
BRANCH  49  74
ATOM     74  C   UNL     1       7.593   6.824 -12.181  1.00  0.00     0.058 A 
ATOM     75  C   UNL     1       7.037   7.270 -13.389  1.00  0.00     0.135 A 
ATOM     76  C   UNL     1       7.842   7.784 -11.186  1.00  0.00     0.135 A 
ATOM     77  F   UNL     1       6.788   6.395 -14.376  1.00  0.00    -0.206 F 
ATOM     78  C   UNL     1       6.752   8.614 -13.610  1.00  0.00     0.059 A 
ATOM     79  C   UNL     1       7.539   9.129 -11.372  1.00  0.00     0.059 A 
ATOM     80  F   UNL     1       8.364   7.412 -10.007  1.00  0.00    -0.206 F 
ATOM     81  C   UNL     1       7.003   9.536 -12.592  1.00  0.00     0.060 A 
BRANCH  81  82
ATOM     82  S   UNL     1       6.583  11.271 -12.871  1.00  0.00     0.124 S 
ATOM     83  O   UNL     1       7.590  11.663 -13.850  1.00  0.00    -0.237 OA
ATOM     84  O   UNL     1       5.213  11.175 -13.366  1.00  0.00    -0.237 OA
ATOM     85  O   UNL     1       6.723  11.868 -11.547  1.00  0.00    -0.744 OA
ENDBRANCH  81  82
ENDBRANCH  49  74
BRANCH  61  86
ATOM     86  C   UNL     1      12.114   2.342 -15.066  1.00  0.00     0.058 A 
ATOM     87  C   UNL     1      13.296   3.083 -14.919  1.00  0.00     0.135 A 
ATOM     88  C   UNL     1      11.906   1.671 -16.283  1.00  0.00     0.135 A 
ATOM     89  F   UNL     1      13.541   3.747 -13.778  1.00  0.00    -0.206 F 
ATOM     90  C   UNL     1      14.225   3.177 -15.949  1.00  0.00     0.059 A 
ATOM     91  C   UNL     1      12.838   1.723 -17.313  1.00  0.00     0.059 A 
ATOM     92  F   UNL     1      10.797   0.937 -16.470  1.00  0.00    -0.206 F 
ATOM     93  C   UNL     1      13.989   2.489 -17.141  1.00  0.00     0.060 A 
BRANCH  93  94
ATOM     94  S   UNL     1      15.220   2.592 -18.456  1.00  0.00     0.124 S 
ATOM     95  O   UNL     1      15.042   3.965 -18.918  1.00  0.00    -0.237 OA
ATOM     96  O   UNL     1      16.462   2.320 -17.741  1.00  0.00    -0.237 OA
ATOM     97  O   UNL     1      14.803   1.555 -19.395  1.00  0.00    -0.744 OA
ENDBRANCH  93  94
ENDBRANCH  61  86
ENDBRANCH  35  36
ENDBRANCH  28  30
ENDBRANCH  27  28
ENDBRANCH  26  27
ENDBRANCH  25  26
ENDBRANCH  24  25
ENDBRANCH  23  24
ENDBRANCH  22  23
ENDBRANCH   1  22
TORSDOF 26
