REMARK SMILES C[C@@H](C(=O)OCCOCCOCCOCCOC(=O)c1ccc(-c2c3nc(c(-c4c(F)cc(S(=O)(=O)[O-])cc4F)c4ccc([nH]4)c(-c4c(F)cc(S(=O)(=O)[O-])cc4F)c4nc(c(-c5c(F)cc(S(=O)(=O)[O-])cc5F)c5ccc2[nH]5)C=C4)C=C3)cc1)c1ccc(=O)n(C(F)F)c1
REMARK SMILES IDX 12 1 11 2 10 3 9 4 8 5 7 6 6 7 5 8 3 9 4 10 2 11 1 12 86 13
REMARK SMILES IDX 87 14 95 15 88 16 91 17 89 18 90 19 92 20 93 21 94 22 13 23
REMARK SMILES IDX 14 24 15 25 16 26 17 27 18 28 19 29 20 30 21 31 85 32 22 33
REMARK SMILES IDX 84 34 23 35 24 36 25 37 78 38 26 39 83 40 77 41 79 42 27 43
REMARK SMILES IDX 82 44 76 45 75 46 28 48 62 49 41 50 61 51 42 52 45 53 60 54
REMARK SMILES IDX 80 55 43 56 44 57 59 59 81 60 46 61 29 62 30 63 39 64 31 65
REMARK SMILES IDX 32 66 38 67 40 68 33 69 34 70 35 71 36 72 37 73 63 74 64 75
REMARK SMILES IDX 73 76 65 77 66 78 72 79 74 80 67 81 68 82 69 83 70 84 71 85
REMARK SMILES IDX 47 86 48 87 57 88 49 89 50 90 56 91 58 92 51 93 52 94 53 95
REMARK SMILES IDX 54 96 55 97
REMARK H PARENT 79 47 45 58
REMARK Flexibility Score: inf
ROOT
ATOM      1  C   UNL     1       2.942  -2.516  -3.233  1.00  0.00     0.188 C 
ENDROOT
BRANCH   1   2
ATOM      2  O   UNL     1       2.397  -1.319  -2.699  1.00  0.00    -0.377 OA
BRANCH   2   3
ATOM      3  C   UNL     1       1.015  -1.325  -2.414  1.00  0.00     0.188 C 
BRANCH   3   4
ATOM      4  C   UNL     1       0.122  -0.720  -3.515  1.00  0.00     0.188 C 
BRANCH   4   5
ATOM      5  O   UNL     1       0.667  -0.362  -4.776  1.00  0.00    -0.376 OA
BRANCH   5   6
ATOM      6  C   UNL     1       1.923   0.296  -4.856  1.00  0.00     0.202 C 
BRANCH   6   7
ATOM      7  C   UNL     1       2.307   1.451  -3.909  1.00  0.00     0.261 C 
BRANCH   7   8
ATOM      8  O   UNL     1       1.875   1.339  -2.540  1.00  0.00    -0.463 OA
BRANCH   8   9
ATOM      9  C   UNL     1       0.908   2.195  -2.136  1.00  0.00     0.313 C 
ATOM     10  O   UNL     1       0.426   3.069  -2.852  1.00  0.00    -0.252 OA
BRANCH   9  11
ATOM     11  C   UNL     1       0.413   1.962  -0.690  1.00  0.00     0.127 C 
ATOM     12  C   UNL     1       1.224   1.039   0.229  1.00  0.00     0.025 C 
BRANCH  11  13
ATOM     13  C   UNL     1      -1.100   1.724  -0.754  1.00  0.00    -0.017 A 
ATOM     14  C   UNL     1      -1.707   0.403  -0.710  1.00  0.00     0.012 A 
ATOM     15  C   UNL     1      -1.916   2.774  -0.960  1.00  0.00     0.099 A 
ATOM     16  C   UNL     1      -3.017   0.231  -0.938  1.00  0.00     0.072 A 
ATOM     17  N   UNL     1      -3.272   2.629  -1.178  1.00  0.00    -0.258 N 
ATOM     18  C   UNL     1      -3.900   1.398  -1.204  1.00  0.00     0.254 A 
ATOM     19  O   UNL     1      -5.092   1.200  -1.414  1.00  0.00    -0.269 OA
BRANCH  17  20
ATOM     20  C   UNL     1      -4.077   3.788  -1.455  1.00  0.00     0.451 C 
ATOM     21  F   UNL     1      -4.649   3.711  -2.682  1.00  0.00    -0.185 F 
ATOM     22  F   UNL     1      -5.068   3.920  -0.539  1.00  0.00    -0.185 F 
ENDBRANCH  17  20
ENDBRANCH  11  13
ENDBRANCH   9  11
ENDBRANCH   8   9
ENDBRANCH   7   8
ENDBRANCH   6   7
ENDBRANCH   5   6
ENDBRANCH   4   5
ENDBRANCH   3   4
ENDBRANCH   2   3
ENDBRANCH   1   2
BRANCH   1  23
ATOM     23  C   UNL     1       2.076  -3.324  -4.218  1.00  0.00     0.188 C 
BRANCH  23  24
ATOM     24  O   UNL     1       0.763  -3.606  -3.741  1.00  0.00    -0.376 OA
BRANCH  24  25
ATOM     25  C   UNL     1       0.510  -4.876  -3.159  1.00  0.00     0.202 C 
BRANCH  25  26
ATOM     26  C   UNL     1       1.160  -5.174  -1.797  1.00  0.00     0.261 C 
BRANCH  26  27
ATOM     27  O   UNL     1       2.593  -5.118  -1.743  1.00  0.00    -0.460 OA
BRANCH  27  28
ATOM     28  C   UNL     1       3.285  -5.923  -2.577  1.00  0.00     0.338 C 
ATOM     29  O   UNL     1       2.823  -6.757  -3.339  1.00  0.00    -0.246 OA
BRANCH  28  30
ATOM     30  C   UNL     1       4.695  -5.479  -2.570  1.00  0.00     0.060 A 
ATOM     31  C   UNL     1       5.280  -5.071  -3.776  1.00  0.00     0.016 A 
ATOM     32  C   UNL     1       5.432  -5.453  -1.383  1.00  0.00     0.016 A 
ATOM     33  C   UNL     1       6.617  -4.672  -3.805  1.00  0.00     0.010 A 
ATOM     34  C   UNL     1       6.778  -5.078  -1.419  1.00  0.00     0.010 A 
ATOM     35  C   UNL     1       7.385  -4.721  -2.636  1.00  0.00    -0.014 A 
BRANCH  35  36
ATOM     36  C   UNL     1       8.861  -4.601  -2.723  1.00  0.00     0.031 A 
ATOM     37  C   UNL     1       9.677  -5.866  -2.739  1.00  0.00     0.074 A 
ATOM     38  C   UNL     1       9.466  -3.403  -2.812  1.00  0.00     0.049 A 
ATOM     39  N   UNL     1      10.974  -6.016  -2.745  1.00  0.00    -0.248 NA
ATOM     40  C   UNL     1       8.924  -7.132  -2.748  1.00  0.00     0.031 C 
ATOM     41  C   UNL     1       8.783  -2.111  -2.851  1.00  0.00     0.029 A 
ATOM     42  N   UNL     1      10.800  -3.081  -2.874  1.00  0.00    -0.354 N 
ATOM     43  C   UNL     1      11.194  -7.389  -2.747  1.00  0.00     0.074 A 
ATOM     44  C   UNL     1       9.898  -8.028  -2.716  1.00  0.00     0.031 C 
ATOM     45  C   UNL     1       9.704  -1.134  -2.910  1.00  0.00     0.029 A 
ATOM     46  C   UNL     1      11.041  -1.728  -2.878  1.00  0.00     0.049 A 
ATOM     47  H   UNL     1      11.516  -3.756  -2.912  1.00  0.00     0.167 HD
ATOM     48  C   UNL     1      12.372  -8.054  -2.779  1.00  0.00     0.037 A 
ATOM     49  C   UNL     1      12.205  -1.048  -2.830  1.00  0.00     0.037 A 
ATOM     50  C   UNL     1      13.659  -7.410  -2.816  1.00  0.00     0.049 A 
ATOM     51  C   UNL     1      13.506  -1.809  -2.809  1.00  0.00     0.074 A 
ATOM     52  C   UNL     1      14.910  -7.999  -2.866  1.00  0.00     0.029 A 
ATOM     53  N   UNL     1      13.862  -6.039  -2.799  1.00  0.00    -0.354 N 
ATOM     54  N   UNL     1      13.702  -3.107  -2.816  1.00  0.00    -0.248 NA
ATOM     55  C   UNL     1      14.744  -1.017  -2.779  1.00  0.00     0.031 C 
ATOM     56  C   UNL     1      15.871  -6.985  -2.820  1.00  0.00     0.029 A 
ATOM     57  C   UNL     1      15.219  -5.762  -2.813  1.00  0.00     0.049 A 
ATOM     58  H   UNL     1      13.147  -5.362  -2.781  1.00  0.00     0.167 HD
ATOM     59  C   UNL     1      15.083  -3.285  -2.818  1.00  0.00     0.074 A 
ATOM     60  C   UNL     1      15.672  -1.963  -2.822  1.00  0.00     0.031 C 
ATOM     61  C   UNL     1      15.796  -4.440  -2.820  1.00  0.00     0.037 A 
BRANCH  48  62
ATOM     62  C   UNL     1      12.333  -9.557  -2.752  1.00  0.00     0.058 A 
ATOM     63  C   UNL     1      11.908 -10.308  -3.859  1.00  0.00     0.135 A 
ATOM     64  C   UNL     1      12.796 -10.255  -1.625  1.00  0.00     0.135 A 
ATOM     65  F   UNL     1      11.431  -9.692  -4.952  1.00  0.00    -0.206 F 
ATOM     66  C   UNL     1      11.939 -11.699  -3.848  1.00  0.00     0.059 A 
ATOM     67  C   UNL     1      12.863 -11.645  -1.602  1.00  0.00     0.059 A 
ATOM     68  F   UNL     1      13.203  -9.585  -0.535  1.00  0.00    -0.206 F 
ATOM     69  C   UNL     1      12.429 -12.358  -2.718  1.00  0.00     0.060 A 
BRANCH  69  70
ATOM     70  S   UNL     1      12.510 -14.161  -2.741  1.00  0.00     0.124 S 
ATOM     71  O   UNL     1      11.095 -14.518  -2.694  1.00  0.00    -0.237 OA
ATOM     72  O   UNL     1      13.188 -14.423  -4.006  1.00  0.00    -0.237 OA
ATOM     73  O   UNL     1      13.277 -14.483  -1.542  1.00  0.00    -0.744 OA
ENDBRANCH  69  70
ENDBRANCH  48  62
BRANCH  49  74
ATOM     74  C   UNL     1      12.187   0.440  -2.778  1.00  0.00     0.058 A 
ATOM     75  C   UNL     1      12.629   1.215  -3.860  1.00  0.00     0.135 A 
ATOM     76  C   UNL     1      11.700   1.116  -1.647  1.00  0.00     0.135 A 
ATOM     77  F   UNL     1      13.119   0.618  -4.957  1.00  0.00    -0.206 F 
ATOM     78  C   UNL     1      12.586   2.605  -3.827  1.00  0.00     0.059 A 
ATOM     79  C   UNL     1      11.622   2.504  -1.600  1.00  0.00     0.059 A 
ATOM     80  F   UNL     1      11.261   0.421  -0.586  1.00  0.00    -0.206 F 
ATOM     81  C   UNL     1      12.069   3.241  -2.696  1.00  0.00     0.060 A 
BRANCH  81  82
ATOM     82  S   UNL     1      11.935   5.042  -2.699  1.00  0.00     0.124 S 
ATOM     83  O   UNL     1      13.334   5.443  -2.610  1.00  0.00    -0.237 OA
ATOM     84  O   UNL     1      11.277   5.294  -3.977  1.00  0.00    -0.237 OA
ATOM     85  O   UNL     1      11.122   5.320  -1.519  1.00  0.00    -0.744 OA
ENDBRANCH  81  82
ENDBRANCH  49  74
BRANCH  61  86
ATOM     86  C   UNL     1      17.297  -4.339  -2.866  1.00  0.00     0.058 A 
ATOM     87  C   UNL     1      18.046  -3.898  -1.764  1.00  0.00     0.135 A 
ATOM     88  C   UNL     1      18.001  -4.758  -4.008  1.00  0.00     0.135 A 
ATOM     89  F   UNL     1      17.426  -3.485  -0.647  1.00  0.00    -0.206 F 
ATOM     90  C   UNL     1      19.436  -3.852  -1.801  1.00  0.00     0.059 A 
ATOM     91  C   UNL     1      19.391  -4.751  -4.056  1.00  0.00     0.059 A 
ATOM     92  F   UNL     1      17.336  -5.202  -5.087  1.00  0.00    -0.206 F 
ATOM     93  C   UNL     1      20.100  -4.285  -2.951  1.00  0.00     0.060 A 
BRANCH  93  94
ATOM     94  S   UNL     1      21.905  -4.249  -2.972  1.00  0.00     0.124 S 
ATOM     95  O   UNL     1      22.170  -2.816  -3.047  1.00  0.00    -0.237 OA
ATOM     96  O   UNL     1      22.244  -4.891  -1.706  1.00  0.00    -0.237 OA
ATOM     97  O   UNL     1      22.247  -5.013  -4.168  1.00  0.00    -0.744 OA
ENDBRANCH  93  94
ENDBRANCH  61  86
ENDBRANCH  35  36
ENDBRANCH  28  30
ENDBRANCH  27  28
ENDBRANCH  26  27
ENDBRANCH  25  26
ENDBRANCH  24  25
ENDBRANCH  23  24
ENDBRANCH   1  23
TORSDOF 25
