REMARK SMILES COc1ccccc1C[N@@H+](C)[C@@H](C)c1ccc(C(=O)OCCOCCOCCOCCOC(=O)c2ccc(-c3c4nc(c(-c5c(F)cc(S(=O)(=O)[O-])cc5F)c5ccc([nH]5)c(-c5c(F)cc(S(=O)(=O)[O-])cc5F)c5nc(c(-c6c(F)cc(S(=O)(=O)[O-])cc6F)c6ccc3[nH]6)C=C5)C=C4)cc2)o1
REMARK SMILES IDX 25 1 24 2 23 3 22 4 21 5 20 6 18 7 19 8 17 9 14 10 15 11
REMARK SMILES IDX 101 12 16 13 12 14 13 15 10 16 11 17 9 19 8 20 3 21 4 22
REMARK SMILES IDX 5 23 7 24 6 25 2 26 1 27 26 28 27 29 28 30 29 31 30 32 31 33
REMARK SMILES IDX 32 34 33 35 34 36 35 37 36 38 100 39 37 40 99 41 38 42 39 43
REMARK SMILES IDX 40 44 93 45 41 46 98 47 92 48 94 49 42 50 97 51 91 52 90 53
REMARK SMILES IDX 43 55 77 56 56 57 76 58 57 59 60 60 75 61 95 62 58 63 59 64
REMARK SMILES IDX 74 66 96 67 61 68 44 69 45 70 54 71 46 72 47 73 53 74 55 75
REMARK SMILES IDX 48 76 49 77 50 78 51 79 52 80 78 81 79 82 88 83 80 84 81 85
REMARK SMILES IDX 87 86 89 87 82 88 83 89 84 90 85 91 86 92 62 93 63 94 72 95
REMARK SMILES IDX 64 96 65 97 71 98 73 99 66 100 67 101 68 102 69 103 70 104
REMARK H PARENT 10 18 94 54 60 65
REMARK Flexibility Score: inf
ROOT
ATOM      1  C   UNL     1      -1.488  -0.340  -5.487  1.00  0.00     0.188 C 
ENDROOT
BRANCH   1   2
ATOM      2  C   UNL     1      -1.046   1.013  -6.055  1.00  0.00     0.188 C 
BRANCH   2   3
ATOM      3  O   UNL     1      -1.377   1.114  -7.439  1.00  0.00    -0.376 OA
BRANCH   3   4
ATOM      4  C   UNL     1      -0.228   1.081  -8.285  1.00  0.00     0.202 C 
BRANCH   4   5
ATOM      5  C   UNL     1       0.417  -0.307  -8.418  1.00  0.00     0.261 C 
BRANCH   5   6
ATOM      6  O   UNL     1       0.842  -0.930  -7.183  1.00  0.00    -0.457 OA
BRANCH   6   7
ATOM      7  C   UNL     1       2.046  -0.635  -6.601  1.00  0.00     0.374 C 
ATOM      8  O   UNL     1       2.797   0.241  -7.010  1.00  0.00    -0.242 OA
BRANCH   7   9
ATOM      9  C   UNL     1       2.220  -1.505  -5.440  1.00  0.00     0.212 A 
ATOM     10  C   UNL     1       3.047  -2.227  -3.487  1.00  0.00     0.162 A 
ATOM     11  C   UNL     1       2.002  -3.067  -3.838  1.00  0.00     0.053 A 
ATOM     12  O   UNL     1       3.220  -1.296  -4.497  1.00  0.00    -0.448 OA
ATOM     13  C   UNL     1       1.486  -2.617  -5.066  1.00  0.00     0.059 A 
BRANCH  10  14
ATOM     14  C   UNL     1       4.009  -2.330  -2.290  1.00  0.00     0.248 C 
ATOM     15  C   UNL     1       3.300  -3.026  -1.107  1.00  0.00     0.084 C 
BRANCH  14  16
ATOM     16  N   UNL     1       4.799  -1.125  -1.893  1.00  0.00    -0.325 N 
ATOM     17  C   UNL     1       6.090  -1.519  -1.320  1.00  0.00     0.333 C 
ATOM     18  H   UNL     1       4.904  -0.611  -2.767  1.00  0.00     0.348 HD
BRANCH  16  19
ATOM     19  C   UNL     1       4.140  -0.201  -0.938  1.00  0.00     0.303 C 
BRANCH  19  20
ATOM     20  C   UNL     1       2.995   0.513  -1.587  1.00  0.00     0.048 A 
ATOM     21  C   UNL     1       1.670   0.262  -1.227  1.00  0.00     0.127 A 
ATOM     22  C   UNL     1       0.647   0.592  -2.100  1.00  0.00     0.047 A 
ATOM     23  C   UNL     1       0.942   1.311  -3.253  1.00  0.00     0.004 A 
ATOM     24  C   UNL     1       3.273   1.302  -2.716  1.00  0.00     0.013 A 
ATOM     25  C   UNL     1       2.245   1.688  -3.560  1.00  0.00     0.001 A 
BRANCH  21  26
ATOM     26  O   UNL     1       1.360  -0.385  -0.062  1.00  0.00    -0.496 OA
ATOM     27  C   UNL     1       0.918   0.568   0.910  1.00  0.00     0.278 C 
ENDBRANCH  21  26
ENDBRANCH  19  20
ENDBRANCH  16  19
ENDBRANCH  14  16
ENDBRANCH  10  14
ENDBRANCH   7   9
ENDBRANCH   6   7
ENDBRANCH   5   6
ENDBRANCH   4   5
ENDBRANCH   3   4
ENDBRANCH   2   3
ENDBRANCH   1   2
BRANCH   1  28
ATOM     28  O   UNL     1      -2.834  -0.409  -5.042  1.00  0.00    -0.377 OA
BRANCH  28  29
ATOM     29  C   UNL     1      -3.777   0.218  -5.885  1.00  0.00     0.188 C 
BRANCH  29  30
ATOM     30  C   UNL     1      -4.233   1.613  -5.406  1.00  0.00     0.188 C 
BRANCH  30  31
ATOM     31  O   UNL     1      -3.709   2.212  -4.223  1.00  0.00    -0.376 OA
BRANCH  31  32
ATOM     32  C   UNL     1      -3.449   1.442  -3.057  1.00  0.00     0.202 C 
BRANCH  32  33
ATOM     33  C   UNL     1      -4.580   0.649  -2.391  1.00  0.00     0.261 C 
BRANCH  33  34
ATOM     34  O   UNL     1      -5.217  -0.302  -3.250  1.00  0.00    -0.460 OA
BRANCH  34  35
ATOM     35  C   UNL     1      -6.469   0.015  -3.655  1.00  0.00     0.338 C 
ATOM     36  O   UNL     1      -7.129   0.991  -3.333  1.00  0.00    -0.246 OA
BRANCH  35  37
ATOM     37  C   UNL     1      -6.844  -0.902  -4.746  1.00  0.00     0.060 A 
ATOM     38  C   UNL     1      -7.205  -0.341  -5.982  1.00  0.00     0.016 A 
ATOM     39  C   UNL     1      -6.767  -2.288  -4.585  1.00  0.00     0.016 A 
ATOM     40  C   UNL     1      -7.477  -1.166  -7.068  1.00  0.00     0.010 A 
ATOM     41  C   UNL     1      -7.106  -3.115  -5.656  1.00  0.00     0.010 A 
ATOM     42  C   UNL     1      -7.486  -2.554  -6.888  1.00  0.00    -0.014 A 
BRANCH  42  43
ATOM     43  C   UNL     1      -8.203  -3.396  -7.869  1.00  0.00     0.031 A 
ATOM     44  C   UNL     1      -9.690  -3.516  -7.689  1.00  0.00     0.074 A 
ATOM     45  C   UNL     1      -7.564  -4.039  -8.860  1.00  0.00     0.049 A 
ATOM     46  N   UNL     1     -10.548  -4.260  -8.331  1.00  0.00    -0.248 NA
ATOM     47  C   UNL     1     -10.290  -2.680  -6.632  1.00  0.00     0.031 C 
ATOM     48  C   UNL     1      -6.135  -3.942  -9.154  1.00  0.00     0.029 A 
ATOM     49  N   UNL     1      -8.043  -4.920  -9.795  1.00  0.00    -0.354 N 
ATOM     50  C   UNL     1     -11.782  -3.985  -7.755  1.00  0.00     0.074 A 
ATOM     51  C   UNL     1     -11.566  -3.019  -6.705  1.00  0.00     0.031 C 
ATOM     52  C   UNL     1      -5.848  -4.758 -10.186  1.00  0.00     0.029 A 
ATOM     53  C   UNL     1      -7.065  -5.457 -10.597  1.00  0.00     0.049 A 
ATOM     54  H   UNL     1      -8.997  -5.145  -9.884  1.00  0.00     0.167 HD
ATOM     55  C   UNL     1     -12.991  -4.499  -8.071  1.00  0.00     0.037 A 
ATOM     56  C   UNL     1      -7.151  -6.428 -11.530  1.00  0.00     0.037 A 
ATOM     57  C   UNL     1     -13.185  -5.490  -9.091  1.00  0.00     0.049 A 
ATOM     58  C   UNL     1      -8.496  -7.054 -11.808  1.00  0.00     0.074 A 
ATOM     59  C   UNL     1     -14.358  -6.105  -9.481  1.00  0.00     0.029 A 
ATOM     60  N   UNL     1     -12.168  -6.021  -9.871  1.00  0.00    -0.354 N 
ATOM     61  N   UNL     1      -9.660  -6.785 -11.263  1.00  0.00    -0.248 NA
ATOM     62  C   UNL     1      -8.542  -8.118 -12.821  1.00  0.00     0.031 C 
ATOM     63  C   UNL     1     -14.044  -7.042 -10.470  1.00  0.00     0.029 A 
ATOM     64  C   UNL     1     -12.684  -6.969 -10.734  1.00  0.00     0.049 A 
ATOM     65  H   UNL     1     -11.220  -5.760  -9.819  1.00  0.00     0.167 HD
ATOM     66  C   UNL     1     -10.580  -7.615 -11.894  1.00  0.00     0.074 A 
ATOM     67  C   UNL     1      -9.837  -8.402 -12.857  1.00  0.00     0.031 C 
ATOM     68  C   UNL     1     -11.919  -7.715 -11.702  1.00  0.00     0.037 A 
BRANCH  55  69
ATOM     69  C   UNL     1     -14.167  -4.030  -7.266  1.00  0.00     0.058 A 
ATOM     70  C   UNL     1     -14.684  -2.732  -7.403  1.00  0.00     0.135 A 
ATOM     71  C   UNL     1     -14.774  -4.884  -6.332  1.00  0.00     0.135 A 
ATOM     72  F   UNL     1     -14.118  -1.865  -8.258  1.00  0.00    -0.206 F 
ATOM     73  C   UNL     1     -15.746  -2.288  -6.623  1.00  0.00     0.059 A 
ATOM     74  C   UNL     1     -15.854  -4.470  -5.560  1.00  0.00     0.059 A 
ATOM     75  F   UNL     1     -14.307  -6.129  -6.151  1.00  0.00    -0.206 F 
ATOM     76  C   UNL     1     -16.324  -3.164  -5.703  1.00  0.00     0.060 A 
BRANCH  76  77
ATOM     77  S   UNL     1     -17.700  -2.574  -4.696  1.00  0.00     0.124 S 
ATOM     78  O   UNL     1     -17.016  -1.691  -3.756  1.00  0.00    -0.237 OA
ATOM     79  O   UNL     1     -18.549  -1.914  -5.683  1.00  0.00    -0.237 OA
ATOM     80  O   UNL     1     -18.249  -3.798  -4.121  1.00  0.00    -0.744 OA
ENDBRANCH  76  77
ENDBRANCH  55  69
BRANCH  56  81
ATOM     81  C   UNL     1      -5.932  -6.880 -12.255  1.00  0.00     0.058 A 
ATOM     82  C   UNL     1      -5.761  -6.614 -13.622  1.00  0.00     0.135 A 
ATOM     83  C   UNL     1      -4.914  -7.588 -11.598  1.00  0.00     0.135 A 
ATOM     84  F   UNL     1      -6.711  -5.952 -14.300  1.00  0.00    -0.206 F 
ATOM     85  C   UNL     1      -4.632  -7.042 -14.314  1.00  0.00     0.059 A 
ATOM     86  C   UNL     1      -3.764  -8.006 -12.262  1.00  0.00     0.059 A 
ATOM     87  F   UNL     1      -5.023  -7.864 -10.289  1.00  0.00    -0.206 F 
ATOM     88  C   UNL     1      -3.636  -7.735 -13.624  1.00  0.00     0.060 A 
BRANCH  88  89
ATOM     89  S   UNL     1      -2.150  -8.239 -14.519  1.00  0.00     0.124 S 
ATOM     90  O   UNL     1      -2.658  -9.333 -15.339  1.00  0.00    -0.237 OA
ATOM     91  O   UNL     1      -1.794  -7.017 -15.233  1.00  0.00    -0.237 OA
ATOM     92  O   UNL     1      -1.230  -8.623 -13.453  1.00  0.00    -0.744 OA
ENDBRANCH  88  89
ENDBRANCH  56  81
BRANCH  68  93
ATOM     93  C   UNL     1     -12.688  -8.656 -12.586  1.00  0.00     0.058 A 
ATOM     94  C   UNL     1     -12.659 -10.044 -12.393  1.00  0.00     0.135 A 
ATOM     95  C   UNL     1     -13.557  -8.143 -13.564  1.00  0.00     0.135 A 
ATOM     96  F   UNL     1     -11.843 -10.582 -11.473  1.00  0.00    -0.206 F 
ATOM     97  C   UNL     1     -13.464 -10.895 -13.143  1.00  0.00     0.059 A 
ATOM     98  C   UNL     1     -14.388  -8.973 -14.307  1.00  0.00     0.059 A 
ATOM     99  F   UNL     1     -13.629  -6.819 -13.777  1.00  0.00    -0.206 F 
ATOM    100  C   UNL     1     -14.332 -10.348 -14.092  1.00  0.00     0.060 A 
BRANCH 100 101
ATOM    101  S   UNL     1     -15.426 -11.457 -15.005  1.00  0.00     0.124 S 
ATOM    102  O   UNL     1     -14.495 -12.091 -15.932  1.00  0.00    -0.237 OA
ATOM    103  O   UNL     1     -15.953 -12.316 -13.949  1.00  0.00    -0.237 OA
ATOM    104  O   UNL     1     -16.398 -10.552 -15.611  1.00  0.00    -0.744 OA
ENDBRANCH 100 101
ENDBRANCH  68  93
ENDBRANCH  42  43
ENDBRANCH  35  37
ENDBRANCH  34  35
ENDBRANCH  33  34
ENDBRANCH  32  33
ENDBRANCH  31  32
ENDBRANCH  30  31
ENDBRANCH  29  30
ENDBRANCH  28  29
ENDBRANCH   1  28
TORSDOF 28
