REMARK SMILES C[C@H]1[C@H](C(=O)OCCOCCOCCOCCOC(=O)c2ccc(-c3c4nc(c(-c5c(F)cc(S(=O)(=O)[O-])cc5F)c5ccc([nH]5)c(-c5c(F)cc(S(=O)(=O)[O-])cc5F)c5nc(c(-c6c(F)cc(S(=O)(=O)[O-])cc6F)c6ccc3[nH]6)C=C5)C=C4)cc2)CCN1C(=O)Nc1ccc(F)c(Cl)c1
REMARK SMILES IDX 13 1 12 2 11 3 10 4 9 5 8 6 7 7 6 8 4 9 5 10 3 11 1 12 2 13
REMARK SMILES IDX 89 14 87 15 88 16 90 17 91 18 92 19 93 21 94 22 100 23 95 24
REMARK SMILES IDX 98 25 96 26 99 27 97 28 14 29 15 30 16 31 17 32 18 33 19 34
REMARK SMILES IDX 20 35 21 36 22 37 86 38 23 39 85 40 24 41 25 42 26 43 79 44
REMARK SMILES IDX 27 45 84 46 78 47 80 48 28 49 83 50 77 51 76 52 29 54 63 55
REMARK SMILES IDX 42 56 62 57 43 58 46 59 61 60 81 61 44 62 45 63 60 65 82 66
REMARK SMILES IDX 47 67 30 68 31 69 40 70 32 71 33 72 39 73 41 74 34 75 35 76
REMARK SMILES IDX 36 77 37 78 38 79 64 80 65 81 74 82 66 83 67 84 73 85 75 86
REMARK SMILES IDX 68 87 69 88 70 89 71 90 72 91 48 92 49 93 58 94 50 95 51 96
REMARK SMILES IDX 57 97 59 98 52 99 53 100 54 101 55 102 56 103
REMARK H PARENT 92 20 80 53 46 64
REMARK Flexibility Score: inf
ROOT
ATOM      1  C   UNL     1       2.337   2.695   4.652  1.00  0.00     0.188 C 
ENDROOT
BRANCH   1   2
ATOM      2  O   UNL     1       1.384   2.543   3.616  1.00  0.00    -0.377 OA
BRANCH   2   3
ATOM      3  C   UNL     1       1.870   2.422   2.295  1.00  0.00     0.188 C 
BRANCH   3   4
ATOM      4  C   UNL     1       1.679   3.688   1.433  1.00  0.00     0.188 C 
BRANCH   4   5
ATOM      5  O   UNL     1       0.458   4.428   1.468  1.00  0.00    -0.376 OA
BRANCH   5   6
ATOM      6  C   UNL     1      -0.339   4.366   2.640  1.00  0.00     0.202 C 
BRANCH   6   7
ATOM      7  C   UNL     1      -1.383   3.237   2.592  1.00  0.00     0.261 C 
BRANCH   7   8
ATOM      8  O   UNL     1      -1.018   2.091   1.789  1.00  0.00    -0.463 OA
BRANCH   8   9
ATOM      9  C   UNL     1      -1.216   2.226   0.454  1.00  0.00     0.311 C 
ATOM     10  O   UNL     1      -1.662   3.232  -0.092  1.00  0.00    -0.252 OA
BRANCH   9  11
ATOM     11  C   UNL     1      -1.008   0.945  -0.326  1.00  0.00     0.123 C 
ATOM     12  C   UNL     1       1.335   0.193  -0.785  1.00  0.00     0.032 C 
ATOM     13  C   UNL     1       0.096  -0.068   0.080  1.00  0.00     0.098 C 
ATOM     14  N   UNL     1      -0.508  -1.400  -0.152  1.00  0.00    -0.321 N 
ATOM     15  C   UNL     1      -2.300   0.147  -0.261  1.00  0.00     0.039 C 
ATOM     16  C   UNL     1      -1.868  -1.245  -0.644  1.00  0.00     0.122 C 
BRANCH  14  17
ATOM     17  C   UNL     1      -0.024  -2.679  -0.123  1.00  0.00     0.322 C 
ATOM     18  O   UNL     1      -0.723  -3.629  -0.499  1.00  0.00    -0.248 OA
ATOM     19  N   UNL     1       1.269  -2.981   0.116  1.00  0.00    -0.308 N 
ATOM     20  H   UNL     1       1.587  -3.730  -0.438  1.00  0.00     0.171 HD
BRANCH  19  21
ATOM     21  C   UNL     1       2.263  -2.488   0.959  1.00  0.00     0.044 A 
ATOM     22  C   UNL     1       3.596  -2.754   0.602  1.00  0.00     0.029 A 
ATOM     23  C   UNL     1       1.984  -1.856   2.161  1.00  0.00     0.049 A 
ATOM     24  C   UNL     1       4.649  -2.300   1.397  1.00  0.00     0.043 A 
ATOM     25  C   UNL     1       3.038  -1.474   2.990  1.00  0.00     0.078 A 
ATOM     26  C   UNL     1       4.363  -1.655   2.592  1.00  0.00     0.141 A 
ATOM     27  Cl  UNL     1       2.643  -0.875   4.541  1.00  0.00    -0.081 Cl
ATOM     28  F   UNL     1       5.383  -1.240   3.358  1.00  0.00    -0.205 F 
ENDBRANCH  19  21
ENDBRANCH  14  17
ENDBRANCH   9  11
ENDBRANCH   8   9
ENDBRANCH   7   8
ENDBRANCH   6   7
ENDBRANCH   5   6
ENDBRANCH   4   5
ENDBRANCH   3   4
ENDBRANCH   2   3
ENDBRANCH   1   2
BRANCH   1  29
ATOM     29  C   UNL     1       3.309   3.880   4.579  1.00  0.00     0.188 C 
BRANCH  29  30
ATOM     30  O   UNL     1       3.952   4.154   3.353  1.00  0.00    -0.376 OA
BRANCH  30  31
ATOM     31  C   UNL     1       5.041   3.427   2.817  1.00  0.00     0.202 C 
BRANCH  31  32
ATOM     32  C   UNL     1       5.866   2.358   3.540  1.00  0.00     0.261 C 
BRANCH  32  33
ATOM     33  O   UNL     1       5.199   1.627   4.561  1.00  0.00    -0.460 OA
BRANCH  33  34
ATOM     34  C   UNL     1       5.692   1.834   5.805  1.00  0.00     0.338 C 
ATOM     35  O   UNL     1       6.589   2.597   6.129  1.00  0.00    -0.246 OA
BRANCH  34  36
ATOM     36  C   UNL     1       4.858   1.122   6.779  1.00  0.00     0.060 A 
ATOM     37  C   UNL     1       4.107   1.887   7.676  1.00  0.00     0.016 A 
ATOM     38  C   UNL     1       4.854  -0.272   6.843  1.00  0.00     0.016 A 
ATOM     39  C   UNL     1       3.380   1.255   8.678  1.00  0.00     0.010 A 
ATOM     40  C   UNL     1       4.102  -0.907   7.835  1.00  0.00     0.010 A 
ATOM     41  C   UNL     1       3.413  -0.142   8.795  1.00  0.00    -0.014 A 
BRANCH  41  42
ATOM     42  C   UNL     1       2.968  -0.747  10.075  1.00  0.00     0.031 A 
ATOM     43  C   UNL     1       4.029  -1.158  11.064  1.00  0.00     0.074 A 
ATOM     44  C   UNL     1       1.666  -0.822  10.407  1.00  0.00     0.049 A 
ATOM     45  N   UNL     1       3.898  -1.604  12.286  1.00  0.00    -0.248 NA
ATOM     46  C   UNL     1       5.428  -1.053  10.613  1.00  0.00     0.031 C 
ATOM     47  C   UNL     1       0.546  -0.438   9.549  1.00  0.00     0.029 A 
ATOM     48  N   UNL     1       1.070  -1.234  11.573  1.00  0.00    -0.354 N 
ATOM     49  C   UNL     1       5.192  -1.829  12.744  1.00  0.00     0.074 A 
ATOM     50  C   UNL     1       6.090  -1.535  11.652  1.00  0.00     0.031 C 
ATOM     51  C   UNL     1      -0.603  -0.618  10.226  1.00  0.00     0.029 A 
ATOM     52  C   UNL     1      -0.302  -1.141  11.558  1.00  0.00     0.049 A 
ATOM     53  H   UNL     1       1.577  -1.565  12.349  1.00  0.00     0.167 HD
ATOM     54  C   UNL     1       5.604  -2.213  13.973  1.00  0.00     0.037 A 
ATOM     55  C   UNL     1      -1.205  -1.438  12.514  1.00  0.00     0.037 A 
ATOM     56  C   UNL     1       4.717  -2.491  15.068  1.00  0.00     0.049 A 
ATOM     57  C   UNL     1      -0.724  -1.910  13.865  1.00  0.00     0.074 A 
ATOM     58  C   UNL     1       5.037  -2.872  16.358  1.00  0.00     0.029 A 
ATOM     59  N   UNL     1       3.334  -2.417  15.000  1.00  0.00    -0.354 N 
ATOM     60  N   UNL     1       0.505  -2.080  14.295  1.00  0.00    -0.248 NA
ATOM     61  C   UNL     1      -1.755  -2.216  14.868  1.00  0.00     0.031 C 
ATOM     62  C   UNL     1       3.844  -3.077  17.059  1.00  0.00     0.029 A 
ATOM     63  C   UNL     1       2.784  -2.767  16.221  1.00  0.00     0.049 A 
ATOM     64  H   UNL     1       2.820  -2.155  14.203  1.00  0.00     0.167 HD
ATOM     65  C   UNL     1       0.394  -2.478  15.625  1.00  0.00     0.074 A 
ATOM     66  C   UNL     1      -1.021  -2.511  15.932  1.00  0.00     0.031 C 
ATOM     67  C   UNL     1       1.372  -2.785  16.514  1.00  0.00     0.037 A 
BRANCH  54  68
ATOM     68  C   UNL     1       7.085  -2.367  14.184  1.00  0.00     0.058 A 
ATOM     69  C   UNL     1       7.945  -1.257  14.220  1.00  0.00     0.135 A 
ATOM     70  C   UNL     1       7.650  -3.640  14.349  1.00  0.00     0.135 A 
ATOM     71  F   UNL     1       7.460  -0.018  14.038  1.00  0.00    -0.206 F 
ATOM     72  C   UNL     1       9.318  -1.407  14.381  1.00  0.00     0.059 A 
ATOM     73  C   UNL     1       9.016  -3.812  14.544  1.00  0.00     0.059 A 
ATOM     74  F   UNL     1       6.873  -4.734  14.314  1.00  0.00    -0.206 F 
ATOM     75  C   UNL     1       9.844  -2.690  14.542  1.00  0.00     0.060 A 
BRANCH  75  76
ATOM     76  S   UNL     1      11.627  -2.870  14.753  1.00  0.00     0.124 S 
ATOM     77  O   UNL     1      12.110  -2.584  13.406  1.00  0.00    -0.237 OA
ATOM     78  O   UNL     1      11.925  -1.857  15.761  1.00  0.00    -0.237 OA
ATOM     79  O   UNL     1      11.780  -4.252  15.195  1.00  0.00    -0.744 OA
ENDBRANCH  75  76
ENDBRANCH  54  68
BRANCH  55  80
ATOM     80  C   UNL     1      -2.662  -1.288  12.243  1.00  0.00     0.058 A 
ATOM     81  C   UNL     1      -3.428  -0.308  12.893  1.00  0.00     0.135 A 
ATOM     82  C   UNL     1      -3.323  -2.143  11.348  1.00  0.00     0.135 A 
ATOM     83  F   UNL     1      -2.847   0.526  13.768  1.00  0.00    -0.206 F 
ATOM     84  C   UNL     1      -4.799  -0.194  12.683  1.00  0.00     0.059 A 
ATOM     85  C   UNL     1      -4.688  -2.032  11.101  1.00  0.00     0.059 A 
ATOM     86  F   UNL     1      -2.636  -3.094  10.695  1.00  0.00    -0.206 F 
ATOM     87  C   UNL     1      -5.421  -1.062  11.782  1.00  0.00     0.060 A 
BRANCH  87  88
ATOM     88  S   UNL     1      -7.194  -0.881  11.487  1.00  0.00     0.124 S 
ATOM     89  O   UNL     1      -7.753  -1.400  12.730  1.00  0.00    -0.237 OA
ATOM     90  O   UNL     1      -7.324   0.557  11.279  1.00  0.00    -0.237 OA
ATOM     91  O   UNL     1      -7.421  -1.702  10.301  1.00  0.00    -0.744 OA
ENDBRANCH  87  88
ENDBRANCH  55  80
BRANCH  67  92
ATOM     92  C   UNL     1       0.956  -3.139  17.916  1.00  0.00     0.058 A 
ATOM     93  C   UNL     1       0.310  -4.349  18.216  1.00  0.00     0.135 A 
ATOM     94  C   UNL     1       1.249  -2.273  18.983  1.00  0.00     0.135 A 
ATOM     95  F   UNL     1       0.008  -5.215  17.236  1.00  0.00    -0.206 F 
ATOM     96  C   UNL     1      -0.065  -4.670  19.518  1.00  0.00     0.059 A 
ATOM     97  C   UNL     1       0.912  -2.587  20.296  1.00  0.00     0.059 A 
ATOM     98  F   UNL     1       1.882  -1.111  18.756  1.00  0.00    -0.206 F 
ATOM     99  C   UNL     1       0.239  -3.781  20.550  1.00  0.00     0.060 A 
BRANCH  99 100
ATOM    100  S   UNL     1      -0.245  -4.211  22.236  1.00  0.00     0.124 S 
ATOM    101  O   UNL     1      -1.685  -3.982  22.195  1.00  0.00    -0.237 OA
ATOM    102  O   UNL     1       0.173  -5.606  22.335  1.00  0.00    -0.237 OA
ATOM    103  O   UNL     1       0.516  -3.275  23.058  1.00  0.00    -0.744 OA
ENDBRANCH  99 100
ENDBRANCH  67  92
ENDBRANCH  41  42
ENDBRANCH  34  36
ENDBRANCH  33  34
ENDBRANCH  32  33
ENDBRANCH  31  32
ENDBRANCH  30  31
ENDBRANCH  29  30
ENDBRANCH   1  29
TORSDOF 25
