REMARK SMILES CC(C)(C)OC(=O)N[C@@H](CC(=O)OCCOCCOCCOCCOC(=O)c1ccc(-c2c3nc(c(-c4c(F)cc(S(=O)(=O)[O-])cc4F)c4ccc([nH]4)c(-c4c(F)cc(S(=O)(=O)[O-])cc4F)c4nc(c(-c5c(F)cc(S(=O)(=O)[O-])cc5F)c5ccc2[nH]5)C=C4)C=C3)cc1)c1cccnc1
REMARK SMILES IDX 18 1 17 2 16 3 15 4 14 5 13 6 11 7 12 8 10 9 9 10 8 11 6 12
REMARK SMILES IDX 7 13 5 15 2 16 1 17 3 18 4 19 94 20 95 21 99 22 96 23 98 24
REMARK SMILES IDX 97 25 19 26 20 27 21 28 22 29 23 30 24 31 25 32 26 33 27 34
REMARK SMILES IDX 28 35 29 36 93 37 30 38 92 39 31 40 32 41 33 42 86 43 34 44
REMARK SMILES IDX 91 45 85 46 87 47 35 48 90 49 84 50 83 51 36 53 70 54 49 55
REMARK SMILES IDX 69 56 50 57 53 58 68 59 88 60 51 61 52 62 67 64 89 65 54 66
REMARK SMILES IDX 37 67 38 68 47 69 39 70 40 71 46 72 48 73 41 74 42 75 43 76
REMARK SMILES IDX 44 77 45 78 71 79 72 80 81 81 73 82 74 83 80 84 82 85 75 86
REMARK SMILES IDX 76 87 77 88 78 89 79 90 55 91 56 92 65 93 57 94 58 95 64 96
REMARK SMILES IDX 66 97 59 98 60 99 61 100 62 101 63 102
REMARK H PARENT 8 14 87 52 53 63
REMARK Flexibility Score: inf
ROOT
ATOM      1  C   UNL     1       2.077   2.169   8.339  1.00  0.00     0.188 C 
ENDROOT
BRANCH   1   2
ATOM      2  C   UNL     1       3.252   3.073   8.706  1.00  0.00     0.188 C 
BRANCH   2   3
ATOM      3  O   UNL     1       2.902   4.381   9.090  1.00  0.00    -0.376 OA
BRANCH   3   4
ATOM      4  C   UNL     1       2.739   5.386   8.096  1.00  0.00     0.202 C 
BRANCH   4   5
ATOM      5  C   UNL     1       3.080   5.226   6.594  1.00  0.00     0.261 C 
BRANCH   5   6
ATOM      6  O   UNL     1       2.774   3.970   5.948  1.00  0.00    -0.463 OA
BRANCH   6   7
ATOM      7  C   UNL     1       3.838   3.291   5.460  1.00  0.00     0.308 C 
ATOM      8  O   UNL     1       5.004   3.667   5.587  1.00  0.00    -0.252 OA
BRANCH   7   9
ATOM      9  C   UNL     1       3.568   1.961   4.793  1.00  0.00     0.152 C 
BRANCH   9  10
ATOM     10  C   UNL     1       2.184   1.424   4.394  1.00  0.00     0.128 C 
BRANCH  10  11
ATOM     11  N   UNL     1       1.267   2.458   3.962  1.00  0.00    -0.314 N 
ATOM     12  C   UNL     1       0.595   2.491   2.772  1.00  0.00     0.408 C 
ATOM     13  O   UNL     1      -0.183   3.389   2.505  1.00  0.00    -0.225 OA
ATOM     14  H   UNL     1       1.114   3.206   4.583  1.00  0.00     0.167 HD
BRANCH  12  15
ATOM     15  O   UNL     1       0.907   1.441   1.976  1.00  0.00    -0.444 OA
BRANCH  15  16
ATOM     16  C   UNL     1       0.390   1.330   0.627  1.00  0.00     0.106 C 
ATOM     17  C   UNL     1       0.970   0.006   0.100  1.00  0.00     0.056 C 
ATOM     18  C   UNL     1       0.912   2.475  -0.244  1.00  0.00     0.056 C 
ATOM     19  C   UNL     1      -1.138   1.233   0.605  1.00  0.00     0.056 C 
ENDBRANCH  15  16
ENDBRANCH  12  15
ENDBRANCH  10  11
BRANCH  10  20
ATOM     20  C   UNL     1       1.557   0.371   5.300  1.00  0.00    -0.007 A 
ATOM     21  C   UNL     1       2.286  -0.759   5.706  1.00  0.00     0.009 A 
ATOM     22  C   UNL     1       0.221   0.401   5.693  1.00  0.00     0.116 A 
ATOM     23  C   UNL     1       1.703  -1.728   6.523  1.00  0.00     0.020 A 
ATOM     24  N   UNL     1      -0.380  -0.539   6.470  1.00  0.00    -0.264 NA
ATOM     25  C   UNL     1       0.381  -1.568   6.886  1.00  0.00     0.111 A 
ENDBRANCH  10  20
ENDBRANCH   9  10
ENDBRANCH   7   9
ENDBRANCH   6   7
ENDBRANCH   5   6
ENDBRANCH   4   5
ENDBRANCH   3   4
ENDBRANCH   2   3
ENDBRANCH   1   2
BRANCH   1  26
ATOM     26  O   UNL     1       1.104   2.712   7.460  1.00  0.00    -0.377 OA
BRANCH  26  27
ATOM     27  C   UNL     1       0.008   3.458   7.990  1.00  0.00     0.188 C 
BRANCH  27  28
ATOM     28  C   UNL     1      -0.304   3.377   9.492  1.00  0.00     0.188 C 
BRANCH  28  29
ATOM     29  O   UNL     1      -0.506   2.096  10.097  1.00  0.00    -0.376 OA
BRANCH  29  30
ATOM     30  C   UNL     1      -0.931   1.014   9.274  1.00  0.00     0.202 C 
BRANCH  30  31
ATOM     31  C   UNL     1      -2.434   0.778   9.260  1.00  0.00     0.261 C 
BRANCH  31  32
ATOM     32  O   UNL     1      -3.088   1.800   8.498  1.00  0.00    -0.460 OA
BRANCH  32  33
ATOM     33  C   UNL     1      -3.598   2.812   9.232  1.00  0.00     0.338 C 
ATOM     34  O   UNL     1      -3.650   2.895  10.447  1.00  0.00    -0.246 OA
BRANCH  33  35
ATOM     35  C   UNL     1      -3.953   3.920   8.330  1.00  0.00     0.060 A 
ATOM     36  C   UNL     1      -3.635   5.216   8.752  1.00  0.00     0.016 A 
ATOM     37  C   UNL     1      -4.621   3.702   7.121  1.00  0.00     0.016 A 
ATOM     38  C   UNL     1      -4.032   6.306   7.992  1.00  0.00     0.010 A 
ATOM     39  C   UNL     1      -5.029   4.799   6.363  1.00  0.00     0.010 A 
ATOM     40  C   UNL     1      -4.771   6.101   6.821  1.00  0.00    -0.014 A 
BRANCH  40  41
ATOM     41  C   UNL     1      -5.419   7.261   6.178  1.00  0.00     0.031 A 
ATOM     42  C   UNL     1      -6.864   7.532   6.485  1.00  0.00     0.074 A 
ATOM     43  C   UNL     1      -4.707   8.075   5.382  1.00  0.00     0.049 A 
ATOM     44  N   UNL     1      -7.644   8.475   6.031  1.00  0.00    -0.248 NA
ATOM     45  C   UNL     1      -7.518   6.614   7.434  1.00  0.00     0.031 C 
ATOM     46  C   UNL     1      -3.287   7.913   5.067  1.00  0.00     0.029 A 
ATOM     47  N   UNL     1      -5.081   9.196   4.691  1.00  0.00    -0.354 N 
ATOM     48  C   UNL     1      -8.879   8.263   6.631  1.00  0.00     0.074 A 
ATOM     49  C   UNL     1      -8.755   7.086   7.460  1.00  0.00     0.031 C 
ATOM     50  C   UNL     1      -2.913   8.896   4.231  1.00  0.00     0.029 A 
ATOM     51  C   UNL     1      -4.073   9.729   3.925  1.00  0.00     0.049 A 
ATOM     52  H   UNL     1      -5.986   9.582   4.738  1.00  0.00     0.167 HD
ATOM     53  C   UNL     1     -10.011   8.993   6.500  1.00  0.00     0.037 A 
ATOM     54  C   UNL     1      -4.101  10.755   3.053  1.00  0.00     0.037 A 
ATOM     55  C   UNL     1     -10.108  10.159   5.661  1.00  0.00     0.049 A 
ATOM     56  C   UNL     1      -5.394  11.504   2.863  1.00  0.00     0.074 A 
ATOM     57  C   UNL     1     -11.194  10.991   5.464  1.00  0.00     0.029 A 
ATOM     58  N   UNL     1      -9.079  10.647   4.865  1.00  0.00    -0.354 N 
ATOM     59  N   UNL     1      -6.549  11.319   3.460  1.00  0.00    -0.248 NA
ATOM     60  C   UNL     1      -5.391  12.597   1.884  1.00  0.00     0.031 C 
ATOM     61  C   UNL     1     -10.843  11.943   4.502  1.00  0.00     0.029 A 
ATOM     62  C   UNL     1      -9.518  11.744   4.144  1.00  0.00     0.049 A 
ATOM     63  H   UNL     1      -8.172  10.268   4.820  1.00  0.00     0.167 HD
ATOM     64  C   UNL     1      -7.408  12.279   2.937  1.00  0.00     0.074 A 
ATOM     65  C   UNL     1      -6.629  13.059   1.994  1.00  0.00     0.031 C 
ATOM     66  C   UNL     1      -8.720  12.496   3.205  1.00  0.00     0.037 A 
BRANCH  53  67
ATOM     67  C   UNL     1     -11.234   8.532   7.245  1.00  0.00     0.058 A 
ATOM     68  C   UNL     1     -11.331   8.614   8.644  1.00  0.00     0.135 A 
ATOM     69  C   UNL     1     -12.339   8.020   6.545  1.00  0.00     0.135 A 
ATOM     70  F   UNL     1     -10.298   9.076   9.368  1.00  0.00    -0.206 F 
ATOM     71  C   UNL     1     -12.467   8.185   9.323  1.00  0.00     0.059 A 
ATOM     72  C   UNL     1     -13.497   7.612   7.200  1.00  0.00     0.059 A 
ATOM     73  F   UNL     1     -12.300   7.911   5.208  1.00  0.00    -0.206 F 
ATOM     74  C   UNL     1     -13.547   7.686   8.591  1.00  0.00     0.060 A 
BRANCH  74  75
ATOM     75  S   UNL     1     -15.018   7.143   9.486  1.00  0.00     0.124 S 
ATOM     76  O   UNL     1     -14.534   5.927  10.133  1.00  0.00    -0.237 OA
ATOM     77  O   UNL     1     -15.277   8.273  10.373  1.00  0.00    -0.237 OA
ATOM     78  O   UNL     1     -16.005   6.940   8.430  1.00  0.00    -0.744 OA
ENDBRANCH  74  75
ENDBRANCH  53  67
BRANCH  54  79
ATOM     79  C   UNL     1      -2.878  11.107   2.283  1.00  0.00     0.058 A 
ATOM     80  C   UNL     1      -2.200  12.312   2.506  1.00  0.00     0.135 A 
ATOM     81  C   UNL     1      -2.350  10.228   1.322  1.00  0.00     0.135 A 
ATOM     82  F   UNL     1      -2.668  13.190   3.405  1.00  0.00    -0.206 F 
ATOM     83  C   UNL     1      -1.046  12.640   1.800  1.00  0.00     0.059 A 
ATOM     84  C   UNL     1      -1.182  10.520   0.625  1.00  0.00     0.059 A 
ATOM     85  F   UNL     1      -2.957   9.057   1.076  1.00  0.00    -0.206 F 
ATOM     86  C   UNL     1      -0.541  11.733   0.866  1.00  0.00     0.060 A 
BRANCH  86  87
ATOM     87  S   UNL     1       0.989  12.146  -0.000  1.00  0.00     0.124 S 
ATOM     88  O   UNL     1       0.549  13.221  -0.881  1.00  0.00    -0.237 OA
ATOM     89  O   UNL     1       1.865  12.538   1.100  1.00  0.00    -0.237 OA
ATOM     90  O   UNL     1       1.350  10.895  -0.662  1.00  0.00    -0.744 OA
ENDBRANCH  86  87
ENDBRANCH  54  79
BRANCH  66  91
ATOM     91  C   UNL     1      -9.394  13.624   2.473  1.00  0.00     0.058 A 
ATOM     92  C   UNL     1      -9.697  13.534   1.106  1.00  0.00     0.135 A 
ATOM     93  C   UNL     1      -9.799  14.780   3.161  1.00  0.00     0.135 A 
ATOM     94  F   UNL     1      -9.325  12.454   0.401  1.00  0.00    -0.206 F 
ATOM     95  C   UNL     1     -10.359  14.560   0.440  1.00  0.00     0.059 A 
ATOM     96  C   UNL     1     -10.491  15.804   2.523  1.00  0.00     0.059 A 
ATOM     97  F   UNL     1      -9.543  14.912   4.472  1.00  0.00    -0.206 F 
ATOM     98  C   UNL     1     -10.757  15.689   1.159  1.00  0.00     0.060 A 
BRANCH  98  99
ATOM     99  S   UNL     1     -11.655  16.991   0.290  1.00  0.00     0.124 S 
ATOM    100  O   UNL     1     -10.603  17.571  -0.538  1.00  0.00    -0.237 OA
ATOM    101  O   UNL     1     -12.681  16.238  -0.424  1.00  0.00    -0.237 OA
ATOM    102  O   UNL     1     -12.147  17.844   1.368  1.00  0.00    -0.744 OA
ENDBRANCH  98  99
ENDBRANCH  66  91
ENDBRANCH  40  41
ENDBRANCH  33  35
ENDBRANCH  32  33
ENDBRANCH  31  32
ENDBRANCH  30  31
ENDBRANCH  29  30
ENDBRANCH  28  29
ENDBRANCH  27  28
ENDBRANCH  26  27
ENDBRANCH   1  26
TORSDOF 28
