REMARK SMILES CC[C@@]1(C(=O)OCCOCCOCCOCCOC(=O)c2ccc(-c3c4nc(c(-c5c(F)cc(S(=O)(=O)[O-])cc5F)c5ccc([nH]5)c(-c5c(F)cc(S(=O)(=O)[O-])cc5F)c5nc(c(-c6c(F)cc(S(=O)(=O)[O-])cc6F)c6ccc3[nH]6)C=C5)C=C4)cc2)CCN(C(=O)N(C)CCc2cccs2)C1
REMARK SMILES IDX 11 1 10 2 9 3 8 4 7 5 6 6 4 7 5 8 3 9 87 10 101 11 88 12
REMARK SMILES IDX 89 13 2 14 1 15 90 16 91 17 92 18 93 19 94 20 95 21 96 22
REMARK SMILES IDX 97 23 100 24 98 25 99 26 12 27 13 28 14 29 15 30 16 31 17 32
REMARK SMILES IDX 18 33 19 34 20 35 21 36 22 37 86 38 23 39 85 40 24 41 25 42
REMARK SMILES IDX 26 43 79 44 27 45 84 46 78 47 80 48 28 49 83 50 77 51 76 52
REMARK SMILES IDX 29 54 63 55 42 56 62 57 43 58 46 59 61 60 81 61 44 62 45 63
REMARK SMILES IDX 60 65 82 66 47 67 30 68 31 69 40 70 32 71 33 72 39 73 41 74
REMARK SMILES IDX 34 75 35 76 36 77 37 78 38 79 64 80 65 81 74 82 66 83 67 84
REMARK SMILES IDX 73 85 75 86 68 87 69 88 70 89 71 90 72 91 48 92 49 93 58 94
REMARK SMILES IDX 50 95 51 96 57 97 59 98 52 99 53 100 54 101 55 102 56 103
REMARK H PARENT 80 53 46 64
REMARK Flexibility Score: inf
ROOT
ATOM      1  C   UNL     1       1.144   0.614  -0.337  1.00  0.00     0.188 C 
ENDROOT
BRANCH   1   2
ATOM      2  C   UNL     1       1.570  -0.768  -0.865  1.00  0.00     0.188 C 
BRANCH   2   3
ATOM      3  O   UNL     1       0.656  -1.564  -1.587  1.00  0.00    -0.376 OA
BRANCH   3   4
ATOM      4  C   UNL     1      -0.553  -2.092  -1.084  1.00  0.00     0.202 C 
BRANCH   4   5
ATOM      5  C   UNL     1      -0.999  -2.181   0.384  1.00  0.00     0.261 C 
BRANCH   5   6
ATOM      6  O   UNL     1      -0.610  -1.146   1.289  1.00  0.00    -0.463 OA
BRANCH   6   7
ATOM      7  C   UNL     1       0.453  -1.435   2.083  1.00  0.00     0.314 C 
ATOM      8  O   UNL     1       1.114  -2.466   1.978  1.00  0.00    -0.252 OA
BRANCH   7   9
ATOM      9  C   UNL     1       0.755  -0.376   3.159  1.00  0.00     0.087 C 
ATOM     10  C   UNL     1      -0.141   0.882   3.172  1.00  0.00     0.042 C 
ATOM     11  C   UNL     1       2.167   0.176   2.866  1.00  0.00     0.140 C 
ATOM     12  C   UNL     1       0.719   2.079   2.762  1.00  0.00     0.122 C 
ATOM     13  N   UNL     1       2.067   1.604   2.567  1.00  0.00    -0.323 N 
BRANCH   9  14
ATOM     14  C   UNL     1       0.721  -1.223   4.468  1.00  0.00     0.017 C 
ATOM     15  C   UNL     1       0.288  -0.540   5.751  1.00  0.00     0.005 C 
ENDBRANCH   9  14
BRANCH  13  16
ATOM     16  C   UNL     1       3.223   2.276   2.213  1.00  0.00     0.319 C 
ATOM     17  O   UNL     1       4.247   1.623   1.978  1.00  0.00    -0.248 OA
BRANCH  16  18
ATOM     18  N   UNL     1       3.273   3.659   2.201  1.00  0.00    -0.327 N 
ATOM     19  C   UNL     1       2.172   4.583   1.990  1.00  0.00     0.148 C 
BRANCH  18  20
ATOM     20  C   UNL     1       4.596   4.290   2.391  1.00  0.00     0.126 C 
BRANCH  20  21
ATOM     21  C   UNL     1       5.023   4.428   3.871  1.00  0.00     0.068 C 
BRANCH  21  22
ATOM     22  C   UNL     1       5.632   3.164   4.410  1.00  0.00     0.006 A 
ATOM     23  C   UNL     1       6.939   2.731   4.292  1.00  0.00     0.015 A 
ATOM     24  S   UNL     1       4.682   2.030   5.275  1.00  0.00    -0.149 S 
ATOM     25  C   UNL     1       7.087   1.370   4.687  1.00  0.00     0.012 A 
ATOM     26  C   UNL     1       5.906   0.841   5.156  1.00  0.00     0.065 A 
ENDBRANCH  21  22
ENDBRANCH  20  21
ENDBRANCH  18  20
ENDBRANCH  16  18
ENDBRANCH  13  16
ENDBRANCH   7   9
ENDBRANCH   6   7
ENDBRANCH   5   6
ENDBRANCH   4   5
ENDBRANCH   3   4
ENDBRANCH   2   3
ENDBRANCH   1   2
BRANCH   1  27
ATOM     27  O   UNL     1       0.464   1.605  -1.077  1.00  0.00    -0.377 OA
BRANCH  27  28
ATOM     28  C   UNL     1      -0.302   1.176  -2.178  1.00  0.00     0.188 C 
BRANCH  28  29
ATOM     29  C   UNL     1       0.565   0.962  -3.420  1.00  0.00     0.188 C 
BRANCH  29  30
ATOM     30  O   UNL     1       1.955   1.031  -3.155  1.00  0.00    -0.376 OA
BRANCH  30  31
ATOM     31  C   UNL     1       2.620   2.279  -3.020  1.00  0.00     0.202 C 
BRANCH  31  32
ATOM     32  C   UNL     1       2.013   3.581  -2.445  1.00  0.00     0.261 C 
BRANCH  32  33
ATOM     33  O   UNL     1       0.632   3.877  -2.672  1.00  0.00    -0.460 OA
BRANCH  33  34
ATOM     34  C   UNL     1       0.232   4.124  -3.932  1.00  0.00     0.338 C 
ATOM     35  O   UNL     1       0.926   4.142  -4.933  1.00  0.00    -0.246 OA
BRANCH  34  36
ATOM     36  C   UNL     1      -1.248   4.170  -3.913  1.00  0.00     0.060 A 
ATOM     37  C   UNL     1      -1.955   3.267  -4.717  1.00  0.00     0.016 A 
ATOM     38  C   UNL     1      -1.933   5.072  -3.091  1.00  0.00     0.016 A 
ATOM     39  C   UNL     1      -3.347   3.296  -4.740  1.00  0.00     0.010 A 
ATOM     40  C   UNL     1      -3.330   5.123  -3.139  1.00  0.00     0.010 A 
ATOM     41  C   UNL     1      -4.037   4.266  -4.002  1.00  0.00    -0.014 A 
BRANCH  41  42
ATOM     42  C   UNL     1      -5.447   4.547  -4.362  1.00  0.00     0.031 A 
ATOM     43  C   UNL     1      -5.703   5.639  -5.368  1.00  0.00     0.074 A 
ATOM     44  C   UNL     1      -6.461   3.804  -3.887  1.00  0.00     0.049 A 
ATOM     45  N   UNL     1      -6.831   6.042  -5.890  1.00  0.00    -0.248 NA
ATOM     46  C   UNL     1      -4.520   6.373  -5.852  1.00  0.00     0.031 C 
ATOM     47  C   UNL     1      -6.329   2.694  -2.945  1.00  0.00     0.029 A 
ATOM     48  N   UNL     1      -7.807   3.871  -4.144  1.00  0.00    -0.354 N 
ATOM     49  C   UNL     1      -6.494   7.069  -6.764  1.00  0.00     0.074 A 
ATOM     50  C   UNL     1      -5.064   7.258  -6.672  1.00  0.00     0.031 C 
ATOM     51  C   UNL     1      -7.551   2.185  -2.700  1.00  0.00     0.029 A 
ATOM     52  C   UNL     1      -8.549   2.946  -3.450  1.00  0.00     0.049 A 
ATOM     53  H   UNL     1      -8.204   4.522  -4.767  1.00  0.00     0.167 HD
ATOM     54  C   UNL     1      -7.302   7.782  -7.583  1.00  0.00     0.037 A 
ATOM     55  C   UNL     1      -9.882   2.746  -3.422  1.00  0.00     0.037 A 
ATOM     56  C   UNL     1      -8.725   7.593  -7.667  1.00  0.00     0.049 A 
ATOM     57  C   UNL     1     -10.771   3.598  -4.295  1.00  0.00     0.074 A 
ATOM     58  C   UNL     1      -9.636   8.260  -8.465  1.00  0.00     0.029 A 
ATOM     59  N   UNL     1      -9.445   6.673  -6.919  1.00  0.00    -0.354 N 
ATOM     60  N   UNL     1     -10.439   4.553  -5.133  1.00  0.00    -0.248 NA
ATOM     61  C   UNL     1     -12.216   3.336  -4.228  1.00  0.00     0.031 C 
ATOM     62  C   UNL     1     -10.914   7.780  -8.162  1.00  0.00     0.029 A 
ATOM     63  C   UNL     1     -10.793   6.770  -7.220  1.00  0.00     0.049 A 
ATOM     64  H   UNL     1      -9.055   6.043  -6.270  1.00  0.00     0.167 HD
ATOM     65  C   UNL     1     -11.629   4.981  -5.715  1.00  0.00     0.074 A 
ATOM     66  C   UNL     1     -12.685   4.172  -5.143  1.00  0.00     0.031 C 
ATOM     67  C   UNL     1     -11.831   5.952  -6.642  1.00  0.00     0.037 A 
BRANCH  54  68
ATOM     68  C   UNL     1      -6.664   8.852  -8.425  1.00  0.00     0.058 A 
ATOM     69  C   UNL     1      -5.823   8.543  -9.507  1.00  0.00     0.135 A 
ATOM     70  C   UNL     1      -6.909  10.208  -8.155  1.00  0.00     0.135 A 
ATOM     71  F   UNL     1      -5.533   7.264  -9.795  1.00  0.00    -0.206 F 
ATOM     72  C   UNL     1      -5.228   9.540 -10.274  1.00  0.00     0.059 A 
ATOM     73  C   UNL     1      -6.350  11.221  -8.928  1.00  0.00     0.059 A 
ATOM     74  F   UNL     1      -7.698  10.560  -7.127  1.00  0.00    -0.206 F 
ATOM     75  C   UNL     1      -5.499  10.876  -9.977  1.00  0.00     0.060 A 
BRANCH  75  76
ATOM     76  S   UNL     1      -4.728  12.158 -10.987  1.00  0.00     0.124 S 
ATOM     77  O   UNL     1      -3.338  12.077 -10.549  1.00  0.00    -0.237 OA
ATOM     78  O   UNL     1      -4.993  11.688 -12.343  1.00  0.00    -0.237 OA
ATOM     79  O   UNL     1      -5.438  13.372 -10.597  1.00  0.00    -0.744 OA
ENDBRANCH  75  76
ENDBRANCH  54  68
BRANCH  55  80
ATOM     80  C   UNL     1     -10.463   1.700  -2.536  1.00  0.00     0.058 A 
ATOM     81  C   UNL     1     -11.075   0.553  -3.063  1.00  0.00     0.135 A 
ATOM     82  C   UNL     1     -10.426   1.835  -1.139  1.00  0.00     0.135 A 
ATOM     83  F   UNL     1     -11.147   0.382  -4.392  1.00  0.00    -0.206 F 
ATOM     84  C   UNL     1     -11.644  -0.414  -2.240  1.00  0.00     0.059 A 
ATOM     85  C   UNL     1     -10.963   0.869  -0.295  1.00  0.00     0.059 A 
ATOM     86  F   UNL     1      -9.845   2.909  -0.582  1.00  0.00    -0.206 F 
ATOM     87  C   UNL     1     -11.580  -0.249  -0.856  1.00  0.00     0.060 A 
BRANCH  87  88
ATOM     88  S   UNL     1     -12.276  -1.534   0.205  1.00  0.00     0.124 S 
ATOM     89  O   UNL     1     -13.707  -1.337   0.007  1.00  0.00    -0.237 OA
ATOM     90  O   UNL     1     -11.710  -2.748  -0.375  1.00  0.00    -0.237 OA
ATOM     91  O   UNL     1     -11.767  -1.187   1.529  1.00  0.00    -0.744 OA
ENDBRANCH  87  88
ENDBRANCH  55  80
BRANCH  67  92
ATOM     92  C   UNL     1     -13.240   6.164  -7.129  1.00  0.00     0.058 A 
ATOM     93  C   UNL     1     -14.232   6.728  -6.312  1.00  0.00     0.135 A 
ATOM     94  C   UNL     1     -13.592   5.827  -8.447  1.00  0.00     0.135 A 
ATOM     95  F   UNL     1     -13.951   7.069  -5.044  1.00  0.00    -0.206 F 
ATOM     96  C   UNL     1     -15.533   6.912  -6.770  1.00  0.00     0.059 A 
ATOM     97  C   UNL     1     -14.878   6.033  -8.936  1.00  0.00     0.059 A 
ATOM     98  F   UNL     1     -12.679   5.301  -9.278  1.00  0.00    -0.206 F 
ATOM     99  C   UNL     1     -15.847   6.558  -8.083  1.00  0.00     0.060 A 
BRANCH  99 100
ATOM    100  S   UNL     1     -17.538   6.803  -8.666  1.00  0.00     0.124 S 
ATOM    101  O   UNL     1     -18.243   5.725  -7.981  1.00  0.00    -0.237 OA
ATOM    102  O   UNL     1     -17.837   8.153  -8.200  1.00  0.00    -0.237 OA
ATOM    103  O   UNL     1     -17.423   6.658 -10.114  1.00  0.00    -0.744 OA
ENDBRANCH  99 100
ENDBRANCH  67  92
ENDBRANCH  41  42
ENDBRANCH  34  36
ENDBRANCH  33  34
ENDBRANCH  32  33
ENDBRANCH  31  32
ENDBRANCH  30  31
ENDBRANCH  29  30
ENDBRANCH  28  29
ENDBRANCH  27  28
ENDBRANCH   1  27
TORSDOF 29
