REMARK SMILES CCC[C@H](NC(=O)c1cc2ccccc2[nH]1)C(=O)OCCOCCOCCOCCOC(=O)c1ccc(-c2c3nc(c(-c4c(F)cc(S(=O)(=O)[O-])cc4F)c4ccc([nH]4)c(-c4c(F)cc(S(=O)(=O)[O-])cc4F)c4nc(c(-c5c(F)cc(S(=O)(=O)[O-])cc5F)c5ccc2[nH]5)C=C4)C=C3)cc1
REMARK SMILES IDX 26 1 25 2 24 3 23 4 22 5 21 6 20 7 19 8 17 9 18 10 4 11 3 12
REMARK SMILES IDX 2 13 1 14 5 15 6 16 7 18 8 19 9 20 16 21 10 22 15 23 11 25
REMARK SMILES IDX 14 26 12 27 13 28 27 29 28 30 29 31 30 32 31 33 32 34 33 35
REMARK SMILES IDX 34 36 35 37 99 38 36 39 98 40 37 41 38 42 39 43 92 44 40 45
REMARK SMILES IDX 97 46 91 47 93 48 41 49 96 50 90 51 89 52 42 54 76 55 55 56
REMARK SMILES IDX 75 57 56 58 59 59 74 60 94 61 57 62 58 63 73 65 95 66 60 67
REMARK SMILES IDX 43 68 44 69 53 70 45 71 46 72 52 73 54 74 47 75 48 76 49 77
REMARK SMILES IDX 50 78 51 79 77 80 78 81 87 82 79 83 80 84 86 85 88 86 81 87
REMARK SMILES IDX 82 88 83 89 84 90 85 91 61 92 62 93 71 94 63 95 64 96 70 97
REMARK SMILES IDX 72 98 65 99 66 100 67 101 68 102 69 103
REMARK H PARENT 5 17 16 24 93 53 59 64
REMARK Flexibility Score: inf
ROOT
ATOM      1  C   UNL     1       3.817  -2.719  -5.001  1.00  0.00     0.188 C 
ENDROOT
BRANCH   1   2
ATOM      2  O   UNL     1       2.730  -3.062  -4.141  1.00  0.00    -0.377 OA
BRANCH   2   3
ATOM      3  C   UNL     1       3.025  -3.058  -2.759  1.00  0.00     0.188 C 
BRANCH   3   4
ATOM      4  C   UNL     1       3.331  -4.434  -2.133  1.00  0.00     0.188 C 
BRANCH   4   5
ATOM      5  O   UNL     1       3.035  -5.688  -2.740  1.00  0.00    -0.376 OA
BRANCH   5   6
ATOM      6  C   UNL     1       2.254  -5.812  -3.917  1.00  0.00     0.202 C 
BRANCH   6   7
ATOM      7  C   UNL     1       0.744  -5.704  -3.728  1.00  0.00     0.261 C 
BRANCH   7   8
ATOM      8  O   UNL     1       0.318  -4.408  -3.294  1.00  0.00    -0.462 OA
BRANCH   8   9
ATOM      9  C   UNL     1       0.029  -4.298  -1.971  1.00  0.00     0.328 C 
ATOM     10  O   UNL     1       0.186  -5.184  -1.139  1.00  0.00    -0.250 OA
BRANCH   9  11
ATOM     11  C   UNL     1      -0.659  -2.960  -1.653  1.00  0.00     0.192 C 
BRANCH  11  12
ATOM     12  C   UNL     1      -2.141  -3.309  -1.450  1.00  0.00     0.037 C 
BRANCH  12  13
ATOM     13  C   UNL     1      -2.462  -4.023  -0.122  1.00  0.00    -0.001 C 
ATOM     14  C   UNL     1      -1.719  -3.509   1.105  1.00  0.00     0.004 C 
ENDBRANCH  12  13
ENDBRANCH  11  12
BRANCH  11  15
ATOM     15  N   UNL     1      -0.372  -1.929  -2.669  1.00  0.00    -0.337 N 
ATOM     16  C   UNL     1      -0.570  -0.570  -2.591  1.00  0.00     0.268 C 
ATOM     17  H   UNL     1       0.011  -2.257  -3.514  1.00  0.00     0.164 HD
ATOM     18  O   UNL     1       0.195   0.192  -3.176  1.00  0.00    -0.268 OA
BRANCH  16  19
ATOM     19  C   UNL     1      -1.763  -0.128  -1.926  1.00  0.00     0.105 A 
ATOM     20  C   UNL     1      -2.950   0.235  -2.537  1.00  0.00     0.042 A 
ATOM     21  N   UNL     1      -1.989  -0.077  -0.570  1.00  0.00    -0.351 N 
ATOM     22  C   UNL     1      -3.975   0.114  -1.564  1.00  0.00     0.000 A 
ATOM     23  C   UNL     1      -3.351  -0.105  -0.335  1.00  0.00     0.046 A 
ATOM     24  H   UNL     1      -1.291  -0.028   0.123  1.00  0.00     0.167 HD
ATOM     25  C   UNL     1      -5.378   0.065  -1.639  1.00  0.00     0.010 A 
ATOM     26  C   UNL     1      -4.070  -0.381   0.834  1.00  0.00     0.026 A 
ATOM     27  C   UNL     1      -6.108  -0.264  -0.493  1.00  0.00     0.001 A 
ATOM     28  C   UNL     1      -5.462  -0.486   0.722  1.00  0.00     0.002 A 
ENDBRANCH  16  19
ENDBRANCH  11  15
ENDBRANCH   9  11
ENDBRANCH   8   9
ENDBRANCH   7   8
ENDBRANCH   6   7
ENDBRANCH   5   6
ENDBRANCH   4   5
ENDBRANCH   3   4
ENDBRANCH   2   3
ENDBRANCH   1   2
BRANCH   1  29
ATOM     29  C   UNL     1       5.108  -3.515  -4.765  1.00  0.00     0.188 C 
BRANCH  29  30
ATOM     30  O   UNL     1       5.840  -2.983  -3.654  1.00  0.00    -0.376 OA
BRANCH  30  31
ATOM     31  C   UNL     1       7.007  -2.238  -4.014  1.00  0.00     0.202 C 
BRANCH  31  32
ATOM     32  C   UNL     1       6.705  -0.818  -4.515  1.00  0.00     0.261 C 
BRANCH  32  33
ATOM     33  O   UNL     1       6.000  -0.767  -5.768  1.00  0.00    -0.460 OA
BRANCH  33  34
ATOM     34  C   UNL     1       6.637  -1.284  -6.842  1.00  0.00     0.338 C 
ATOM     35  O   UNL     1       7.770  -1.732  -6.870  1.00  0.00    -0.246 OA
BRANCH  34  36
ATOM     36  C   UNL     1       5.670  -1.398  -7.952  1.00  0.00     0.060 A 
ATOM     37  C   UNL     1       5.601  -2.610  -8.650  1.00  0.00     0.016 A 
ATOM     38  C   UNL     1       4.868  -0.316  -8.329  1.00  0.00     0.016 A 
ATOM     39  C   UNL     1       4.772  -2.724  -9.766  1.00  0.00     0.010 A 
ATOM     40  C   UNL     1       4.052  -0.425  -9.458  1.00  0.00     0.010 A 
ATOM     41  C   UNL     1       4.034  -1.616 -10.204  1.00  0.00    -0.014 A 
BRANCH  41  42
ATOM     42  C   UNL     1       3.428  -1.628 -11.555  1.00  0.00     0.031 A 
ATOM     43  C   UNL     1       4.275  -1.181 -12.716  1.00  0.00     0.074 A 
ATOM     44  C   UNL     1       2.158  -2.022 -11.754  1.00  0.00     0.049 A 
ATOM     45  N   UNL     1       3.968  -1.095 -13.984  1.00  0.00    -0.248 NA
ATOM     46  C   UNL     1       5.657  -0.777 -12.402  1.00  0.00     0.031 C 
ATOM     47  C   UNL     1       1.242  -2.489 -10.715  1.00  0.00     0.029 A 
ATOM     48  N   UNL     1       1.419  -2.081 -12.909  1.00  0.00    -0.354 N 
ATOM     49  C   UNL     1       5.116  -0.637 -14.618  1.00  0.00     0.074 A 
ATOM     50  C   UNL     1       6.120  -0.442 -13.596  1.00  0.00     0.031 C 
ATOM     51  C   UNL     1       0.052  -2.769 -11.279  1.00  0.00     0.029 A 
ATOM     52  C   UNL     1       0.122  -2.490 -12.713  1.00  0.00     0.049 A 
ATOM     53  H   UNL     1       1.784  -1.851 -13.794  1.00  0.00     0.167 HD
ATOM     54  C   UNL     1       5.321  -0.404 -15.935  1.00  0.00     0.037 A 
ATOM     55  C   UNL     1      -0.892  -2.608 -13.592  1.00  0.00     0.037 A 
ATOM     56  C   UNL     1       4.321  -0.574 -16.952  1.00  0.00     0.049 A 
ATOM     57  C   UNL     1      -0.659  -2.289 -15.046  1.00  0.00     0.074 A 
ATOM     58  C   UNL     1       4.433  -0.371 -18.316  1.00  0.00     0.029 A 
ATOM     59  N   UNL     1       3.016  -0.976 -16.711  1.00  0.00    -0.354 N 
ATOM     60  N   UNL     1       0.443  -1.896 -15.637  1.00  0.00    -0.248 NA
ATOM     61  C   UNL     1      -1.809  -2.431 -15.951  1.00  0.00     0.031 C 
ATOM     62  C   UNL     1       3.185  -0.624 -18.898  1.00  0.00     0.029 A 
ATOM     63  C   UNL     1       2.306  -1.010 -17.898  1.00  0.00     0.049 A 
ATOM     64  H   UNL     1       2.649  -1.203 -15.827  1.00  0.00     0.167 HD
ATOM     65  C   UNL     1       0.125  -1.760 -16.985  1.00  0.00     0.074 A 
ATOM     66  C   UNL     1      -1.271  -2.119 -17.123  1.00  0.00     0.031 C 
ATOM     67  C   UNL     1       0.918  -1.376 -18.015  1.00  0.00     0.037 A 
BRANCH  54  68
ATOM     68  C   UNL     1       6.682   0.077 -16.336  1.00  0.00     0.058 A 
ATOM     69  C   UNL     1       7.771  -0.805 -16.416  1.00  0.00     0.135 A 
ATOM     70  C   UNL     1       6.904   1.430 -16.632  1.00  0.00     0.135 A 
ATOM     71  F   UNL     1       7.612  -2.104 -16.119  1.00  0.00    -0.206 F 
ATOM     72  C   UNL     1       9.043  -0.356 -16.755  1.00  0.00     0.059 A 
ATOM     73  C   UNL     1       8.165   1.899 -16.987  1.00  0.00     0.059 A 
ATOM     74  F   UNL     1       5.896   2.313 -16.558  1.00  0.00    -0.206 F 
ATOM     75  C   UNL     1       9.232   1.000 -17.030  1.00  0.00     0.060 A 
BRANCH  75  76
ATOM     76  S   UNL     1      10.889   1.578 -17.450  1.00  0.00     0.124 S 
ATOM     77  O   UNL     1      11.511   1.655 -16.132  1.00  0.00    -0.237 OA
ATOM     78  O   UNL     1      11.384   0.518 -18.323  1.00  0.00    -0.237 OA
ATOM     79  O   UNL     1      10.643   2.859 -18.105  1.00  0.00    -0.744 OA
ENDBRANCH  75  76
ENDBRANCH  54  68
BRANCH  55  80
ATOM     80  C   UNL     1      -2.232  -3.043 -13.123  1.00  0.00     0.058 A 
ATOM     81  C   UNL     1      -2.711  -4.332 -13.395  1.00  0.00     0.135 A 
ATOM     82  C   UNL     1      -3.062  -2.173 -12.399  1.00  0.00     0.135 A 
ATOM     83  F   UNL     1      -1.956  -5.193 -14.095  1.00  0.00    -0.206 F 
ATOM     84  C   UNL     1      -3.971  -4.744 -12.974  1.00  0.00     0.059 A 
ATOM     85  C   UNL     1      -4.319  -2.567 -11.953  1.00  0.00     0.059 A 
ATOM     86  F   UNL     1      -2.644  -0.931 -12.109  1.00  0.00    -0.206 F 
ATOM     87  C   UNL     1      -4.769  -3.853 -12.253  1.00  0.00     0.060 A 
BRANCH  87  88
ATOM     88  S   UNL     1      -6.384  -4.407 -11.663  1.00  0.00     0.124 S 
ATOM     89  O   UNL     1      -7.200  -4.262 -12.862  1.00  0.00    -0.237 OA
ATOM     90  O   UNL     1      -6.108  -5.777 -11.240  1.00  0.00    -0.237 OA
ATOM     91  O   UNL     1      -6.677  -3.474 -10.579  1.00  0.00    -0.744 OA
ENDBRANCH  87  88
ENDBRANCH  55  80
BRANCH  67  92
ATOM     92  C   UNL     1       0.305  -1.342 -19.384  1.00  0.00     0.058 A 
ATOM     93  C   UNL     1      -0.512  -0.278 -19.793  1.00  0.00     0.135 A 
ATOM     94  C   UNL     1       0.593  -2.350 -20.317  1.00  0.00     0.135 A 
ATOM     95  F   UNL     1      -0.818   0.707 -18.934  1.00  0.00    -0.206 F 
ATOM     96  C   UNL     1      -1.034  -0.218 -21.081  1.00  0.00     0.059 A 
ATOM     97  C   UNL     1       0.094  -2.303 -21.615  1.00  0.00     0.059 A 
ATOM     98  F   UNL     1       1.377  -3.384 -19.975  1.00  0.00    -0.206 F 
ATOM     99  C   UNL     1      -0.725  -1.237 -21.985  1.00  0.00     0.060 A 
BRANCH  99 100
ATOM    100  S   UNL     1      -1.365  -1.133 -23.671  1.00  0.00     0.124 S 
ATOM    101  O   UNL     1      -2.723  -1.636 -23.500  1.00  0.00    -0.237 OA
ATOM    102  O   UNL     1      -1.250   0.292 -23.968  1.00  0.00    -0.237 OA
ATOM    103  O   UNL     1      -0.463  -1.997 -24.427  1.00  0.00    -0.744 OA
ENDBRANCH  99 100
ENDBRANCH  67  92
ENDBRANCH  41  42
ENDBRANCH  34  36
ENDBRANCH  33  34
ENDBRANCH  32  33
ENDBRANCH  31  32
ENDBRANCH  30  31
ENDBRANCH  29  30
ENDBRANCH   1  29
TORSDOF 27
