REMARK SMILES [NH3+][C@@H](CCCCC(=O)OCCOCCOCCOCCOC(=O)c1ccc(-c2c3nc(c(-c4c(F)cc(S(=O)(=O)[O-])cc4F)c4ccc([nH]4)c(-c4c(F)cc(S(=O)(=O)[O-])cc4F)c4nc(c(-c5c(F)cc(S(=O)(=O)[O-])cc5F)c5ccc2[nH]5)C=C4)C=C3)cc1)c1ccc2[nH]c(=O)[nH]c2c1
REMARK SMILES IDX 14 1 13 2 12 3 11 4 10 5 9 6 7 7 8 8 6 9 5 10 4 11 3 12 2 13
REMARK SMILES IDX 1 14 90 18 91 19 99 20 92 21 98 22 93 23 97 24 94 25 95 26
REMARK SMILES IDX 96 29 15 30 16 31 17 32 18 33 19 34 20 35 21 36 22 37 23 38
REMARK SMILES IDX 24 39 25 40 89 41 26 42 88 43 27 44 28 45 29 46 82 47 30 48
REMARK SMILES IDX 87 49 81 50 83 51 31 52 86 53 80 54 79 55 32 57 66 58 45 59
REMARK SMILES IDX 65 60 46 61 49 62 64 63 84 64 47 65 48 66 63 68 85 69 50 70
REMARK SMILES IDX 33 71 34 72 43 73 35 74 36 75 42 76 44 77 37 78 38 79 39 80
REMARK SMILES IDX 40 81 41 82 67 83 68 84 77 85 69 86 70 87 76 88 78 89 71 90
REMARK SMILES IDX 72 91 73 92 74 93 75 94 51 95 52 96 61 97 53 98 54 99 60 100
REMARK SMILES IDX 62 101 55 102 56 103 57 104 58 105 59 106
REMARK H PARENT 1 15 1 16 1 17 97 27 94 28 83 56 49 67
REMARK Flexibility Score: inf
ROOT
ATOM      1  C   UNL     1      -1.702   1.953  -5.553  1.00  0.00     0.188 C 
ENDROOT
BRANCH   1   2
ATOM      2  C   UNL     1      -2.035   3.379  -6.010  1.00  0.00     0.188 C 
BRANCH   2   3
ATOM      3  O   UNL     1      -1.149   3.959  -6.937  1.00  0.00    -0.376 OA
BRANCH   3   4
ATOM      4  C   UNL     1      -0.058   4.771  -6.529  1.00  0.00     0.202 C 
BRANCH   4   5
ATOM      5  C   UNL     1       0.449   4.948  -5.086  1.00  0.00     0.261 C 
BRANCH   5   6
ATOM      6  O   UNL     1       0.138   3.906  -4.159  1.00  0.00    -0.463 OA
BRANCH   6   7
ATOM      7  C   UNL     1      -0.756   4.248  -3.209  1.00  0.00     0.305 C 
ATOM      8  O   UNL     1      -1.273   5.359  -3.103  1.00  0.00    -0.252 OA
BRANCH   7   9
ATOM      9  C   UNL     1      -1.181   3.135  -2.292  1.00  0.00     0.123 C 
BRANCH   9  10
ATOM     10  C   UNL     1      -0.552   1.746  -2.267  1.00  0.00     0.012 C 
BRANCH  10  11
ATOM     11  C   UNL     1       0.909   1.657  -1.851  1.00  0.00     0.007 C 
BRANCH  11  12
ATOM     12  C   UNL     1       1.239   2.118  -0.422  1.00  0.00     0.070 C 
BRANCH  12  13
ATOM     13  C   UNL     1       0.620   1.326   0.774  1.00  0.00     0.212 C 
BRANCH  13  14
ATOM     14  N   UNL     1       1.035  -0.082   0.688  1.00  0.00    -0.351 N 
ATOM     15  H   UNL     1       2.047  -0.131   0.572  1.00  0.00     0.345 HD
ATOM     16  H   UNL     1       0.580  -0.523  -0.111  1.00  0.00     0.345 HD
ATOM     17  H   UNL     1       0.767  -0.568   1.544  1.00  0.00     0.345 HD
ENDBRANCH  13  14
BRANCH  13  18
ATOM     18  C   UNL     1      -0.894   1.484   0.950  1.00  0.00     0.011 A 
ATOM     19  C   UNL     1      -1.470   2.783   0.883  1.00  0.00     0.012 A 
ATOM     20  C   UNL     1      -1.753   0.377   1.112  1.00  0.00     0.038 A 
ATOM     21  C   UNL     1      -2.849   2.980   0.713  1.00  0.00     0.029 A 
ATOM     22  C   UNL     1      -3.109   0.601   1.010  1.00  0.00     0.067 A 
ATOM     23  C   UNL     1      -3.636   1.862   0.754  1.00  0.00     0.066 A 
ATOM     24  N   UNL     1      -4.170  -0.296   1.075  1.00  0.00    -0.306 N 
ATOM     25  N   UNL     1      -5.009   1.732   0.585  1.00  0.00    -0.306 N 
ATOM     26  C   UNL     1      -5.361   0.394   0.806  1.00  0.00     0.323 A 
ATOM     27  H   UNL     1      -4.097  -1.257   1.276  1.00  0.00     0.171 HD
ATOM     28  H   UNL     1      -5.630   2.459   0.349  1.00  0.00     0.171 HD
ATOM     29  O   UNL     1      -6.486  -0.075   0.772  1.00  0.00    -0.248 OA
ENDBRANCH  13  18
ENDBRANCH  12  13
ENDBRANCH  11  12
ENDBRANCH  10  11
ENDBRANCH   9  10
ENDBRANCH   7   9
ENDBRANCH   6   7
ENDBRANCH   5   6
ENDBRANCH   4   5
ENDBRANCH   3   4
ENDBRANCH   2   3
ENDBRANCH   1   2
BRANCH   1  30
ATOM     30  O   UNL     1      -0.344   1.584  -5.395  1.00  0.00    -0.377 OA
BRANCH  30  31
ATOM     31  C   UNL     1       0.545   1.537  -6.501  1.00  0.00     0.188 C 
BRANCH  31  32
ATOM     32  C   UNL     1      -0.008   1.438  -7.932  1.00  0.00     0.188 C 
BRANCH  32  33
ATOM     33  O   UNL     1      -1.320   0.916  -8.029  1.00  0.00    -0.376 OA
BRANCH  33  34
ATOM     34  C   UNL     1      -1.477  -0.479  -8.235  1.00  0.00     0.202 C 
BRANCH  34  35
ATOM     35  C   UNL     1      -0.830  -1.444  -7.229  1.00  0.00     0.261 C 
BRANCH  35  36
ATOM     36  O   UNL     1       0.603  -1.395  -7.119  1.00  0.00    -0.460 OA
BRANCH  36  37
ATOM     37  C   UNL     1       1.333  -1.553  -8.241  1.00  0.00     0.338 C 
ATOM     38  O   UNL     1       0.919  -1.798  -9.364  1.00  0.00    -0.246 OA
BRANCH  37  39
ATOM     39  C   UNL     1       2.728  -1.193  -7.927  1.00  0.00     0.060 A 
ATOM     40  C   UNL     1       3.308  -0.088  -8.564  1.00  0.00     0.016 A 
ATOM     41  C   UNL     1       3.466  -1.961  -7.025  1.00  0.00     0.016 A 
ATOM     42  C   UNL     1       4.645   0.230  -8.330  1.00  0.00     0.010 A 
ATOM     43  C   UNL     1       4.812  -1.656  -6.809  1.00  0.00     0.010 A 
ATOM     44  C   UNL     1       5.417  -0.583  -7.490  1.00  0.00    -0.014 A 
BRANCH  44  45
ATOM     45  C   UNL     1       6.893  -0.440  -7.489  1.00  0.00     0.031 A 
ATOM     46  C   UNL     1       7.699  -1.391  -8.332  1.00  0.00     0.074 A 
ATOM     47  C   UNL     1       7.503   0.526  -6.781  1.00  0.00     0.049 A 
ATOM     48  N   UNL     1       8.996  -1.506  -8.445  1.00  0.00    -0.248 NA
ATOM     49  C   UNL     1       6.936  -2.344  -9.157  1.00  0.00     0.031 C 
ATOM     50  C   UNL     1       6.827   1.534  -5.968  1.00  0.00     0.029 A 
ATOM     51  N   UNL     1       8.838   0.806  -6.625  1.00  0.00    -0.354 N 
ATOM     52  C   UNL     1       9.205  -2.545  -9.345  1.00  0.00     0.074 A 
ATOM     53  C   UNL     1       7.903  -3.050  -9.721  1.00  0.00     0.031 C 
ATOM     54  C   UNL     1       7.753   2.313  -5.381  1.00  0.00     0.029 A 
ATOM     55  C   UNL     1       9.086   1.835  -5.748  1.00  0.00     0.049 A 
ATOM     56  H   UNL     1       9.550   0.317  -7.096  1.00  0.00     0.167 HD
ATOM     57  C   UNL     1      10.377  -3.027  -9.823  1.00  0.00     0.037 A 
ATOM     58  C   UNL     1      10.254   2.314  -5.274  1.00  0.00     0.037 A 
ATOM     59  C   UNL     1      11.668  -2.522  -9.439  1.00  0.00     0.049 A 
ATOM     60  C   UNL     1      11.549   1.709  -5.758  1.00  0.00     0.074 A 
ATOM     61  C   UNL     1      12.916  -2.937  -9.867  1.00  0.00     0.029 A 
ATOM     62  N   UNL     1      11.880  -1.496  -8.529  1.00  0.00    -0.354 N 
ATOM     63  N   UNL     1      11.735   0.736  -6.619  1.00  0.00    -0.248 NA
ATOM     64  C   UNL     1      12.792   2.269  -5.210  1.00  0.00     0.031 C 
ATOM     65  C   UNL     1      13.883  -2.203  -9.173  1.00  0.00     0.029 A 
ATOM     66  C   UNL     1      13.238  -1.282  -8.363  1.00  0.00     0.049 A 
ATOM     67  H   UNL     1      11.169  -0.994  -8.069  1.00  0.00     0.167 HD
ATOM     68  C   UNL     1      13.114   0.590  -6.739  1.00  0.00     0.074 A 
ATOM     69  C   UNL     1      13.714   1.582  -5.871  1.00  0.00     0.031 C 
ATOM     70  C   UNL     1      13.821  -0.283  -7.500  1.00  0.00     0.037 A 
BRANCH  57  71
ATOM     71  C   UNL     1      10.315  -4.179 -10.790  1.00  0.00     0.058 A 
ATOM     72  C   UNL     1       9.825  -4.025 -12.097  1.00  0.00     0.135 A 
ATOM     73  C   UNL     1      10.780  -5.449 -10.413  1.00  0.00     0.135 A 
ATOM     74  F   UNL     1       9.347  -2.838 -12.506  1.00  0.00    -0.206 F 
ATOM     75  C   UNL     1       9.774  -5.094 -12.986  1.00  0.00     0.059 A 
ATOM     76  C   UNL     1      10.769  -6.525 -11.295  1.00  0.00     0.059 A 
ATOM     77  F   UNL     1      11.254  -5.655  -9.174  1.00  0.00    -0.206 F 
ATOM     78  C   UNL     1      10.251  -6.340 -12.576  1.00  0.00     0.060 A 
BRANCH  78  79
ATOM     79  S   UNL     1      10.185  -7.714 -13.745  1.00  0.00     0.124 S 
ATOM     80  O   UNL     1       8.750  -7.971 -13.813  1.00  0.00    -0.237 OA
ATOM     81  O   UNL     1      10.783  -7.132 -14.942  1.00  0.00    -0.237 OA
ATOM     82  O   UNL     1      10.977  -8.754 -13.094  1.00  0.00    -0.744 OA
ENDBRANCH  78  79
ENDBRANCH  57  71
BRANCH  58  83
ATOM     83  C   UNL     1      10.255   3.410  -4.267  1.00  0.00     0.058 A 
ATOM     84  C   UNL     1      10.749   4.686  -4.577  1.00  0.00     0.135 A 
ATOM     85  C   UNL     1       9.764   3.200  -2.968  1.00  0.00     0.135 A 
ATOM     86  F   UNL     1      11.242   4.935  -5.799  1.00  0.00    -0.206 F 
ATOM     87  C   UNL     1      10.769   5.710  -3.634  1.00  0.00     0.059 A 
ATOM     88  C   UNL     1       9.746   4.215  -2.017  1.00  0.00     0.059 A 
ATOM     89  F   UNL     1       9.272   2.001  -2.620  1.00  0.00    -0.206 F 
ATOM     90  C   UNL     1      10.259   5.465  -2.358  1.00  0.00     0.060 A 
BRANCH  90  91
ATOM     91  S   UNL     1      10.238   6.817  -1.160  1.00  0.00     0.124 S 
ATOM     92  O   UNL     1      11.655   6.958  -0.850  1.00  0.00    -0.237 OA
ATOM     93  O   UNL     1       9.640   7.900  -1.935  1.00  0.00    -0.237 OA
ATOM     94  O   UNL     1       9.403   6.295  -0.081  1.00  0.00    -0.744 OA
ENDBRANCH  90  91
ENDBRANCH  58  83
BRANCH  70  95
ATOM     95  C   UNL     1      15.324  -0.182  -7.470  1.00  0.00     0.058 A 
ATOM     96  C   UNL     1      16.073  -0.569  -6.347  1.00  0.00     0.135 A 
ATOM     97  C   UNL     1      16.027   0.253  -8.606  1.00  0.00     0.135 A 
ATOM     98  F   UNL     1      15.453  -0.988  -5.233  1.00  0.00    -0.206 F 
ATOM     99  C   UNL     1      17.463  -0.503  -6.343  1.00  0.00     0.059 A 
ATOM    100  C   UNL     1      17.417   0.295  -8.636  1.00  0.00     0.059 A 
ATOM    101  F   UNL     1      15.362   0.623  -9.712  1.00  0.00    -0.206 F 
ATOM    102  C   UNL     1      18.127  -0.074  -7.494  1.00  0.00     0.060 A 
BRANCH 102 103
ATOM    103  S   UNL     1      19.931  -0.026  -7.485  1.00  0.00     0.124 S 
ATOM    104  O   UNL     1      20.191   1.109  -6.605  1.00  0.00    -0.237 OA
ATOM    105  O   UNL     1      20.274  -1.338  -6.946  1.00  0.00    -0.237 OA
ATOM    106  O   UNL     1      20.274   0.178  -8.889  1.00  0.00    -0.744 OA
ENDBRANCH 102 103
ENDBRANCH  70  95
ENDBRANCH  44  45
ENDBRANCH  37  39
ENDBRANCH  36  37
ENDBRANCH  35  36
ENDBRANCH  34  35
ENDBRANCH  33  34
ENDBRANCH  32  33
ENDBRANCH  31  32
ENDBRANCH  30  31
ENDBRANCH   1  30
TORSDOF 29
