REMARK SMILES Cc1cc(/C=C2/C(=O)NC(=S)N=C2OCCOCCOCCOCCOC(=O)c2ccc(-c3c4nc(c(-c5c(F)cc(S(=O)(=O)[O-])cc5F)c5ccc([nH]5)c(-c5c(F)cc(S(=O)(=O)[O-])cc5F)c5nc(c(-c6c(F)cc(S(=O)(=O)[O-])cc6F)c6ccc3[nH]6)C=C5)C=C4)cc2)c(C)n1-c1cccc(C(=O)[O-])c1
REMARK SMILES IDX 21 1 20 2 19 3 18 4 17 5 16 6 15 7 14 8 13 9 5 10 6 11 7 12
REMARK SMILES IDX 8 13 9 14 12 15 10 16 11 18 4 19 1 20 2 21 3 22 97 23 95 24
REMARK SMILES IDX 96 25 98 26 99 27 106 28 100 29 102 30 101 31 103 32 104 33
REMARK SMILES IDX 105 34 22 35 23 36 24 37 25 38 26 39 27 40 28 41 29 42 30 43
REMARK SMILES IDX 94 44 31 45 93 46 32 47 33 48 34 49 87 50 35 51 92 52 86 53
REMARK SMILES IDX 88 54 36 55 91 56 85 57 84 58 37 60 71 61 50 62 70 63 51 64
REMARK SMILES IDX 54 65 69 66 89 67 52 68 53 69 68 71 90 72 55 73 38 74 39 75
REMARK SMILES IDX 48 76 40 77 41 78 47 79 49 80 42 81 43 82 44 83 45 84 46 85
REMARK SMILES IDX 72 86 73 87 82 88 74 89 75 90 81 91 83 92 76 93 77 94 78 95
REMARK SMILES IDX 79 96 80 97 56 98 57 99 66 100 58 101 59 102 65 103 67 104
REMARK SMILES IDX 60 105 61 106 62 107 63 108 64 109
REMARK H PARENT 9 17 88 59 54 70
REMARK Flexibility Score: inf
ROOT
ATOM      1  C   UNL     1      -1.811   5.494   0.082  1.00  0.00     0.188 C 
ENDROOT
BRANCH   1   2
ATOM      2  O   UNL     1      -2.668   5.060   1.113  1.00  0.00    -0.377 OA
BRANCH   2   3
ATOM      3  C   UNL     1      -2.198   4.947   2.433  1.00  0.00     0.188 C 
BRANCH   3   4
ATOM      4  C   UNL     1      -1.705   6.190   3.203  1.00  0.00     0.188 C 
BRANCH   4   5
ATOM      5  O   UNL     1      -0.865   7.189   2.658  1.00  0.00    -0.376 OA
BRANCH   5   6
ATOM      6  C   UNL     1       0.521   7.077   2.376  1.00  0.00     0.201 C 
BRANCH   6   7
ATOM      7  C   UNL     1       1.586   6.548   3.371  1.00  0.00     0.260 C 
BRANCH   7   8
ATOM      8  O   UNL     1       1.465   5.147   3.739  1.00  0.00    -0.475 OA
BRANCH   8   9
ATOM      9  C   UNL     1       0.773   4.867   4.850  1.00  0.00     0.229 C 
ATOM     10  C   UNL     1       0.048   2.438   4.078  1.00  0.00     0.029 C 
ATOM     11  C   UNL     1       0.111   3.531   4.887  1.00  0.00     0.103 C 
ATOM     12  C   UNL     1      -0.787   3.407   6.100  1.00  0.00     0.262 C 
ATOM     13  O   UNL     1      -1.419   2.398   6.399  1.00  0.00    -0.269 OA
ATOM     14  N   UNL     1      -0.910   4.527   6.875  1.00  0.00    -0.297 N 
ATOM     15  N   UNL     1       0.662   5.803   5.726  1.00  0.00    -0.184 NA
ATOM     16  C   UNL     1      -0.224   5.695   6.741  1.00  0.00     0.203 C 
ATOM     17  H   UNL     1      -1.566   4.484   7.609  1.00  0.00     0.172 HD
ATOM     18  S   UNL     1      -0.571   6.956   7.788  1.00  0.00    -0.038 S 
BRANCH  10  19
ATOM     19  C   UNL     1       0.537   1.992   2.787  1.00  0.00    -0.003 A 
ATOM     20  C   UNL     1       0.879  -0.628   0.096  1.00  0.00     0.065 C 
ATOM     21  C   UNL     1       0.822   0.545   1.008  1.00  0.00     0.020 A 
ATOM     22  C   UNL     1       0.407   0.635   2.330  1.00  0.00     0.031 A 
ATOM     23  N   UNL     1       1.272   1.792   0.645  1.00  0.00    -0.318 N 
ATOM     24  C   UNL     1       0.990   2.677   1.678  1.00  0.00     0.027 A 
ATOM     25  C   UNL     1       1.066   4.109   1.377  1.00  0.00     0.065 C 
BRANCH  23  26
ATOM     26  C   UNL     1       1.796   2.228  -0.608  1.00  0.00     0.046 A 
ATOM     27  C   UNL     1       2.991   2.969  -0.581  1.00  0.00     0.026 A 
ATOM     28  C   UNL     1       0.963   2.261  -1.735  1.00  0.00     0.036 A 
ATOM     29  C   UNL     1       3.332   3.788  -1.653  1.00  0.00     0.003 A 
ATOM     30  C   UNL     1       1.319   3.080  -2.820  1.00  0.00    -0.001 A 
ATOM     31  C   UNL     1       2.493   3.851  -2.765  1.00  0.00     0.010 A 
BRANCH  30  32
ATOM     32  C   UNL     1       0.465   3.238  -4.041  1.00  0.00     0.072 C 
ATOM     33  O   UNL     1       0.697   3.952  -4.959  1.00  0.00    -0.545 OA
ATOM     34  O   UNL     1      -0.625   2.435  -3.986  1.00  0.00    -0.545 OA
ENDBRANCH  30  32
ENDBRANCH  23  26
ENDBRANCH  10  19
ENDBRANCH   8   9
ENDBRANCH   7   8
ENDBRANCH   6   7
ENDBRANCH   5   6
ENDBRANCH   4   5
ENDBRANCH   3   4
ENDBRANCH   2   3
ENDBRANCH   1   2
BRANCH   1  35
ATOM     35  C   UNL     1      -2.322   6.743  -0.643  1.00  0.00     0.188 C 
BRANCH  35  36
ATOM     36  O   UNL     1      -3.649   7.165  -0.404  1.00  0.00    -0.376 OA
BRANCH  36  37
ATOM     37  C   UNL     1      -4.654   6.173  -0.398  1.00  0.00     0.202 C 
BRANCH  37  38
ATOM     38  C   UNL     1      -5.022   5.255  -1.632  1.00  0.00     0.261 C 
BRANCH  38  39
ATOM     39  O   UNL     1      -4.205   4.637  -2.739  1.00  0.00    -0.460 OA
BRANCH  39  40
ATOM     40  C   UNL     1      -3.832   5.266  -3.932  1.00  0.00     0.338 C 
ATOM     41  O   UNL     1      -3.533   6.452  -3.944  1.00  0.00    -0.246 OA
BRANCH  40  42
ATOM     42  C   UNL     1      -3.776   4.381  -5.284  1.00  0.00     0.060 A 
ATOM     43  C   UNL     1      -2.895   4.436  -6.420  1.00  0.00     0.016 A 
ATOM     44  C   UNL     1      -4.718   3.441  -5.539  1.00  0.00     0.016 A 
ATOM     45  C   UNL     1      -2.924   3.523  -7.754  1.00  0.00     0.010 A 
ATOM     46  C   UNL     1      -4.682   2.624  -6.799  1.00  0.00     0.010 A 
ATOM     47  C   UNL     1      -3.877   2.515  -8.075  1.00  0.00    -0.014 A 
BRANCH  47  48
ATOM     48  C   UNL     1      -3.623   0.938  -9.095  1.00  0.00     0.031 A 
ATOM     49  C   UNL     1      -2.810   0.241  -8.052  1.00  0.00     0.074 A 
ATOM     50  C   UNL     1      -4.138  -0.144 -10.124  1.00  0.00     0.049 A 
ATOM     51  N   UNL     1      -3.232   0.561  -6.846  1.00  0.00    -0.248 NA
ATOM     52  C   UNL     1      -2.445  -1.154  -8.063  1.00  0.00     0.031 C 
ATOM     53  C   UNL     1      -5.362  -0.174 -11.003  1.00  0.00     0.029 A 
ATOM     54  N   UNL     1      -3.705  -1.674 -10.545  1.00  0.00    -0.354 N 
ATOM     55  C   UNL     1      -4.241  -0.366  -6.766  1.00  0.00     0.074 A 
ATOM     56  C   UNL     1      -3.331  -1.519  -7.114  1.00  0.00     0.031 C 
ATOM     57  C   UNL     1      -5.678  -1.377 -11.580  1.00  0.00     0.029 A 
ATOM     58  C   UNL     1      -4.729  -2.514 -11.345  1.00  0.00     0.049 A 
ATOM     59  H   UNL     1      -2.826  -2.042 -10.297  1.00  0.00     0.167 HD
ATOM     60  C   UNL     1      -5.643  -0.231  -7.040  1.00  0.00     0.037 A 
ATOM     61  C   UNL     1      -5.063  -3.866 -11.921  1.00  0.00     0.037 A 
ATOM     62  C   UNL     1      -6.322  -1.405  -6.562  1.00  0.00     0.049 A 
ATOM     63  C   UNL     1      -6.147  -4.108 -10.926  1.00  0.00     0.074 A 
ATOM     64  C   UNL     1      -5.834  -2.646  -6.221  1.00  0.00     0.029 A 
ATOM     65  N   UNL     1      -7.580  -1.714  -7.051  1.00  0.00    -0.354 N 
ATOM     66  N   UNL     1      -7.428  -3.938 -11.012  1.00  0.00    -0.248 NA
ATOM     67  C   UNL     1      -5.662  -4.814  -9.720  1.00  0.00     0.031 C 
ATOM     68  C   UNL     1      -6.005  -3.081  -7.534  1.00  0.00     0.029 A 
ATOM     69  C   UNL     1      -7.311  -2.740  -7.912  1.00  0.00     0.049 A 
ATOM     70  H   UNL     1      -8.446  -1.300  -6.833  1.00  0.00     0.167 HD
ATOM     71  C   UNL     1      -7.804  -4.160  -9.698  1.00  0.00     0.074 A 
ATOM     72  C   UNL     1      -6.828  -5.056  -9.120  1.00  0.00     0.031 C 
ATOM     73  C   UNL     1      -8.188  -3.059  -9.002  1.00  0.00     0.037 A 
BRANCH  60  74
ATOM     74  C   UNL     1      -6.718   0.992  -7.625  1.00  0.00     0.058 A 
ATOM     75  C   UNL     1      -6.631   1.923  -8.729  1.00  0.00     0.135 A 
ATOM     76  C   UNL     1      -7.839   1.302  -6.819  1.00  0.00     0.135 A 
ATOM     77  F   UNL     1      -5.696   1.893  -9.669  1.00  0.00    -0.206 F 
ATOM     78  C   UNL     1      -7.402   3.088  -8.893  1.00  0.00     0.059 A 
ATOM     79  C   UNL     1      -8.664   2.437  -6.994  1.00  0.00     0.059 A 
ATOM     80  F   UNL     1      -8.139   0.525  -5.769  1.00  0.00    -0.206 F 
ATOM     81  C   UNL     1      -8.377   3.374  -7.976  1.00  0.00     0.060 A 
BRANCH  81  82
ATOM     82  S   UNL     1      -9.160   5.001  -7.987  1.00  0.00     0.124 S 
ATOM     83  O   UNL     1      -8.293   5.738  -7.070  1.00  0.00    -0.237 OA
ATOM     84  O   UNL     1      -9.077   5.418  -9.383  1.00  0.00    -0.237 OA
ATOM     85  O   UNL     1     -10.499   4.719  -7.485  1.00  0.00    -0.744 OA
ENDBRANCH  81  82
ENDBRANCH  60  74
BRANCH  61  86
ATOM     86  C   UNL     1      -4.969  -5.573 -12.449  1.00  0.00     0.058 A 
ATOM     87  C   UNL     1      -4.822  -6.027 -13.793  1.00  0.00     0.135 A 
ATOM     88  C   UNL     1      -5.426  -6.766 -11.709  1.00  0.00     0.135 A 
ATOM     89  F   UNL     1      -4.714  -5.129 -14.784  1.00  0.00    -0.206 F 
ATOM     90  C   UNL     1      -4.895  -7.448 -14.234  1.00  0.00     0.059 A 
ATOM     91  C   UNL     1      -5.419  -8.131 -12.071  1.00  0.00     0.059 A 
ATOM     92  F   UNL     1      -6.149  -6.744 -10.595  1.00  0.00    -0.206 F 
ATOM     93  C   UNL     1      -5.131  -8.499 -13.343  1.00  0.00     0.060 A 
BRANCH  93  94
ATOM     94  S   UNL     1      -5.116 -10.293 -13.699  1.00  0.00     0.124 S 
ATOM     95  O   UNL     1      -6.391 -10.514 -14.371  1.00  0.00    -0.237 OA
ATOM     96  O   UNL     1      -3.922 -10.442 -14.523  1.00  0.00    -0.237 OA
ATOM     97  O   UNL     1      -5.010 -10.906 -12.373  1.00  0.00    -0.744 OA
ENDBRANCH  93  94
ENDBRANCH  61  86
BRANCH  73  98
ATOM     98  C   UNL     1      -9.184  -2.209  -9.711  1.00  0.00     0.058 A 
ATOM     99  C   UNL     1     -10.391  -2.783 -10.132  1.00  0.00     0.135 A 
ATOM    100  C   UNL     1      -8.952  -0.883 -10.086  1.00  0.00     0.135 A 
ATOM    101  F   UNL     1     -10.686  -4.050  -9.797  1.00  0.00    -0.206 F 
ATOM    102  C   UNL     1     -11.312  -2.080 -10.898  1.00  0.00     0.059 A 
ATOM    103  C   UNL     1      -9.855  -0.147 -10.848  1.00  0.00     0.059 A 
ATOM    104  F   UNL     1      -7.816  -0.288  -9.727  1.00  0.00    -0.206 F 
ATOM    105  C   UNL     1     -11.038  -0.759 -11.249  1.00  0.00     0.060 A 
BRANCH 105 106
ATOM    106  S   UNL     1     -12.234   0.126 -12.266  1.00  0.00     0.124 S 
ATOM    107  O   UNL     1     -12.710  -0.912 -13.178  1.00  0.00    -0.237 OA
ATOM    108  O   UNL     1     -13.198   0.565 -11.263  1.00  0.00    -0.237 OA
ATOM    109  O   UNL     1     -11.434   1.172 -12.895  1.00  0.00    -0.744 OA
ENDBRANCH 105 106
ENDBRANCH  73  98
ENDBRANCH  47  48
ENDBRANCH  40  42
ENDBRANCH  39  40
ENDBRANCH  38  39
ENDBRANCH  37  38
ENDBRANCH  36  37
ENDBRANCH  35  36
ENDBRANCH   1  35
TORSDOF 25
