REMARK SMILES C[C@H]1[C@@H](C(=O)OCCOCCOCCOCCOC(=O)c2ccc(-c3c4nc(c(-c5c(F)cc(S(=O)(=O)[O-])cc5F)c5ccc([nH]5)c(-c5c(F)cc(S(=O)(=O)[O-])cc5F)c5nc(c(-c6c(F)cc(S(=O)(=O)[O-])cc6F)c6ccc3[nH]6)C=C5)C=C4)cc2)CC[N@@H+]1CCO
REMARK SMILES IDX 12 1 11 2 10 3 9 4 8 5 7 6 6 7 4 8 5 9 3 10 1 11 2 12 89 13
REMARK SMILES IDX 87 14 88 15 90 17 91 18 92 19 13 21 14 22 15 23 16 24 17 25
REMARK SMILES IDX 18 26 19 27 20 28 21 29 22 30 86 31 23 32 85 33 24 34 25 35
REMARK SMILES IDX 26 36 79 37 27 38 84 39 78 40 80 41 28 42 83 43 77 44 76 45
REMARK SMILES IDX 29 47 63 48 42 49 62 50 43 51 46 52 61 53 81 54 44 55 45 56
REMARK SMILES IDX 60 58 82 59 47 60 30 61 31 62 40 63 32 64 33 65 39 66 41 67
REMARK SMILES IDX 34 68 35 69 36 70 37 71 38 72 64 73 65 74 74 75 66 76 67 77
REMARK SMILES IDX 73 78 75 79 68 80 69 81 70 82 71 83 72 84 48 85 49 86 58 87
REMARK SMILES IDX 50 88 51 89 57 90 59 91 52 92 53 93 54 94 55 95 56 96
REMARK H PARENT 89 16 92 20 80 46 46 57
REMARK Flexibility Score: inf
ROOT
ATOM      1  O   UNL     1       1.185  -0.282  -3.374  1.00  0.00    -0.377 OA
ENDROOT
BRANCH   1   2
ATOM      2  C   UNL     1       0.027   0.331  -2.832  1.00  0.00     0.188 C 
BRANCH   2   3
ATOM      3  C   UNL     1      -0.459   1.734  -3.248  1.00  0.00     0.188 C 
BRANCH   3   4
ATOM      4  O   UNL     1       0.456   2.436  -4.058  1.00  0.00    -0.376 OA
BRANCH   4   5
ATOM      5  C   UNL     1       1.260   3.433  -3.464  1.00  0.00     0.202 C 
BRANCH   5   6
ATOM      6  C   UNL     1       2.022   3.183  -2.149  1.00  0.00     0.261 C 
BRANCH   6   7
ATOM      7  O   UNL     1       1.473   2.232  -1.221  1.00  0.00    -0.463 OA
BRANCH   7   8
ATOM      8  C   UNL     1       0.637   2.676  -0.261  1.00  0.00     0.315 C 
ATOM      9  O   UNL     1       0.234   3.834  -0.199  1.00  0.00    -0.252 OA
BRANCH   8  10
ATOM     10  C   UNL     1       0.128   1.601   0.699  1.00  0.00     0.162 C 
ATOM     11  C   UNL     1       2.166  -0.049   0.278  1.00  0.00     0.076 C 
ATOM     12  C   UNL     1       0.862   0.283   1.001  1.00  0.00     0.195 C 
ATOM     13  N   UNL     1      -0.121  -0.811   0.832  1.00  0.00    -0.330 N 
ATOM     14  C   UNL     1      -1.322   1.206   0.401  1.00  0.00     0.083 C 
ATOM     15  C   UNL     1      -1.344  -0.302   0.235  1.00  0.00     0.263 C 
ATOM     16  H   UNL     1       0.289  -1.478   0.178  1.00  0.00     0.348 HD
BRANCH  13  17
ATOM     17  C   UNL     1      -0.338  -1.637   2.030  1.00  0.00     0.290 C 
BRANCH  17  18
ATOM     18  C   UNL     1      -1.018  -0.958   3.235  1.00  0.00     0.217 C 
BRANCH  18  19
ATOM     19  O   UNL     1      -2.440  -0.970   3.140  1.00  0.00    -0.391 OA
ATOM     20  H   UNL     1      -2.716  -0.477   2.351  1.00  0.00     0.210 HD
ENDBRANCH  18  19
ENDBRANCH  17  18
ENDBRANCH  13  17
ENDBRANCH   8  10
ENDBRANCH   7   8
ENDBRANCH   6   7
ENDBRANCH   5   6
ENDBRANCH   4   5
ENDBRANCH   3   4
ENDBRANCH   2   3
ENDBRANCH   1   2
BRANCH   1  21
ATOM     21  C   UNL     1       1.614   0.083  -4.671  1.00  0.00     0.188 C 
BRANCH  21  22
ATOM     22  C   UNL     1       0.563   0.067  -5.796  1.00  0.00     0.188 C 
BRANCH  22  23
ATOM     23  O   UNL     1      -0.772  -0.106  -5.342  1.00  0.00    -0.376 OA
BRANCH  23  24
ATOM     24  C   UNL     1      -1.365  -1.388  -5.476  1.00  0.00     0.202 C 
BRANCH  24  25
ATOM     25  C   UNL     1      -0.728  -2.605  -4.780  1.00  0.00     0.261 C 
BRANCH  25  26
ATOM     26  O   UNL     1       0.683  -2.786  -4.946  1.00  0.00    -0.460 OA
BRANCH  26  27
ATOM     27  C   UNL     1       1.121  -3.094  -6.181  1.00  0.00     0.338 C 
ATOM     28  O   UNL     1       0.441  -3.230  -7.188  1.00  0.00    -0.246 OA
BRANCH  27  29
ATOM     29  C   UNL     1       2.595  -3.044  -6.160  1.00  0.00     0.060 A 
ATOM     30  C   UNL     1       3.245  -2.112  -6.978  1.00  0.00     0.016 A 
ATOM     31  C   UNL     1       3.328  -3.903  -5.336  1.00  0.00     0.016 A 
ATOM     32  C   UNL     1       4.635  -2.062  -7.006  1.00  0.00     0.010 A 
ATOM     33  C   UNL     1       4.725  -3.878  -5.393  1.00  0.00     0.010 A 
ATOM     34  C   UNL     1       5.378  -2.988  -6.264  1.00  0.00    -0.014 A 
BRANCH  34  35
ATOM     35  C   UNL     1       6.801  -3.186  -6.624  1.00  0.00     0.031 A 
ATOM     36  C   UNL     1       7.125  -4.275  -7.612  1.00  0.00     0.074 A 
ATOM     37  C   UNL     1       7.762  -2.365  -6.167  1.00  0.00     0.049 A 
ATOM     38  N   UNL     1       8.276  -4.611  -8.131  1.00  0.00    -0.248 NA
ATOM     39  C   UNL     1       5.992  -5.091  -8.082  1.00  0.00     0.031 C 
ATOM     40  C   UNL     1       7.555  -1.249  -5.246  1.00  0.00     0.029 A 
ATOM     41  N   UNL     1       9.109  -2.344  -6.427  1.00  0.00    -0.354 N 
ATOM     42  C   UNL     1       8.005  -5.674  -8.986  1.00  0.00     0.074 A 
ATOM     43  C   UNL     1       6.591  -5.954  -8.887  1.00  0.00     0.031 C 
ATOM     44  C   UNL     1       8.738  -0.651  -5.015  1.00  0.00     0.029 A 
ATOM     45  C   UNL     1       9.786  -1.357  -5.751  1.00  0.00     0.049 A 
ATOM     46  H   UNL     1       9.549  -2.976  -7.040  1.00  0.00     0.167 HD
ATOM     47  C   UNL     1       8.858  -6.347  -9.793  1.00  0.00     0.037 A 
ATOM     48  C   UNL     1      11.103  -1.070  -5.726  1.00  0.00     0.037 A 
ATOM     49  C   UNL     1      10.266  -6.064  -9.881  1.00  0.00     0.049 A 
ATOM     50  C   UNL     1      12.046  -1.880  -6.581  1.00  0.00     0.074 A 
ATOM     51  C   UNL     1      11.220  -6.683 -10.668  1.00  0.00     0.029 A 
ATOM     52  N   UNL     1      10.924  -5.086  -9.148  1.00  0.00    -0.354 N 
ATOM     53  N   UNL     1      11.777  -2.870  -7.401  1.00  0.00    -0.248 NA
ATOM     54  C   UNL     1      13.470  -1.525  -6.518  1.00  0.00     0.031 C 
ATOM     55  C   UNL     1      12.465  -6.120 -10.366  1.00  0.00     0.029 A 
ATOM     56  C   UNL     1      12.276  -5.101  -9.445  1.00  0.00     0.049 A 
ATOM     57  H   UNL     1      10.492  -4.472  -8.511  1.00  0.00     0.167 HD
ATOM     58  C   UNL     1      12.992  -3.232  -7.975  1.00  0.00     0.074 A 
ATOM     59  C   UNL     1      13.993  -2.344  -7.419  1.00  0.00     0.031 C 
ATOM     60  C   UNL     1      13.258  -4.207  -8.883  1.00  0.00     0.037 A 
BRANCH  47  61
ATOM     61  C   UNL     1       8.294  -7.475 -10.615  1.00  0.00     0.058 A 
ATOM     62  C   UNL     1       7.422  -7.248 -11.692  1.00  0.00     0.135 A 
ATOM     63  C   UNL     1       8.648  -8.803 -10.330  1.00  0.00     0.135 A 
ATOM     64  F   UNL     1       7.029  -6.000 -11.994  1.00  0.00    -0.206 F 
ATOM     65  C   UNL     1       6.901  -8.299 -12.441  1.00  0.00     0.059 A 
ATOM     66  C   UNL     1       8.165  -9.867 -11.085  1.00  0.00     0.059 A 
ATOM     67  F   UNL     1       9.470  -9.079  -9.306  1.00  0.00    -0.206 F 
ATOM     68  C   UNL     1       7.282  -9.606 -12.131  1.00  0.00     0.060 A 
BRANCH  68  69
ATOM     69  S   UNL     1       6.609 -10.957 -13.121  1.00  0.00     0.124 S 
ATOM     70  O   UNL     1       5.214 -10.967 -12.691  1.00  0.00    -0.237 OA
ATOM     71  O   UNL     1       6.849 -10.493 -14.484  1.00  0.00    -0.237 OA
ATOM     72  O   UNL     1       7.401 -12.111 -12.706  1.00  0.00    -0.744 OA
ENDBRANCH  68  69
ENDBRANCH  47  61
BRANCH  48  73
ATOM     73  C   UNL     1      11.611   0.029  -4.859  1.00  0.00     0.058 A 
ATOM     74  C   UNL     1      12.161   1.197  -5.406  1.00  0.00     0.135 A 
ATOM     75  C   UNL     1      11.565  -0.076  -3.459  1.00  0.00     0.135 A 
ATOM     76  F   UNL     1      12.240   1.342  -6.738  1.00  0.00    -0.206 F 
ATOM     77  C   UNL     1      12.663   2.215  -4.600  1.00  0.00     0.059 A 
ATOM     78  C   UNL     1      12.033   0.941  -2.632  1.00  0.00     0.059 A 
ATOM     79  F   UNL     1      11.042  -1.169  -2.883  1.00  0.00    -0.206 F 
ATOM     80  C   UNL     1      12.590   2.079  -3.213  1.00  0.00     0.060 A 
BRANCH  80  81
ATOM     81  S   UNL     1      13.198   3.427  -2.176  1.00  0.00     0.124 S 
ATOM     82  O   UNL     1      14.639   3.323  -2.373  1.00  0.00    -0.237 OA
ATOM     83  O   UNL     1      12.552   4.589  -2.778  1.00  0.00    -0.237 OA
ATOM     84  O   UNL     1      12.716   3.071  -0.845  1.00  0.00    -0.744 OA
ENDBRANCH  80  81
ENDBRANCH  48  73
BRANCH  60  85
ATOM     85  C   UNL     1      14.679  -4.333  -9.368  1.00  0.00     0.058 A 
ATOM     86  C   UNL     1      15.713  -4.792  -8.537  1.00  0.00     0.135 A 
ATOM     87  C   UNL     1      15.003  -4.016 -10.698  1.00  0.00     0.135 A 
ATOM     88  F   UNL     1      15.461  -5.110  -7.257  1.00  0.00    -0.206 F 
ATOM     89  C   UNL     1      17.024  -4.887  -8.993  1.00  0.00     0.059 A 
ATOM     90  C   UNL     1      16.300  -4.139 -11.186  1.00  0.00     0.059 A 
ATOM     91  F   UNL     1      14.051  -3.589 -11.543  1.00  0.00    -0.206 F 
ATOM     92  C   UNL     1      17.308  -4.556 -10.319  1.00  0.00     0.060 A 
BRANCH  92  93
ATOM     93  S   UNL     1      19.013  -4.682 -10.898  1.00  0.00     0.124 S 
ATOM     94  O   UNL     1      19.634  -3.542 -10.232  1.00  0.00    -0.237 OA
ATOM     95  O   UNL     1      19.412  -5.998 -10.407  1.00  0.00    -0.237 OA
ATOM     96  O   UNL     1      18.890  -4.571 -12.348  1.00  0.00    -0.744 OA
ENDBRANCH  92  93
ENDBRANCH  60  85
ENDBRANCH  34  35
ENDBRANCH  27  29
ENDBRANCH  26  27
ENDBRANCH  25  26
ENDBRANCH  24  25
ENDBRANCH  23  24
ENDBRANCH  22  23
ENDBRANCH  21  22
ENDBRANCH   1  21
TORSDOF 26
