REMARK SMILES O=C(OCCOCCOCCOCCOC(=O)[C@@H]1C[C@@H](O)CN1C(=O)CSc1ccc(F)cc1F)c1ccc(-c2c3nc(c(-c4c(F)cc(S(=O)(=O)[O-])cc4F)c4ccc([nH]4)c(-c4c(F)cc(S(=O)(=O)[O-])cc4F)c4nc(c(-c5c(F)cc(S(=O)(=O)[O-])cc5F)c5ccc2[nH]5)C=C4)C=C3)cc1
REMARK SMILES IDX 10 1 9 2 8 3 7 4 6 5 5 6 4 7 3 8 2 9 1 10 36 11 37 12 101 13
REMARK SMILES IDX 38 14 100 15 39 16 40 17 41 18 94 19 42 20 99 21 93 22 95 23
REMARK SMILES IDX 43 24 98 25 92 26 91 27 44 29 78 30 57 31 77 32 58 33 61 34
REMARK SMILES IDX 76 35 96 36 59 37 60 38 75 40 97 41 62 42 45 43 46 44 55 45
REMARK SMILES IDX 47 46 48 47 54 48 56 49 49 50 50 51 51 52 52 53 53 54 79 55
REMARK SMILES IDX 80 56 89 57 81 58 82 59 88 60 90 61 83 62 84 63 85 64 86 65
REMARK SMILES IDX 87 66 63 67 64 68 73 69 65 70 66 71 72 72 74 73 67 74 68 75
REMARK SMILES IDX 69 76 70 77 71 78 11 79 12 80 13 81 14 82 15 83 16 84 17 85
REMARK SMILES IDX 18 86 19 87 23 88 20 89 22 90 24 91 25 92 26 93 27 94 28 95
REMARK SMILES IDX 29 96 34 97 30 98 33 99 35 100 31 101 32 102 21 103
REMARK H PARENT 95 28 61 39 21 104
REMARK Flexibility Score: inf
ROOT
ATOM      1  C   UNL     1       7.625   4.758   3.644  1.00  0.00     0.188 C 
ENDROOT
BRANCH   1   2
ATOM      2  O   UNL     1       8.512   3.883   4.314  1.00  0.00    -0.377 OA
BRANCH   2   3
ATOM      3  C   UNL     1       9.512   4.538   5.098  1.00  0.00     0.188 C 
BRANCH   3   4
ATOM      4  C   UNL     1      10.163   5.802   4.504  1.00  0.00     0.188 C 
BRANCH   4   5
ATOM      5  O   UNL     1       9.320   6.950   4.361  1.00  0.00    -0.376 OA
BRANCH   5   6
ATOM      6  C   UNL     1       9.220   7.580   3.083  1.00  0.00     0.202 C 
BRANCH   6   7
ATOM      7  C   UNL     1      10.506   8.057   2.397  1.00  0.00     0.261 C 
BRANCH   7   8
ATOM      8  O   UNL     1      11.747   7.586   2.948  1.00  0.00    -0.460 OA
BRANCH   8   9
ATOM      9  C   UNL     1      12.398   7.889   4.096  1.00  0.00     0.338 C 
ATOM     10  O   UNL     1      13.434   7.272   4.346  1.00  0.00    -0.246 OA
BRANCH   9  11
ATOM     11  C   UNL     1      11.915   8.881   5.104  1.00  0.00     0.060 A 
ATOM     12  C   UNL     1      10.681   9.514   5.055  1.00  0.00     0.016 A 
ATOM     13  C   UNL     1      12.752   9.174   6.200  1.00  0.00     0.016 A 
ATOM     14  C   UNL     1      10.255  10.367   6.048  1.00  0.00     0.010 A 
ATOM     15  C   UNL     1      12.360  10.090   7.187  1.00  0.00     0.010 A 
ATOM     16  C   UNL     1      11.105  10.690   7.096  1.00  0.00    -0.014 A 
BRANCH  16  17
ATOM     17  C   UNL     1      10.663  11.847   7.886  1.00  0.00     0.031 A 
ATOM     18  C   UNL     1      11.028  13.203   7.355  1.00  0.00     0.074 A 
ATOM     19  C   UNL     1       9.693  11.675   8.803  1.00  0.00     0.049 A 
ATOM     20  N   UNL     1      10.647  14.380   7.762  1.00  0.00    -0.248 NA
ATOM     21  C   UNL     1      11.899  13.232   6.162  1.00  0.00     0.031 C 
ATOM     22  C   UNL     1       9.109  10.380   9.169  1.00  0.00     0.029 A 
ATOM     23  N   UNL     1       8.956  12.586   9.509  1.00  0.00    -0.354 N 
ATOM     24  C   UNL     1      11.256  15.285   6.904  1.00  0.00     0.074 A 
ATOM     25  C   UNL     1      11.997  14.531   5.923  1.00  0.00     0.031 C 
ATOM     26  C   UNL     1       8.062  10.589   9.984  1.00  0.00     0.029 A 
ATOM     27  C   UNL     1       7.949  12.019  10.257  1.00  0.00     0.049 A 
ATOM     28  H   UNL     1       9.129  13.555   9.484  1.00  0.00     0.167 HD
ATOM     29  C   UNL     1      11.219  16.633   6.965  1.00  0.00     0.037 A 
ATOM     30  C   UNL     1       7.057  12.605  11.079  1.00  0.00     0.037 A 
ATOM     31  C   UNL     1      10.478  17.342   7.970  1.00  0.00     0.049 A 
ATOM     32  C   UNL     1       7.141  14.106  11.225  1.00  0.00     0.074 A 
ATOM     33  C   UNL     1      10.479  18.693   8.252  1.00  0.00     0.029 A 
ATOM     34  N   UNL     1       9.598  16.739   8.860  1.00  0.00    -0.354 N 
ATOM     35  N   UNL     1       7.844  14.966  10.521  1.00  0.00    -0.248 NA
ATOM     36  C   UNL     1       6.350  14.715  12.301  1.00  0.00     0.031 C 
ATOM     37  C   UNL     1       9.640  18.900   9.352  1.00  0.00     0.029 A 
ATOM     38  C   UNL     1       9.068  17.688   9.712  1.00  0.00     0.049 A 
ATOM     39  H   UNL     1       9.384  15.779   8.880  1.00  0.00     0.167 HD
ATOM     40  C   UNL     1       7.586  16.215  11.075  1.00  0.00     0.074 A 
ATOM     41  C   UNL     1       6.624  16.002  12.139  1.00  0.00     0.031 C 
ATOM     42  C   UNL     1       8.111  17.426  10.758  1.00  0.00     0.037 A 
BRANCH  29  43
ATOM     43  C   UNL     1      12.097  17.396   6.020  1.00  0.00     0.058 A 
ATOM     44  C   UNL     1      13.293  17.961   6.493  1.00  0.00     0.135 A 
ATOM     45  C   UNL     1      11.775  17.577   4.668  1.00  0.00     0.135 A 
ATOM     46  F   UNL     1      13.661  17.788   7.772  1.00  0.00    -0.206 F 
ATOM     47  C   UNL     1      14.127  18.705   5.667  1.00  0.00     0.059 A 
ATOM     48  C   UNL     1      12.606  18.301   3.817  1.00  0.00     0.059 A 
ATOM     49  F   UNL     1      10.669  17.015   4.153  1.00  0.00    -0.206 F 
ATOM     50  C   UNL     1      13.775  18.870   4.329  1.00  0.00     0.060 A 
BRANCH  50  51
ATOM     51  S   UNL     1      14.823  19.836   3.222  1.00  0.00     0.124 S 
ATOM     52  O   UNL     1      15.302  18.810   2.300  1.00  0.00    -0.237 OA
ATOM     53  O   UNL     1      13.877  20.797   2.665  1.00  0.00    -0.237 OA
ATOM     54  O   UNL     1      15.835  20.397   4.111  1.00  0.00    -0.744 OA
ENDBRANCH  50  51
ENDBRANCH  29  43
BRANCH  30  55
ATOM     55  C   UNL     1       6.096  11.800  11.890  1.00  0.00     0.058 A 
ATOM     56  C   UNL     1       6.551  10.839  12.812  1.00  0.00     0.135 A 
ATOM     57  C   UNL     1       4.710  12.013  11.822  1.00  0.00     0.135 A 
ATOM     58  F   UNL     1       7.864  10.586  12.933  1.00  0.00    -0.206 F 
ATOM     59  C   UNL     1       5.680  10.123  13.626  1.00  0.00     0.059 A 
ATOM     60  C   UNL     1       3.820  11.337  12.655  1.00  0.00     0.059 A 
ATOM     61  F   UNL     1       4.213  12.924  10.970  1.00  0.00    -0.206 F 
ATOM     62  C   UNL     1       4.317  10.396  13.559  1.00  0.00     0.060 A 
BRANCH  62  63
ATOM     63  S   UNL     1       3.164   9.542  14.657  1.00  0.00     0.124 S 
ATOM     64  O   UNL     1       2.769  10.617  15.560  1.00  0.00    -0.237 OA
ATOM     65  O   UNL     1       2.140   9.080  13.727  1.00  0.00    -0.237 OA
ATOM     66  O   UNL     1       3.983   8.489  15.252  1.00  0.00    -0.744 OA
ENDBRANCH  62  63
ENDBRANCH  30  55
BRANCH  42  67
ATOM     67  C   UNL     1       7.658  18.603  11.572  1.00  0.00     0.058 A 
ATOM     68  C   UNL     1       6.871  19.609  10.990  1.00  0.00     0.135 A 
ATOM     69  C   UNL     1       8.074  18.774  12.900  1.00  0.00     0.135 A 
ATOM     70  F   UNL     1       6.464  19.499   9.715  1.00  0.00    -0.206 F 
ATOM     71  C   UNL     1       6.517  20.753  11.695  1.00  0.00     0.059 A 
ATOM     72  C   UNL     1       7.703  19.893  13.635  1.00  0.00     0.059 A 
ATOM     73  F   UNL     1       8.829  17.839  13.499  1.00  0.00    -0.206 F 
ATOM     74  C   UNL     1       6.929  20.879  13.021  1.00  0.00     0.060 A 
BRANCH  74  75
ATOM     75  S   UNL     1       6.485  22.341  13.979  1.00  0.00     0.124 S 
ATOM     76  O   UNL     1       5.543  21.784  14.944  1.00  0.00    -0.237 OA
ATOM     77  O   UNL     1       7.774  22.760  14.520  1.00  0.00    -0.237 OA
ATOM     78  O   UNL     1       5.906  23.238  12.984  1.00  0.00    -0.744 OA
ENDBRANCH  74  75
ENDBRANCH  42  67
ENDBRANCH  16  17
ENDBRANCH   9  11
ENDBRANCH   8   9
ENDBRANCH   7   8
ENDBRANCH   6   7
ENDBRANCH   5   6
ENDBRANCH   4   5
ENDBRANCH   3   4
ENDBRANCH   2   3
ENDBRANCH   1   2
BRANCH   1  79
ATOM     79  C   UNL     1       6.798   5.732   4.504  1.00  0.00     0.188 C 
BRANCH  79  80
ATOM     80  O   UNL     1       7.227   5.888   5.846  1.00  0.00    -0.376 OA
BRANCH  80  81
ATOM     81  C   UNL     1       6.436   5.286   6.873  1.00  0.00     0.202 C 
BRANCH  81  82
ATOM     82  C   UNL     1       6.102   3.795   6.702  1.00  0.00     0.261 C 
BRANCH  82  83
ATOM     83  O   UNL     1       5.383   3.546   5.476  1.00  0.00    -0.462 OA
BRANCH  83  84
ATOM     84  C   UNL     1       4.055   3.840   5.469  1.00  0.00     0.329 C 
ATOM     85  O   UNL     1       3.389   3.954   6.495  1.00  0.00    -0.250 OA
BRANCH  84  86
ATOM     86  C   UNL     1       3.526   4.130   4.030  1.00  0.00     0.197 C 
ATOM     87  C   UNL     1       4.278   3.330   2.948  1.00  0.00     0.070 C 
ATOM     88  N   UNL     1       3.546   5.536   3.532  1.00  0.00    -0.325 N 
ATOM     89  C   UNL     1       4.193   4.179   1.687  1.00  0.00     0.136 C 
ATOM     90  C   UNL     1       4.067   5.620   2.172  1.00  0.00     0.152 C 
BRANCH  88  91
ATOM     91  C   UNL     1       2.997   6.575   4.262  1.00  0.00     0.233 C 
ATOM     92  O   UNL     1       2.625   6.382   5.421  1.00  0.00    -0.274 OA
BRANCH  91  93
ATOM     93  C   UNL     1       2.720   7.941   3.636  1.00  0.00     0.175 C 
BRANCH  93  94
ATOM     94  S   UNL     1       4.125   8.789   2.860  1.00  0.00    -0.113 SA
BRANCH  94  95
ATOM     95  C   UNL     1       4.846   9.682   4.228  1.00  0.00     0.044 A 
ATOM     96  C   UNL     1       5.500   8.986   5.247  1.00  0.00     0.021 A 
ATOM     97  C   UNL     1       4.919  11.084   4.220  1.00  0.00     0.139 A 
ATOM     98  C   UNL     1       6.264   9.669   6.194  1.00  0.00     0.040 A 
ATOM     99  C   UNL     1       5.648  11.776   5.181  1.00  0.00     0.079 A 
ATOM    100  F   UNL     1       4.302  11.791   3.260  1.00  0.00    -0.206 F 
ATOM    101  C   UNL     1       6.330  11.055   6.148  1.00  0.00     0.126 A 
ATOM    102  F   UNL     1       7.090  11.707   7.031  1.00  0.00    -0.207 F 
ENDBRANCH  94  95
ENDBRANCH  93  94
ENDBRANCH  91  93
ENDBRANCH  88  91
BRANCH  89 103
ATOM    103  O   UNL     1       3.049   3.794   0.932  1.00  0.00    -0.391 OA
ATOM    104  H   UNL     1       2.254   3.890   1.479  1.00  0.00     0.211 HD
ENDBRANCH  89 103
ENDBRANCH  84  86
ENDBRANCH  83  84
ENDBRANCH  82  83
ENDBRANCH  81  82
ENDBRANCH  80  81
ENDBRANCH  79  80
ENDBRANCH   1  79
TORSDOF 28
