REMARK SMILES C[NH2+][C@]1(C(=O)OCCOCCOCCOCCOC(=O)c2ccc(-c3c4nc(c(-c5c(F)cc(S(=O)(=O)[O-])cc5F)c5ccc([nH]5)c(-c5c(F)cc(S(=O)(=O)[O-])cc5F)c5nc(c(-c6c(F)cc(S(=O)(=O)[O-])cc6F)c6ccc3[nH]6)C=C5)C=C4)cc2)CCC[C@@H]([N@H+]2CC[C@@H](C)C2)C1
REMARK SMILES IDX 13 1 12 2 11 3 10 4 9 5 8 6 7 7 6 8 4 9 5 10 3 11 87 12
REMARK SMILES IDX 97 13 88 14 90 15 89 16 2 17 1 18 91 21 92 22 96 23 93 25
REMARK SMILES IDX 94 26 95 27 14 28 15 29 16 30 17 31 18 32 19 33 20 34 21 35
REMARK SMILES IDX 22 36 86 37 23 38 85 39 24 40 25 41 26 42 79 43 27 44 84 45
REMARK SMILES IDX 78 46 80 47 28 48 83 49 77 50 76 51 29 53 63 54 42 55 62 56
REMARK SMILES IDX 43 57 46 58 61 59 81 60 44 61 45 62 60 64 82 65 47 66 30 67
REMARK SMILES IDX 31 68 40 69 32 70 33 71 39 72 41 73 34 74 35 75 36 76 37 77
REMARK SMILES IDX 38 78 64 79 65 80 74 81 66 82 67 83 73 84 75 85 68 86 69 87
REMARK SMILES IDX 70 88 71 89 72 90 48 91 49 92 58 93 50 94 51 95 57 96 59 97
REMARK SMILES IDX 52 98 53 99 54 100 55 101 56 102
REMARK H PARENT 2 19 2 20 91 24 80 52 46 63
REMARK Flexibility Score: inf
ROOT
ATOM      1  C   UNL     1       2.746  -4.672  -0.718  1.00  0.00     0.188 C 
ENDROOT
BRANCH   1   2
ATOM      2  O   UNL     1       1.831  -3.594  -0.623  1.00  0.00    -0.377 OA
BRANCH   2   3
ATOM      3  C   UNL     1       1.182  -3.201  -1.811  1.00  0.00     0.188 C 
BRANCH   3   4
ATOM      4  C   UNL     1       1.872  -2.078  -2.608  1.00  0.00     0.188 C 
BRANCH   4   5
ATOM      5  O   UNL     1       2.949  -1.306  -2.084  1.00  0.00    -0.376 OA
BRANCH   5   6
ATOM      6  C   UNL     1       3.310  -1.312  -0.712  1.00  0.00     0.202 C 
BRANCH   6   7
ATOM      7  C   UNL     1       2.346  -0.737   0.341  1.00  0.00     0.261 C 
BRANCH   7   8
ATOM      8  O   UNL     1       0.993  -1.218   0.318  1.00  0.00    -0.459 OA
BRANCH   8   9
ATOM      9  C   UNL     1       0.199  -0.593  -0.580  1.00  0.00     0.368 C 
ATOM     10  O   UNL     1       0.582   0.312  -1.323  1.00  0.00    -0.245 OA
BRANCH   9  11
ATOM     11  C   UNL     1      -1.307  -1.037  -0.548  1.00  0.00     0.199 C 
ATOM     12  C   UNL     1      -1.693  -2.277   0.285  1.00  0.00     0.081 C 
ATOM     13  C   UNL     1      -1.827   0.175   0.204  1.00  0.00     0.146 C 
ATOM     14  C   UNL     1      -3.195  -2.345   0.605  1.00  0.00     0.013 C 
ATOM     15  C   UNL     1      -3.302   0.224   0.531  1.00  0.00     0.190 C 
ATOM     16  C   UNL     1      -3.737  -1.067   1.258  1.00  0.00     0.065 C 
BRANCH  11  17
ATOM     17  N   UNL     1      -1.839  -0.940  -1.942  1.00  0.00    -0.334 N 
ATOM     18  C   UNL     1      -2.333  -2.127  -2.606  1.00  0.00     0.331 C 
ATOM     19  H   UNL     1      -2.610  -0.272  -1.919  1.00  0.00     0.347 HD
ATOM     20  H   UNL     1      -1.019  -0.686  -2.492  1.00  0.00     0.347 HD
ENDBRANCH  11  17
BRANCH  15  21
ATOM     21  N   UNL     1      -3.600   1.477   1.275  1.00  0.00    -0.332 N 
ATOM     22  C   UNL     1      -3.036   1.538   2.635  1.00  0.00     0.262 C 
ATOM     23  C   UNL     1      -3.155   2.702   0.571  1.00  0.00     0.265 C 
ATOM     24  H   UNL     1      -4.618   1.447   1.335  1.00  0.00     0.348 HD
ATOM     25  C   UNL     1      -2.308   2.871   2.783  1.00  0.00     0.070 C 
ATOM     26  C   UNL     1      -2.004   3.334   1.367  1.00  0.00     0.047 C 
ATOM     27  C   UNL     1      -0.574   2.978   0.942  1.00  0.00     0.014 C 
ENDBRANCH  15  21
ENDBRANCH   9  11
ENDBRANCH   8   9
ENDBRANCH   7   8
ENDBRANCH   6   7
ENDBRANCH   5   6
ENDBRANCH   4   5
ENDBRANCH   3   4
ENDBRANCH   2   3
ENDBRANCH   1   2
BRANCH   1  28
ATOM     28  C   UNL     1       3.570  -4.787  -2.013  1.00  0.00     0.188 C 
BRANCH  28  29
ATOM     29  O   UNL     1       2.793  -4.743  -3.204  1.00  0.00    -0.376 OA
BRANCH  29  30
ATOM     30  C   UNL     1       2.358  -5.948  -3.811  1.00  0.00     0.202 C 
BRANCH  30  31
ATOM     31  C   UNL     1       1.349  -6.825  -3.050  1.00  0.00     0.261 C 
BRANCH  31  32
ATOM     32  O   UNL     1       1.752  -7.311  -1.762  1.00  0.00    -0.460 OA
BRANCH  32  33
ATOM     33  C   UNL     1       2.925  -7.971  -1.669  1.00  0.00     0.338 C 
ATOM     34  O   UNL     1       3.662  -8.288  -2.587  1.00  0.00    -0.246 OA
BRANCH  33  35
ATOM     35  C   UNL     1       3.282  -8.051  -0.236  1.00  0.00     0.060 A 
ATOM     36  C   UNL     1       4.507  -7.515   0.185  1.00  0.00     0.016 A 
ATOM     37  C   UNL     1       2.408  -8.628   0.688  1.00  0.00     0.016 A 
ATOM     38  C   UNL     1       4.880  -7.591   1.525  1.00  0.00     0.010 A 
ATOM     39  C   UNL     1       2.796  -8.733   2.025  1.00  0.00     0.010 A 
ATOM     40  C   UNL     1       4.050  -8.250   2.440  1.00  0.00    -0.014 A 
BRANCH  40  41
ATOM     41  C   UNL     1       4.595  -8.647   3.760  1.00  0.00     0.031 A 
ATOM     42  C   UNL     1       5.148 -10.040   3.900  1.00  0.00     0.074 A 
ATOM     43  C   UNL     1       4.627  -7.792   4.797  1.00  0.00     0.049 A 
ATOM     44  N   UNL     1       5.628 -10.642   4.955  1.00  0.00    -0.248 NA
ATOM     45  C   UNL     1       5.157 -10.864   2.679  1.00  0.00     0.031 C 
ATOM     46  C   UNL     1       4.167  -6.406   4.767  1.00  0.00     0.029 A 
ATOM     47  N   UNL     1       5.061  -7.977   6.086  1.00  0.00    -0.354 N 
ATOM     48  C   UNL     1       5.989 -11.915   4.529  1.00  0.00     0.074 A 
ATOM     49  C   UNL     1       5.644 -12.010   3.128  1.00  0.00     0.031 C 
ATOM     50  C   UNL     1       4.325  -5.869   5.990  1.00  0.00     0.029 A 
ATOM     51  C   UNL     1       4.866  -6.883   6.895  1.00  0.00     0.049 A 
ATOM     52  H   UNL     1       5.472  -8.813   6.402  1.00  0.00     0.167 HD
ATOM     53  C   UNL     1       6.566 -12.912   5.240  1.00  0.00     0.037 A 
ATOM     54  C   UNL     1       5.075  -6.732   8.219  1.00  0.00     0.037 A 
ATOM     55  C   UNL     1       6.899 -12.810   6.636  1.00  0.00     0.049 A 
ATOM     56  C   UNL     1       5.644  -7.883   9.011  1.00  0.00     0.074 A 
ATOM     57  C   UNL     1       7.491 -13.760   7.449  1.00  0.00     0.029 A 
ATOM     58  N   UNL     1       6.661 -11.696   7.428  1.00  0.00    -0.354 N 
ATOM     59  N   UNL     1       5.998  -9.077   8.595  1.00  0.00    -0.248 NA
ATOM     60  C   UNL     1       5.847  -7.667  10.450  1.00  0.00     0.031 C 
ATOM     61  C   UNL     1       7.559 -13.241   8.746  1.00  0.00     0.029 A 
ATOM     62  C   UNL     1       7.070 -11.944   8.727  1.00  0.00     0.049 A 
ATOM     63  H   UNL     1       6.261 -10.854   7.112  1.00  0.00     0.167 HD
ATOM     64  C   UNL     1       6.493  -9.741   9.715  1.00  0.00     0.074 A 
ATOM     65  C   UNL     1       6.403  -8.812  10.822  1.00  0.00     0.031 C 
ATOM     66  C   UNL     1       6.982 -11.003   9.817  1.00  0.00     0.037 A 
BRANCH  53  67
ATOM     67  C   UNL     1       6.840 -14.207   4.526  1.00  0.00     0.058 A 
ATOM     68  C   UNL     1       7.836 -14.316   3.543  1.00  0.00     0.135 A 
ATOM     69  C   UNL     1       6.109 -15.362   4.848  1.00  0.00     0.135 A 
ATOM     70  F   UNL     1       8.548 -13.237   3.179  1.00  0.00    -0.206 F 
ATOM     71  C   UNL     1       8.081 -15.517   2.886  1.00  0.00     0.059 A 
ATOM     72  C   UNL     1       6.358 -16.582   4.226  1.00  0.00     0.059 A 
ATOM     73  F   UNL     1       5.139 -15.313   5.775  1.00  0.00    -0.206 F 
ATOM     74  C   UNL     1       7.338 -16.646   3.236  1.00  0.00     0.060 A 
BRANCH  74  75
ATOM     75  S   UNL     1       7.674 -18.198   2.380  1.00  0.00     0.124 S 
ATOM     76  O   UNL     1       7.135 -17.921   1.052  1.00  0.00    -0.237 OA
ATOM     77  O   UNL     1       9.128 -18.292   2.466  1.00  0.00    -0.237 OA
ATOM     78  O   UNL     1       6.937 -19.186   3.162  1.00  0.00    -0.744 OA
ENDBRANCH  74  75
ENDBRANCH  53  67
BRANCH  54  79
ATOM     79  C   UNL     1       4.726  -5.448   8.887  1.00  0.00     0.058 A 
ATOM     80  C   UNL     1       5.718  -4.609   9.416  1.00  0.00     0.135 A 
ATOM     81  C   UNL     1       3.389  -5.038   9.017  1.00  0.00     0.135 A 
ATOM     82  F   UNL     1       7.010  -4.961   9.331  1.00  0.00    -0.206 F 
ATOM     83  C   UNL     1       5.399  -3.417  10.061  1.00  0.00     0.059 A 
ATOM     84  C   UNL     1       3.046  -3.837   9.631  1.00  0.00     0.059 A 
ATOM     85  F   UNL     1       2.401  -5.800   8.523  1.00  0.00    -0.206 F 
ATOM     86  C   UNL     1       4.059  -3.038  10.159  1.00  0.00     0.060 A 
BRANCH  86  87
ATOM     87  S   UNL     1       3.660  -1.465  10.951  1.00  0.00     0.124 S 
ATOM     88  O   UNL     1       3.942  -1.760  12.351  1.00  0.00    -0.237 OA
ATOM     89  O   UNL     1       4.585  -0.549  10.291  1.00  0.00    -0.237 OA
ATOM     90  O   UNL     1       2.252  -1.269  10.618  1.00  0.00    -0.744 OA
ENDBRANCH  86  87
ENDBRANCH  54  79
BRANCH  66  91
ATOM     91  C   UNL     1       7.500 -11.446  11.160  1.00  0.00     0.058 A 
ATOM     92  C   UNL     1       6.641 -11.709  12.238  1.00  0.00     0.135 A 
ATOM     93  C   UNL     1       8.875 -11.670  11.348  1.00  0.00     0.135 A 
ATOM     94  F   UNL     1       5.320 -11.508  12.114  1.00  0.00    -0.206 F 
ATOM     95  C   UNL     1       7.129 -12.154  13.463  1.00  0.00     0.059 A 
ATOM     96  C   UNL     1       9.380 -12.146  12.554  1.00  0.00     0.059 A 
ATOM     97  F   UNL     1       9.740 -11.447  10.346  1.00  0.00    -0.206 F 
ATOM     98  C   UNL     1       8.500 -12.373  13.610  1.00  0.00     0.060 A 
BRANCH  98  99
ATOM     99  S   UNL     1       9.114 -12.985  15.194  1.00  0.00     0.124 S 
ATOM    100  O   UNL     1       8.966 -11.806  16.041  1.00  0.00    -0.237 OA
ATOM    101  O   UNL     1       8.200 -14.088  15.477  1.00  0.00    -0.237 OA
ATOM    102  O   UNL     1      10.488 -13.377  14.899  1.00  0.00    -0.744 OA
ENDBRANCH  98  99
ENDBRANCH  66  91
ENDBRANCH  40  41
ENDBRANCH  33  35
ENDBRANCH  32  33
ENDBRANCH  31  32
ENDBRANCH  30  31
ENDBRANCH  29  30
ENDBRANCH  28  29
ENDBRANCH   1  28
TORSDOF 25
