REMARK SMILES Cc1nc(-c2ccccc2)sc1C(=O)N[C@@H](CC1=c2ccccc2=NC1)C(=O)OCCOCCOCCOCCOC(=O)c1ccc(-c2c3nc(c(-c4c(F)cc(S(=O)(=O)[O-])cc4F)c4ccc([nH]4)c(-c4c(F)cc(S(=O)(=O)[O-])cc4F)c4nc(c(-c5c(F)cc(S(=O)(=O)[O-])cc5F)c5ccc2[nH]5)C=C4)C=C3)cc1
REMARK SMILES IDX 35 1 34 2 33 3 32 4 31 5 30 6 29 7 27 8 28 9 16 10 15 11
REMARK SMILES IDX 13 12 14 13 12 15 1 16 2 17 3 18 4 19 11 20 5 21 6 22 10 23
REMARK SMILES IDX 7 24 9 25 8 26 17 27 18 28 19 29 26 30 20 31 24 32 25 33
REMARK SMILES IDX 21 34 23 35 22 36 36 37 37 38 38 39 39 40 40 41 41 42 42 43
REMARK SMILES IDX 43 44 44 45 45 46 109 47 46 48 108 49 47 50 48 51 49 52
REMARK SMILES IDX 102 53 50 54 107 55 101 56 103 57 51 58 106 59 100 60 99 61
REMARK SMILES IDX 52 63 86 64 65 65 85 66 66 67 69 68 84 69 104 70 67 71 68 72
REMARK SMILES IDX 83 74 105 75 70 76 53 77 54 78 63 79 55 80 56 81 62 82 64 83
REMARK SMILES IDX 57 84 58 85 59 86 60 87 61 88 87 89 88 90 97 91 89 92 90 93
REMARK SMILES IDX 96 94 98 95 91 96 92 97 93 98 94 99 95 100 71 101 72 102
REMARK SMILES IDX 81 103 73 104 74 105 80 106 82 107 75 108 76 109 77 110
REMARK SMILES IDX 78 111 79 112
REMARK H PARENT 15 14 103 62 69 73
REMARK Flexibility Score: inf
ROOT
ATOM      1  O   UNL     1      -2.641  -3.983   3.005  1.00  0.00    -0.377 OA
ENDROOT
BRANCH   1   2
ATOM      2  C   UNL     1      -2.130  -2.670   3.006  1.00  0.00     0.188 C 
BRANCH   2   3
ATOM      3  C   UNL     1      -3.146  -1.567   3.327  1.00  0.00     0.188 C 
BRANCH   3   4
ATOM      4  O   UNL     1      -4.261  -1.823   4.167  1.00  0.00    -0.376 OA
BRANCH   4   5
ATOM      5  C   UNL     1      -5.157  -2.895   3.897  1.00  0.00     0.202 C 
BRANCH   5   6
ATOM      6  C   UNL     1      -5.610  -3.251   2.473  1.00  0.00     0.261 C 
BRANCH   6   7
ATOM      7  O   UNL     1      -4.567  -3.231   1.485  1.00  0.00    -0.462 OA
BRANCH   7   8
ATOM      8  C   UNL     1      -4.731  -2.357   0.473  1.00  0.00     0.329 C 
ATOM      9  O   UNL     1      -5.739  -1.677   0.293  1.00  0.00    -0.250 OA
BRANCH   8  10
ATOM     10  C   UNL     1      -3.547  -2.279  -0.501  1.00  0.00     0.196 C 
BRANCH  10  11
ATOM     11  N   UNL     1      -2.202  -2.748  -0.197  1.00  0.00    -0.338 N 
ATOM     12  C   UNL     1      -0.959  -2.153  -0.296  1.00  0.00     0.264 C 
ATOM     13  O   UNL     1      -0.029  -2.970  -0.290  1.00  0.00    -0.268 OA
ATOM     14  H   UNL     1      -2.173  -3.670   0.148  1.00  0.00     0.164 HD
BRANCH  12  15
ATOM     15  C   UNL     1      -0.707  -0.702  -0.307  1.00  0.00     0.115 A 
ATOM     16  C   UNL     1      -2.843   0.853  -0.620  1.00  0.00     0.068 C 
ATOM     17  C   UNL     1      -1.421   0.498  -0.381  1.00  0.00     0.062 A 
ATOM     18  N   UNL     1      -0.673   1.641  -0.188  1.00  0.00    -0.241 NA
ATOM     19  C   UNL     1       0.604   1.389  -0.107  1.00  0.00     0.124 A 
ATOM     20  S   UNL     1       1.007  -0.257  -0.161  1.00  0.00    -0.108 S 
BRANCH  19  21
ATOM     21  C   UNL     1       1.562   2.485  -0.009  1.00  0.00     0.010 A 
ATOM     22  C   UNL     1       1.366   3.449   0.994  1.00  0.00     0.011 A 
ATOM     23  C   UNL     1       2.490   2.737  -1.025  1.00  0.00     0.011 A 
ATOM     24  C   UNL     1       2.055   4.660   0.963  1.00  0.00     0.001 A 
ATOM     25  C   UNL     1       3.175   3.956  -1.059  1.00  0.00     0.001 A 
ATOM     26  C   UNL     1       2.947   4.919  -0.074  1.00  0.00     0.000 A 
ENDBRANCH  19  21
ENDBRANCH  12  15
ENDBRANCH  10  11
BRANCH  10  27
ATOM     27  C   UNL     1      -3.989  -2.781  -1.884  1.00  0.00     0.070 C 
BRANCH  27  28
ATOM     28  C   UNL     1      -4.172  -4.263  -1.884  1.00  0.00    -0.037 C 
ATOM     29  C   UNL     1      -3.230  -5.196  -2.004  1.00  0.00     0.001 A 
ATOM     30  C   UNL     1      -5.500  -4.885  -1.569  1.00  0.00     0.174 C 
ATOM     31  C   UNL     1      -1.821  -5.183  -2.235  1.00  0.00     0.010 A 
ATOM     32  C   UNL     1      -3.945  -6.419  -1.613  1.00  0.00     0.065 A 
ATOM     33  N   UNL     1      -5.217  -6.322  -1.379  1.00  0.00    -0.280 NA
ATOM     34  C   UNL     1      -1.129  -6.317  -2.046  1.00  0.00     0.001 A 
ATOM     35  C   UNL     1      -3.120  -7.634  -1.454  1.00  0.00     0.028 A 
ATOM     36  C   UNL     1      -1.792  -7.547  -1.644  1.00  0.00     0.002 A 
ENDBRANCH  27  28
ENDBRANCH  10  27
ENDBRANCH   8  10
ENDBRANCH   7   8
ENDBRANCH   6   7
ENDBRANCH   5   6
ENDBRANCH   4   5
ENDBRANCH   3   4
ENDBRANCH   2   3
ENDBRANCH   1   2
BRANCH   1  37
ATOM     37  C   UNL     1      -2.441  -4.769   4.171  1.00  0.00     0.188 C 
BRANCH  37  38
ATOM     38  C   UNL     1      -2.247  -4.059   5.530  1.00  0.00     0.188 C 
BRANCH  38  39
ATOM     39  O   UNL     1      -1.334  -2.972   5.522  1.00  0.00    -0.376 OA
BRANCH  39  40
ATOM     40  C   UNL     1       0.034  -3.209   5.820  1.00  0.00     0.202 C 
BRANCH  40  41
ATOM     41  C   UNL     1       0.833  -4.194   4.946  1.00  0.00     0.261 C 
BRANCH  41  42
ATOM     42  O   UNL     1       0.353  -5.546   4.880  1.00  0.00    -0.460 OA
BRANCH  42  43
ATOM     43  C   UNL     1       0.153  -6.216   6.032  1.00  0.00     0.338 C 
ATOM     44  O   UNL     1       0.416  -5.831   7.160  1.00  0.00    -0.246 OA
BRANCH  43  45
ATOM     45  C   UNL     1      -0.649  -7.418   5.718  1.00  0.00     0.060 A 
ATOM     46  C   UNL     1      -1.901  -7.577   6.329  1.00  0.00     0.016 A 
ATOM     47  C   UNL     1      -0.177  -8.378   4.819  1.00  0.00     0.016 A 
ATOM     48  C   UNL     1      -2.667  -8.713   6.073  1.00  0.00     0.010 A 
ATOM     49  C   UNL     1      -0.932  -9.531   4.588  1.00  0.00     0.010 A 
ATOM     50  C   UNL     1      -2.162  -9.721   5.242  1.00  0.00    -0.014 A 
BRANCH  50  51
ATOM     51  C   UNL     1      -2.807 -11.056   5.241  1.00  0.00     0.031 A 
ATOM     52  C   UNL     1      -2.226 -12.123   6.130  1.00  0.00     0.074 A 
ATOM     53  C   UNL     1      -3.897 -11.312   4.497  1.00  0.00     0.049 A 
ATOM     54  N   UNL     1      -2.577 -13.374   6.269  1.00  0.00    -0.248 NA
ATOM     55  C   UNL     1      -1.091 -11.718   6.977  1.00  0.00     0.031 C 
ATOM     56  C   UNL     1      -4.583 -10.348   3.639  1.00  0.00     0.029 A 
ATOM     57  N   UNL     1      -4.614 -12.473   4.341  1.00  0.00    -0.354 N 
ATOM     58  C   UNL     1      -1.703 -13.908   7.208  1.00  0.00     0.074 A 
ATOM     59  C   UNL     1      -0.785 -12.855   7.582  1.00  0.00     0.031 C 
ATOM     60  C   UNL     1      -5.617 -10.962   3.036  1.00  0.00     0.029 A 
ATOM     61  C   UNL     1      -5.644 -12.368   3.437  1.00  0.00     0.049 A 
ATOM     62  H   UNL     1      -4.410 -13.302   4.832  1.00  0.00     0.167 HD
ATOM     63  C   UNL     1      -1.673 -15.162   7.720  1.00  0.00     0.037 A 
ATOM     64  C   UNL     1      -6.491 -13.308   2.970  1.00  0.00     0.037 A 
ATOM     65  C   UNL     1      -2.587 -16.206   7.338  1.00  0.00     0.049 A 
ATOM     66  C   UNL     1      -6.386 -14.721   3.489  1.00  0.00     0.074 A 
ATOM     67  C   UNL     1      -2.648 -17.507   7.804  1.00  0.00     0.029 A 
ATOM     68  N   UNL     1      -3.590 -16.073   6.388  1.00  0.00    -0.354 N 
ATOM     69  N   UNL     1      -5.567 -15.212   4.391  1.00  0.00    -0.248 NA
ATOM     70  C   UNL     1      -7.320 -15.708   2.929  1.00  0.00     0.031 C 
ATOM     71  C   UNL     1      -3.648 -18.178   7.092  1.00  0.00     0.029 A 
ATOM     72  C   UNL     1      -4.255 -17.278   6.231  1.00  0.00     0.049 A 
ATOM     73  H   UNL     1      -3.798 -15.245   5.899  1.00  0.00     0.167 HD
ATOM     74  C   UNL     1      -5.909 -16.555   4.527  1.00  0.00     0.074 A 
ATOM     75  C   UNL     1      -7.015 -16.796   3.623  1.00  0.00     0.031 C 
ATOM     76  C   UNL     1      -5.359 -17.503   5.329  1.00  0.00     0.037 A 
BRANCH  63  77
ATOM     77  C   UNL     1      -0.593 -15.478   8.720  1.00  0.00     0.058 A 
ATOM     78  C   UNL     1      -0.588 -14.924  10.010  1.00  0.00     0.135 A 
ATOM     79  C   UNL     1       0.446 -16.361   8.385  1.00  0.00     0.135 A 
ATOM     80  F   UNL     1      -1.545 -14.057  10.378  1.00  0.00    -0.206 F 
ATOM     81  C   UNL     1       0.425 -15.207  10.920  1.00  0.00     0.059 A 
ATOM     82  C   UNL     1       1.452 -16.685   9.290  1.00  0.00     0.059 A 
ATOM     83  F   UNL     1       0.494 -16.917   7.164  1.00  0.00    -0.206 F 
ATOM     84  C   UNL     1       1.442 -16.089  10.550  1.00  0.00     0.060 A 
BRANCH  84  85
ATOM     85  S   UNL     1       2.752 -16.442  11.740  1.00  0.00     0.124 S 
ATOM     86  O   UNL     1       3.481 -15.178  11.755  1.00  0.00    -0.237 OA
ATOM     87  O   UNL     1       1.997 -16.753  12.950  1.00  0.00    -0.237 OA
ATOM     88  O   UNL     1       3.463 -17.568  11.142  1.00  0.00    -0.744 OA
ENDBRANCH  84  85
ENDBRANCH  63  77
BRANCH  64  89
ATOM     89  C   UNL     1      -7.510 -12.948   1.945  1.00  0.00     0.058 A 
ATOM     90  C   UNL     1      -8.879 -12.956   2.249  1.00  0.00     0.135 A 
ATOM     91  C   UNL     1      -7.134 -12.589   0.640  1.00  0.00     0.135 A 
ATOM     92  F   UNL     1      -9.291 -13.307   3.477  1.00  0.00    -0.206 F 
ATOM     93  C   UNL     1      -9.840 -12.633   1.296  1.00  0.00     0.059 A 
ATOM     94  C   UNL     1      -8.075 -12.233  -0.322  1.00  0.00     0.059 A 
ATOM     95  F   UNL     1      -5.837 -12.561   0.296  1.00  0.00    -0.206 F 
ATOM     96  C   UNL     1      -9.428 -12.267   0.014  1.00  0.00     0.060 A 
BRANCH  96  97
ATOM     97  S   UNL     1     -10.685 -11.802  -1.197  1.00  0.00     0.124 S 
ATOM     98  O   UNL     1     -11.330 -13.084  -1.458  1.00  0.00    -0.237 OA
ATOM     99  O   UNL     1     -11.478 -10.829  -0.453  1.00  0.00    -0.237 OA
ATOM    100  O   UNL     1      -9.904 -11.254  -2.301  1.00  0.00    -0.744 OA
ENDBRANCH  96  97
ENDBRANCH  64  89
BRANCH  76 101
ATOM    101  C   UNL     1      -5.965 -18.882   5.299  1.00  0.00     0.058 A 
ATOM    102  C   UNL     1      -5.811 -19.737   4.197  1.00  0.00     0.135 A 
ATOM    103  C   UNL     1      -6.658 -19.377   6.418  1.00  0.00     0.135 A 
ATOM    104  F   UNL     1      -5.162 -19.316   3.100  1.00  0.00    -0.206 F 
ATOM    105  C   UNL     1      -6.344 -21.023   4.194  1.00  0.00     0.059 A 
ATOM    106  C   UNL     1      -7.170 -20.670   6.449  1.00  0.00     0.059 A 
ATOM    107  F   UNL     1      -6.824 -18.607   7.505  1.00  0.00    -0.206 F 
ATOM    108  C   UNL     1      -7.019 -21.482   5.327  1.00  0.00     0.060 A 
BRANCH 108 109
ATOM    109  S   UNL     1      -7.674 -23.165   5.322  1.00  0.00     0.124 S 
ATOM    110  O   UNL     1      -8.794 -23.042   4.395  1.00  0.00    -0.237 OA
ATOM    111  O   UNL     1      -6.535 -23.941   4.840  1.00  0.00    -0.237 OA
ATOM    112  O   UNL     1      -8.036 -23.394   6.717  1.00  0.00    -0.744 OA
ENDBRANCH 108 109
ENDBRANCH  76 101
ENDBRANCH  50  51
ENDBRANCH  43  45
ENDBRANCH  42  43
ENDBRANCH  41  42
ENDBRANCH  40  41
ENDBRANCH  39  40
ENDBRANCH  38  39
ENDBRANCH  37  38
ENDBRANCH   1  37
TORSDOF 28
