REMARK SMILES CC[C@@](C)([NH2+]CC(=O)N[C@@H](C)c1ccc(F)cc1)C(=O)OCCOCCOCCOCCOC(=O)c1ccc(-c2c3nc(c(-c4c(F)cc(S(=O)(=O)[O-])cc4F)c4ccc([nH]4)c(-c4c(F)cc(S(=O)(=O)[O-])cc4F)c4nc(c(-c5c(F)cc(S(=O)(=O)[O-])cc5F)c5ccc2[nH]5)C=C4)C=C3)cc1
REMARK SMILES IDX 26 1 25 2 24 3 23 4 22 5 21 6 19 7 20 8 3 9 4 10 2 11 1 12
REMARK SMILES IDX 5 13 6 16 7 17 8 18 9 19 10 21 11 22 12 23 13 24 18 25 14 26
REMARK SMILES IDX 17 27 15 28 16 29 27 30 28 31 29 32 30 33 31 34 32 35 33 36
REMARK SMILES IDX 34 37 35 38 36 39 37 40 101 41 38 42 100 43 39 44 40 45
REMARK SMILES IDX 41 46 94 47 42 48 99 49 93 50 95 51 43 52 98 53 92 54 91 55
REMARK SMILES IDX 44 57 78 58 57 59 77 60 58 61 61 62 76 63 96 64 59 65 60 66
REMARK SMILES IDX 75 68 97 69 62 70 45 71 46 72 55 73 47 74 48 75 54 76 56 77
REMARK SMILES IDX 49 78 50 79 51 80 52 81 53 82 79 83 80 84 89 85 81 86 82 87
REMARK SMILES IDX 88 88 90 89 83 90 84 91 85 92 86 93 87 94 63 95 64 96 73 97
REMARK SMILES IDX 65 98 66 99 72 100 74 101 67 102 68 103 69 104 70 105 71 106
REMARK H PARENT 5 14 5 15 9 20 95 56 61 67
REMARK Flexibility Score: inf
ROOT
ATOM      1  C   UNL     1       3.072  -3.982   0.089  1.00  0.00     0.188 C 
ENDROOT
BRANCH   1   2
ATOM      2  C   UNL     1       3.656  -2.827  -0.756  1.00  0.00     0.188 C 
BRANCH   2   3
ATOM      3  O   UNL     1       4.959  -2.327  -0.477  1.00  0.00    -0.376 OA
BRANCH   3   4
ATOM      4  C   UNL     1       5.286  -1.934   0.850  1.00  0.00     0.202 C 
BRANCH   4   5
ATOM      5  C   UNL     1       4.252  -1.236   1.752  1.00  0.00     0.261 C 
BRANCH   5   6
ATOM      6  O   UNL     1       2.902  -1.703   1.601  1.00  0.00    -0.459 OA
BRANCH   6   7
ATOM      7  C   UNL     1       1.860  -0.846   1.416  1.00  0.00     0.367 C 
ATOM      8  O   UNL     1       2.000   0.362   1.267  1.00  0.00    -0.245 OA
BRANCH   7   9
ATOM      9  C   UNL     1       0.473  -1.599   1.404  1.00  0.00     0.191 C 
ATOM     10  C   UNL     1      -0.767  -0.921   2.014  1.00  0.00     0.092 C 
BRANCH   9  11
ATOM     11  C   UNL     1       0.129  -1.732  -0.121  1.00  0.00     0.077 C 
ATOM     12  C   UNL     1       0.213  -0.397  -0.890  1.00  0.00     0.011 C 
ENDBRANCH   9  11
BRANCH   9  13
ATOM     13  N   UNL     1       0.544  -2.918   2.105  1.00  0.00    -0.325 N 
ATOM     14  H   UNL     1       1.077  -3.548   1.505  1.00  0.00     0.347 HD
ATOM     15  H   UNL     1      -0.433  -3.163   2.267  1.00  0.00     0.347 HD
BRANCH  13  16
ATOM     16  C   UNL     1       1.161  -2.983   3.466  1.00  0.00     0.362 C 
BRANCH  16  17
ATOM     17  C   UNL     1       0.457  -2.213   4.604  1.00  0.00     0.275 C 
ATOM     18  O   UNL     1      -0.572  -2.664   5.117  1.00  0.00    -0.268 OA
ATOM     19  N   UNL     1       0.956  -1.023   5.094  1.00  0.00    -0.345 N 
ATOM     20  H   UNL     1       0.675  -0.788   6.008  1.00  0.00     0.164 HD
BRANCH  19  21
ATOM     21  C   UNL     1       1.843  -0.067   4.443  1.00  0.00     0.109 C 
ATOM     22  C   UNL     1       1.086   1.188   3.970  1.00  0.00     0.036 C 
BRANCH  21  23
ATOM     23  C   UNL     1       3.170   0.238   5.122  1.00  0.00    -0.026 A 
ATOM     24  C   UNL     1       3.697   1.547   5.123  1.00  0.00     0.009 A 
ATOM     25  C   UNL     1       4.029  -0.819   5.470  1.00  0.00     0.009 A 
ATOM     26  C   UNL     1       5.053   1.780   5.341  1.00  0.00     0.039 A 
ATOM     27  C   UNL     1       5.387  -0.581   5.705  1.00  0.00     0.039 A 
ATOM     28  C   UNL     1       5.890   0.710   5.606  1.00  0.00     0.123 A 
ATOM     29  F   UNL     1       7.206   0.925   5.725  1.00  0.00    -0.207 F 
ENDBRANCH  21  23
ENDBRANCH  19  21
ENDBRANCH  16  17
ENDBRANCH  13  16
ENDBRANCH   9  13
ENDBRANCH   7   9
ENDBRANCH   6   7
ENDBRANCH   5   6
ENDBRANCH   4   5
ENDBRANCH   3   4
ENDBRANCH   2   3
ENDBRANCH   1   2
BRANCH   1  30
ATOM     30  O   UNL     1       3.770  -4.246   1.291  1.00  0.00    -0.377 OA
BRANCH  30  31
ATOM     31  C   UNL     1       4.732  -5.290   1.256  1.00  0.00     0.188 C 
BRANCH  31  32
ATOM     32  C   UNL     1       5.547  -5.492  -0.038  1.00  0.00     0.188 C 
BRANCH  32  33
ATOM     33  O   UNL     1       4.784  -5.494  -1.240  1.00  0.00    -0.376 OA
BRANCH  33  34
ATOM     34  C   UNL     1       4.365  -6.733  -1.794  1.00  0.00     0.202 C 
BRANCH  34  35
ATOM     35  C   UNL     1       3.350  -7.572  -0.997  1.00  0.00     0.261 C 
BRANCH  35  36
ATOM     36  O   UNL     1       3.771  -7.994   0.307  1.00  0.00    -0.460 OA
BRANCH  36  37
ATOM     37  C   UNL     1       4.902  -8.735   0.367  1.00  0.00     0.338 C 
ATOM     38  O   UNL     1       5.559  -9.140  -0.562  1.00  0.00    -0.246 OA
BRANCH  37  39
ATOM     39  C   UNL     1       5.320  -8.812   1.783  1.00  0.00     0.060 A 
ATOM     40  C   UNL     1       6.584  -8.321   2.127  1.00  0.00     0.016 A 
ATOM     41  C   UNL     1       4.495  -9.396   2.747  1.00  0.00     0.016 A 
ATOM     42  C   UNL     1       7.055  -8.471   3.428  1.00  0.00     0.010 A 
ATOM     43  C   UNL     1       4.978  -9.566   4.047  1.00  0.00     0.010 A 
ATOM     44  C   UNL     1       6.278  -9.147   4.378  1.00  0.00    -0.014 A 
BRANCH  44  45
ATOM     45  C   UNL     1       6.928  -9.602   5.630  1.00  0.00     0.031 A 
ATOM     46  C   UNL     1       7.446 -11.016   5.691  1.00  0.00     0.074 A 
ATOM     47  C   UNL     1       7.139  -8.753   6.652  1.00  0.00     0.049 A 
ATOM     48  N   UNL     1       8.082 -11.624   6.656  1.00  0.00    -0.248 NA
ATOM     49  C   UNL     1       7.223 -11.854   4.498  1.00  0.00     0.031 C 
ATOM     50  C   UNL     1       6.734  -7.348   6.681  1.00  0.00     0.029 A 
ATOM     51  N   UNL     1       7.763  -8.948   7.859  1.00  0.00    -0.354 N 
ATOM     52  C   UNL     1       8.342 -12.907   6.188  1.00  0.00     0.074 A 
ATOM     53  C   UNL     1       7.762 -13.006   4.868  1.00  0.00     0.031 C 
ATOM     54  C   UNL     1       7.129  -6.805   7.846  1.00  0.00     0.029 A 
ATOM     55  C   UNL     1       7.788  -7.829   8.656  1.00  0.00     0.049 A 
ATOM     56  H   UNL     1       8.156  -9.810   8.128  1.00  0.00     0.167 HD
ATOM     57  C   UNL     1       9.022 -13.906   6.796  1.00  0.00     0.037 A 
ATOM     58  C   UNL     1       8.281  -7.656   9.899  1.00  0.00     0.037 A 
ATOM     59  C   UNL     1       9.605 -13.799   8.107  1.00  0.00     0.049 A 
ATOM     60  C   UNL     1       8.958  -8.815  10.589  1.00  0.00     0.074 A 
ATOM     61  C   UNL     1      10.314 -14.757   8.811  1.00  0.00     0.029 A 
ATOM     62  N   UNL     1       9.551 -12.670   8.911  1.00  0.00    -0.354 N 
ATOM     63  N   UNL     1       9.200 -10.021  10.132  1.00  0.00    -0.248 NA
ATOM     64  C   UNL     1       9.432  -8.588  11.962  1.00  0.00     0.031 C 
ATOM     65  C   UNL     1      10.642 -14.226  10.061  1.00  0.00     0.029 A 
ATOM     66  C   UNL     1      10.192 -12.916  10.113  1.00  0.00     0.049 A 
ATOM     67  H   UNL     1       9.121 -11.820   8.663  1.00  0.00     0.167 HD
ATOM     68  C   UNL     1       9.877 -10.686  11.150  1.00  0.00     0.074 A 
ATOM     69  C   UNL     1      10.024  -9.742  12.238  1.00  0.00     0.031 C 
ATOM     70  C   UNL     1      10.334 -11.963  11.185  1.00  0.00     0.037 A 
BRANCH  57  71
ATOM     71  C   UNL     1       9.179 -15.208   6.062  1.00  0.00     0.058 A 
ATOM     72  C   UNL     1       8.519 -16.362   6.512  1.00  0.00     0.135 A 
ATOM     73  C   UNL     1      10.058 -15.338   4.975  1.00  0.00     0.135 A 
ATOM     74  F   UNL     1       7.657 -16.291   7.538  1.00  0.00    -0.206 F 
ATOM     75  C   UNL     1       8.754 -17.606   5.936  1.00  0.00     0.059 A 
ATOM     76  C   UNL     1      10.289 -16.568   4.365  1.00  0.00     0.059 A 
ATOM     77  F   UNL     1      10.692 -14.259   4.486  1.00  0.00    -0.206 F 
ATOM     78  C   UNL     1       9.648 -17.700   4.869  1.00  0.00     0.060 A 
BRANCH  78  79
ATOM     79  S   UNL     1       9.957 -19.326   4.149  1.00  0.00     0.124 S 
ATOM     80  O   UNL     1      10.637 -20.014   5.240  1.00  0.00    -0.237 OA
ATOM     81  O   UNL     1       8.604 -19.788   3.850  1.00  0.00    -0.237 OA
ATOM     82  O   UNL     1      10.781 -19.029   2.981  1.00  0.00    -0.744 OA
ENDBRANCH  78  79
ENDBRANCH  57  71
BRANCH  58  83
ATOM     83  C   UNL     1       8.157  -6.337  10.580  1.00  0.00     0.058 A 
ATOM     84  C   UNL     1       6.905  -5.832  10.964  1.00  0.00     0.135 A 
ATOM     85  C   UNL     1       9.290  -5.563  10.876  1.00  0.00     0.135 A 
ATOM     86  F   UNL     1       5.788  -6.529  10.703  1.00  0.00    -0.206 F 
ATOM     87  C   UNL     1       6.778  -4.603  11.601  1.00  0.00     0.059 A 
ATOM     88  C   UNL     1       9.191  -4.343  11.540  1.00  0.00     0.059 A 
ATOM     89  F   UNL     1      10.511  -6.009  10.544  1.00  0.00    -0.206 F 
ATOM     90  C   UNL     1       7.928  -3.866  11.887  1.00  0.00     0.060 A 
BRANCH  90  91
ATOM     91  S   UNL     1       7.740  -2.281  12.731  1.00  0.00     0.124 S 
ATOM     92  O   UNL     1       7.098  -1.476  11.696  1.00  0.00    -0.237 OA
ATOM     93  O   UNL     1       6.900  -2.640  13.869  1.00  0.00    -0.237 OA
ATOM     94  O   UNL     1       9.111  -1.907  13.058  1.00  0.00    -0.744 OA
ENDBRANCH  90  91
ENDBRANCH  58  83
BRANCH  70  95
ATOM     95  C   UNL     1      11.059 -12.414  12.425  1.00  0.00     0.058 A 
ATOM     96  C   UNL     1      12.434 -12.699  12.384  1.00  0.00     0.135 A 
ATOM     97  C   UNL     1      10.384 -12.623  13.639  1.00  0.00     0.135 A 
ATOM     98  F   UNL     1      13.128 -12.529  11.247  1.00  0.00    -0.206 F 
ATOM     99  C   UNL     1      13.112 -13.181  13.498  1.00  0.00     0.059 A 
ATOM    100  C   UNL     1      11.050 -13.073  14.776  1.00  0.00     0.059 A 
ATOM    101  F   UNL     1       9.071 -12.362  13.734  1.00  0.00    -0.206 F 
ATOM    102  C   UNL     1      12.412 -13.361  14.692  1.00  0.00     0.060 A 
BRANCH 102 103
ATOM    103  S   UNL     1      13.317 -13.945  16.140  1.00  0.00     0.124 S 
ATOM    104  O   UNL     1      13.598 -15.331  15.780  1.00  0.00    -0.237 OA
ATOM    105  O   UNL     1      14.470 -13.050  16.164  1.00  0.00    -0.237 OA
ATOM    106  O   UNL     1      12.366 -13.760  17.232  1.00  0.00    -0.744 OA
ENDBRANCH 102 103
ENDBRANCH  70  95
ENDBRANCH  44  45
ENDBRANCH  37  39
ENDBRANCH  36  37
ENDBRANCH  35  36
ENDBRANCH  34  35
ENDBRANCH  33  34
ENDBRANCH  32  33
ENDBRANCH  31  32
ENDBRANCH  30  31
ENDBRANCH   1  30
TORSDOF 29
