REMARK SMILES C[C@H]1CC[C@@H]([C@H](C(=O)OCCOCCOCCOCCOC(=O)c2ccc(-c3c4nc(c(-c5c(F)cc(S(=O)(=O)[O-])cc5F)c5ccc([nH]5)c(-c5c(F)cc(S(=O)(=O)[O-])cc5F)c5nc(c(-c6c(F)cc(S(=O)(=O)[O-])cc6F)c6ccc3[nH]6)C=C5)C=C4)cc2)[C@@H]2CCS(=O)(=O)C2)C[C@@H]1C
REMARK SMILES IDX 16 1 15 2 14 3 13 4 12 5 11 6 10 7 9 8 7 9 8 10 6 11 5 12
REMARK SMILES IDX 1 13 2 14 3 15 98 16 4 17 97 18 99 19 90 20 91 21 96 22
REMARK SMILES IDX 92 23 93 24 94 25 95 26 17 27 18 28 19 29 20 30 21 31 22 32
REMARK SMILES IDX 23 33 24 34 25 35 89 36 26 37 88 38 27 39 28 40 29 41 82 42
REMARK SMILES IDX 30 43 87 44 81 45 83 46 31 47 86 48 80 49 79 50 32 52 66 53
REMARK SMILES IDX 45 54 65 55 46 56 49 57 64 58 84 59 47 60 48 61 63 63 85 64
REMARK SMILES IDX 50 65 33 66 34 67 43 68 35 69 36 70 42 71 44 72 37 73 38 74
REMARK SMILES IDX 39 75 40 76 41 77 67 78 68 79 77 80 69 81 70 82 76 83 78 84
REMARK SMILES IDX 71 85 72 86 73 87 74 88 75 89 51 90 52 91 61 92 53 93 54 94
REMARK SMILES IDX 60 95 62 96 55 97 56 98 57 99 58 100 59 101
REMARK H PARENT 83 51 49 62
REMARK Flexibility Score: inf
ROOT
ATOM      1  C   UNL     1       3.029  -9.101  -1.060  1.00  0.00     0.188 C 
ENDROOT
BRANCH   1   2
ATOM      2  O   UNL     1       2.444  -7.802  -1.085  1.00  0.00    -0.377 OA
BRANCH   2   3
ATOM      3  C   UNL     1       1.632  -7.466  -2.192  1.00  0.00     0.188 C 
BRANCH   3   4
ATOM      4  C   UNL     1       2.413  -7.214  -3.502  1.00  0.00     0.188 C 
BRANCH   4   5
ATOM      5  O   UNL     1       3.749  -7.671  -3.466  1.00  0.00    -0.376 OA
BRANCH   5   6
ATOM      6  C   UNL     1       4.783  -6.784  -3.081  1.00  0.00     0.202 C 
BRANCH   6   7
ATOM      7  C   UNL     1       4.638  -5.746  -1.954  1.00  0.00     0.261 C 
BRANCH   7   8
ATOM      8  O   UNL     1       3.328  -5.259  -1.644  1.00  0.00    -0.463 OA
BRANCH   8   9
ATOM      9  C   UNL     1       2.777  -4.318  -2.445  1.00  0.00     0.309 C 
ATOM     10  O   UNL     1       3.291  -3.889  -3.469  1.00  0.00    -0.252 OA
BRANCH   9  11
ATOM     11  C   UNL     1       1.422  -3.842  -1.864  1.00  0.00     0.106 C 
BRANCH  11  12
ATOM     12  C   UNL     1       1.890  -2.902  -0.694  1.00  0.00     0.004 C 
ATOM     13  C   UNL     1      -0.463   0.650  -1.334  1.00  0.00     0.008 C 
ATOM     14  C   UNL     1       0.633  -0.201  -0.672  1.00  0.00    -0.011 C 
ATOM     15  C   UNL     1      -0.017  -1.371   0.112  1.00  0.00     0.004 C 
ATOM     16  C   UNL     1       1.717  -0.613  -1.703  1.00  0.00    -0.011 C 
ATOM     17  C   UNL     1       0.871  -2.570   0.394  1.00  0.00     0.005 C 
ATOM     18  C   UNL     1       2.655  -1.644  -1.105  1.00  0.00     0.008 C 
ATOM     19  C   UNL     1       2.510   0.565  -2.264  1.00  0.00     0.008 C 
ENDBRANCH  11  12
BRANCH  11  20
ATOM     20  C   UNL     1       0.499  -3.451  -3.091  1.00  0.00     0.019 C 
ATOM     21  C   UNL     1      -0.787  -2.635  -2.914  1.00  0.00     0.021 C 
ATOM     22  C   UNL     1      -0.047  -4.673  -3.884  1.00  0.00     0.141 C 
ATOM     23  C   UNL     1      -1.903  -3.523  -2.398  1.00  0.00     0.137 C 
ATOM     24  S   UNL     1      -1.692  -5.039  -3.285  1.00  0.00     0.150 S 
ATOM     25  O   UNL     1      -1.623  -6.128  -2.334  1.00  0.00    -0.229 OA
ATOM     26  O   UNL     1      -2.605  -5.054  -4.410  1.00  0.00    -0.229 OA
ENDBRANCH  11  20
ENDBRANCH   9  11
ENDBRANCH   8   9
ENDBRANCH   7   8
ENDBRANCH   6   7
ENDBRANCH   5   6
ENDBRANCH   4   5
ENDBRANCH   3   4
ENDBRANCH   2   3
ENDBRANCH   1   2
BRANCH   1  27
ATOM     27  C   UNL     1       2.976 -10.051  -2.285  1.00  0.00     0.188 C 
BRANCH  27  28
ATOM     28  O   UNL     1       1.844  -9.904  -3.130  1.00  0.00    -0.376 OA
BRANCH  28  29
ATOM     29  C   UNL     1       0.770 -10.820  -3.025  1.00  0.00     0.202 C 
BRANCH  29  30
ATOM     30  C   UNL     1       0.010 -10.885  -1.692  1.00  0.00     0.261 C 
BRANCH  30  31
ATOM     31  O   UNL     1       0.807 -11.120  -0.524  1.00  0.00    -0.460 OA
BRANCH  31  32
ATOM     32  C   UNL     1       1.515 -12.268  -0.476  1.00  0.00     0.338 C 
ATOM     33  O   UNL     1       1.524 -13.162  -1.308  1.00  0.00    -0.246 OA
BRANCH  32  34
ATOM     34  C   UNL     1       2.453 -12.165   0.660  1.00  0.00     0.060 A 
ATOM     35  C   UNL     1       3.831 -12.241   0.416  1.00  0.00     0.016 A 
ATOM     36  C   UNL     1       1.972 -11.964   1.955  1.00  0.00     0.016 A 
ATOM     37  C   UNL     1       4.732 -12.153   1.474  1.00  0.00     0.010 A 
ATOM     38  C   UNL     1       2.874 -11.908   3.019  1.00  0.00     0.010 A 
ATOM     39  C   UNL     1       4.254 -12.041   2.785  1.00  0.00    -0.014 A 
BRANCH  39  40
ATOM     40  C   UNL     1       5.178 -12.294   3.915  1.00  0.00     0.031 A 
ATOM     41  C   UNL     1       5.196 -13.675   4.512  1.00  0.00     0.074 A 
ATOM     42  C   UNL     1       6.004 -11.339   4.374  1.00  0.00     0.049 A 
ATOM     43  N   UNL     1       5.886 -14.134   5.522  1.00  0.00    -0.248 NA
ATOM     44  C   UNL     1       4.312 -14.673   3.884  1.00  0.00     0.031 C 
ATOM     45  C   UNL     1       6.106  -9.980   3.844  1.00  0.00     0.029 A 
ATOM     46  N   UNL     1       6.914 -11.369   5.401  1.00  0.00    -0.354 N 
ATOM     47  C   UNL     1       5.516 -15.467   5.656  1.00  0.00     0.074 A 
ATOM     48  C   UNL     1       4.517 -15.736   4.646  1.00  0.00     0.031 C 
ATOM     49  C   UNL     1       7.018  -9.301   4.562  1.00  0.00     0.029 A 
ATOM     50  C   UNL     1       7.539 -10.165   5.620  1.00  0.00     0.049 A 
ATOM     51  H   UNL     1       7.101 -12.178   5.932  1.00  0.00     0.167 HD
ATOM     52  C   UNL     1       5.974 -16.387   6.537  1.00  0.00     0.037 A 
ATOM     53  C   UNL     1       8.412  -9.801   6.581  1.00  0.00     0.037 A 
ATOM     54  C   UNL     1       6.968 -16.109   7.540  1.00  0.00     0.049 A 
ATOM     55  C   UNL     1       8.856 -10.825   7.597  1.00  0.00     0.074 A 
ATOM     56  C   UNL     1       7.514 -16.974   8.471  1.00  0.00     0.029 A 
ATOM     57  N   UNL     1       7.558 -14.870   7.749  1.00  0.00    -0.354 N 
ATOM     58  N   UNL     1       8.518 -12.089   7.699  1.00  0.00    -0.248 NA
ATOM     59  C   UNL     1       9.805 -10.375   8.625  1.00  0.00     0.031 C 
ATOM     60  C   UNL     1       8.388 -16.245   9.283  1.00  0.00     0.029 A 
ATOM     61  C   UNL     1       8.441 -14.941   8.814  1.00  0.00     0.049 A 
ATOM     62  H   UNL     1       7.376 -14.061   7.219  1.00  0.00     0.167 HD
ATOM     63  C   UNL     1       9.237 -12.591   8.781  1.00  0.00     0.074 A 
ATOM     64  C   UNL     1      10.038 -11.498   9.290  1.00  0.00     0.031 C 
ATOM     65  C   UNL     1       9.237 -13.844   9.305  1.00  0.00     0.037 A 
BRANCH  52  66
ATOM     66  C   UNL     1       5.383 -17.768   6.478  1.00  0.00     0.058 A 
ATOM     67  C   UNL     1       5.651 -18.648   5.417  1.00  0.00     0.135 A 
ATOM     68  C   UNL     1       4.566 -18.233   7.522  1.00  0.00     0.135 A 
ATOM     69  F   UNL     1       6.406 -18.248   4.381  1.00  0.00    -0.206 F 
ATOM     70  C   UNL     1       5.116 -19.931   5.384  1.00  0.00     0.059 A 
ATOM     71  C   UNL     1       4.045 -19.523   7.524  1.00  0.00     0.059 A 
ATOM     72  F   UNL     1       4.270 -17.431   8.557  1.00  0.00    -0.206 F 
ATOM     73  C   UNL     1       4.318 -20.362   6.445  1.00  0.00     0.060 A 
BRANCH  73  74
ATOM     74  S   UNL     1       3.652 -22.039   6.398  1.00  0.00     0.124 S 
ATOM     75  O   UNL     1       2.662 -21.930   5.331  1.00  0.00    -0.237 OA
ATOM     76  O   UNL     1       4.835 -22.833   6.086  1.00  0.00    -0.237 OA
ATOM     77  O   UNL     1       3.109 -22.228   7.739  1.00  0.00    -0.744 OA
ENDBRANCH  73  74
ENDBRANCH  52  66
BRANCH  53  78
ATOM     78  C   UNL     1       8.913  -8.401   6.645  1.00  0.00     0.058 A 
ATOM     79  C   UNL     1      10.261  -8.096   6.399  1.00  0.00     0.135 A 
ATOM     80  C   UNL     1       8.054  -7.338   6.968  1.00  0.00     0.135 A 
ATOM     81  F   UNL     1      11.126  -9.076   6.099  1.00  0.00    -0.206 F 
ATOM     82  C   UNL     1      10.743  -6.793   6.490  1.00  0.00     0.059 A 
ATOM     83  C   UNL     1       8.506  -6.024   7.035  1.00  0.00     0.059 A 
ATOM     84  F   UNL     1       6.754  -7.572   7.205  1.00  0.00    -0.206 F 
ATOM     85  C   UNL     1       9.856  -5.763   6.806  1.00  0.00     0.060 A 
BRANCH  85  86
ATOM     86  S   UNL     1      10.483  -4.071   6.876  1.00  0.00     0.124 S 
ATOM     87  O   UNL     1      11.282  -4.103   8.096  1.00  0.00    -0.237 OA
ATOM     88  O   UNL     1      11.229  -3.970   5.626  1.00  0.00    -0.237 OA
ATOM     89  O   UNL     1       9.268  -3.264   6.939  1.00  0.00    -0.744 OA
ENDBRANCH  85  86
ENDBRANCH  53  78
BRANCH  65  90
ATOM     90  C   UNL     1      10.163 -14.116  10.461  1.00  0.00     0.058 A 
ATOM     91  C   UNL     1       9.935 -13.580  11.738  1.00  0.00     0.135 A 
ATOM     92  C   UNL     1      11.268 -14.969  10.298  1.00  0.00     0.135 A 
ATOM     93  F   UNL     1       8.896 -12.758  11.951  1.00  0.00    -0.206 F 
ATOM     94  C   UNL     1      10.788 -13.853  12.804  1.00  0.00     0.059 A 
ATOM     95  C   UNL     1      12.114 -15.283  11.357  1.00  0.00     0.059 A 
ATOM     96  F   UNL     1      11.526 -15.521   9.102  1.00  0.00    -0.206 F 
ATOM     97  C   UNL     1      11.874 -14.707  12.604  1.00  0.00     0.060 A 
BRANCH  97  98
ATOM     98  S   UNL     1      12.959 -15.069  14.000  1.00  0.00     0.124 S 
ATOM     99  O   UNL     1      13.669 -13.804  14.157  1.00  0.00    -0.237 OA
ATOM    100  O   UNL     1      12.008 -15.398  15.057  1.00  0.00    -0.237 OA
ATOM    101  O   UNL     1      13.768 -16.187  13.522  1.00  0.00    -0.744 OA
ENDBRANCH  97  98
ENDBRANCH  65  90
ENDBRANCH  39  40
ENDBRANCH  32  34
ENDBRANCH  31  32
ENDBRANCH  30  31
ENDBRANCH  29  30
ENDBRANCH  28  29
ENDBRANCH  27  28
ENDBRANCH   1  27
TORSDOF 25
