REMARK SMILES Cc1ccccc1NC(=O)NC[C@@H]1CC[C@@H](C(=O)OCCOCCOCCOCCOC(=O)c2ccc(-c3c4nc(c(-c5c(F)cc(S(=O)(=O)[O-])cc5F)c5ccc([nH]5)c(-c5c(F)cc(S(=O)(=O)[O-])cc5F)c5nc(c(-c6c(F)cc(S(=O)(=O)[O-])cc6F)c6ccc3[nH]6)C=C5)C=C4)cc2)O1
REMARK SMILES IDX 25 1 24 2 23 3 22 4 21 5 20 6 19 7 17 8 18 9 16 10 13 11
REMARK SMILES IDX 14 12 100 13 15 14 12 15 11 16 8 17 9 18 10 20 7 22 1 23
REMARK SMILES IDX 2 24 3 25 4 26 6 27 5 28 26 29 27 30 28 31 29 32 30 33 31 34
REMARK SMILES IDX 32 35 33 36 34 37 35 38 99 39 36 40 98 41 37 42 38 43 39 44
REMARK SMILES IDX 92 45 40 46 97 47 91 48 93 49 41 50 96 51 90 52 89 53 42 55
REMARK SMILES IDX 76 56 55 57 75 58 56 59 59 60 74 61 94 62 57 63 58 64 73 66
REMARK SMILES IDX 95 67 60 68 43 69 44 70 53 71 45 72 46 73 52 74 54 75 47 76
REMARK SMILES IDX 48 77 49 78 50 79 51 80 77 81 78 82 87 83 79 84 80 85 86 86
REMARK SMILES IDX 88 87 81 88 82 89 83 90 84 91 85 92 61 93 62 94 71 95 63 96
REMARK SMILES IDX 64 97 70 98 72 99 65 100 66 101 67 102 68 103 69 104
REMARK H PARENT 8 19 11 21 93 54 59 65
REMARK Flexibility Score: inf
ROOT
ATOM      1  O   UNL     1      -4.136   2.300   3.915  1.00  0.00    -0.377 OA
ENDROOT
BRANCH   1   2
ATOM      2  C   UNL     1      -2.884   2.681   3.380  1.00  0.00     0.188 C 
BRANCH   2   3
ATOM      3  C   UNL     1      -2.805   4.058   2.707  1.00  0.00     0.188 C 
BRANCH   3   4
ATOM      4  O   UNL     1      -3.117   5.235   3.425  1.00  0.00    -0.376 OA
BRANCH   4   5
ATOM      5  C   UNL     1      -4.509   5.548   3.419  1.00  0.00     0.202 C 
BRANCH   5   6
ATOM      6  C   UNL     1      -5.159   5.838   2.066  1.00  0.00     0.261 C 
BRANCH   6   7
ATOM      7  O   UNL     1      -5.442   4.627   1.354  1.00  0.00    -0.461 OA
BRANCH   7   8
ATOM      8  C   UNL     1      -5.295   4.701   0.014  1.00  0.00     0.335 C 
ATOM      9  O   UNL     1      -5.129   5.738  -0.618  1.00  0.00    -0.249 OA
BRANCH   8  10
ATOM     10  C   UNL     1      -5.191   3.320  -0.624  1.00  0.00     0.228 C 
ATOM     11  C   UNL     1      -3.008   2.554  -0.518  1.00  0.00     0.138 C 
ATOM     12  C   UNL     1      -3.871   1.366  -0.156  1.00  0.00     0.037 C 
ATOM     13  O   UNL     1      -3.903   3.360  -1.291  1.00  0.00    -0.361 OA
ATOM     14  C   UNL     1      -5.157   2.075   0.265  1.00  0.00     0.047 C 
BRANCH  11  15
ATOM     15  C   UNL     1      -1.672   2.459  -1.251  1.00  0.00     0.149 C 
BRANCH  15  16
ATOM     16  N   UNL     1      -0.695   3.324  -0.560  1.00  0.00    -0.335 N 
ATOM     17  N   UNL     1       1.096   1.975   0.239  1.00  0.00    -0.308 N 
ATOM     18  C   UNL     1       0.491   3.160   0.040  1.00  0.00     0.319 C 
ATOM     19  H   UNL     1       2.061   2.063   0.415  1.00  0.00     0.171 HD
ATOM     20  O   UNL     1       1.120   4.175   0.356  1.00  0.00    -0.249 OA
ATOM     21  H   UNL     1      -0.992   4.262  -0.534  1.00  0.00     0.165 HD
BRANCH  17  22
ATOM     22  C   UNL     1       0.660   0.645   0.251  1.00  0.00     0.045 A 
ATOM     23  C   UNL     1       3.028  -0.212  -0.237  1.00  0.00     0.046 C 
ATOM     24  C   UNL     1       1.544  -0.392  -0.089  1.00  0.00    -0.027 A 
ATOM     25  C   UNL     1       1.029  -1.692  -0.258  1.00  0.00     0.005 A 
ATOM     26  C   UNL     1      -0.319  -1.967  -0.039  1.00  0.00     0.000 A 
ATOM     27  C   UNL     1      -0.640   0.318   0.629  1.00  0.00     0.026 A 
ATOM     28  C   UNL     1      -1.146  -0.969   0.449  1.00  0.00     0.002 A 
ENDBRANCH  17  22
ENDBRANCH  15  16
ENDBRANCH  11  15
ENDBRANCH   8  10
ENDBRANCH   7   8
ENDBRANCH   6   7
ENDBRANCH   5   6
ENDBRANCH   4   5
ENDBRANCH   3   4
ENDBRANCH   2   3
ENDBRANCH   1   2
BRANCH   1  29
ATOM     29  C   UNL     1      -4.252   2.190   5.340  1.00  0.00     0.188 C 
BRANCH  29  30
ATOM     30  C   UNL     1      -3.027   2.426   6.209  1.00  0.00     0.188 C 
BRANCH  30  31
ATOM     31  O   UNL     1      -2.649   3.785   5.998  1.00  0.00    -0.376 OA
BRANCH  31  32
ATOM     32  C   UNL     1      -1.295   4.115   6.235  1.00  0.00     0.202 C 
BRANCH  32  33
ATOM     33  C   UNL     1      -0.850   3.803   7.662  1.00  0.00     0.261 C 
BRANCH  33  34
ATOM     34  O   UNL     1      -1.382   4.766   8.603  1.00  0.00    -0.460 OA
BRANCH  34  35
ATOM     35  C   UNL     1      -2.476   4.389   9.339  1.00  0.00     0.338 C 
ATOM     36  O   UNL     1      -2.394   3.863  10.427  1.00  0.00    -0.246 OA
BRANCH  35  37
ATOM     37  C   UNL     1      -3.754   4.832   8.700  1.00  0.00     0.060 A 
ATOM     38  C   UNL     1      -4.989   4.237   9.000  1.00  0.00     0.016 A 
ATOM     39  C   UNL     1      -3.703   5.767   7.685  1.00  0.00     0.016 A 
ATOM     40  C   UNL     1      -6.115   4.428   8.159  1.00  0.00     0.010 A 
ATOM     41  C   UNL     1      -4.784   5.888   6.831  1.00  0.00     0.010 A 
ATOM     42  C   UNL     1      -6.000   5.200   7.006  1.00  0.00    -0.014 A 
BRANCH  42  43
ATOM     43  C   UNL     1      -6.955   5.295   5.859  1.00  0.00     0.031 A 
ATOM     44  C   UNL     1      -7.167   6.658   5.223  1.00  0.00     0.074 A 
ATOM     45  C   UNL     1      -7.297   4.176   5.156  1.00  0.00     0.049 A 
ATOM     46  N   UNL     1      -7.704   6.884   4.072  1.00  0.00    -0.248 NA
ATOM     47  C   UNL     1      -6.731   7.913   5.843  1.00  0.00     0.031 C 
ATOM     48  C   UNL     1      -7.494   4.088   3.699  1.00  0.00     0.029 A 
ATOM     49  N   UNL     1      -7.446   2.847   5.532  1.00  0.00    -0.354 N 
ATOM     50  C   UNL     1      -7.396   8.175   3.661  1.00  0.00     0.074 A 
ATOM     51  C   UNL     1      -6.839   8.790   4.836  1.00  0.00     0.031 C 
ATOM     52  C   UNL     1      -7.777   2.834   3.319  1.00  0.00     0.029 A 
ATOM     53  C   UNL     1      -8.110   2.127   4.524  1.00  0.00     0.049 A 
ATOM     54  H   UNL     1      -7.133   2.465   6.384  1.00  0.00     0.167 HD
ATOM     55  C   UNL     1      -7.548   8.508   2.337  1.00  0.00     0.037 A 
ATOM     56  C   UNL     1      -9.377   1.654   4.740  1.00  0.00     0.037 A 
ATOM     57  C   UNL     1      -8.309   7.456   1.632  1.00  0.00     0.049 A 
ATOM     58  C   UNL     1     -10.415   2.448   3.941  1.00  0.00     0.074 A 
ATOM     59  C   UNL     1      -8.097   6.684   0.502  1.00  0.00     0.029 A 
ATOM     60  N   UNL     1      -9.465   6.946   2.222  1.00  0.00    -0.354 N 
ATOM     61  N   UNL     1     -10.227   3.688   3.544  1.00  0.00    -0.248 NA
ATOM     62  C   UNL     1     -11.636   1.884   3.365  1.00  0.00     0.031 C 
ATOM     63  C   UNL     1      -9.030   5.608   0.520  1.00  0.00     0.029 A 
ATOM     64  C   UNL     1      -9.889   5.798   1.593  1.00  0.00     0.049 A 
ATOM     65  H   UNL     1      -9.920   7.355   2.993  1.00  0.00     0.167 HD
ATOM     66  C   UNL     1     -11.187   4.049   2.638  1.00  0.00     0.074 A 
ATOM     67  C   UNL     1     -12.068   2.897   2.587  1.00  0.00     0.031 C 
ATOM     68  C   UNL     1     -11.181   5.221   1.929  1.00  0.00     0.037 A 
BRANCH  55  69
ATOM     69  C   UNL     1      -6.882   9.677   1.577  1.00  0.00     0.058 A 
ATOM     70  C   UNL     1      -7.180   9.909   0.208  1.00  0.00     0.135 A 
ATOM     71  C   UNL     1      -5.870  10.530   2.077  1.00  0.00     0.135 A 
ATOM     72  F   UNL     1      -8.143   9.220  -0.420  1.00  0.00    -0.206 F 
ATOM     73  C   UNL     1      -6.521  10.857  -0.592  1.00  0.00     0.059 A 
ATOM     74  C   UNL     1      -5.233  11.527   1.308  1.00  0.00     0.059 A 
ATOM     75  F   UNL     1      -5.418  10.426   3.332  1.00  0.00    -0.206 F 
ATOM     76  C   UNL     1      -5.551  11.673  -0.034  1.00  0.00     0.060 A 
BRANCH  76  77
ATOM     77  S   UNL     1      -4.767  12.938  -1.063  1.00  0.00     0.124 S 
ATOM     78  O   UNL     1      -3.956  12.140  -1.976  1.00  0.00    -0.237 OA
ATOM     79  O   UNL     1      -5.915  13.612  -1.662  1.00  0.00    -0.237 OA
ATOM     80  O   UNL     1      -4.014  13.741  -0.103  1.00  0.00    -0.744 OA
ENDBRANCH  76  77
ENDBRANCH  55  69
BRANCH  56  81
ATOM     81  C   UNL     1      -9.433   0.921   6.052  1.00  0.00     0.058 A 
ATOM     82  C   UNL     1      -8.658  -0.266   6.051  1.00  0.00     0.135 A 
ATOM     83  C   UNL     1      -9.452   1.656   7.253  1.00  0.00     0.135 A 
ATOM     84  F   UNL     1      -8.637  -1.042   4.954  1.00  0.00    -0.206 F 
ATOM     85  C   UNL     1      -7.710  -0.525   7.040  1.00  0.00     0.059 A 
ATOM     86  C   UNL     1      -8.520   1.397   8.272  1.00  0.00     0.059 A 
ATOM     87  F   UNL     1     -10.191   2.771   7.346  1.00  0.00    -0.206 F 
ATOM     88  C   UNL     1      -7.595   0.362   8.107  1.00  0.00     0.060 A 
BRANCH  88  89
ATOM     89  S   UNL     1      -6.086   0.280   9.112  1.00  0.00     0.124 S 
ATOM     90  O   UNL     1      -6.200  -1.031   9.735  1.00  0.00    -0.237 OA
ATOM     91  O   UNL     1      -5.047   0.414   8.092  1.00  0.00    -0.237 OA
ATOM     92  O   UNL     1      -6.222   1.421  10.009  1.00  0.00    -0.744 OA
ENDBRANCH  88  89
ENDBRANCH  56  81
BRANCH  68  93
ATOM     93  C   UNL     1     -12.412   5.950   1.418  1.00  0.00     0.058 A 
ATOM     94  C   UNL     1     -13.712   5.673   1.867  1.00  0.00     0.135 A 
ATOM     95  C   UNL     1     -12.292   7.122   0.617  1.00  0.00     0.135 A 
ATOM     96  F   UNL     1     -13.966   4.669   2.716  1.00  0.00    -0.206 F 
ATOM     97  C   UNL     1     -14.809   6.452   1.506  1.00  0.00     0.059 A 
ATOM     98  C   UNL     1     -13.363   7.949   0.301  1.00  0.00     0.059 A 
ATOM     99  F   UNL     1     -11.115   7.541   0.130  1.00  0.00    -0.206 F 
ATOM    100  C   UNL     1     -14.626   7.590   0.729  1.00  0.00     0.060 A 
BRANCH 100 101
ATOM    101  S   UNL     1     -16.049   8.607   0.324  1.00  0.00     0.124 S 
ATOM    102  O   UNL     1     -16.664   7.825  -0.745  1.00  0.00    -0.237 OA
ATOM    103  O   UNL     1     -16.782   8.637   1.586  1.00  0.00    -0.237 OA
ATOM    104  O   UNL     1     -15.461   9.879  -0.082  1.00  0.00    -0.744 OA
ENDBRANCH 100 101
ENDBRANCH  68  93
ENDBRANCH  42  43
ENDBRANCH  35  37
ENDBRANCH  34  35
ENDBRANCH  33  34
ENDBRANCH  32  33
ENDBRANCH  31  32
ENDBRANCH  30  31
ENDBRANCH  29  30
ENDBRANCH   1  29
TORSDOF 26
