REMARK SMILES C[C@H]1CCc2sc3ncn4nc(/C=C\C(=O)OCCOCCOCCOCCOC(=O)c5ccc(-c6c7nc(c(-c8c(F)cc(S(=O)(=O)[O-])cc8F)c8ccc([nH]8)c(-c8c(F)cc(S(=O)(=O)[O-])cc8F)c8nc(c(-c9c(F)cc(S(=O)(=O)[O-])cc9F)c9ccc6[nH]9)C=C8)C=C7)cc5)nc4c3c2C1
REMARK SMILES IDX 24 1 23 2 22 3 21 4 20 5 19 6 18 7 17 8 15 9 16 10 14 11
REMARK SMILES IDX 13 12 12 13 1 14 2 15 3 16 102 17 4 18 101 19 5 20 100 21
REMARK SMILES IDX 6 22 7 23 99 24 8 25 10 26 98 27 9 28 11 29 25 30 26 31
REMARK SMILES IDX 27 32 28 33 29 34 30 35 31 36 32 37 33 38 97 39 34 40 96 41
REMARK SMILES IDX 35 42 36 43 37 44 90 45 38 46 95 47 89 48 91 49 39 50 94 51
REMARK SMILES IDX 88 52 87 53 40 55 74 56 53 57 73 58 54 59 57 60 72 61 92 62
REMARK SMILES IDX 55 63 56 64 71 66 93 67 58 68 41 69 42 70 51 71 43 72 44 73
REMARK SMILES IDX 50 74 52 75 45 76 46 77 47 78 48 79 49 80 75 81 76 82 85 83
REMARK SMILES IDX 77 84 78 85 84 86 86 87 79 88 80 89 81 90 82 91 83 92 59 93
REMARK SMILES IDX 60 94 69 95 61 96 62 97 68 98 70 99 63 100 64 101 65 102
REMARK SMILES IDX 66 103 67 104
REMARK H PARENT 91 54 57 65
REMARK Flexibility Score: inf
ROOT
ATOM      1  C   UNL     1       4.748  -1.960  -0.551  1.00  0.00     0.188 C 
ENDROOT
BRANCH   1   2
ATOM      2  O   UNL     1       5.641  -2.540  -1.475  1.00  0.00    -0.377 OA
BRANCH   2   3
ATOM      3  C   UNL     1       5.419  -2.333  -2.863  1.00  0.00     0.188 C 
BRANCH   3   4
ATOM      4  C   UNL     1       4.768  -1.040  -3.419  1.00  0.00     0.188 C 
BRANCH   4   5
ATOM      5  O   UNL     1       3.985  -0.325  -2.484  1.00  0.00    -0.376 OA
BRANCH   5   6
ATOM      6  C   UNL     1       2.650  -0.008  -2.830  1.00  0.00     0.202 C 
BRANCH   6   7
ATOM      7  C   UNL     1       1.722  -1.208  -2.927  1.00  0.00     0.261 C 
BRANCH   7   8
ATOM      8  O   UNL     1       2.259  -2.353  -3.574  1.00  0.00    -0.460 OA
BRANCH   8   9
ATOM      9  C   UNL     1       2.183  -2.487  -4.903  1.00  0.00     0.330 C 
ATOM     10  O   UNL     1       1.776  -1.665  -5.691  1.00  0.00    -0.247 OA
BRANCH   9  11
ATOM     11  C   UNL     1       2.894  -3.730  -5.296  1.00  0.00     0.097 C 
ATOM     12  C   UNL     1       3.089  -4.881  -4.628  1.00  0.00     0.058 C 
BRANCH  12  13
ATOM     13  C   UNL     1       2.648  -5.356  -3.347  1.00  0.00     0.175 A 
ATOM     14  C   UNL     1      -1.522  -1.543   0.411  1.00  0.00     0.008 C 
ATOM     15  C   UNL     1      -0.059  -1.592   0.856  1.00  0.00    -0.009 C 
ATOM     16  C   UNL     1       0.104  -1.844   2.368  1.00  0.00     0.009 C 
ATOM     17  C   UNL     1       0.735  -2.618   0.038  1.00  0.00     0.041 C 
ATOM     18  C   UNL     1      -0.265  -3.278   2.807  1.00  0.00     0.047 C 
ATOM     19  C   UNL     1       0.735  -3.995   0.578  1.00  0.00    -0.020 A 
ATOM     20  C   UNL     1       0.286  -4.291   1.846  1.00  0.00     0.011 A 
ATOM     21  C   UNL     1       1.219  -5.150  -0.073  1.00  0.00     0.060 A 
ATOM     22  S   UNL     1       0.390  -5.962   2.194  1.00  0.00    -0.120 S 
ATOM     23  C   UNL     1       1.089  -6.315   0.664  1.00  0.00     0.129 A 
ATOM     24  C   UNL     1       1.831  -5.343  -1.403  1.00  0.00     0.168 A 
ATOM     25  N   UNL     1       1.443  -7.590   0.282  1.00  0.00    -0.225 NA
ATOM     26  N   UNL     1       2.203  -6.607  -1.737  1.00  0.00    -0.201 N 
ATOM     27  N   UNL     1       2.084  -4.530  -2.397  1.00  0.00    -0.207 NA
ATOM     28  C   UNL     1       1.996  -7.705  -0.902  1.00  0.00     0.227 A 
ATOM     29  N   UNL     1       2.734  -6.649  -2.975  1.00  0.00    -0.145 NA
ENDBRANCH  12  13
ENDBRANCH   9  11
ENDBRANCH   8   9
ENDBRANCH   7   8
ENDBRANCH   6   7
ENDBRANCH   5   6
ENDBRANCH   4   5
ENDBRANCH   3   4
ENDBRANCH   2   3
ENDBRANCH   1   2
BRANCH   1  30
ATOM     30  C   UNL     1       5.208  -0.616   0.057  1.00  0.00     0.188 C 
BRANCH  30  31
ATOM     31  O   UNL     1       6.048   0.323  -0.607  1.00  0.00    -0.376 OA
BRANCH  31  32
ATOM     32  C   UNL     1       7.201   0.007  -1.370  1.00  0.00     0.202 C 
BRANCH  32  33
ATOM     33  C   UNL     1       8.286  -0.980  -0.956  1.00  0.00     0.261 C 
BRANCH  33  34
ATOM     34  O   UNL     1       7.830  -2.044  -0.164  1.00  0.00    -0.460 OA
BRANCH  34  35
ATOM     35  C   UNL     1       7.741  -1.724   1.137  1.00  0.00     0.338 C 
ATOM     36  O   UNL     1       7.947  -0.634   1.644  1.00  0.00    -0.246 OA
BRANCH  35  37
ATOM     37  C   UNL     1       7.480  -2.957   1.890  1.00  0.00     0.060 A 
ATOM     38  C   UNL     1       7.610  -2.785   3.263  1.00  0.00     0.016 A 
ATOM     39  C   UNL     1       7.723  -4.183   1.249  1.00  0.00     0.016 A 
ATOM     40  C   UNL     1       8.403  -3.690   3.913  1.00  0.00     0.010 A 
ATOM     41  C   UNL     1       8.511  -5.091   1.905  1.00  0.00     0.010 A 
ATOM     42  C   UNL     1       8.943  -4.760   3.182  1.00  0.00    -0.014 A 
BRANCH  42  43
ATOM     43  C   UNL     1       9.873  -5.619   3.873  1.00  0.00     0.031 A 
ATOM     44  C   UNL     1       9.152  -6.402   4.892  1.00  0.00     0.074 A 
ATOM     45  C   UNL     1      11.187  -5.684   3.590  1.00  0.00     0.049 A 
ATOM     46  N   UNL     1       9.074  -6.134   6.151  1.00  0.00    -0.248 NA
ATOM     47  C   UNL     1       8.164  -7.389   4.424  1.00  0.00     0.031 C 
ATOM     48  C   UNL     1      11.914  -5.111   2.453  1.00  0.00     0.029 A 
ATOM     49  N   UNL     1      12.159  -6.360   4.258  1.00  0.00    -0.354 N 
ATOM     50  C   UNL     1       8.248  -7.118   6.673  1.00  0.00     0.074 A 
ATOM     51  C   UNL     1       7.526  -7.673   5.561  1.00  0.00     0.031 C 
ATOM     52  C   UNL     1      13.152  -5.663   2.387  1.00  0.00     0.029 A 
ATOM     53  C   UNL     1      13.358  -6.497   3.559  1.00  0.00     0.049 A 
ATOM     54  H   UNL     1      12.028  -6.724   5.163  1.00  0.00     0.167 HD
ATOM     55  C   UNL     1       8.504  -7.630   7.906  1.00  0.00     0.037 A 
ATOM     56  C   UNL     1      14.399  -7.285   3.938  1.00  0.00     0.037 A 
ATOM     57  C   UNL     1       9.413  -6.776   8.630  1.00  0.00     0.049 A 
ATOM     58  C   UNL     1      14.248  -7.497   5.400  1.00  0.00     0.074 A 
ATOM     59  C   UNL     1       9.356  -5.533   9.224  1.00  0.00     0.029 A 
ATOM     60  N   UNL     1      10.736  -7.059   8.403  1.00  0.00    -0.354 N 
ATOM     61  N   UNL     1      14.381  -6.546   6.282  1.00  0.00    -0.248 NA
ATOM     62  C   UNL     1      13.564  -8.695   5.870  1.00  0.00     0.031 C 
ATOM     63  C   UNL     1      10.673  -4.992   9.131  1.00  0.00     0.029 A 
ATOM     64  C   UNL     1      11.508  -5.938   8.537  1.00  0.00     0.049 A 
ATOM     65  H   UNL     1      11.083  -7.951   8.174  1.00  0.00     0.167 HD
ATOM     66  C   UNL     1      13.448  -6.844   7.259  1.00  0.00     0.074 A 
ATOM     67  C   UNL     1      13.096  -8.242   7.036  1.00  0.00     0.031 C 
ATOM     68  C   UNL     1      12.828  -5.843   7.948  1.00  0.00     0.037 A 
BRANCH  55  69
ATOM     69  C   UNL     1       8.378  -9.102   8.230  1.00  0.00     0.058 A 
ATOM     70  C   UNL     1       8.530  -9.522   9.565  1.00  0.00     0.135 A 
ATOM     71  C   UNL     1       8.405 -10.133   7.261  1.00  0.00     0.135 A 
ATOM     72  F   UNL     1       8.555  -8.625  10.564  1.00  0.00    -0.206 F 
ATOM     73  C   UNL     1       8.731 -10.861   9.906  1.00  0.00     0.059 A 
ATOM     74  C   UNL     1       8.546 -11.475   7.584  1.00  0.00     0.059 A 
ATOM     75  F   UNL     1       8.401  -9.892   5.946  1.00  0.00    -0.206 F 
ATOM     76  C   UNL     1       8.739 -11.829   8.906  1.00  0.00     0.060 A 
BRANCH  76  77
ATOM     77  S   UNL     1       9.045 -13.550   9.332  1.00  0.00     0.124 S 
ATOM     78  O   UNL     1      10.429 -13.498   9.788  1.00  0.00    -0.237 OA
ATOM     79  O   UNL     1       8.038 -13.786  10.360  1.00  0.00    -0.237 OA
ATOM     80  O   UNL     1       8.821 -14.254   8.072  1.00  0.00    -0.744 OA
ENDBRANCH  76  77
ENDBRANCH  55  69
BRANCH  56  81
ATOM     81  C   UNL     1      15.283  -8.171   3.132  1.00  0.00     0.058 A 
ATOM     82  C   UNL     1      16.392  -8.801   3.735  1.00  0.00     0.135 A 
ATOM     83  C   UNL     1      14.859  -8.707   1.903  1.00  0.00     0.135 A 
ATOM     84  F   UNL     1      16.869  -8.350   4.905  1.00  0.00    -0.206 F 
ATOM     85  C   UNL     1      16.969  -9.962   3.213  1.00  0.00     0.059 A 
ATOM     86  C   UNL     1      15.425  -9.863   1.358  1.00  0.00     0.059 A 
ATOM     87  F   UNL     1      13.808  -8.186   1.252  1.00  0.00    -0.206 F 
ATOM     88  C   UNL     1      16.451 -10.509   2.042  1.00  0.00     0.060 A 
BRANCH  88  89
ATOM     89  S   UNL     1      17.029 -12.138   1.501  1.00  0.00     0.124 S 
ATOM     90  O   UNL     1      18.412 -11.860   1.127  1.00  0.00    -0.237 OA
ATOM     91  O   UNL     1      16.844 -12.944   2.703  1.00  0.00    -0.237 OA
ATOM     92  O   UNL     1      16.136 -12.463   0.392  1.00  0.00    -0.744 OA
ENDBRANCH  88  89
ENDBRANCH  56  81
BRANCH  68  93
ATOM     93  C   UNL     1      13.529  -4.516   8.009  1.00  0.00     0.058 A 
ATOM     94  C   UNL     1      13.732  -3.645   6.925  1.00  0.00     0.135 A 
ATOM     95  C   UNL     1      13.957  -4.083   9.273  1.00  0.00     0.135 A 
ATOM     96  F   UNL     1      13.282  -3.952   5.699  1.00  0.00    -0.206 F 
ATOM     97  C   UNL     1      14.373  -2.413   7.090  1.00  0.00     0.059 A 
ATOM     98  C   UNL     1      14.566  -2.851   9.466  1.00  0.00     0.059 A 
ATOM     99  F   UNL     1      13.749  -4.856  10.352  1.00  0.00    -0.206 F 
ATOM    100  C   UNL     1      14.788  -2.027   8.367  1.00  0.00     0.060 A 
BRANCH 100 101
ATOM    101  S   UNL     1      15.591  -0.426   8.597  1.00  0.00     0.124 S 
ATOM    102  O   UNL     1      16.854  -0.609   7.889  1.00  0.00    -0.237 OA
ATOM    103  O   UNL     1      14.643   0.495   7.976  1.00  0.00    -0.237 OA
ATOM    104  O   UNL     1      15.704  -0.305  10.049  1.00  0.00    -0.744 OA
ENDBRANCH 100 101
ENDBRANCH  68  93
ENDBRANCH  42  43
ENDBRANCH  35  37
ENDBRANCH  34  35
ENDBRANCH  33  34
ENDBRANCH  32  33
ENDBRANCH  31  32
ENDBRANCH  30  31
ENDBRANCH   1  30
TORSDOF 24
