REMARK SMILES Cc1c(NC(=O)c2ccccc2NC(=O)[C@@H]2CCCO2)cccc1C(=O)OCCOCCOCCOCCOC(=O)c1ccc(-c2c3nc(c(-c4c(F)cc(S(=O)(=O)[O-])cc4F)c4ccc([nH]4)c(-c4c(F)cc(S(=O)(=O)[O-])cc4F)c4nc(c(-c5c(F)cc(S(=O)(=O)[O-])cc5F)c5ccc2[nH]5)C=C4)C=C3)cc1
REMARK SMILES IDX 32 1 31 2 30 3 29 4 28 5 27 6 25 7 26 8 24 9 1 10 2 11 3 12
REMARK SMILES IDX 21 13 23 14 22 15 4 16 5 17 6 19 7 20 8 21 12 22 9 23 11 24
REMARK SMILES IDX 10 25 13 26 14 27 15 29 16 30 17 31 20 32 18 33 19 34 33 35
REMARK SMILES IDX 34 36 35 37 36 38 37 39 38 40 39 41 40 42 41 43 42 44 43 45
REMARK SMILES IDX 107 46 44 47 106 48 45 49 46 50 47 51 100 52 48 53 105 54
REMARK SMILES IDX 99 55 101 56 49 57 104 58 98 59 97 60 50 62 84 63 63 64
REMARK SMILES IDX 83 65 64 66 67 67 82 68 102 69 65 70 66 71 81 73 103 74
REMARK SMILES IDX 68 75 51 76 52 77 61 78 53 79 54 80 60 81 62 82 55 83 56 84
REMARK SMILES IDX 57 85 58 86 59 87 85 88 86 89 95 90 87 91 88 92 94 93 96 94
REMARK SMILES IDX 89 95 90 96 91 97 92 98 93 99 69 100 70 101 79 102 71 103
REMARK SMILES IDX 72 104 78 105 80 106 73 107 74 108 75 109 76 110 77 111
REMARK H PARENT 4 18 13 28 101 61 67 72
REMARK Flexibility Score: inf
ROOT
ATOM      1  C   UNL     1       0.053   1.634  -2.546  1.00  0.00     0.188 C 
ENDROOT
BRANCH   1   2
ATOM      2  C   UNL     1      -1.011   2.657  -2.108  1.00  0.00     0.188 C 
BRANCH   2   3
ATOM      3  O   UNL     1      -0.679   4.011  -1.869  1.00  0.00    -0.376 OA
BRANCH   3   4
ATOM      4  C   UNL     1       0.215   4.228  -0.789  1.00  0.00     0.202 C 
BRANCH   4   5
ATOM      5  C   UNL     1      -0.227   3.776   0.578  1.00  0.00     0.261 C 
BRANCH   5   6
ATOM      6  O   UNL     1      -0.145   2.364   0.650  1.00  0.00    -0.460 OA
BRANCH   6   7
ATOM      7  C   UNL     1      -1.146   1.822   1.352  1.00  0.00     0.338 C 
ATOM      8  O   UNL     1      -1.949   2.394   2.053  1.00  0.00    -0.246 OA
BRANCH   7   9
ATOM      9  C   UNL     1      -1.335   0.421   0.927  1.00  0.00     0.065 A 
ATOM     10  C   UNL     1       1.109  -0.267   0.458  1.00  0.00     0.047 C 
ATOM     11  C   UNL     1      -0.350  -0.562   0.700  1.00  0.00    -0.013 A 
ATOM     12  C   UNL     1      -0.792  -1.895   0.586  1.00  0.00     0.045 A 
ATOM     13  C   UNL     1      -2.166  -2.184   0.625  1.00  0.00     0.026 A 
ATOM     14  C   UNL     1      -2.700   0.124   0.779  1.00  0.00     0.016 A 
ATOM     15  C   UNL     1      -3.118  -1.177   0.621  1.00  0.00     0.003 A 
BRANCH  12  16
ATOM     16  N   UNL     1       0.170  -2.921   0.419  1.00  0.00    -0.322 N 
ATOM     17  C   UNL     1       0.058  -4.143  -0.209  1.00  0.00     0.257 C 
ATOM     18  H   UNL     1       1.053  -2.732   0.811  1.00  0.00     0.170 HD
ATOM     19  O   UNL     1       0.919  -5.007  -0.065  1.00  0.00    -0.269 OA
BRANCH  17  20
ATOM     20  C   UNL     1      -1.093  -4.412  -1.107  1.00  0.00     0.063 A 
ATOM     21  C   UNL     1      -1.774  -5.617  -0.876  1.00  0.00     0.016 A 
ATOM     22  C   UNL     1      -1.551  -3.487  -2.074  1.00  0.00     0.054 A 
ATOM     23  C   UNL     1      -2.983  -5.862  -1.513  1.00  0.00     0.001 A 
ATOM     24  C   UNL     1      -2.826  -3.704  -2.596  1.00  0.00     0.027 A 
ATOM     25  C   UNL     1      -3.533  -4.881  -2.328  1.00  0.00     0.002 A 
BRANCH  22  26
ATOM     26  N   UNL     1      -0.683  -2.450  -2.480  1.00  0.00    -0.323 N 
ATOM     27  C   UNL     1      -0.686  -1.516  -3.471  1.00  0.00     0.253 C 
ATOM     28  H   UNL     1       0.117  -2.386  -1.909  1.00  0.00     0.170 HD
ATOM     29  O   UNL     1       0.401  -0.988  -3.727  1.00  0.00    -0.272 OA
BRANCH  27  30
ATOM     30  C   UNL     1      -1.928  -1.181  -4.291  1.00  0.00     0.207 C 
ATOM     31  C   UNL     1      -2.001  -2.168  -5.447  1.00  0.00     0.044 C 
ATOM     32  O   UNL     1      -1.925   0.128  -4.889  1.00  0.00    -0.368 OA
ATOM     33  C   UNL     1      -2.723  -1.388  -6.506  1.00  0.00     0.032 C 
ATOM     34  C   UNL     1      -2.168   0.000  -6.294  1.00  0.00     0.161 C 
ENDBRANCH  27  30
ENDBRANCH  22  26
ENDBRANCH  17  20
ENDBRANCH  12  16
ENDBRANCH   7   9
ENDBRANCH   6   7
ENDBRANCH   5   6
ENDBRANCH   4   5
ENDBRANCH   3   4
ENDBRANCH   2   3
ENDBRANCH   1   2
BRANCH   1  35
ATOM     35  O   UNL     1       1.393   1.776  -2.126  1.00  0.00    -0.377 OA
BRANCH  35  36
ATOM     36  C   UNL     1       2.354   2.205  -3.092  1.00  0.00     0.188 C 
BRANCH  36  37
ATOM     37  C   UNL     1       1.935   2.571  -4.498  1.00  0.00     0.188 C 
BRANCH  37  38
ATOM     38  O   UNL     1       0.984   3.626  -4.365  1.00  0.00    -0.376 OA
BRANCH  38  39
ATOM     39  C   UNL     1       0.206   3.882  -5.513  1.00  0.00     0.202 C 
BRANCH  39  40
ATOM     40  C   UNL     1       1.059   4.232  -6.733  1.00  0.00     0.261 C 
BRANCH  40  41
ATOM     41  O   UNL     1       1.549   5.599  -6.669  1.00  0.00    -0.460 OA
BRANCH  41  42
ATOM     42  C   UNL     1       2.863   5.834  -6.358  1.00  0.00     0.338 C 
ATOM     43  O   UNL     1       3.689   6.158  -7.197  1.00  0.00    -0.246 OA
BRANCH  42  44
ATOM     44  C   UNL     1       3.110   5.959  -4.891  1.00  0.00     0.060 A 
ATOM     45  C   UNL     1       4.379   5.815  -4.306  1.00  0.00     0.016 A 
ATOM     46  C   UNL     1       2.039   6.217  -4.062  1.00  0.00     0.016 A 
ATOM     47  C   UNL     1       4.534   5.707  -2.902  1.00  0.00     0.010 A 
ATOM     48  C   UNL     1       2.193   6.080  -2.695  1.00  0.00     0.010 A 
ATOM     49  C   UNL     1       3.416   5.761  -2.078  1.00  0.00    -0.014 A 
BRANCH  49  50
ATOM     50  C   UNL     1       3.339   5.404  -0.631  1.00  0.00     0.031 A 
ATOM     51  C   UNL     1       2.544   6.314   0.285  1.00  0.00     0.074 A 
ATOM     52  C   UNL     1       3.595   4.117  -0.254  1.00  0.00     0.049 A 
ATOM     53  N   UNL     1       2.127   6.014   1.467  1.00  0.00    -0.248 NA
ATOM     54  C   UNL     1       2.060   7.640  -0.110  1.00  0.00     0.031 C 
ATOM     55  C   UNL     1       2.991   3.384   0.862  1.00  0.00     0.029 A 
ATOM     56  N   UNL     1       4.386   3.130  -0.825  1.00  0.00    -0.354 N 
ATOM     57  C   UNL     1       1.095   6.868   1.830  1.00  0.00     0.074 A 
ATOM     58  C   UNL     1       1.145   7.908   0.835  1.00  0.00     0.031 C 
ATOM     59  C   UNL     1       3.448   2.127   0.942  1.00  0.00     0.029 A 
ATOM     60  C   UNL     1       4.586   2.071   0.070  1.00  0.00     0.049 A 
ATOM     61  H   UNL     1       4.756   3.169  -1.737  1.00  0.00     0.167 HD
ATOM     62  C   UNL     1       0.264   6.505   2.863  1.00  0.00     0.037 A 
ATOM     63  C   UNL     1       5.844   1.845   0.549  1.00  0.00     0.037 A 
ATOM     64  C   UNL     1       0.801   5.310   3.560  1.00  0.00     0.049 A 
ATOM     65  C   UNL     1       5.871   2.309   2.013  1.00  0.00     0.074 A 
ATOM     66  C   UNL     1       0.303   4.063   3.898  1.00  0.00     0.029 A 
ATOM     67  N   UNL     1       2.168   5.251   3.856  1.00  0.00    -0.354 N 
ATOM     68  N   UNL     1       5.180   3.339   2.471  1.00  0.00    -0.248 NA
ATOM     69  C   UNL     1       6.323   1.431   3.097  1.00  0.00     0.031 C 
ATOM     70  C   UNL     1       1.416   3.210   4.189  1.00  0.00     0.029 A 
ATOM     71  C   UNL     1       2.587   3.962   4.129  1.00  0.00     0.049 A 
ATOM     72  H   UNL     1       2.762   6.037   3.869  1.00  0.00     0.167 HD
ATOM     73  C   UNL     1       4.923   3.152   3.811  1.00  0.00     0.074 A 
ATOM     74  C   UNL     1       5.712   1.976   4.165  1.00  0.00     0.031 C 
ATOM     75  C   UNL     1       3.950   3.724   4.593  1.00  0.00     0.037 A 
BRANCH  62  76
ATOM     76  C   UNL     1      -1.127   7.095   3.201  1.00  0.00     0.058 A 
ATOM     77  C   UNL     1      -1.804   6.704   4.387  1.00  0.00     0.135 A 
ATOM     78  C   UNL     1      -1.892   7.965   2.387  1.00  0.00     0.135 A 
ATOM     79  F   UNL     1      -1.218   5.899   5.284  1.00  0.00    -0.206 F 
ATOM     80  C   UNL     1      -3.104   7.118   4.725  1.00  0.00     0.059 A 
ATOM     81  C   UNL     1      -3.181   8.434   2.730  1.00  0.00     0.059 A 
ATOM     82  F   UNL     1      -1.447   8.386   1.197  1.00  0.00    -0.206 F 
ATOM     83  C   UNL     1      -3.788   7.994   3.897  1.00  0.00     0.060 A 
BRANCH  83  84
ATOM     84  S   UNL     1      -5.432   8.572   4.393  1.00  0.00     0.124 S 
ATOM     85  O   UNL     1      -6.242   7.365   4.257  1.00  0.00    -0.237 OA
ATOM     86  O   UNL     1      -5.206   9.030   5.760  1.00  0.00    -0.237 OA
ATOM     87  O   UNL     1      -5.730   9.630   3.430  1.00  0.00    -0.744 OA
ENDBRANCH  83  84
ENDBRANCH  62  76
BRANCH  63  88
ATOM     88  C   UNL     1       6.808   1.819  -0.612  1.00  0.00     0.058 A 
ATOM     89  C   UNL     1       6.633   0.688  -1.455  1.00  0.00     0.135 A 
ATOM     90  C   UNL     1       7.209   3.005  -1.259  1.00  0.00     0.135 A 
ATOM     91  F   UNL     1       6.278  -0.491  -0.915  1.00  0.00    -0.206 F 
ATOM     92  C   UNL     1       6.589   0.787  -2.850  1.00  0.00     0.059 A 
ATOM     93  C   UNL     1       7.182   3.121  -2.665  1.00  0.00     0.059 A 
ATOM     94  F   UNL     1       7.408   4.124  -0.545  1.00  0.00    -0.206 F 
ATOM     95  C   UNL     1       6.799   2.026  -3.445  1.00  0.00     0.060 A 
BRANCH  95  96
ATOM     96  S   UNL     1       6.344   2.217  -5.197  1.00  0.00     0.124 S 
ATOM     97  O   UNL     1       7.452   1.560  -5.876  1.00  0.00    -0.237 OA
ATOM     98  O   UNL     1       5.056   1.529  -5.260  1.00  0.00    -0.237 OA
ATOM     99  O   UNL     1       6.271   3.661  -5.368  1.00  0.00    -0.744 OA
ENDBRANCH  95  96
ENDBRANCH  63  88
BRANCH  75 100
ATOM    100  C   UNL     1       4.297   4.217   5.981  1.00  0.00     0.058 A 
ATOM    101  C   UNL     1       5.625   4.348   6.417  1.00  0.00     0.135 A 
ATOM    102  C   UNL     1       3.310   4.778   6.835  1.00  0.00     0.135 A 
ATOM    103  F   UNL     1       6.661   3.948   5.665  1.00  0.00    -0.206 F 
ATOM    104  C   UNL     1       5.949   4.931   7.633  1.00  0.00     0.059 A 
ATOM    105  C   UNL     1       3.620   5.422   8.023  1.00  0.00     0.059 A 
ATOM    106  F   UNL     1       2.003   4.747   6.540  1.00  0.00    -0.206 F 
ATOM    107  C   UNL     1       4.941   5.461   8.430  1.00  0.00     0.060 A 
BRANCH 107 108
ATOM    108  S   UNL     1       5.384   6.193  10.004  1.00  0.00     0.124 S 
ATOM    109  O   UNL     1       5.566   5.000  10.826  1.00  0.00    -0.237 OA
ATOM    110  O   UNL     1       6.603   6.928   9.677  1.00  0.00    -0.237 OA
ATOM    111  O   UNL     1       4.229   7.020  10.334  1.00  0.00    -0.744 OA
ENDBRANCH 107 108
ENDBRANCH  75 100
ENDBRANCH  49  50
ENDBRANCH  42  44
ENDBRANCH  41  42
ENDBRANCH  40  41
ENDBRANCH  39  40
ENDBRANCH  38  39
ENDBRANCH  37  38
ENDBRANCH  36  37
ENDBRANCH  35  36
ENDBRANCH   1  35
TORSDOF 27
