REMARK SMILES O=C(OCCOCCOCCOCCOC(=O)[C@]1(NC(=O)C2CCN(C(=O)C3CC3)CC2)CCCc2ccccc21)c1ccc(-c2c3nc(c(-c4c(F)cc(S(=O)(=O)[O-])cc4F)c4ccc([nH]4)c(-c4c(F)cc(S(=O)(=O)[O-])cc4F)c4nc(c(-c5c(F)cc(S(=O)(=O)[O-])cc5F)c5ccc2[nH]5)C=C4)C=C3)cc1
REMARK SMILES IDX 9 1 8 2 7 3 6 4 5 5 4 6 3 7 2 8 1 9 42 10 43 11 107 12 44 13
REMARK SMILES IDX 106 14 45 15 46 16 47 17 100 18 48 19 105 20 99 21 101 22
REMARK SMILES IDX 49 23 104 24 98 25 97 26 50 28 84 29 63 30 83 31 64 32 67 33
REMARK SMILES IDX 82 34 102 35 65 36 66 37 81 39 103 40 68 41 51 42 52 43
REMARK SMILES IDX 61 44 53 45 54 46 60 47 62 48 55 49 56 50 57 51 58 52 59 53
REMARK SMILES IDX 85 54 86 55 95 56 87 57 88 58 94 59 96 60 89 61 90 62 91 63
REMARK SMILES IDX 92 64 93 65 69 66 70 67 79 68 71 69 72 70 78 71 80 72 73 73
REMARK SMILES IDX 74 74 75 75 76 76 77 77 10 78 11 79 12 80 13 81 14 82 15 83
REMARK SMILES IDX 16 84 17 85 18 86 33 87 41 88 34 89 36 90 40 91 35 92 37 93
REMARK SMILES IDX 39 94 38 95 19 96 20 97 21 99 22 100 23 101 32 102 24 103
REMARK SMILES IDX 31 104 25 105 26 106 27 107 28 108 29 109 30 110
REMARK H PARENT 101 27 67 38 19 98
REMARK Flexibility Score: inf
ROOT
ATOM      1  O   UNL     1       1.653  -2.842   1.548  1.00  0.00    -0.377 OA
ENDROOT
BRANCH   1   2
ATOM      2  C   UNL     1       1.310  -1.952   0.501  1.00  0.00     0.188 C 
BRANCH   2   3
ATOM      3  C   UNL     1       1.953  -0.567   0.605  1.00  0.00     0.188 C 
BRANCH   3   4
ATOM      4  O   UNL     1       3.348  -0.623   0.286  1.00  0.00    -0.376 OA
BRANCH   4   5
ATOM      5  C   UNL     1       4.234   0.175   1.075  1.00  0.00     0.202 C 
BRANCH   5   6
ATOM      6  C   UNL     1       4.335   1.636   0.644  1.00  0.00     0.261 C 
BRANCH   6   7
ATOM      7  O   UNL     1       3.093   2.153   0.161  1.00  0.00    -0.460 OA
BRANCH   7   8
ATOM      8  C   UNL     1       2.540   1.967  -1.065  1.00  0.00     0.338 C 
ATOM      9  O   UNL     1       1.410   2.422  -1.246  1.00  0.00    -0.246 OA
BRANCH   8  10
ATOM     10  C   UNL     1       3.176   1.204  -2.196  1.00  0.00     0.060 A 
ATOM     11  C   UNL     1       4.310   0.389  -2.118  1.00  0.00     0.016 A 
ATOM     12  C   UNL     1       2.533   1.296  -3.445  1.00  0.00     0.016 A 
ATOM     13  C   UNL     1       4.810  -0.288  -3.212  1.00  0.00     0.010 A 
ATOM     14  C   UNL     1       3.050   0.653  -4.572  1.00  0.00     0.010 A 
ATOM     15  C   UNL     1       4.215  -0.108  -4.450  1.00  0.00    -0.014 A 
BRANCH  15  16
ATOM     16  C   UNL     1       5.036  -0.469  -5.609  1.00  0.00     0.031 A 
ATOM     17  C   UNL     1       5.838   0.638  -6.225  1.00  0.00     0.074 A 
ATOM     18  C   UNL     1       5.211  -1.760  -5.931  1.00  0.00     0.049 A 
ATOM     19  N   UNL     1       6.590   0.625  -7.286  1.00  0.00    -0.248 NA
ATOM     20  C   UNL     1       5.804   1.940  -5.527  1.00  0.00     0.031 C 
ATOM     21  C   UNL     1       4.623  -2.896  -5.216  1.00  0.00     0.029 A 
ATOM     22  N   UNL     1       5.958  -2.334  -6.919  1.00  0.00    -0.354 N 
ATOM     23  C   UNL     1       7.081   1.919  -7.407  1.00  0.00     0.074 A 
ATOM     24  C   UNL     1       6.556   2.694  -6.311  1.00  0.00     0.031 C 
ATOM     25  C   UNL     1       5.027  -4.036  -5.802  1.00  0.00     0.029 A 
ATOM     26  C   UNL     1       5.832  -3.701  -6.970  1.00  0.00     0.049 A 
ATOM     27  H   UNL     1       6.530  -1.820  -7.533  1.00  0.00     0.167 HD
ATOM     28  C   UNL     1       7.892   2.406  -8.371  1.00  0.00     0.037 A 
ATOM     29  C   UNL     1       6.276  -4.559  -7.906  1.00  0.00     0.037 A 
ATOM     30  C   UNL     1       8.376   1.583  -9.443  1.00  0.00     0.049 A 
ATOM     31  C   UNL     1       7.051  -3.972  -9.058  1.00  0.00     0.074 A 
ATOM     32  C   UNL     1       9.120   1.943 -10.547  1.00  0.00     0.029 A 
ATOM     33  N   UNL     1       8.148   0.213  -9.533  1.00  0.00    -0.354 N 
ATOM     34  N   UNL     1       7.422  -2.724  -9.248  1.00  0.00    -0.248 NA
ATOM     35  C   UNL     1       7.450  -4.890 -10.128  1.00  0.00     0.031 C 
ATOM     36  C   UNL     1       9.295   0.798 -11.333  1.00  0.00     0.029 A 
ATOM     37  C   UNL     1       8.718  -0.288 -10.685  1.00  0.00     0.049 A 
ATOM     38  H   UNL     1       7.652  -0.321  -8.871  1.00  0.00     0.167 HD
ATOM     39  C   UNL     1       8.119  -2.710 -10.448  1.00  0.00     0.074 A 
ATOM     40  C   UNL     1       8.126  -4.080 -10.931  1.00  0.00     0.031 C 
ATOM     41  C   UNL     1       8.700  -1.671 -11.101  1.00  0.00     0.037 A 
BRANCH  28  42
ATOM     42  C   UNL     1       8.191   3.877  -8.342  1.00  0.00     0.058 A 
ATOM     43  C   UNL     1       9.013   4.460  -7.364  1.00  0.00     0.135 A 
ATOM     44  C   UNL     1       7.590   4.731  -9.281  1.00  0.00     0.135 A 
ATOM     45  F   UNL     1       9.575   3.698  -6.412  1.00  0.00    -0.206 F 
ATOM     46  C   UNL     1       9.211   5.837  -7.304  1.00  0.00     0.059 A 
ATOM     47  C   UNL     1       7.795   6.108  -9.258  1.00  0.00     0.059 A 
ATOM     48  F   UNL     1       6.772   4.233 -10.222  1.00  0.00    -0.206 F 
ATOM     49  C   UNL     1       8.596   6.653  -8.257  1.00  0.00     0.060 A 
BRANCH  49  50
ATOM     50  S   UNL     1       8.858   8.437  -8.164  1.00  0.00     0.124 S 
ATOM     51  O   UNL     1       8.091   8.784  -6.972  1.00  0.00    -0.237 OA
ATOM     52  O   UNL     1      10.309   8.530  -8.032  1.00  0.00    -0.237 OA
ATOM     53  O   UNL     1       8.313   8.928  -9.425  1.00  0.00    -0.744 OA
ENDBRANCH  49  50
ENDBRANCH  28  42
BRANCH  29  54
ATOM     54  C   UNL     1       5.933  -6.005  -7.833  1.00  0.00     0.058 A 
ATOM     55  C   UNL     1       6.920  -6.988  -7.679  1.00  0.00     0.135 A 
ATOM     56  C   UNL     1       4.597  -6.438  -7.916  1.00  0.00     0.135 A 
ATOM     57  F   UNL     1       8.212  -6.633  -7.601  1.00  0.00    -0.206 F 
ATOM     58  C   UNL     1       6.602  -8.344  -7.630  1.00  0.00     0.059 A 
ATOM     59  C   UNL     1       4.251  -7.784  -7.841  1.00  0.00     0.059 A 
ATOM     60  F   UNL     1       3.606  -5.544  -8.056  1.00  0.00    -0.206 F 
ATOM     61  C   UNL     1       5.263  -8.732  -7.713  1.00  0.00     0.060 A 
BRANCH  61  62
ATOM     62  S   UNL     1       4.857 -10.491  -7.644  1.00  0.00     0.124 S 
ATOM     63  O   UNL     1       5.363 -10.961  -8.928  1.00  0.00    -0.237 OA
ATOM     64  O   UNL     1       5.596 -10.932  -6.465  1.00  0.00    -0.237 OA
ATOM     65  O   UNL     1       3.403 -10.496  -7.501  1.00  0.00    -0.744 OA
ENDBRANCH  61  62
ENDBRANCH  29  54
BRANCH  41  66
ATOM     66  C   UNL     1       9.428  -1.992 -12.371  1.00  0.00     0.058 A 
ATOM     67  C   UNL     1       8.742  -2.300 -13.555  1.00  0.00     0.135 A 
ATOM     68  C   UNL     1      10.828  -1.904 -12.415  1.00  0.00     0.135 A 
ATOM     69  F   UNL     1       7.404  -2.401 -13.556  1.00  0.00    -0.206 F 
ATOM     70  C   UNL     1       9.425  -2.527 -14.742  1.00  0.00     0.059 A 
ATOM     71  C   UNL     1      11.528  -2.093 -13.598  1.00  0.00     0.059 A 
ATOM     72  F   UNL     1      11.523  -1.597 -11.308  1.00  0.00    -0.206 F 
ATOM     73  C   UNL     1      10.818  -2.413 -14.754  1.00  0.00     0.060 A 
BRANCH  73  74
ATOM     74  S   UNL     1      11.687  -2.652 -16.316  1.00  0.00     0.124 S 
ATOM     75  O   UNL     1      11.573  -4.095 -16.495  1.00  0.00    -0.237 OA
ATOM     76  O   UNL     1      10.902  -1.834 -17.236  1.00  0.00    -0.237 OA
ATOM     77  O   UNL     1      13.031  -2.157 -16.036  1.00  0.00    -0.744 OA
ENDBRANCH  73  74
ENDBRANCH  41  66
ENDBRANCH  15  16
ENDBRANCH   8  10
ENDBRANCH   7   8
ENDBRANCH   6   7
ENDBRANCH   5   6
ENDBRANCH   4   5
ENDBRANCH   3   4
ENDBRANCH   2   3
ENDBRANCH   1   2
BRANCH   1  78
ATOM     78  C   UNL     1       3.016  -2.808   1.919  1.00  0.00     0.188 C 
BRANCH  78  79
ATOM     79  C   UNL     1       4.074  -3.260   0.901  1.00  0.00     0.188 C 
BRANCH  79  80
ATOM     80  O   UNL     1       3.583  -3.847  -0.277  1.00  0.00    -0.376 OA
BRANCH  80  81
ATOM     81  C   UNL     1       3.073  -5.168  -0.250  1.00  0.00     0.202 C 
BRANCH  81  82
ATOM     82  C   UNL     1       2.784  -5.956   1.048  1.00  0.00     0.261 C 
BRANCH  82  83
ATOM     83  O   UNL     1       3.405  -5.467   2.253  1.00  0.00    -0.461 OA
BRANCH  83  84
ATOM     84  C   UNL     1       4.483  -6.091   2.769  1.00  0.00     0.336 C 
ATOM     85  O   UNL     1       4.888  -7.166   2.336  1.00  0.00    -0.249 OA
BRANCH  84  86
ATOM     86  C   UNL     1       5.122  -5.374   4.021  1.00  0.00     0.164 C 
ATOM     87  C   UNL     1       4.639  -6.295   5.188  1.00  0.00     0.046 C 
ATOM     88  C   UNL     1       4.690  -3.932   4.452  1.00  0.00    -0.008 A 
ATOM     89  C   UNL     1       3.118  -6.210   5.382  1.00  0.00     0.008 C 
ATOM     90  C   UNL     1       3.518  -3.703   5.227  1.00  0.00    -0.042 A 
ATOM     91  C   UNL     1       5.470  -2.788   4.156  1.00  0.00     0.007 A 
ATOM     92  C   UNL     1       2.677  -4.817   5.797  1.00  0.00     0.036 C 
ATOM     93  C   UNL     1       3.109  -2.390   5.562  1.00  0.00     0.004 A 
ATOM     94  C   UNL     1       5.078  -1.493   4.544  1.00  0.00     0.000 A 
ATOM     95  C   UNL     1       3.881  -1.289   5.215  1.00  0.00     0.000 A 
BRANCH  86  96
ATOM     96  N   UNL     1       6.622  -5.453   3.959  1.00  0.00    -0.336 N 
ATOM     97  C   UNL     1       7.538  -5.123   2.993  1.00  0.00     0.224 C 
ATOM     98  H   UNL     1       7.030  -5.815   4.778  1.00  0.00     0.164 HD
ATOM     99  O   UNL     1       8.639  -4.729   3.389  1.00  0.00    -0.275 OA
BRANCH  97 100
ATOM    100  C   UNL     1       7.262  -5.290   1.496  1.00  0.00     0.082 C 
ATOM    101  C   UNL     1       7.528  -6.732   1.033  1.00  0.00     0.035 C 
ATOM    102  C   UNL     1       7.996  -4.242   0.625  1.00  0.00     0.035 C 
ATOM    103  C   UNL     1       8.974  -6.990   0.632  1.00  0.00     0.120 C 
ATOM    104  C   UNL     1       9.427  -4.644   0.266  1.00  0.00     0.120 C 
ATOM    105  N   UNL     1       9.420  -5.977  -0.318  1.00  0.00    -0.342 N 
ATOM    106  C   UNL     1       9.611  -6.368  -1.644  1.00  0.00     0.225 C 
ATOM    107  O   UNL     1       9.428  -7.548  -1.972  1.00  0.00    -0.275 OA
BRANCH 106 108
ATOM    108  C   UNL     1      10.075  -5.478  -2.749  1.00  0.00     0.079 C 
ATOM    109  C   UNL     1       9.888  -4.001  -2.934  1.00  0.00     0.014 C 
ATOM    110  C   UNL     1      11.249  -4.547  -2.583  1.00  0.00     0.014 C 
ENDBRANCH 106 108
ENDBRANCH  97 100
ENDBRANCH  86  96
ENDBRANCH  84  86
ENDBRANCH  83  84
ENDBRANCH  82  83
ENDBRANCH  81  82
ENDBRANCH  80  81
ENDBRANCH  79  80
ENDBRANCH  78  79
ENDBRANCH   1  78
TORSDOF 26
