REMARK SMILES N#C[C@@H]1CN(C(=O)NCCCC(=O)OCCOCCOCCOCCOC(=O)c2ccc(-c3c4nc(c(-c5c(F)cc(S(=O)(=O)[O-])cc5F)c5ccc([nH]5)c(-c5c(F)cc(S(=O)(=O)[O-])cc5F)c5nc(c(-c6c(F)cc(S(=O)(=O)[O-])cc6F)c6ccc3[nH]6)C=C5)C=C4)cc2)CCO1
REMARK SMILES IDX 19 1 18 2 17 3 16 4 15 5 14 6 12 7 13 8 11 9 10 10 9 11 8 12
REMARK SMILES IDX 6 13 7 14 5 16 3 17 4 18 97 19 96 20 95 21 2 22 1 23 20 24
REMARK SMILES IDX 21 25 22 26 23 27 24 28 25 29 26 30 27 31 28 32 29 33 30 34
REMARK SMILES IDX 94 35 31 36 93 37 32 38 33 39 34 40 87 41 35 42 92 43 86 44
REMARK SMILES IDX 88 45 36 46 91 47 85 48 84 49 37 51 71 52 50 53 70 54 51 55
REMARK SMILES IDX 54 56 69 57 89 58 52 59 53 60 68 62 90 63 55 64 38 65 39 66
REMARK SMILES IDX 48 67 40 68 41 69 47 70 49 71 42 72 43 73 44 74 45 75 46 76
REMARK SMILES IDX 72 77 73 78 82 79 74 80 75 81 81 82 83 83 76 84 77 85 78 86
REMARK SMILES IDX 79 87 80 88 56 89 57 90 66 91 58 92 59 93 65 94 67 95 60 96
REMARK SMILES IDX 61 97 62 98 63 99 64 100
REMARK H PARENT 8 15 88 50 54 61
REMARK Flexibility Score: inf
ROOT
ATOM      1  C   UNL     1       2.693   6.097   0.453  1.00  0.00     0.188 C 
ENDROOT
BRANCH   1   2
ATOM      2  C   UNL     1       1.872   7.359   0.147  1.00  0.00     0.188 C 
BRANCH   2   3
ATOM      3  O   UNL     1       0.546   7.391   0.623  1.00  0.00    -0.376 OA
BRANCH   3   4
ATOM      4  C   UNL     1      -0.522   6.794  -0.095  1.00  0.00     0.202 C 
BRANCH   4   5
ATOM      5  C   UNL     1      -0.387   5.980  -1.393  1.00  0.00     0.261 C 
BRANCH   5   6
ATOM      6  O   UNL     1       0.937   5.656  -1.817  1.00  0.00    -0.463 OA
BRANCH   6   7
ATOM      7  C   UNL     1       1.369   6.180  -2.981  1.00  0.00     0.305 C 
ATOM      8  O   UNL     1       0.769   7.036  -3.621  1.00  0.00    -0.252 OA
BRANCH   7   9
ATOM      9  C   UNL     1       2.724   5.657  -3.420  1.00  0.00     0.124 C 
BRANCH   9  10
ATOM     10  C   UNL     1       3.446   4.517  -2.688  1.00  0.00     0.033 C 
BRANCH  10  11
ATOM     11  C   UNL     1       2.602   3.344  -2.186  1.00  0.00     0.118 C 
BRANCH  11  12
ATOM     12  N   UNL     1       2.663   2.244  -3.119  1.00  0.00    -0.338 N 
ATOM     13  C   UNL     1       3.313   1.087  -3.268  1.00  0.00     0.317 C 
ATOM     14  O   UNL     1       3.103   0.526  -4.348  1.00  0.00    -0.249 OA
ATOM     15  H   UNL     1       2.041   2.390  -3.868  1.00  0.00     0.165 HD
BRANCH  13  16
ATOM     16  N   UNL     1       4.130   0.534  -2.331  1.00  0.00    -0.319 N 
ATOM     17  C   UNL     1       3.834   0.036   0.076  1.00  0.00     0.240 C 
ATOM     18  C   UNL     1       4.466   0.967  -0.972  1.00  0.00     0.169 C 
ATOM     19  O   UNL     1       4.336  -1.313  -0.162  1.00  0.00    -0.360 OA
ATOM     20  C   UNL     1       4.022  -1.780  -1.495  1.00  0.00     0.183 C 
ATOM     21  C   UNL     1       4.587  -0.843  -2.574  1.00  0.00     0.150 C 
BRANCH  17  22
ATOM     22  C   UNL     1       2.314   0.036   0.076  1.00  0.00     0.096 C 
ATOM     23  N   UNL     1       1.054   0.036   0.076  1.00  0.00    -0.195 NA
ENDBRANCH  17  22
ENDBRANCH  13  16
ENDBRANCH  11  12
ENDBRANCH  10  11
ENDBRANCH   9  10
ENDBRANCH   7   9
ENDBRANCH   6   7
ENDBRANCH   5   6
ENDBRANCH   4   5
ENDBRANCH   3   4
ENDBRANCH   2   3
ENDBRANCH   1   2
BRANCH   1  24
ATOM     24  O   UNL     1       2.003   4.872   0.603  1.00  0.00    -0.377 OA
BRANCH  24  25
ATOM     25  C   UNL     1       1.219   4.646   1.774  1.00  0.00     0.188 C 
BRANCH  25  26
ATOM     26  C   UNL     1       1.150   5.676   2.925  1.00  0.00     0.188 C 
BRANCH  26  27
ATOM     27  O   UNL     1       2.275   6.532   3.043  1.00  0.00    -0.376 OA
BRANCH  27  28
ATOM     28  C   UNL     1       3.252   6.222   4.025  1.00  0.00     0.202 C 
BRANCH  28  29
ATOM     29  C   UNL     1       4.026   4.907   3.843  1.00  0.00     0.261 C 
BRANCH  29  30
ATOM     30  O   UNL     1       3.235   3.709   3.853  1.00  0.00    -0.460 OA
BRANCH  30  31
ATOM     31  C   UNL     1       2.523   3.454   4.972  1.00  0.00     0.338 C 
ATOM     32  O   UNL     1       2.508   4.114   6.000  1.00  0.00    -0.246 OA
BRANCH  31  33
ATOM     33  C   UNL     1       1.617   2.328   4.685  1.00  0.00     0.060 A 
ATOM     34  C   UNL     1       0.234   2.540   4.732  1.00  0.00     0.016 A 
ATOM     35  C   UNL     1       2.135   1.068   4.382  1.00  0.00     0.016 A 
ATOM     36  C   UNL     1      -0.640   1.476   4.512  1.00  0.00     0.010 A 
ATOM     37  C   UNL     1       1.259  -0.000   4.180  1.00  0.00     0.010 A 
ATOM     38  C   UNL     1      -0.131   0.192   4.281  1.00  0.00    -0.014 A 
BRANCH  38  39
ATOM     39  C   UNL     1      -1.038  -0.980   4.355  1.00  0.00     0.031 A 
ATOM     40  C   UNL     1      -1.085  -1.762   5.640  1.00  0.00     0.074 A 
ATOM     41  C   UNL     1      -1.820  -1.329   3.319  1.00  0.00     0.049 A 
ATOM     42  N   UNL     1      -1.750  -2.850   5.928  1.00  0.00    -0.248 NA
ATOM     43  C   UNL     1      -0.266  -1.246   6.750  1.00  0.00     0.031 C 
ATOM     44  C   UNL     1      -1.891  -0.626   2.041  1.00  0.00     0.029 A 
ATOM     45  N   UNL     1      -2.697  -2.376   3.178  1.00  0.00    -0.354 N 
ATOM     46  C   UNL     1      -1.421  -3.155   7.244  1.00  0.00     0.074 A 
ATOM     47  C   UNL     1      -0.474  -2.157   7.688  1.00  0.00     0.031 C 
ATOM     48  C   UNL     1      -2.755  -1.270   1.237  1.00  0.00     0.029 A 
ATOM     49  C   UNL     1      -3.269  -2.450   1.930  1.00  0.00     0.049 A 
ATOM     50  H   UNL     1      -2.897  -3.013   3.902  1.00  0.00     0.167 HD
ATOM     51  C   UNL     1      -1.875  -4.173   8.014  1.00  0.00     0.037 A 
ATOM     52  C   UNL     1      -4.089  -3.381   1.401  1.00  0.00     0.037 A 
ATOM     53  C   UNL     1      -2.815  -5.164   7.560  1.00  0.00     0.049 A 
ATOM     54  C   UNL     1      -4.522  -4.549   2.253  1.00  0.00     0.074 A 
ATOM     55  C   UNL     1      -3.349  -6.228   8.265  1.00  0.00     0.029 A 
ATOM     56  N   UNL     1      -3.352  -5.222   6.282  1.00  0.00    -0.354 N 
ATOM     57  N   UNL     1      -4.222  -4.818   3.502  1.00  0.00    -0.248 NA
ATOM     58  C   UNL     1      -5.407  -5.539   1.623  1.00  0.00     0.031 C 
ATOM     59  C   UNL     1      -4.161  -6.964   7.396  1.00  0.00     0.029 A 
ATOM     60  C   UNL     1      -4.189  -6.320   6.169  1.00  0.00     0.049 A 
ATOM     61  H   UNL     1      -3.166  -4.577   5.561  1.00  0.00     0.167 HD
ATOM     62  C   UNL     1      -4.905  -5.990   3.816  1.00  0.00     0.074 A 
ATOM     63  C   UNL     1      -5.643  -6.371   2.629  1.00  0.00     0.031 C 
ATOM     64  C   UNL     1      -4.924  -6.684   4.982  1.00  0.00     0.037 A 
BRANCH  51  65
ATOM     65  C   UNL     1      -1.330  -4.284   9.413  1.00  0.00     0.058 A 
ATOM     66  C   UNL     1      -1.654  -3.353  10.414  1.00  0.00     0.135 A 
ATOM     67  C   UNL     1      -0.487  -5.351   9.762  1.00  0.00     0.135 A 
ATOM     68  F   UNL     1      -2.439  -2.301  10.132  1.00  0.00    -0.206 F 
ATOM     69  C   UNL     1      -1.138  -3.460  11.701  1.00  0.00     0.059 A 
ATOM     70  C   UNL     1       0.015  -5.496  11.052  1.00  0.00     0.059 A 
ATOM     71  F   UNL     1      -0.140  -6.268   8.845  1.00  0.00    -0.206 F 
ATOM     72  C   UNL     1      -0.304  -4.536  12.011  1.00  0.00     0.060 A 
BRANCH  72  73
ATOM     73  S   UNL     1       0.359  -4.659  13.685  1.00  0.00     0.124 S 
ATOM     74  O   UNL     1       1.315  -3.555  13.702  1.00  0.00    -0.237 OA
ATOM     75  O   UNL     1      -0.834  -4.475  14.506  1.00  0.00    -0.237 OA
ATOM     76  O   UNL     1       0.944  -5.995  13.724  1.00  0.00    -0.744 OA
ENDBRANCH  72  73
ENDBRANCH  51  65
BRANCH  52  77
ATOM     77  C   UNL     1      -4.548  -3.255  -0.009  1.00  0.00     0.058 A 
ATOM     78  C   UNL     1      -5.892  -2.993  -0.315  1.00  0.00     0.135 A 
ATOM     79  C   UNL     1      -3.652  -3.393  -1.082  1.00  0.00     0.135 A 
ATOM     80  F   UNL     1      -6.792  -2.869   0.673  1.00  0.00    -0.206 F 
ATOM     81  C   UNL     1      -6.334  -2.883  -1.629  1.00  0.00     0.059 A 
ATOM     82  C   UNL     1      -4.064  -3.257  -2.404  1.00  0.00     0.059 A 
ATOM     83  F   UNL     1      -2.355  -3.647  -0.847  1.00  0.00    -0.206 F 
ATOM     84  C   UNL     1      -5.410  -3.010  -2.668  1.00  0.00     0.060 A 
BRANCH  84  85
ATOM     85  S   UNL     1      -5.990  -2.815  -4.368  1.00  0.00     0.124 S 
ATOM     86  O   UNL     1      -6.779  -4.028  -4.552  1.00  0.00    -0.237 OA
ATOM     87  O   UNL     1      -6.746  -1.569  -4.290  1.00  0.00    -0.237 OA
ATOM     88  O   UNL     1      -4.754  -2.743  -5.141  1.00  0.00    -0.744 OA
ENDBRANCH  84  85
ENDBRANCH  52  77
BRANCH  64  89
ATOM     89  C   UNL     1      -5.803  -7.905   5.054  1.00  0.00     0.058 A 
ATOM     90  C   UNL     1      -5.492  -9.089   4.367  1.00  0.00     0.135 A 
ATOM     91  C   UNL     1      -6.944  -7.909   5.876  1.00  0.00     0.135 A 
ATOM     92  F   UNL     1      -4.416  -9.142   3.565  1.00  0.00    -0.206 F 
ATOM     93  C   UNL     1      -6.292 -10.223   4.471  1.00  0.00     0.059 A 
ATOM     94  C   UNL     1      -7.740  -9.041   6.020  1.00  0.00     0.059 A 
ATOM     95  F   UNL     1      -7.283  -6.809   6.567  1.00  0.00    -0.206 F 
ATOM     96  C   UNL     1      -7.412 -10.190   5.304  1.00  0.00     0.060 A 
BRANCH  96  97
ATOM     97  S   UNL     1      -8.421 -11.680   5.457  1.00  0.00     0.124 S 
ATOM     98  O   UNL     1      -9.080 -11.725   4.156  1.00  0.00    -0.237 OA
ATOM     99  O   UNL     1      -7.417 -12.712   5.696  1.00  0.00    -0.237 OA
ATOM    100  O   UNL     1      -9.293 -11.387   6.591  1.00  0.00    -0.744 OA
ENDBRANCH  96  97
ENDBRANCH  64  89
ENDBRANCH  38  39
ENDBRANCH  31  33
ENDBRANCH  30  31
ENDBRANCH  29  30
ENDBRANCH  28  29
ENDBRANCH  27  28
ENDBRANCH  26  27
ENDBRANCH  25  26
ENDBRANCH  24  25
ENDBRANCH   1  24
TORSDOF 28
