REMARK SMILES O=C(OCCOCCOCCOCCOC(=O)c1ccc(S(=O)(=O)Cc2cnoc2)c(F)c1)c1ccc(-c2c3nc(c(-c4c(F)cc(S(=O)(=O)[O-])cc4F)c4ccc([nH]4)c(-c4c(F)cc(S(=O)(=O)[O-])cc4F)c4nc(c(-c5c(F)cc(S(=O)(=O)[O-])cc5F)c5ccc2[nH]5)C=C4)C=C3)cc1
REMARK SMILES IDX 9 1 8 2 7 3 6 4 5 5 4 6 3 7 2 8 1 9 34 10 35 11 99 12 36 13
REMARK SMILES IDX 98 14 37 15 38 16 39 17 92 18 40 19 97 20 91 21 93 22 41 23
REMARK SMILES IDX 96 24 90 25 89 26 42 28 76 29 55 30 75 31 56 32 59 33 74 34
REMARK SMILES IDX 94 35 57 36 58 37 73 39 95 40 60 41 43 42 44 43 53 44 45 45
REMARK SMILES IDX 46 46 52 47 54 48 47 49 48 50 49 51 50 52 51 53 77 54 78 55
REMARK SMILES IDX 87 56 79 57 80 58 86 59 88 60 81 61 82 62 83 63 84 64 85 65
REMARK SMILES IDX 61 66 62 67 71 68 63 69 64 70 70 71 72 72 65 73 66 74 67 75
REMARK SMILES IDX 68 76 69 77 10 78 11 79 12 80 13 81 14 82 15 83 16 84 17 85
REMARK SMILES IDX 18 86 19 87 33 88 20 89 31 90 21 91 32 92 22 93 23 94 24 95
REMARK SMILES IDX 25 96 26 97 27 98 30 99 28 100 29 101
REMARK H PARENT 93 27 59 38
REMARK Flexibility Score: inf
ROOT
ATOM      1  O   UNL     1       2.506  -1.960   3.478  1.00  0.00    -0.377 OA
ENDROOT
BRANCH   1   2
ATOM      2  C   UNL     1       1.843  -1.637   2.258  1.00  0.00     0.188 C 
BRANCH   2   3
ATOM      3  C   UNL     1       2.312  -0.344   1.594  1.00  0.00     0.188 C 
BRANCH   3   4
ATOM      4  O   UNL     1       3.663  -0.465   1.143  1.00  0.00    -0.376 OA
BRANCH   4   5
ATOM      5  C   UNL     1       4.468   0.702   1.297  1.00  0.00     0.202 C 
BRANCH   5   6
ATOM      6  C   UNL     1       4.314   1.729   0.173  1.00  0.00     0.261 C 
BRANCH   6   7
ATOM      7  O   UNL     1       2.961   1.822  -0.291  1.00  0.00    -0.460 OA
BRANCH   7   8
ATOM      8  C   UNL     1       2.403   1.168  -1.341  1.00  0.00     0.338 C 
ATOM      9  O   UNL     1       1.233   1.430  -1.624  1.00  0.00    -0.246 OA
BRANCH   8  10
ATOM     10  C   UNL     1       3.113   0.148  -2.182  1.00  0.00     0.060 A 
ATOM     11  C   UNL     1       4.203  -0.630  -1.781  1.00  0.00     0.016 A 
ATOM     12  C   UNL     1       2.578  -0.093  -3.459  1.00  0.00     0.016 A 
ATOM     13  C   UNL     1       4.774  -1.580  -2.617  1.00  0.00     0.010 A 
ATOM     14  C   UNL     1       3.134  -1.058  -4.304  1.00  0.00     0.010 A 
ATOM     15  C   UNL     1       4.247  -1.792  -3.885  1.00  0.00    -0.014 A 
BRANCH  15  16
ATOM     16  C   UNL     1       4.970  -2.688  -4.801  1.00  0.00     0.031 A 
ATOM     17  C   UNL     1       5.834  -2.059  -5.849  1.00  0.00     0.074 A 
ATOM     18  C   UNL     1       4.918  -4.021  -4.624  1.00  0.00     0.049 A 
ATOM     19  N   UNL     1       6.463  -2.618  -6.842  1.00  0.00    -0.248 NA
ATOM     20  C   UNL     1       6.027  -0.599  -5.756  1.00  0.00     0.031 C 
ATOM     21  C   UNL     1       4.207  -4.699  -3.536  1.00  0.00     0.029 A 
ATOM     22  N   UNL     1       5.477  -5.042  -5.344  1.00  0.00    -0.354 N 
ATOM     23  C   UNL     1       7.093  -1.580  -7.515  1.00  0.00     0.074 A 
ATOM     24  C   UNL     1       6.788  -0.356  -6.813  1.00  0.00     0.031 C 
ATOM     25  C   UNL     1       4.364  -6.026  -3.671  1.00  0.00     0.029 A 
ATOM     26  C   UNL     1       5.122  -6.291  -4.890  1.00  0.00     0.049 A 
ATOM     27  H   UNL     1       6.074  -4.897  -6.113  1.00  0.00     0.167 HD
ATOM     28  C   UNL     1       7.846  -1.658  -8.633  1.00  0.00     0.037 A 
ATOM     29  C   UNL     1       5.339  -7.503  -5.439  1.00  0.00     0.037 A 
ATOM     30  C   UNL     1       8.134  -2.901  -9.291  1.00  0.00     0.049 A 
ATOM     31  C   UNL     1       6.094  -7.555  -6.743  1.00  0.00     0.074 A 
ATOM     32  C   UNL     1       8.854  -3.115 -10.450  1.00  0.00     0.029 A 
ATOM     33  N   UNL     1       7.708  -4.144  -8.840  1.00  0.00    -0.354 N 
ATOM     34  N   UNL     1       6.644  -6.566  -7.411  1.00  0.00    -0.248 NA
ATOM     35  C   UNL     1       6.234  -8.867  -7.387  1.00  0.00     0.031 C 
ATOM     36  C   UNL     1       8.822  -4.484 -10.726  1.00  0.00     0.029 A 
ATOM     37  C   UNL     1       8.122  -5.129  -9.714  1.00  0.00     0.049 A 
ATOM     38  H   UNL     1       7.188  -4.299  -8.018  1.00  0.00     0.167 HD
ATOM     39  C   UNL     1       7.193  -7.134  -8.553  1.00  0.00     0.074 A 
ATOM     40  C   UNL     1       6.930  -8.558  -8.474  1.00  0.00     0.031 C 
ATOM     41  C   UNL     1       7.843  -6.538  -9.582  1.00  0.00     0.037 A 
BRANCH  28  42
ATOM     42  C   UNL     1       8.348  -0.382  -9.239  1.00  0.00     0.058 A 
ATOM     43  C   UNL     1       7.764   0.112 -10.416  1.00  0.00     0.135 A 
ATOM     44  C   UNL     1       9.427   0.329  -8.693  1.00  0.00     0.135 A 
ATOM     45  F   UNL     1       6.712  -0.516 -10.963  1.00  0.00    -0.206 F 
ATOM     46  C   UNL     1       8.252   1.249 -11.049  1.00  0.00     0.059 A 
ATOM     47  C   UNL     1       9.921   1.481  -9.299  1.00  0.00     0.059 A 
ATOM     48  F   UNL     1       9.993  -0.079  -7.546  1.00  0.00    -0.206 F 
ATOM     49  C   UNL     1       9.338   1.922 -10.488  1.00  0.00     0.060 A 
BRANCH  49  50
ATOM     50  S   UNL     1       9.961   3.394 -11.328  1.00  0.00     0.124 S 
ATOM     51  O   UNL     1      10.533   2.826 -12.544  1.00  0.00    -0.237 OA
ATOM     52  O   UNL     1       8.746   4.184 -11.502  1.00  0.00    -0.237 OA
ATOM     53  O   UNL     1      10.924   3.943 -10.377  1.00  0.00    -0.744 OA
ENDBRANCH  49  50
ENDBRANCH  28  42
BRANCH  29  54
ATOM     54  C   UNL     1       4.763  -8.727  -4.816  1.00  0.00     0.058 A 
ATOM     55  C   UNL     1       3.371  -8.907  -4.732  1.00  0.00     0.135 A 
ATOM     56  C   UNL     1       5.577  -9.737  -4.285  1.00  0.00     0.135 A 
ATOM     57  F   UNL     1       2.539  -7.976  -5.225  1.00  0.00    -0.206 F 
ATOM     58  C   UNL     1       2.810 -10.024  -4.123  1.00  0.00     0.059 A 
ATOM     59  C   UNL     1       5.039 -10.881  -3.694  1.00  0.00     0.059 A 
ATOM     60  F   UNL     1       6.913  -9.626  -4.353  1.00  0.00    -0.206 F 
ATOM     61  C   UNL     1       3.653 -11.007  -3.605  1.00  0.00     0.060 A 
BRANCH  61  62
ATOM     62  S   UNL     1       2.901 -12.457  -2.834  1.00  0.00     0.124 S 
ATOM     63  O   UNL     1       2.359 -11.887  -1.605  1.00  0.00    -0.237 OA
ATOM     64  O   UNL     1       1.917 -12.861  -3.834  1.00  0.00    -0.237 OA
ATOM     65  O   UNL     1       4.026 -13.370  -2.662  1.00  0.00    -0.744 OA
ENDBRANCH  61  62
ENDBRANCH  29  54
BRANCH  41  66
ATOM     66  C   UNL     1       8.315  -7.411 -10.706  1.00  0.00     0.058 A 
ATOM     67  C   UNL     1       9.684  -7.661 -10.880  1.00  0.00     0.135 A 
ATOM     68  C   UNL     1       7.424  -7.857 -11.693  1.00  0.00     0.135 A 
ATOM     69  F   UNL     1      10.571  -7.244  -9.963  1.00  0.00    -0.206 F 
ATOM     70  C   UNL     1      10.161  -8.284 -12.025  1.00  0.00     0.059 A 
ATOM     71  C   UNL     1       7.878  -8.505 -12.835  1.00  0.00     0.059 A 
ATOM     72  F   UNL     1       6.105  -7.648 -11.558  1.00  0.00    -0.206 F 
ATOM     73  C   UNL     1       9.251  -8.688 -13.004  1.00  0.00     0.060 A 
BRANCH  73  74
ATOM     74  S   UNL     1       9.895  -9.440 -14.512  1.00  0.00     0.124 S 
ATOM     75  O   UNL     1      10.549  -8.305 -15.155  1.00  0.00    -0.237 OA
ATOM     76  O   UNL     1      10.784 -10.470 -13.985  1.00  0.00    -0.237 OA
ATOM     77  O   UNL     1       8.697  -9.937 -15.182  1.00  0.00    -0.744 OA
ENDBRANCH  73  74
ENDBRANCH  41  66
ENDBRANCH  15  16
ENDBRANCH   8  10
ENDBRANCH   7   8
ENDBRANCH   6   7
ENDBRANCH   5   6
ENDBRANCH   4   5
ENDBRANCH   3   4
ENDBRANCH   2   3
ENDBRANCH   1   2
BRANCH   1  78
ATOM     78  C   UNL     1       3.927  -1.988   3.448  1.00  0.00     0.188 C 
BRANCH  78  79
ATOM     79  C   UNL     1       4.647  -2.894   2.424  1.00  0.00     0.188 C 
BRANCH  79  80
ATOM     80  O   UNL     1       3.795  -3.700   1.626  1.00  0.00    -0.376 OA
BRANCH  80  81
ATOM     81  C   UNL     1       3.786  -5.089   1.953  1.00  0.00     0.202 C 
BRANCH  81  82
ATOM     82  C   UNL     1       2.976  -5.420   3.213  1.00  0.00     0.261 C 
BRANCH  82  83
ATOM     83  O   UNL     1       3.490  -4.846   4.432  1.00  0.00    -0.460 OA
BRANCH  83  84
ATOM     84  C   UNL     1       4.710  -5.245   4.846  1.00  0.00     0.338 C 
ATOM     85  O   UNL     1       5.430  -6.092   4.352  1.00  0.00    -0.246 OA
BRANCH  84  86
ATOM     86  C   UNL     1       5.152  -4.288   5.880  1.00  0.00     0.063 A 
ATOM     87  C   UNL     1       4.410  -4.079   7.046  1.00  0.00     0.017 A 
ATOM     88  C   UNL     1       6.260  -3.482   5.594  1.00  0.00     0.056 A 
ATOM     89  C   UNL     1       4.826  -3.103   7.957  1.00  0.00     0.024 A 
ATOM     90  C   UNL     1       6.589  -2.440   6.451  1.00  0.00     0.142 A 
ATOM     91  C   UNL     1       5.934  -2.293   7.661  1.00  0.00     0.103 A 
ATOM     92  F   UNL     1       7.507  -1.562   6.036  1.00  0.00    -0.206 F 
BRANCH  91  93
ATOM     93  S   UNL     1       6.501  -1.189   8.916  1.00  0.00     0.185 S 
ATOM     94  O   UNL     1       5.475  -0.166   9.030  1.00  0.00    -0.223 OA
ATOM     95  O   UNL     1       6.807  -2.033  10.060  1.00  0.00    -0.223 OA
BRANCH  93  96
ATOM     96  C   UNL     1       8.005  -0.369   8.445  1.00  0.00     0.183 C 
BRANCH  96  97
ATOM     97  C   UNL     1       9.176  -1.194   8.039  1.00  0.00     0.027 A 
ATOM     98  C   UNL     1       9.454  -2.570   8.216  1.00  0.00     0.162 A 
ATOM     99  C   UNL     1      10.264  -0.751   7.317  1.00  0.00     0.235 A 
ATOM    100  N   UNL     1      10.592  -2.936   7.623  1.00  0.00    -0.088 NA
ATOM    101  O   UNL     1      11.102  -1.782   7.059  1.00  0.00    -0.364 OA
ENDBRANCH  96  97
ENDBRANCH  93  96
ENDBRANCH  91  93
ENDBRANCH  84  86
ENDBRANCH  83  84
ENDBRANCH  82  83
ENDBRANCH  81  82
ENDBRANCH  80  81
ENDBRANCH  79  80
ENDBRANCH  78  79
ENDBRANCH   1  78
TORSDOF 26
