REMARK SMILES CC1C[NH+]([C@@H](C(=O)OCCOCCOCCOCCOC(=O)c2ccc(-c3c4nc(c(-c5c(F)cc(S(=O)(=O)[O-])cc5F)c5ccc([nH]5)c(-c5c(F)cc(S(=O)(=O)[O-])cc5F)c5nc(c(-c6c(F)cc(S(=O)(=O)[O-])cc6F)c6ccc3[nH]6)C=C5)C=C4)cc2)C2CCCCC2)C1
REMARK SMILES IDX 15 1 14 2 13 3 12 4 11 5 10 6 9 7 8 8 6 9 7 10 5 11 4 12
REMARK SMILES IDX 1 13 2 14 3 15 95 16 89 18 90 19 94 20 91 21 93 22 92 23
REMARK SMILES IDX 16 24 17 25 18 26 19 27 20 28 21 29 22 30 23 31 24 32 88 33
REMARK SMILES IDX 25 34 87 35 26 36 27 37 28 38 81 39 29 40 86 41 80 42 82 43
REMARK SMILES IDX 30 44 85 45 79 46 78 47 31 49 65 50 44 51 64 52 45 53 48 54
REMARK SMILES IDX 63 55 83 56 46 57 47 58 62 60 84 61 49 62 32 63 33 64 42 65
REMARK SMILES IDX 34 66 35 67 41 68 43 69 36 70 37 71 38 72 39 73 40 74 66 75
REMARK SMILES IDX 67 76 76 77 68 78 69 79 75 80 77 81 70 82 71 83 72 84 73 85
REMARK SMILES IDX 74 86 50 87 51 88 60 89 52 90 53 91 59 92 61 93 54 94 55 95
REMARK SMILES IDX 56 96 57 97 58 98
REMARK H PARENT 4 17 82 48 48 59
REMARK Flexibility Score: inf
ROOT
ATOM      1  C   UNL     1      -1.410  -1.056  -0.237  1.00  0.00     0.188 C 
ENDROOT
BRANCH   1   2
ATOM      2  O   UNL     1      -1.622  -0.533   1.063  1.00  0.00    -0.377 OA
BRANCH   2   3
ATOM      3  C   UNL     1      -1.547  -1.373   2.196  1.00  0.00     0.188 C 
BRANCH   3   4
ATOM      4  C   UNL     1      -2.579  -0.999   3.268  1.00  0.00     0.188 C 
BRANCH   4   5
ATOM      5  O   UNL     1      -3.854  -0.563   2.815  1.00  0.00    -0.376 OA
BRANCH   5   6
ATOM      6  C   UNL     1      -3.883   0.579   1.955  1.00  0.00     0.202 C 
BRANCH   6   7
ATOM      7  C   UNL     1      -3.100   1.852   2.354  1.00  0.00     0.261 C 
BRANCH   7   8
ATOM      8  O   UNL     1      -1.665   1.719   2.568  1.00  0.00    -0.459 OA
BRANCH   8   9
ATOM      9  C   UNL     1      -1.221   1.993   3.818  1.00  0.00     0.365 C 
ATOM     10  O   UNL     1      -1.993   2.211   4.756  1.00  0.00    -0.245 OA
BRANCH   9  11
ATOM     11  C   UNL     1       0.300   2.011   4.076  1.00  0.00     0.298 C 
BRANCH  11  12
ATOM     12  N   UNL     1       1.329   2.104   3.012  1.00  0.00    -0.322 N 
ATOM     13  C   UNL     1       1.815   1.486  -0.303  1.00  0.00     0.020 C 
ATOM     14  C   UNL     1       1.002   1.651   0.966  1.00  0.00     0.096 C 
ATOM     15  C   UNL     1       1.617   0.948   2.179  1.00  0.00     0.272 C 
ATOM     16  C   UNL     1       1.030   2.933   1.835  1.00  0.00     0.272 C 
ATOM     17  H   UNL     1       2.041   2.403   3.679  1.00  0.00     0.348 HD
ENDBRANCH  11  12
BRANCH  11  18
ATOM     18  C   UNL     1       0.672   1.067   5.293  1.00  0.00     0.059 C 
ATOM     19  C   UNL     1       0.755  -0.443   4.992  1.00  0.00     0.010 C 
ATOM     20  C   UNL     1       1.962   1.550   5.984  1.00  0.00     0.010 C 
ATOM     21  C   UNL     1       1.188  -1.297   6.181  1.00  0.00     0.001 C 
ATOM     22  C   UNL     1       2.353   0.672   7.173  1.00  0.00     0.001 C 
ATOM     23  C   UNL     1       2.496  -0.787   6.763  1.00  0.00     0.000 C 
ENDBRANCH  11  18
ENDBRANCH   9  11
ENDBRANCH   8   9
ENDBRANCH   7   8
ENDBRANCH   6   7
ENDBRANCH   5   6
ENDBRANCH   4   5
ENDBRANCH   3   4
ENDBRANCH   2   3
ENDBRANCH   1   2
BRANCH   1  24
ATOM     24  C   UNL     1      -1.574  -2.564  -0.419  1.00  0.00     0.188 C 
BRANCH  24  25
ATOM     25  O   UNL     1      -0.585  -3.397   0.196  1.00  0.00    -0.376 OA
BRANCH  25  26
ATOM     26  C   UNL     1       0.757  -2.921   0.287  1.00  0.00     0.202 C 
BRANCH  26  27
ATOM     27  C   UNL     1       1.579  -3.069  -0.991  1.00  0.00     0.261 C 
BRANCH  27  28
ATOM     28  O   UNL     1       1.266  -2.028  -1.930  1.00  0.00    -0.460 OA
BRANCH  28  29
ATOM     29  C   UNL     1       0.460  -2.379  -2.956  1.00  0.00     0.338 C 
ATOM     30  O   UNL     1       0.011  -3.487  -3.203  1.00  0.00    -0.246 OA
BRANCH  29  31
ATOM     31  C   UNL     1       0.038  -1.154  -3.656  1.00  0.00     0.060 A 
ATOM     32  C   UNL     1      -1.331  -0.924  -3.846  1.00  0.00     0.016 A 
ATOM     33  C   UNL     1       0.988  -0.257  -4.149  1.00  0.00     0.016 A 
ATOM     34  C   UNL     1      -1.756   0.197  -4.554  1.00  0.00     0.010 A 
ATOM     35  C   UNL     1       0.561   0.853  -4.878  1.00  0.00     0.010 A 
ATOM     36  C   UNL     1      -0.809   1.069  -5.106  1.00  0.00    -0.014 A 
BRANCH  36  37
ATOM     37  C   UNL     1      -1.228   2.111  -6.069  1.00  0.00     0.031 A 
ATOM     38  C   UNL     1      -1.104   1.812  -7.537  1.00  0.00     0.074 A 
ATOM     39  C   UNL     1      -1.690   3.300  -5.645  1.00  0.00     0.049 A 
ATOM     40  N   UNL     1      -1.258   2.608  -8.560  1.00  0.00    -0.248 NA
ATOM     41  C   UNL     1      -0.757   0.426  -7.898  1.00  0.00     0.031 C 
ATOM     42  C   UNL     1      -1.903   3.675  -4.247  1.00  0.00     0.029 A 
ATOM     43  N   UNL     1      -2.039   4.422  -6.352  1.00  0.00    -0.354 N 
ATOM     44  C   UNL     1      -1.031   1.824  -9.685  1.00  0.00     0.074 A 
ATOM     45  C   UNL     1      -0.697   0.497  -9.220  1.00  0.00     0.031 C 
ATOM     46  C   UNL     1      -2.312   4.955  -4.199  1.00  0.00     0.029 A 
ATOM     47  C   UNL     1      -2.346   5.499  -5.555  1.00  0.00     0.049 A 
ATOM     48  H   UNL     1      -2.066   4.454  -7.336  1.00  0.00     0.167 HD
ATOM     49  C   UNL     1      -1.104   2.182 -10.988  1.00  0.00     0.037 A 
ATOM     50  C   UNL     1      -2.578   6.786  -5.885  1.00  0.00     0.037 A 
ATOM     51  C   UNL     1      -1.424   3.511 -11.436  1.00  0.00     0.049 A 
ATOM     52  C   UNL     1      -2.539   7.186  -7.341  1.00  0.00     0.074 A 
ATOM     53  C   UNL     1      -1.511   3.983 -12.734  1.00  0.00     0.029 A 
ATOM     54  N   UNL     1      -1.707   4.581 -10.601  1.00  0.00    -0.354 N 
ATOM     55  N   UNL     1      -2.331   6.437  -8.399  1.00  0.00    -0.248 NA
ATOM     56  C   UNL     1      -2.761   8.606  -7.649  1.00  0.00     0.031 C 
ATOM     57  C   UNL     1      -1.797   5.350 -12.681  1.00  0.00     0.029 A 
ATOM     58  C   UNL     1      -1.944   5.718 -11.353  1.00  0.00     0.049 A 
ATOM     59  H   UNL     1      -1.735   4.538  -9.617  1.00  0.00     0.167 HD
ATOM     60  C   UNL     1      -2.422   7.290  -9.495  1.00  0.00     0.074 A 
ATOM     61  C   UNL     1      -2.726   8.606  -8.974  1.00  0.00     0.031 C 
ATOM     62  C   UNL     1      -2.263   7.016 -10.813  1.00  0.00     0.037 A 
BRANCH  49  63
ATOM     63  C   UNL     1      -0.825   1.129 -12.023  1.00  0.00     0.058 A 
ATOM     64  C   UNL     1      -1.739   0.096 -12.282  1.00  0.00     0.135 A 
ATOM     65  C   UNL     1       0.334   1.193 -12.814  1.00  0.00     0.135 A 
ATOM     66  F   UNL     1      -2.851  -0.025 -11.539  1.00  0.00    -0.206 F 
ATOM     67  C   UNL     1      -1.514  -0.838 -13.286  1.00  0.00     0.059 A 
ATOM     68  C   UNL     1       0.567   0.284 -13.841  1.00  0.00     0.059 A 
ATOM     69  F   UNL     1       1.245   2.155 -12.600  1.00  0.00    -0.206 F 
ATOM     70  C   UNL     1      -0.362  -0.730 -14.067  1.00  0.00     0.060 A 
BRANCH  70  71
ATOM     71  S   UNL     1      -0.111  -1.925 -15.396  1.00  0.00     0.124 S 
ATOM     72  O   UNL     1       0.151  -3.148 -14.644  1.00  0.00    -0.237 OA
ATOM     73  O   UNL     1      -1.388  -1.876 -16.101  1.00  0.00    -0.237 OA
ATOM     74  O   UNL     1       1.029  -1.385 -16.131  1.00  0.00    -0.744 OA
ENDBRANCH  70  71
ENDBRANCH  49  63
BRANCH  50  75
ATOM     75  C   UNL     1      -2.806   7.810  -4.828  1.00  0.00     0.058 A 
ATOM     76  C   UNL     1      -4.028   8.490  -4.724  1.00  0.00     0.135 A 
ATOM     77  C   UNL     1      -1.783   8.170  -3.935  1.00  0.00     0.135 A 
ATOM     78  F   UNL     1      -5.035   8.191  -5.560  1.00  0.00    -0.206 F 
ATOM     79  C   UNL     1      -4.218   9.515  -3.802  1.00  0.00     0.059 A 
ATOM     80  C   UNL     1      -1.959   9.168  -2.982  1.00  0.00     0.059 A 
ATOM     81  F   UNL     1      -0.596   7.545  -3.981  1.00  0.00    -0.206 F 
ATOM     82  C   UNL     1      -3.174   9.850  -2.938  1.00  0.00     0.060 A 
BRANCH  82  83
ATOM     83  S   UNL     1      -3.427  11.184  -1.748  1.00  0.00     0.124 S 
ATOM     84  O   UNL     1      -3.404  12.357  -2.614  1.00  0.00    -0.237 OA
ATOM     85  O   UNL     1      -4.723  10.838  -1.173  1.00  0.00    -0.237 OA
ATOM     86  O   UNL     1      -2.290  11.044  -0.842  1.00  0.00    -0.744 OA
ENDBRANCH  82  83
ENDBRANCH  50  75
BRANCH  62  87
ATOM     87  C   UNL     1      -2.445   8.146 -11.790  1.00  0.00     0.058 A 
ATOM     88  C   UNL     1      -1.493   9.169 -11.916  1.00  0.00     0.135 A 
ATOM     89  C   UNL     1      -3.546   8.164 -12.662  1.00  0.00     0.135 A 
ATOM     90  F   UNL     1      -0.425   9.204 -11.102  1.00  0.00    -0.206 F 
ATOM     91  C   UNL     1      -1.635  10.180 -12.860  1.00  0.00     0.059 A 
ATOM     92  C   UNL     1      -3.692   9.147 -13.635  1.00  0.00     0.059 A 
ATOM     93  F   UNL     1      -4.480   7.202 -12.591  1.00  0.00    -0.206 F 
ATOM     94  C   UNL     1      -2.734  10.156 -13.721  1.00  0.00     0.060 A 
BRANCH  94  95
ATOM     95  S   UNL     1      -2.873  11.445 -14.978  1.00  0.00     0.124 S 
ATOM     96  O   UNL     1      -3.205  12.612 -14.168  1.00  0.00    -0.237 OA
ATOM     97  O   UNL     1      -1.540  11.444 -15.572  1.00  0.00    -0.237 OA
ATOM     98  O   UNL     1      -3.941  10.960 -15.847  1.00  0.00    -0.744 OA
ENDBRANCH  94  95
ENDBRANCH  62  87
ENDBRANCH  36  37
ENDBRANCH  29  31
ENDBRANCH  28  29
ENDBRANCH  27  28
ENDBRANCH  26  27
ENDBRANCH  25  26
ENDBRANCH  24  25
ENDBRANCH   1  24
TORSDOF 25
