REMARK SMILES C[C@]1(c2ccccc2C(=O)OCCOCCOCCOCCOC(=O)c2ccc(-c3c4nc(c(-c5c(F)cc(S(=O)(=O)[O-])cc5F)c5ccc([nH]5)c(-c5c(F)cc(S(=O)(=O)[O-])cc5F)c5nc(c(-c6c(F)cc(S(=O)(=O)[O-])cc6F)c6ccc3[nH]6)C=C5)C=C4)cc2)NN=C(c2ccccc2)S1
REMARK SMILES IDX 18 1 17 2 16 3 15 4 14 5 13 6 12 7 11 8 9 9 10 10 8 11 3 12
REMARK SMILES IDX 4 13 5 14 7 15 6 16 2 17 1 18 92 19 101 20 93 21 94 23 95 24
REMARK SMILES IDX 96 25 100 26 97 27 99 28 98 29 19 30 20 31 21 32 22 33 23 34
REMARK SMILES IDX 24 35 25 36 26 37 27 38 91 39 28 40 90 41 29 42 30 43 31 44
REMARK SMILES IDX 84 45 32 46 89 47 83 48 85 49 33 50 88 51 82 52 81 53 34 55
REMARK SMILES IDX 68 56 47 57 67 58 48 59 51 60 66 61 86 62 49 63 50 64 65 66
REMARK SMILES IDX 87 67 52 68 35 69 36 70 45 71 37 72 38 73 44 74 46 75 39 76
REMARK SMILES IDX 40 77 41 78 42 79 43 80 69 81 70 82 79 83 71 84 72 85 78 86
REMARK SMILES IDX 80 87 73 88 74 89 75 90 76 91 77 92 53 93 54 94 63 95 55 96
REMARK SMILES IDX 56 97 62 98 64 99 57 100 58 101 59 102 60 103 61 104
REMARK H PARENT 92 22 85 54 51 65
REMARK Flexibility Score: inf
ROOT
ATOM      1  C   UNL     1      -2.591   1.135  -2.138  1.00  0.00     0.188 C 
ENDROOT
BRANCH   1   2
ATOM      2  O   UNL     1      -1.634   0.171  -2.572  1.00  0.00    -0.377 OA
BRANCH   2   3
ATOM      3  C   UNL     1      -2.126  -1.041  -3.128  1.00  0.00     0.188 C 
BRANCH   3   4
ATOM      4  C   UNL     1      -2.966  -1.961  -2.224  1.00  0.00     0.188 C 
BRANCH   4   5
ATOM      5  O   UNL     1      -4.136  -1.308  -1.755  1.00  0.00    -0.376 OA
BRANCH   5   6
ATOM      6  C   UNL     1      -4.402  -1.267  -0.348  1.00  0.00     0.202 C 
BRANCH   6   7
ATOM      7  C   UNL     1      -3.292  -1.514   0.687  1.00  0.00     0.261 C 
BRANCH   7   8
ATOM      8  O   UNL     1      -2.044  -0.923   0.302  1.00  0.00    -0.460 OA
BRANCH   8   9
ATOM      9  C   UNL     1      -0.940  -1.620   0.676  1.00  0.00     0.338 C 
ATOM     10  O   UNL     1      -0.913  -2.675   1.278  1.00  0.00    -0.246 OA
BRANCH   9  11
ATOM     11  C   UNL     1       0.254  -1.066   0.005  1.00  0.00     0.066 A 
ATOM     12  C   UNL     1       0.929   0.120   0.358  1.00  0.00     0.004 A 
ATOM     13  C   UNL     1       2.138   0.371  -0.353  1.00  0.00     0.008 A 
ATOM     14  C   UNL     1       2.631  -0.478  -1.353  1.00  0.00     0.000 A 
ATOM     15  C   UNL     1       0.757  -1.920  -1.008  1.00  0.00     0.016 A 
ATOM     16  C   UNL     1       1.933  -1.624  -1.689  1.00  0.00     0.001 A 
BRANCH  12  17
ATOM     17  C   UNL     1       0.595   1.083   1.519  1.00  0.00     0.129 C 
ATOM     18  C   UNL     1       1.427   0.675   2.743  1.00  0.00     0.054 C 
ATOM     19  N   UNL     1       0.879   2.486   1.119  1.00  0.00    -0.288 NA
ATOM     20  S   UNL     1      -1.117   1.197   2.102  1.00  0.00    -0.070 SA
ATOM     21  N   UNL     1      -0.217   3.252   0.798  1.00  0.00    -0.171 NA
ATOM     22  H   UNL     1       1.796   2.844   1.085  1.00  0.00     0.185 HD
ATOM     23  C   UNL     1      -1.311   2.687   1.217  1.00  0.00     0.126 C 
BRANCH  23  24
ATOM     24  C   UNL     1      -2.679   3.137   0.886  1.00  0.00     0.009 A 
ATOM     25  C   UNL     1      -2.869   3.769  -0.334  1.00  0.00     0.011 A 
ATOM     26  C   UNL     1      -3.804   2.796   1.649  1.00  0.00     0.011 A 
ATOM     27  C   UNL     1      -4.159   3.887  -0.857  1.00  0.00     0.001 A 
ATOM     28  C   UNL     1      -5.095   3.000   1.149  1.00  0.00     0.001 A 
ATOM     29  C   UNL     1      -5.272   3.502  -0.129  1.00  0.00     0.000 A 
ENDBRANCH  23  24
ENDBRANCH  12  17
ENDBRANCH   9  11
ENDBRANCH   8   9
ENDBRANCH   7   8
ENDBRANCH   6   7
ENDBRANCH   5   6
ENDBRANCH   4   5
ENDBRANCH   3   4
ENDBRANCH   2   3
ENDBRANCH   1   2
BRANCH   1  30
ATOM     30  C   UNL     1      -3.599   1.623  -3.194  1.00  0.00     0.188 C 
BRANCH  30  31
ATOM     31  O   UNL     1      -3.504   3.006  -3.569  1.00  0.00    -0.376 OA
BRANCH  31  32
ATOM     32  C   UNL     1      -2.221   3.488  -3.966  1.00  0.00     0.202 C 
BRANCH  32  33
ATOM     33  C   UNL     1      -2.272   5.028  -4.114  1.00  0.00     0.261 C 
BRANCH  33  34
ATOM     34  O   UNL     1      -2.293   5.699  -2.818  1.00  0.00    -0.460 OA
BRANCH  34  35
ATOM     35  C   UNL     1      -3.275   6.620  -2.589  1.00  0.00     0.338 C 
ATOM     36  O   UNL     1      -4.100   7.003  -3.404  1.00  0.00    -0.246 OA
BRANCH  35  37
ATOM     37  C   UNL     1      -3.359   6.958  -1.130  1.00  0.00     0.060 A 
ATOM     38  C   UNL     1      -4.606   6.831  -0.496  1.00  0.00     0.016 A 
ATOM     39  C   UNL     1      -2.245   7.292  -0.355  1.00  0.00     0.016 A 
ATOM     40  C   UNL     1      -4.718   6.918   0.903  1.00  0.00     0.010 A 
ATOM     41  C   UNL     1      -2.380   7.472   1.040  1.00  0.00     0.010 A 
ATOM     42  C   UNL     1      -3.612   7.272   1.691  1.00  0.00    -0.014 A 
BRANCH  42  43
ATOM     43  C   UNL     1      -3.796   7.635   3.135  1.00  0.00     0.031 A 
ATOM     44  C   UNL     1      -4.439   8.964   3.450  1.00  0.00     0.074 A 
ATOM     45  C   UNL     1      -3.421   6.841   4.164  1.00  0.00     0.049 A 
ATOM     46  N   UNL     1      -4.570   9.575   4.599  1.00  0.00    -0.248 NA
ATOM     47  C   UNL     1      -5.019   9.700   2.313  1.00  0.00     0.031 C 
ATOM     48  C   UNL     1      -2.889   5.488   4.039  1.00  0.00     0.029 A 
ATOM     49  N   UNL     1      -3.426   7.060   5.528  1.00  0.00    -0.354 N 
ATOM     50  C   UNL     1      -5.240  10.761   4.323  1.00  0.00     0.074 A 
ATOM     51  C   UNL     1      -5.500  10.782   2.902  1.00  0.00     0.031 C 
ATOM     52  C   UNL     1      -2.605   5.003   5.263  1.00  0.00     0.029 A 
ATOM     53  C   UNL     1      -2.865   6.036   6.266  1.00  0.00     0.049 A 
ATOM     54  H   UNL     1      -3.797   7.874   5.938  1.00  0.00     0.167 HD
ATOM     55  C   UNL     1      -5.590  11.759   5.165  1.00  0.00     0.037 A 
ATOM     56  C   UNL     1      -2.545   5.960   7.580  1.00  0.00     0.037 A 
ATOM     57  C   UNL     1      -5.289  11.778   6.570  1.00  0.00     0.049 A 
ATOM     58  C   UNL     1      -2.803   7.159   8.474  1.00  0.00     0.074 A 
ATOM     59  C   UNL     1      -5.547  12.780   7.489  1.00  0.00     0.029 A 
ATOM     60  N   UNL     1      -4.650  10.758   7.256  1.00  0.00    -0.354 N 
ATOM     61  N   UNL     1      -3.408   8.288   8.190  1.00  0.00    -0.248 NA
ATOM     62  C   UNL     1      -2.306   7.086   9.859  1.00  0.00     0.031 C 
ATOM     63  C   UNL     1      -5.018  12.388   8.721  1.00  0.00     0.029 A 
ATOM     64  C   UNL     1      -4.480  11.119   8.582  1.00  0.00     0.049 A 
ATOM     65  H   UNL     1      -4.361   9.905   6.860  1.00  0.00     0.167 HD
ATOM     66  C   UNL     1      -3.377   9.045   9.360  1.00  0.00     0.074 A 
ATOM     67  C   UNL     1      -2.720   8.240  10.364  1.00  0.00     0.031 C 
ATOM     68  C   UNL     1      -3.840  10.301   9.580  1.00  0.00     0.037 A 
BRANCH  55  69
ATOM     69  C   UNL     1      -6.288  12.949   4.573  1.00  0.00     0.058 A 
ATOM     70  C   UNL     1      -7.632  12.890   4.176  1.00  0.00     0.135 A 
ATOM     71  C   UNL     1      -5.612  14.172   4.434  1.00  0.00     0.135 A 
ATOM     72  F   UNL     1      -8.311  11.735   4.258  1.00  0.00    -0.206 F 
ATOM     73  C   UNL     1      -8.282  14.003   3.656  1.00  0.00     0.059 A 
ATOM     74  C   UNL     1      -6.250  15.305   3.941  1.00  0.00     0.059 A 
ATOM     75  F   UNL     1      -4.320  14.274   4.785  1.00  0.00    -0.206 F 
ATOM     76  C   UNL     1      -7.585  15.209   3.550  1.00  0.00     0.060 A 
BRANCH  76  77
ATOM     77  S   UNL     1      -8.457  16.652   2.909  1.00  0.00     0.124 S 
ATOM     78  O   UNL     1      -8.633  16.290   1.506  1.00  0.00    -0.237 OA
ATOM     79  O   UNL     1      -9.672  16.662   3.718  1.00  0.00    -0.237 OA
ATOM     80  O   UNL     1      -7.531  17.751   3.161  1.00  0.00    -0.744 OA
ENDBRANCH  76  77
ENDBRANCH  55  69
BRANCH  56  81
ATOM     81  C   UNL     1      -1.847   4.762   8.149  1.00  0.00     0.058 A 
ATOM     82  C   UNL     1      -2.415   4.002   9.187  1.00  0.00     0.135 A 
ATOM     83  C   UNL     1      -0.549   4.413   7.740  1.00  0.00     0.135 A 
ATOM     84  F   UNL     1      -3.640   4.303   9.645  1.00  0.00    -0.206 F 
ATOM     85  C   UNL     1      -1.716   2.969   9.813  1.00  0.00     0.059 A 
ATOM     86  C   UNL     1       0.156   3.364   8.326  1.00  0.00     0.059 A 
ATOM     87  F   UNL     1       0.058   5.104   6.762  1.00  0.00    -0.206 F 
ATOM     88  C   UNL     1      -0.428   2.659   9.376  1.00  0.00     0.060 A 
BRANCH  88  89
ATOM     89  S   UNL     1       0.471   1.314  10.183  1.00  0.00     0.124 S 
ATOM     90  O   UNL     1       0.807   1.913  11.470  1.00  0.00    -0.237 OA
ATOM     91  O   UNL     1      -0.529   0.252  10.215  1.00  0.00    -0.237 OA
ATOM     92  O   UNL     1       1.597   1.078   9.284  1.00  0.00    -0.744 OA
ENDBRANCH  88  89
ENDBRANCH  56  81
BRANCH  68  93
ATOM     93  C   UNL     1      -3.682  10.888  10.957  1.00  0.00     0.058 A 
ATOM     94  C   UNL     1      -2.434  11.315  11.436  1.00  0.00     0.135 A 
ATOM     95  C   UNL     1      -4.806  11.115  11.769  1.00  0.00     0.135 A 
ATOM     96  F   UNL     1      -1.326  11.118  10.704  1.00  0.00    -0.206 F 
ATOM     97  C   UNL     1      -2.304  11.938  12.673  1.00  0.00     0.059 A 
ATOM     98  C   UNL     1      -4.704  11.763  12.997  1.00  0.00     0.059 A 
ATOM     99  F   UNL     1      -6.026  10.737  11.355  1.00  0.00    -0.206 F 
ATOM    100  C   UNL     1      -3.446  12.166  13.443  1.00  0.00     0.060 A 
BRANCH 100 101
ATOM    101  S   UNL     1      -3.269  13.034  15.017  1.00  0.00     0.124 S 
ATOM    102  O   UNL     1      -2.605  12.027  15.837  1.00  0.00    -0.237 OA
ATOM    103  O   UNL     1      -2.454  14.187  14.646  1.00  0.00    -0.237 OA
ATOM    104  O   UNL     1      -4.645  13.343  15.394  1.00  0.00    -0.744 OA
ENDBRANCH 100 101
ENDBRANCH  68  93
ENDBRANCH  42  43
ENDBRANCH  35  37
ENDBRANCH  34  35
ENDBRANCH  33  34
ENDBRANCH  32  33
ENDBRANCH  31  32
ENDBRANCH  30  31
ENDBRANCH   1  30
TORSDOF 25
