REMARK SMILES Nn1c(S[C@@H](C(=O)OCCOCCOCCOCCOC(=O)c2ccc(-c3c4nc(c(-c5c(F)cc(S(=O)(=O)[O-])cc5F)c5ccc([nH]5)c(-c5c(F)cc(S(=O)(=O)[O-])cc5F)c5nc(c(-c6c(F)cc(S(=O)(=O)[O-])cc6F)c6ccc3[nH]6)C=C5)C=C4)cc2)c2ccccc2)nc2ccc(Br)cc2c1=O
REMARK SMILES IDX 14 1 13 2 12 3 11 4 10 5 9 6 8 7 6 8 7 9 5 10 4 11 3 12 2 13
REMARK SMILES IDX 103 14 95 15 102 16 104 17 96 18 101 19 97 20 99 21 98 22
REMARK SMILES IDX 100 23 1 24 89 27 90 28 94 29 91 30 93 31 92 32 15 33 16 34
REMARK SMILES IDX 17 35 18 36 19 37 20 38 21 39 22 40 23 41 24 42 88 43 25 44
REMARK SMILES IDX 87 45 26 46 27 47 28 48 81 49 29 50 86 51 80 52 82 53 30 54
REMARK SMILES IDX 85 55 79 56 78 57 31 59 65 60 44 61 64 62 45 63 48 64 63 65
REMARK SMILES IDX 83 66 46 67 47 68 62 70 84 71 49 72 32 73 33 74 42 75 34 76
REMARK SMILES IDX 35 77 41 78 43 79 36 80 37 81 38 82 39 83 40 84 66 85 67 86
REMARK SMILES IDX 76 87 68 88 69 89 75 90 77 91 70 92 71 93 72 94 73 95 74 96
REMARK SMILES IDX 50 97 51 98 60 99 52 100 53 101 59 102 61 103 54 104 55 105
REMARK SMILES IDX 56 106 57 107 58 108
REMARK H PARENT 1 25 1 26 82 58 48 69
REMARK Flexibility Score: inf
ROOT
ATOM      1  O   UNL     1       2.625   0.401   3.251  1.00  0.00    -0.377 OA
ENDROOT
BRANCH   1   2
ATOM      2  C   UNL     1       2.062   0.066   1.996  1.00  0.00     0.188 C 
BRANCH   2   3
ATOM      3  C   UNL     1       2.270  -1.287   1.286  1.00  0.00     0.188 C 
BRANCH   3   4
ATOM      4  O   UNL     1       3.473  -1.933   1.627  1.00  0.00    -0.376 OA
BRANCH   4   5
ATOM      5  C   UNL     1       4.584  -1.781   0.763  1.00  0.00     0.202 C 
BRANCH   5   6
ATOM      6  C   UNL     1       4.957  -0.403   0.179  1.00  0.00     0.261 C 
BRANCH   6   7
ATOM      7  O   UNL     1       3.859   0.473  -0.172  1.00  0.00    -0.462 OA
BRANCH   7   8
ATOM      8  C   UNL     1       3.537   0.649  -1.474  1.00  0.00     0.324 C 
ATOM      9  O   UNL     1       4.125   0.041  -2.368  1.00  0.00    -0.251 OA
BRANCH   8  10
ATOM     10  C   UNL     1       2.403   1.673  -1.765  1.00  0.00     0.194 C 
BRANCH  10  11
ATOM     11  S   UNL     1       1.777   2.708  -0.408  1.00  0.00    -0.066 SA
BRANCH  11  12
ATOM     12  C   UNL     1       0.259   2.290   0.392  1.00  0.00     0.191 A 
ATOM     13  N   UNL     1      -0.520   1.154   0.159  1.00  0.00    -0.202 N 
ATOM     14  C   UNL     1      -1.684   0.869   0.888  1.00  0.00     0.280 A 
ATOM     15  N   UNL     1      -0.079   3.141   1.322  1.00  0.00    -0.222 NA
ATOM     16  C   UNL     1      -1.999   1.770   1.994  1.00  0.00     0.069 A 
ATOM     17  O   UNL     1      -2.404  -0.106   0.666  1.00  0.00    -0.267 OA
ATOM     18  C   UNL     1      -1.180   2.882   2.159  1.00  0.00     0.079 A 
ATOM     19  C   UNL     1      -3.023   1.451   2.901  1.00  0.00     0.031 A 
ATOM     20  C   UNL     1      -1.423   3.708   3.263  1.00  0.00     0.030 A 
ATOM     21  C   UNL     1      -3.225   2.269   4.005  1.00  0.00     0.018 A 
ATOM     22  C   UNL     1      -2.436   3.403   4.187  1.00  0.00     0.018 A 
ATOM     23  Br  UNL     1      -4.528   1.800   5.292  1.00  0.00    -0.051 Br
BRANCH  13  24
ATOM     24  N   UNL     1      -0.200   0.179  -0.786  1.00  0.00    -0.334 N 
ATOM     25  H   UNL     1       0.600   0.284  -1.351  1.00  0.00     0.178 HD
ATOM     26  H   UNL     1      -0.774  -0.615  -0.888  1.00  0.00     0.178 HD
ENDBRANCH  13  24
ENDBRANCH  11  12
ENDBRANCH  10  11
BRANCH  10  27
ATOM     27  C   UNL     1       1.397   1.247  -2.826  1.00  0.00    -0.023 A 
ATOM     28  C   UNL     1       1.265  -0.095  -3.237  1.00  0.00     0.005 A 
ATOM     29  C   UNL     1       0.516   2.197  -3.371  1.00  0.00     0.005 A 
ATOM     30  C   UNL     1       0.219  -0.489  -4.070  1.00  0.00     0.000 A 
ATOM     31  C   UNL     1      -0.528   1.800  -4.205  1.00  0.00     0.000 A 
ATOM     32  C   UNL     1      -0.689   0.457  -4.535  1.00  0.00     0.000 A 
ENDBRANCH  10  27
ENDBRANCH   8  10
ENDBRANCH   7   8
ENDBRANCH   6   7
ENDBRANCH   5   6
ENDBRANCH   4   5
ENDBRANCH   3   4
ENDBRANCH   2   3
ENDBRANCH   1   2
BRANCH   1  33
ATOM     33  C   UNL     1       3.229  -0.618   4.011  1.00  0.00     0.188 C 
BRANCH  33  34
ATOM     34  C   UNL     1       2.281  -1.730   4.480  1.00  0.00     0.188 C 
BRANCH  34  35
ATOM     35  O   UNL     1       1.007  -1.718   3.837  1.00  0.00    -0.376 OA
BRANCH  35  36
ATOM     36  C   UNL     1      -0.085  -1.214   4.601  1.00  0.00     0.202 C 
BRANCH  36  37
ATOM     37  C   UNL     1      -0.114   0.298   4.854  1.00  0.00     0.261 C 
BRANCH  37  38
ATOM     38  O   UNL     1       0.986   0.850   5.576  1.00  0.00    -0.460 OA
BRANCH  38  39
ATOM     39  C   UNL     1       1.238   0.391   6.815  1.00  0.00     0.338 C 
ATOM     40  O   UNL     1       0.600  -0.434   7.446  1.00  0.00    -0.246 OA
BRANCH  39  41
ATOM     41  C   UNL     1       2.573   0.911   7.164  1.00  0.00     0.060 A 
ATOM     42  C   UNL     1       2.858   2.272   7.016  1.00  0.00     0.016 A 
ATOM     43  C   UNL     1       3.577   0.001   7.517  1.00  0.00     0.016 A 
ATOM     44  C   UNL     1       4.155   2.729   7.233  1.00  0.00     0.010 A 
ATOM     45  C   UNL     1       4.880   0.456   7.709  1.00  0.00     0.010 A 
ATOM     46  C   UNL     1       5.167   1.824   7.593  1.00  0.00    -0.014 A 
BRANCH  46  47
ATOM     47  C   UNL     1       6.460   2.336   8.093  1.00  0.00     0.031 A 
ATOM     48  C   UNL     1       7.688   2.384   7.242  1.00  0.00     0.074 A 
ATOM     49  C   UNL     1       6.484   2.731   9.379  1.00  0.00     0.049 A 
ATOM     50  N   UNL     1       8.878   2.827   7.556  1.00  0.00    -0.248 NA
ATOM     51  C   UNL     1       7.577   1.863   5.872  1.00  0.00     0.031 C 
ATOM     52  C   UNL     1       5.329   2.693  10.283  1.00  0.00     0.029 A 
ATOM     53  N   UNL     1       7.495   3.233  10.149  1.00  0.00    -0.354 N 
ATOM     54  C   UNL     1       9.659   2.662   6.420  1.00  0.00     0.074 A 
ATOM     55  C   UNL     1       8.816   2.036   5.421  1.00  0.00     0.031 C 
ATOM     56  C   UNL     1       5.695   3.165  11.482  1.00  0.00     0.029 A 
ATOM     57  C   UNL     1       7.110   3.514  11.438  1.00  0.00     0.049 A 
ATOM     58  H   UNL     1       8.409   3.380   9.814  1.00  0.00     0.167 HD
ATOM     59  C   UNL     1      10.954   3.018   6.237  1.00  0.00     0.037 A 
ATOM     60  C   UNL     1       7.819   3.998  12.472  1.00  0.00     0.037 A 
ATOM     61  C   UNL     1      11.774   3.619   7.263  1.00  0.00     0.049 A 
ATOM     62  C   UNL     1       9.262   4.341  12.253  1.00  0.00     0.074 A 
ATOM     63  C   UNL     1      13.088   4.047   7.175  1.00  0.00     0.029 A 
ATOM     64  N   UNL     1      11.364   3.865   8.567  1.00  0.00    -0.354 N 
ATOM     65  N   UNL     1       9.971   4.240  11.153  1.00  0.00    -0.248 NA
ATOM     66  C   UNL     1      10.001   4.866  13.406  1.00  0.00     0.031 C 
ATOM     67  C   UNL     1      13.486   4.503   8.437  1.00  0.00     0.029 A 
ATOM     68  C   UNL     1      12.407   4.409   9.301  1.00  0.00     0.049 A 
ATOM     69  H   UNL     1      10.463   3.680   8.919  1.00  0.00     0.167 HD
ATOM     70  C   UNL     1      11.240   4.701  11.477  1.00  0.00     0.074 A 
ATOM     71  C   UNL     1      11.192   5.100  12.871  1.00  0.00     0.031 C 
ATOM     72  C   UNL     1      12.342   4.785  10.693  1.00  0.00     0.037 A 
BRANCH  59  73
ATOM     73  C   UNL     1      11.572   2.776   4.885  1.00  0.00     0.058 A 
ATOM     74  C   UNL     1      11.206   3.541   3.766  1.00  0.00     0.135 A 
ATOM     75  C   UNL     1      12.591   1.823   4.717  1.00  0.00     0.135 A 
ATOM     76  F   UNL     1      10.235   4.462   3.865  1.00  0.00    -0.206 F 
ATOM     77  C   UNL     1      11.811   3.356   2.526  1.00  0.00     0.059 A 
ATOM     78  C   UNL     1      13.227   1.637   3.491  1.00  0.00     0.059 A 
ATOM     79  F   UNL     1      12.985   1.065   5.752  1.00  0.00    -0.206 F 
ATOM     80  C   UNL     1      12.822   2.402   2.398  1.00  0.00     0.060 A 
BRANCH  80  81
ATOM     81  S   UNL     1      13.593   2.179   0.781  1.00  0.00     0.124 S 
ATOM     82  O   UNL     1      12.501   1.581   0.018  1.00  0.00    -0.237 OA
ATOM     83  O   UNL     1      13.947   3.546   0.414  1.00  0.00    -0.237 OA
ATOM     84  O   UNL     1      14.720   1.293   1.058  1.00  0.00    -0.744 OA
ENDBRANCH  80  81
ENDBRANCH  59  73
BRANCH  60  85
ATOM     85  C   UNL     1       7.146   4.216  13.776  1.00  0.00     0.058 A 
ATOM     86  C   UNL     1       6.860   5.512  14.225  1.00  0.00     0.135 A 
ATOM     87  C   UNL     1       6.707   3.137  14.559  1.00  0.00     0.135 A 
ATOM     88  F   UNL     1       7.257   6.574  13.506  1.00  0.00    -0.206 F 
ATOM     89  C   UNL     1       6.165   5.734  15.408  1.00  0.00     0.059 A 
ATOM     90  C   UNL     1       5.988   3.333  15.734  1.00  0.00     0.059 A 
ATOM     91  F   UNL     1       6.934   1.877  14.157  1.00  0.00    -0.206 F 
ATOM     92  C   UNL     1       5.726   4.637  16.152  1.00  0.00     0.060 A 
BRANCH  92  93
ATOM     93  S   UNL     1       4.769   4.941  17.652  1.00  0.00     0.124 S 
ATOM     94  O   UNL     1       5.782   5.505  18.537  1.00  0.00    -0.237 OA
ATOM     95  O   UNL     1       3.748   5.870  17.177  1.00  0.00    -0.237 OA
ATOM     96  O   UNL     1       4.281   3.615  18.016  1.00  0.00    -0.744 OA
ENDBRANCH  92  93
ENDBRANCH  60  85
BRANCH  72  97
ATOM     97  C   UNL     1      13.593   5.325  11.329  1.00  0.00     0.058 A 
ATOM     98  C   UNL     1      14.332   4.563  12.247  1.00  0.00     0.135 A 
ATOM     99  C   UNL     1      14.089   6.589  10.972  1.00  0.00     0.135 A 
ATOM    100  F   UNL     1      13.894   3.354  12.631  1.00  0.00    -0.206 F 
ATOM    101  C   UNL     1      15.515   5.042  12.800  1.00  0.00     0.059 A 
ATOM    102  C   UNL     1      15.285   7.076  11.491  1.00  0.00     0.059 A 
ATOM    103  F   UNL     1      13.422   7.354  10.094  1.00  0.00    -0.206 F 
ATOM    104  C   UNL     1      15.987   6.297  12.410  1.00  0.00     0.060 A 
BRANCH 104 105
ATOM    105  S   UNL     1      17.550   6.879  13.099  1.00  0.00     0.124 S 
ATOM    106  O   UNL     1      17.180   7.147  14.485  1.00  0.00    -0.237 OA
ATOM    107  O   UNL     1      18.428   5.733  12.888  1.00  0.00    -0.237 OA
ATOM    108  O   UNL     1      17.860   8.057  12.294  1.00  0.00    -0.744 OA
ENDBRANCH 104 105
ENDBRANCH  72  97
ENDBRANCH  46  47
ENDBRANCH  39  41
ENDBRANCH  38  39
ENDBRANCH  37  38
ENDBRANCH  36  37
ENDBRANCH  35  36
ENDBRANCH  34  35
ENDBRANCH  33  34
ENDBRANCH   1  33
TORSDOF 27
