REMARK SMILES COc1cc([C@H]2[NH2+]CCC3=c4ccccc4=N[C@@H]32)ccc1OCC(=O)OCCOCCOCCOCCOC(=O)c1ccc(-c2c3nc(c(-c4c(F)cc(S(=O)(=O)[O-])cc4F)c4ccc([nH]4)c(-c4c(F)cc(S(=O)(=O)[O-])cc4F)c4nc(c(-c5c(F)cc(S(=O)(=O)[O-])cc5F)c5ccc2[nH]5)C=C4)C=C3)cc1
REMARK SMILES IDX 32 1 31 2 30 3 29 4 28 5 27 6 26 7 24 8 25 9 23 10 22 11
REMARK SMILES IDX 21 12 3 13 4 14 5 15 20 16 19 17 2 18 1 19 6 20 7 21 18 22
REMARK SMILES IDX 8 23 10 26 17 27 9 28 11 29 16 30 12 31 15 32 13 33 14 34
REMARK SMILES IDX 33 35 34 36 35 37 36 38 37 39 38 40 39 41 40 42 41 43 42 44
REMARK SMILES IDX 106 45 43 46 105 47 44 48 45 49 46 50 99 51 47 52 104 53
REMARK SMILES IDX 98 54 100 55 48 56 103 57 97 58 96 59 49 61 83 62 62 63
REMARK SMILES IDX 82 64 63 65 66 66 81 67 101 68 64 69 65 70 80 72 102 73
REMARK SMILES IDX 67 74 50 75 51 76 60 77 52 78 53 79 59 80 61 81 54 82 55 83
REMARK SMILES IDX 56 84 57 85 58 86 84 87 85 88 94 89 86 90 87 91 93 92 95 93
REMARK SMILES IDX 88 94 89 95 90 96 91 97 92 98 68 99 69 100 78 101 70 102
REMARK SMILES IDX 71 103 77 104 79 105 72 106 73 107 74 108 75 109 76 110
REMARK H PARENT 7 24 7 25 100 60 66 71
REMARK Flexibility Score: inf
ROOT
ATOM      1  O   UNL     1      -1.185   0.542  12.032  1.00  0.00    -0.377 OA
ENDROOT
BRANCH   1   2
ATOM      2  C   UNL     1      -0.050   0.576  11.181  1.00  0.00     0.188 C 
BRANCH   2   3
ATOM      3  C   UNL     1       0.547  -0.810  10.847  1.00  0.00     0.188 C 
BRANCH   3   4
ATOM      4  O   UNL     1       0.577  -1.853  11.815  1.00  0.00    -0.376 OA
BRANCH   4   5
ATOM      5  C   UNL     1       0.473  -1.489  13.176  1.00  0.00     0.202 C 
BRANCH   5   6
ATOM      6  C   UNL     1       1.647  -0.700  13.778  1.00  0.00     0.261 C 
BRANCH   6   7
ATOM      7  O   UNL     1       2.257   0.279  12.910  1.00  0.00    -0.461 OA
BRANCH   7   8
ATOM      8  C   UNL     1       3.355  -0.083  12.184  1.00  0.00     0.344 C 
ATOM      9  O   UNL     1       3.970  -1.134  12.322  1.00  0.00    -0.248 OA
BRANCH   8  10
ATOM     10  C   UNL     1       3.727   1.002  11.145  1.00  0.00     0.352 C 
BRANCH  10  11
ATOM     11  O   UNL     1       2.615   1.363  10.336  1.00  0.00    -0.478 OA
BRANCH  11  12
ATOM     12  C   UNL     1       2.597   1.497   8.970  1.00  0.00     0.162 A 
ATOM     13  C   UNL     1       2.367   0.470   8.032  1.00  0.00     0.161 A 
ATOM     14  C   UNL     1       1.676   0.737   6.801  1.00  0.00     0.060 A 
ATOM     15  C   UNL     1       1.226   2.019   6.452  1.00  0.00     0.016 A 
ATOM     16  C   UNL     1       2.260   2.788   8.575  1.00  0.00     0.051 A 
ATOM     17  C   UNL     1       1.642   3.039   7.339  1.00  0.00     0.014 A 
BRANCH  13  18
ATOM     18  O   UNL     1       2.585  -0.872   8.204  1.00  0.00    -0.493 OA
ATOM     19  C   UNL     1       3.785  -1.258   8.854  1.00  0.00     0.278 C 
ENDBRANCH  13  18
BRANCH  15  20
ATOM     20  C   UNL     1       0.236   2.311   5.230  1.00  0.00     0.243 C 
ATOM     21  N   UNL     1      -0.845   1.313   5.178  1.00  0.00    -0.338 N 
ATOM     22  C   UNL     1      -0.401   3.699   5.454  1.00  0.00     0.196 C 
ATOM     23  C   UNL     1      -2.224   1.640   4.785  1.00  0.00     0.265 C 
ATOM     24  H   UNL     1      -0.907   0.918   6.116  1.00  0.00     0.346 HD
ATOM     25  H   UNL     1      -0.545   0.730   4.396  1.00  0.00     0.346 HD
ATOM     26  C   UNL     1      -1.808   4.131   5.215  1.00  0.00    -0.025 C 
ATOM     27  N   UNL     1       0.448   4.891   5.196  1.00  0.00    -0.270 NA
ATOM     28  C   UNL     1      -2.824   3.058   5.062  1.00  0.00     0.095 C 
ATOM     29  C   UNL     1      -1.824   5.358   5.756  1.00  0.00     0.001 A 
ATOM     30  C   UNL     1      -0.399   5.776   5.646  1.00  0.00     0.066 A 
ATOM     31  C   UNL     1      -2.713   6.069   6.623  1.00  0.00     0.010 A 
ATOM     32  C   UNL     1      -0.029   7.097   6.168  1.00  0.00     0.028 A 
ATOM     33  C   UNL     1      -2.220   7.131   7.291  1.00  0.00     0.001 A 
ATOM     34  C   UNL     1      -0.896   7.677   7.012  1.00  0.00     0.002 A 
ENDBRANCH  15  20
ENDBRANCH  11  12
ENDBRANCH  10  11
ENDBRANCH   8  10
ENDBRANCH   7   8
ENDBRANCH   6   7
ENDBRANCH   5   6
ENDBRANCH   4   5
ENDBRANCH   3   4
ENDBRANCH   2   3
ENDBRANCH   1   2
BRANCH   1  35
ATOM     35  C   UNL     1      -2.420   0.761  11.374  1.00  0.00     0.188 C 
BRANCH  35  36
ATOM     36  C   UNL     1      -2.799  -0.381  10.426  1.00  0.00     0.188 C 
BRANCH  36  37
ATOM     37  O   UNL     1      -1.880  -0.574   9.360  1.00  0.00    -0.376 OA
BRANCH  37  38
ATOM     38  C   UNL     1      -2.109   0.081   8.126  1.00  0.00     0.202 C 
BRANCH  38  39
ATOM     39  C   UNL     1      -1.929   1.594   8.154  1.00  0.00     0.261 C 
BRANCH  39  40
ATOM     40  O   UNL     1      -2.922   2.341   8.842  1.00  0.00    -0.460 OA
BRANCH  40  41
ATOM     41  C   UNL     1      -4.221   2.108   8.587  1.00  0.00     0.338 C 
ATOM     42  O   UNL     1      -4.727   1.393   7.742  1.00  0.00    -0.246 OA
BRANCH  41  43
ATOM     43  C   UNL     1      -4.889   2.732   9.727  1.00  0.00     0.060 A 
ATOM     44  C   UNL     1      -5.630   1.919  10.587  1.00  0.00     0.016 A 
ATOM     45  C   UNL     1      -4.604   4.070  10.028  1.00  0.00     0.016 A 
ATOM     46  C   UNL     1      -6.096   2.457  11.775  1.00  0.00     0.010 A 
ATOM     47  C   UNL     1      -5.078   4.609  11.209  1.00  0.00     0.010 A 
ATOM     48  C   UNL     1      -5.843   3.806  12.065  1.00  0.00    -0.014 A 
BRANCH  48  49
ATOM     49  C   UNL     1      -6.573   4.434  13.170  1.00  0.00     0.031 A 
ATOM     50  C   UNL     1      -7.879   5.084  12.835  1.00  0.00     0.074 A 
ATOM     51  C   UNL     1      -6.078   4.385  14.415  1.00  0.00     0.049 A 
ATOM     52  N   UNL     1      -8.755   5.632  13.627  1.00  0.00    -0.248 NA
ATOM     53  C   UNL     1      -8.249   5.119  11.406  1.00  0.00     0.031 C 
ATOM     54  C   UNL     1      -4.803   3.773  14.796  1.00  0.00     0.029 A 
ATOM     55  N   UNL     1      -6.593   4.853  15.590  1.00  0.00    -0.354 N 
ATOM     56  C   UNL     1      -9.786   6.058  12.800  1.00  0.00     0.074 A 
ATOM     57  C   UNL     1      -9.408   5.755  11.441  1.00  0.00     0.031 C 
ATOM     58  C   UNL     1      -4.640   3.902  16.124  1.00  0.00     0.029 A 
ATOM     59  C   UNL     1      -5.791   4.609  16.677  1.00  0.00     0.049 A 
ATOM     60  H   UNL     1      -7.457   5.321  15.651  1.00  0.00     0.167 HD
ATOM     61  C   UNL     1     -10.953   6.634  13.159  1.00  0.00     0.037 A 
ATOM     62  C   UNL     1      -5.986   4.927  17.970  1.00  0.00     0.037 A 
ATOM     63  C   UNL     1     -11.280   6.944  14.524  1.00  0.00     0.049 A 
ATOM     64  C   UNL     1      -7.281   5.602  18.340  1.00  0.00     0.074 A 
ATOM     65  C   UNL     1     -12.425   7.527  15.028  1.00  0.00     0.029 A 
ATOM     66  N   UNL     1     -10.439   6.700  15.603  1.00  0.00    -0.354 N 
ATOM     67  N   UNL     1      -8.278   5.957  17.560  1.00  0.00    -0.248 NA
ATOM     68  C   UNL     1      -7.487   5.907  19.760  1.00  0.00     0.031 C 
ATOM     69  C   UNL     1     -12.257   7.679  16.409  1.00  0.00     0.029 A 
ATOM     70  C   UNL     1     -11.029   7.143  16.772  1.00  0.00     0.049 A 
ATOM     71  H   UNL     1      -9.553   6.276  15.544  1.00  0.00     0.167 HD
ATOM     72  C   UNL     1      -9.240   6.509  18.397  1.00  0.00     0.074 A 
ATOM     73  C   UNL     1      -8.709   6.422  19.745  1.00  0.00     0.031 C 
ATOM     74  C   UNL     1     -10.451   7.040  18.090  1.00  0.00     0.037 A 
BRANCH  61  75
ATOM     75  C   UNL     1     -11.919   6.978  12.062  1.00  0.00     0.058 A 
ATOM     76  C   UNL     1     -12.602   5.983  11.341  1.00  0.00     0.135 A 
ATOM     77  C   UNL     1     -12.156   8.316  11.714  1.00  0.00     0.135 A 
ATOM     78  F   UNL     1     -12.386   4.685  11.608  1.00  0.00    -0.206 F 
ATOM     79  C   UNL     1     -13.467   6.303  10.300  1.00  0.00     0.059 A 
ATOM     80  C   UNL     1     -13.037   8.661  10.693  1.00  0.00     0.059 A 
ATOM     81  F   UNL     1     -11.516   9.305  12.357  1.00  0.00    -0.206 F 
ATOM     82  C   UNL     1     -13.678   7.646   9.983  1.00  0.00     0.060 A 
BRANCH  82  83
ATOM     83  S   UNL     1     -14.807   8.046   8.632  1.00  0.00     0.124 S 
ATOM     84  O   UNL     1     -14.021   7.646   7.469  1.00  0.00    -0.237 OA
ATOM     85  O   UNL     1     -15.963   7.209   8.934  1.00  0.00    -0.237 OA
ATOM     86  O   UNL     1     -15.019   9.482   8.781  1.00  0.00    -0.744 OA
ENDBRANCH  82  83
ENDBRANCH  61  75
BRANCH  62  87
ATOM     87  C   UNL     1      -4.955   4.588  18.985  1.00  0.00     0.058 A 
ATOM     88  C   UNL     1      -5.178   3.593  19.948  1.00  0.00     0.135 A 
ATOM     89  C   UNL     1      -3.707   5.233  18.992  1.00  0.00     0.135 A 
ATOM     90  F   UNL     1      -6.353   2.947  19.985  1.00  0.00    -0.206 F 
ATOM     91  C   UNL     1      -4.209   3.258  20.890  1.00  0.00     0.059 A 
ATOM     92  C   UNL     1      -2.714   4.899  19.907  1.00  0.00     0.059 A 
ATOM     93  F   UNL     1      -3.435   6.181  18.081  1.00  0.00    -0.206 F 
ATOM     94  C   UNL     1      -2.978   3.916  20.859  1.00  0.00     0.060 A 
BRANCH  94  95
ATOM     95  S   UNL     1      -1.708   3.437  22.052  1.00  0.00     0.124 S 
ATOM     96  O   UNL     1      -2.235   4.007  23.286  1.00  0.00    -0.237 OA
ATOM     97  O   UNL     1      -1.732   1.981  21.958  1.00  0.00    -0.237 OA
ATOM     98  O   UNL     1      -0.501   4.071  21.529  1.00  0.00    -0.744 OA
ENDBRANCH  94  95
ENDBRANCH  62  87
BRANCH  74  99
ATOM     99  C   UNL     1     -11.274   7.550  19.237  1.00  0.00     0.058 A 
ATOM    100  C   UNL     1     -10.941   8.735  19.909  1.00  0.00     0.135 A 
ATOM    101  C   UNL     1     -12.434   6.866  19.636  1.00  0.00     0.135 A 
ATOM    102  F   UNL     1      -9.840   9.422  19.564  1.00  0.00    -0.206 F 
ATOM    103  C   UNL     1     -11.710   9.207  20.965  1.00  0.00     0.059 A 
ATOM    104  C   UNL     1     -13.235   7.337  20.669  1.00  0.00     0.059 A 
ATOM    105  F   UNL     1     -12.803   5.737  19.011  1.00  0.00    -0.206 F 
ATOM    106  C   UNL     1     -12.854   8.499  21.339  1.00  0.00     0.060 A 
BRANCH 106 107
ATOM    107  S   UNL     1     -13.853   9.130  22.702  1.00  0.00     0.124 S 
ATOM    108  O   UNL     1     -13.032   8.771  23.854  1.00  0.00    -0.237 OA
ATOM    109  O   UNL     1     -13.932  10.555  22.399  1.00  0.00    -0.237 OA
ATOM    110  O   UNL     1     -15.108   8.396  22.571  1.00  0.00    -0.744 OA
ENDBRANCH 106 107
ENDBRANCH  74  99
ENDBRANCH  48  49
ENDBRANCH  41  43
ENDBRANCH  40  41
ENDBRANCH  39  40
ENDBRANCH  38  39
ENDBRANCH  37  38
ENDBRANCH  36  37
ENDBRANCH  35  36
ENDBRANCH   1  35
TORSDOF 27
