REMARK SMILES Cc1c(C(=O)OCCOCCOCCOCCOC(=O)c2ccc(-c3c4nc(c(-c5c(F)cc(S(=O)(=O)[O-])cc5F)c5ccc([nH]5)c(-c5c(F)cc(S(=O)(=O)[O-])cc5F)c5nc(c(-c6c(F)cc(S(=O)(=O)[O-])cc6F)c6ccc3[nH]6)C=C5)C=C4)cc2)cccc1-n1c(C)cc(/C=C2/C(=O)NC(=S)N=C2O)c1C
REMARK SMILES IDX 12 1 11 2 10 3 9 4 8 5 7 6 6 7 4 8 5 9 3 10 1 11 2 12 90 13
REMARK SMILES IDX 87 14 89 15 88 16 91 17 92 18 106 19 93 20 94 21 95 22
REMARK SMILES IDX 107 23 96 24 97 25 98 26 104 27 99 28 100 29 103 30 101 31
REMARK SMILES IDX 102 33 105 34 13 36 14 37 15 38 16 39 17 40 18 41 19 42
REMARK SMILES IDX 20 43 21 44 22 45 86 46 23 47 85 48 24 49 25 50 26 51 79 52
REMARK SMILES IDX 27 53 84 54 78 55 80 56 28 57 83 58 77 59 76 60 29 62 63 63
REMARK SMILES IDX 42 64 62 65 43 66 46 67 61 68 81 69 44 70 45 71 60 73 82 74
REMARK SMILES IDX 47 75 30 76 31 77 40 78 32 79 33 80 39 81 41 82 34 83 35 84
REMARK SMILES IDX 36 85 37 86 38 87 64 88 65 89 74 90 66 91 67 92 73 93 75 94
REMARK SMILES IDX 68 95 69 96 70 97 71 98 72 99 48 100 49 101 58 102 50 103
REMARK SMILES IDX 51 104 57 105 59 106 52 107 53 108 54 109 55 110 56 111
REMARK H PARENT 100 32 105 35 80 61 46 72
REMARK Flexibility Score: inf
ROOT
ATOM      1  O   UNL     1       1.203  -1.308   2.623  1.00  0.00    -0.377 OA
ENDROOT
BRANCH   1   2
ATOM      2  C   UNL     1      -0.142  -1.457   3.045  1.00  0.00     0.188 C 
BRANCH   2   3
ATOM      3  C   UNL     1      -1.099  -2.257   2.155  1.00  0.00     0.188 C 
BRANCH   3   4
ATOM      4  O   UNL     1      -0.910  -3.652   1.994  1.00  0.00    -0.376 OA
BRANCH   4   5
ATOM      5  C   UNL     1      -0.044  -4.019   0.925  1.00  0.00     0.202 C 
BRANCH   5   6
ATOM      6  C   UNL     1      -0.568  -3.821  -0.486  1.00  0.00     0.261 C 
BRANCH   6   7
ATOM      7  O   UNL     1      -0.417  -2.454  -0.846  1.00  0.00    -0.460 OA
BRANCH   7   8
ATOM      8  C   UNL     1      -1.529  -1.867  -1.297  1.00  0.00     0.338 C 
ATOM      9  O   UNL     1      -2.500  -2.431  -1.758  1.00  0.00    -0.246 OA
BRANCH   8  10
ATOM     10  C   UNL     1      -1.532  -0.425  -0.917  1.00  0.00     0.065 A 
ATOM     11  C   UNL     1       0.940  -0.050  -0.203  1.00  0.00     0.047 C 
ATOM     12  C   UNL     1      -0.436   0.412  -0.605  1.00  0.00    -0.012 A 
ATOM     13  C   UNL     1      -0.714   1.777  -0.422  1.00  0.00     0.049 A 
ATOM     14  C   UNL     1      -2.844   0.059  -0.741  1.00  0.00     0.016 A 
ATOM     15  C   UNL     1      -2.026   2.252  -0.278  1.00  0.00     0.027 A 
ATOM     16  C   UNL     1      -3.092   1.374  -0.381  1.00  0.00     0.003 A 
BRANCH  13  17
ATOM     17  N   UNL     1       0.331   2.701  -0.191  1.00  0.00    -0.318 N 
ATOM     18  C   UNL     1       1.252   3.175  -1.112  1.00  0.00     0.020 A 
ATOM     19  C   UNL     1       0.558   3.318   1.031  1.00  0.00     0.027 A 
ATOM     20  C   UNL     1       1.481   2.608  -2.473  1.00  0.00     0.065 C 
ATOM     21  C   UNL     1       1.814   4.304  -0.544  1.00  0.00     0.031 A 
ATOM     22  C   UNL     1       1.284   4.462   0.767  1.00  0.00    -0.003 A 
ATOM     23  C   UNL     1       0.074   2.684   2.295  1.00  0.00     0.065 C 
BRANCH  22  24
ATOM     24  C   UNL     1       1.620   5.549   1.628  1.00  0.00     0.029 C 
ATOM     25  C   UNL     1       0.966   6.108   2.664  1.00  0.00     0.102 C 
ATOM     26  C   UNL     1       1.680   7.207   3.362  1.00  0.00     0.262 C 
ATOM     27  C   UNL     1      -0.322   5.781   3.281  1.00  0.00     0.226 C 
ATOM     28  O   UNL     1       2.599   7.857   2.879  1.00  0.00    -0.269 OA
ATOM     29  N   UNL     1       1.219   7.448   4.628  1.00  0.00    -0.297 N 
ATOM     30  N   UNL     1      -0.713   6.103   4.460  1.00  0.00    -0.184 NA
ATOM     31  C   UNL     1       0.121   6.876   5.221  1.00  0.00     0.203 C 
ATOM     32  H   UNL     1       1.726   8.096   5.168  1.00  0.00     0.172 HD
ATOM     33  S   UNL     1      -0.180   7.251   6.827  1.00  0.00    -0.038 S 
BRANCH  27  34
ATOM     34  O   UNL     1      -1.221   5.166   2.513  1.00  0.00    -0.493 OA
ATOM     35  H   UNL     1      -0.994   4.906   1.642  1.00  0.00     0.295 HD
ENDBRANCH  27  34
ENDBRANCH  22  24
ENDBRANCH  13  17
ENDBRANCH   8  10
ENDBRANCH   7   8
ENDBRANCH   6   7
ENDBRANCH   5   6
ENDBRANCH   4   5
ENDBRANCH   3   4
ENDBRANCH   2   3
ENDBRANCH   1   2
BRANCH   1  36
ATOM     36  C   UNL     1       2.188  -2.189   3.163  1.00  0.00     0.188 C 
BRANCH  36  37
ATOM     37  C   UNL     1       1.948  -2.787   4.530  1.00  0.00     0.188 C 
BRANCH  37  38
ATOM     38  O   UNL     1       0.971  -3.810   4.328  1.00  0.00    -0.376 OA
BRANCH  38  39
ATOM     39  C   UNL     1       0.194  -4.163   5.453  1.00  0.00     0.202 C 
BRANCH  39  40
ATOM     40  C   UNL     1       1.038  -4.543   6.668  1.00  0.00     0.261 C 
BRANCH  40  41
ATOM     41  O   UNL     1       1.572  -5.886   6.550  1.00  0.00    -0.460 OA
BRANCH  41  42
ATOM     42  C   UNL     1       2.885  -6.046   6.195  1.00  0.00     0.338 C 
ATOM     43  O   UNL     1       3.760  -6.312   7.003  1.00  0.00    -0.246 OA
BRANCH  42  44
ATOM     44  C   UNL     1       3.082  -6.120   4.718  1.00  0.00     0.060 A 
ATOM     45  C   UNL     1       4.314  -5.855   4.099  1.00  0.00     0.016 A 
ATOM     46  C   UNL     1       1.996  -6.407   3.916  1.00  0.00     0.016 A 
ATOM     47  C   UNL     1       4.404  -5.659   2.699  1.00  0.00     0.010 A 
ATOM     48  C   UNL     1       2.085  -6.180   2.554  1.00  0.00     0.010 A 
ATOM     49  C   UNL     1       3.261  -5.744   1.914  1.00  0.00    -0.014 A 
BRANCH  49  50
ATOM     50  C   UNL     1       3.112  -5.350   0.484  1.00  0.00     0.031 A 
ATOM     51  C   UNL     1       2.350  -6.271  -0.437  1.00  0.00     0.074 A 
ATOM     52  C   UNL     1       3.293  -4.057   0.098  1.00  0.00     0.049 A 
ATOM     53  N   UNL     1       1.917  -5.976  -1.615  1.00  0.00    -0.248 NA
ATOM     54  C   UNL     1       1.938  -7.615  -0.056  1.00  0.00     0.031 C 
ATOM     55  C   UNL     1       2.606  -3.378  -0.998  1.00  0.00     0.029 A 
ATOM     56  N   UNL     1       4.073  -3.030   0.617  1.00  0.00    -0.354 N 
ATOM     57  C   UNL     1       0.895  -6.841  -1.965  1.00  0.00     0.074 A 
ATOM     58  C   UNL     1       1.012  -7.890  -0.981  1.00  0.00     0.031 C 
ATOM     59  C   UNL     1       3.029  -2.119  -1.147  1.00  0.00     0.029 A 
ATOM     60  C   UNL     1       4.208  -2.011  -0.345  1.00  0.00     0.049 A 
ATOM     61  H   UNL     1       4.471  -3.018   1.517  1.00  0.00     0.167 HD
ATOM     62  C   UNL     1       0.018  -6.464  -2.959  1.00  0.00     0.037 A 
ATOM     63  C   UNL     1       5.431  -1.753  -0.891  1.00  0.00     0.037 A 
ATOM     64  C   UNL     1       0.467  -5.189  -3.610  1.00  0.00     0.049 A 
ATOM     65  C   UNL     1       5.435  -2.204  -2.364  1.00  0.00     0.074 A 
ATOM     66  C   UNL     1      -0.095  -3.947  -3.871  1.00  0.00     0.029 A 
ATOM     67  N   UNL     1       1.823  -5.026  -3.929  1.00  0.00    -0.354 N 
ATOM     68  N   UNL     1       4.562  -3.064  -2.852  1.00  0.00    -0.248 NA
ATOM     69  C   UNL     1       6.232  -1.628  -3.440  1.00  0.00     0.031 C 
ATOM     70  C   UNL     1       0.932  -3.056  -4.319  1.00  0.00     0.029 A 
ATOM     71  C   UNL     1       2.132  -3.750  -4.359  1.00  0.00     0.049 A 
ATOM     72  H   UNL     1       2.487  -5.748  -3.855  1.00  0.00     0.167 HD
ATOM     73  C   UNL     1       4.488  -2.980  -4.215  1.00  0.00     0.074 A 
ATOM     74  C   UNL     1       5.675  -2.193  -4.536  1.00  0.00     0.031 C 
ATOM     75  C   UNL     1       3.437  -3.464  -4.968  1.00  0.00     0.037 A 
BRANCH  62  76
ATOM     76  C   UNL     1      -1.361  -7.127  -3.265  1.00  0.00     0.058 A 
ATOM     77  C   UNL     1      -2.291  -6.540  -4.165  1.00  0.00     0.135 A 
ATOM     78  C   UNL     1      -1.853  -8.331  -2.704  1.00  0.00     0.135 A 
ATOM     79  F   UNL     1      -1.996  -5.436  -4.860  1.00  0.00    -0.206 F 
ATOM     80  C   UNL     1      -3.571  -7.063  -4.438  1.00  0.00     0.059 A 
ATOM     81  C   UNL     1      -3.123  -8.878  -2.965  1.00  0.00     0.059 A 
ATOM     82  F   UNL     1      -1.122  -9.090  -1.891  1.00  0.00    -0.206 F 
ATOM     83  C   UNL     1      -3.982  -8.239  -3.836  1.00  0.00     0.060 A 
BRANCH  83  84
ATOM     84  S   UNL     1      -5.588  -8.951  -4.256  1.00  0.00     0.124 S 
ATOM     85  O   UNL     1      -6.516  -7.925  -3.791  1.00  0.00    -0.237 OA
ATOM     86  O   UNL     1      -5.489  -9.107  -5.704  1.00  0.00    -0.237 OA
ATOM     87  O   UNL     1      -5.619 -10.201  -3.500  1.00  0.00    -0.744 OA
ENDBRANCH  83  84
ENDBRANCH  62  76
BRANCH  63  88
ATOM     88  C   UNL     1       6.432  -1.652   0.235  1.00  0.00     0.058 A 
ATOM     89  C   UNL     1       6.220  -0.541   1.102  1.00  0.00     0.135 A 
ATOM     90  C   UNL     1       6.921  -2.818   0.856  1.00  0.00     0.135 A 
ATOM     91  F   UNL     1       5.764   0.617   0.593  1.00  0.00    -0.206 F 
ATOM     92  C   UNL     1       6.245  -0.654   2.498  1.00  0.00     0.059 A 
ATOM     93  C   UNL     1       6.962  -2.947   2.260  1.00  0.00     0.059 A 
ATOM     94  F   UNL     1       7.142  -3.919   0.121  1.00  0.00    -0.206 F 
ATOM     95  C   UNL     1       6.556  -1.882   3.071  1.00  0.00     0.060 A 
BRANCH  95  96
ATOM     96  S   UNL     1       6.204  -2.125   4.842  1.00  0.00     0.124 S 
ATOM     97  O   UNL     1       7.352  -1.490   5.474  1.00  0.00    -0.237 OA
ATOM     98  O   UNL     1       4.923  -1.441   5.012  1.00  0.00    -0.237 OA
ATOM     99  O   UNL     1       6.134  -3.574   4.970  1.00  0.00    -0.744 OA
ENDBRANCH  95  96
ENDBRANCH  63  88
BRANCH  75 100
ATOM    100  C   UNL     1       3.527  -3.784  -6.439  1.00  0.00     0.058 A 
ATOM    101  C   UNL     1       4.210  -3.024  -7.386  1.00  0.00     0.135 A 
ATOM    102  C   UNL     1       2.915  -4.971  -6.932  1.00  0.00     0.135 A 
ATOM    103  F   UNL     1       4.615  -1.776  -7.111  1.00  0.00    -0.206 F 
ATOM    104  C   UNL     1       4.477  -3.520  -8.662  1.00  0.00     0.059 A 
ATOM    105  C   UNL     1       3.103  -5.447  -8.214  1.00  0.00     0.059 A 
ATOM    106  F   UNL     1       2.140  -5.758  -6.176  1.00  0.00    -0.206 F 
ATOM    107  C   UNL     1       3.959  -4.757  -9.045  1.00  0.00     0.060 A 
BRANCH 107 108
ATOM    108  S   UNL     1       4.431  -5.483 -10.615  1.00  0.00     0.124 S 
ATOM    109  O   UNL     1       4.346  -4.342 -11.521  1.00  0.00    -0.237 OA
ATOM    110  O   UNL     1       5.778  -5.958 -10.316  1.00  0.00    -0.237 OA
ATOM    111  O   UNL     1       3.430  -6.524 -10.828  1.00  0.00    -0.744 OA
ENDBRANCH 107 108
ENDBRANCH  75 100
ENDBRANCH  49  50
ENDBRANCH  42  44
ENDBRANCH  41  42
ENDBRANCH  40  41
ENDBRANCH  39  40
ENDBRANCH  38  39
ENDBRANCH  37  38
ENDBRANCH  36  37
ENDBRANCH   1  36
TORSDOF 26
