REMARK SMILES C[C@H](Nc1ncccc1C(=O)OCCOCCOCCOCCOC(=O)c1ccc(-c2c3nc(c(-c4c(F)cc(S(=O)(=O)[O-])cc4F)c4ccc([nH]4)c(-c4c(F)cc(S(=O)(=O)[O-])cc4F)c4nc(c(-c5c(F)cc(S(=O)(=O)[O-])cc5F)c5ccc2[nH]5)C=C4)C=C3)cc1)c1ccc(Cl)cc1
REMARK SMILES IDX 18 1 17 2 16 3 15 4 14 5 13 6 12 7 10 8 11 9 9 10 4 11 5 12
REMARK SMILES IDX 6 13 8 14 7 15 3 16 2 18 1 19 93 20 94 21 99 22 95 23 98 24
REMARK SMILES IDX 96 25 97 26 19 27 20 28 21 29 22 30 23 31 24 32 25 33 26 34
REMARK SMILES IDX 27 35 28 36 92 37 29 38 91 39 30 40 31 41 32 42 85 43 33 44
REMARK SMILES IDX 90 45 84 46 86 47 34 48 89 49 83 50 82 51 35 53 69 54 48 55
REMARK SMILES IDX 68 56 49 57 52 58 67 59 87 60 50 61 51 62 66 64 88 65 53 66
REMARK SMILES IDX 36 67 37 68 46 69 38 70 39 71 45 72 47 73 40 74 41 75 42 76
REMARK SMILES IDX 43 77 44 78 70 79 71 80 80 81 72 82 73 83 79 84 81 85 74 86
REMARK SMILES IDX 75 87 76 88 77 89 78 90 54 91 55 92 64 93 56 94 57 95 63 96
REMARK SMILES IDX 65 97 58 98 59 99 60 100 61 101 62 102
REMARK H PARENT 3 17 86 52 52 63
REMARK Flexibility Score: inf
ROOT
ATOM      1  O   UNL     1       3.438   4.326  -2.338  1.00  0.00    -0.377 OA
ENDROOT
BRANCH   1   2
ATOM      2  C   UNL     1       2.651   3.392  -1.615  1.00  0.00     0.188 C 
BRANCH   2   3
ATOM      3  C   UNL     1       1.264   3.786  -1.079  1.00  0.00     0.188 C 
BRANCH   3   4
ATOM      4  O   UNL     1       1.202   5.058  -0.450  1.00  0.00    -0.376 OA
BRANCH   4   5
ATOM      5  C   UNL     1       0.746   5.001   0.900  1.00  0.00     0.202 C 
BRANCH   5   6
ATOM      6  C   UNL     1       1.879   4.617   1.854  1.00  0.00     0.261 C 
BRANCH   6   7
ATOM      7  O   UNL     1       2.498   3.344   1.565  1.00  0.00    -0.460 OA
BRANCH   7   8
ATOM      8  C   UNL     1       1.799   2.194   1.763  1.00  0.00     0.341 C 
ATOM      9  O   UNL     1       0.660   2.132   2.185  1.00  0.00    -0.246 OA
BRANCH   8  10
ATOM     10  C   UNL     1       2.642   1.057   1.281  1.00  0.00     0.102 A 
ATOM     11  C   UNL     1       2.122  -0.142   0.768  1.00  0.00     0.141 A 
ATOM     12  N   UNL     1       2.935  -1.175   0.427  1.00  0.00    -0.239 NA
ATOM     13  C   UNL     1       4.274  -1.008   0.518  1.00  0.00     0.113 A 
ATOM     14  C   UNL     1       4.043   1.185   1.372  1.00  0.00     0.021 A 
ATOM     15  C   UNL     1       4.872   0.149   0.965  1.00  0.00     0.021 A 
BRANCH  11  16
ATOM     16  N   UNL     1       0.795  -0.406   0.443  1.00  0.00    -0.363 N 
ATOM     17  H   UNL     1       0.251  -1.032   0.974  1.00  0.00     0.162 HD
BRANCH  16  18
ATOM     18  C   UNL     1       0.248   0.287  -0.720  1.00  0.00     0.108 C 
ATOM     19  C   UNL     1       0.755  -0.302  -2.041  1.00  0.00     0.036 C 
BRANCH  18  20
ATOM     20  C   UNL     1      -1.270   0.348  -0.689  1.00  0.00    -0.026 A 
ATOM     21  C   UNL     1      -1.914   1.601  -0.671  1.00  0.00     0.007 A 
ATOM     22  C   UNL     1      -2.066  -0.806  -0.748  1.00  0.00     0.007 A 
ATOM     23  C   UNL     1      -3.305   1.702  -0.736  1.00  0.00     0.021 A 
ATOM     24  C   UNL     1      -3.461  -0.705  -0.808  1.00  0.00     0.021 A 
ATOM     25  C   UNL     1      -4.073   0.547  -0.808  1.00  0.00     0.041 A 
ATOM     26  Cl  UNL     1      -5.787   0.666  -0.907  1.00  0.00    -0.084 Cl
ENDBRANCH  18  20
ENDBRANCH  16  18
ENDBRANCH  11  16
ENDBRANCH   8  10
ENDBRANCH   7   8
ENDBRANCH   6   7
ENDBRANCH   5   6
ENDBRANCH   4   5
ENDBRANCH   3   4
ENDBRANCH   2   3
ENDBRANCH   1   2
BRANCH   1  27
ATOM     27  C   UNL     1       2.859   5.589  -2.618  1.00  0.00     0.188 C 
BRANCH  27  28
ATOM     28  C   UNL     1       1.597   5.547  -3.500  1.00  0.00     0.188 C 
BRANCH  28  29
ATOM     29  O   UNL     1       1.264   4.232  -3.951  1.00  0.00    -0.376 OA
BRANCH  29  30
ATOM     30  C   UNL     1       1.568   3.931  -5.306  1.00  0.00     0.202 C 
BRANCH  30  31
ATOM     31  C   UNL     1       3.058   3.766  -5.632  1.00  0.00     0.261 C 
BRANCH  31  32
ATOM     32  O   UNL     1       3.879   4.920  -5.398  1.00  0.00    -0.460 OA
BRANCH  32  33
ATOM     33  C   UNL     1       3.571   6.069  -6.039  1.00  0.00     0.338 C 
ATOM     34  O   UNL     1       2.697   6.237  -6.871  1.00  0.00    -0.246 OA
BRANCH  33  35
ATOM     35  C   UNL     1       4.327   7.146  -5.364  1.00  0.00     0.060 A 
ATOM     36  C   UNL     1       3.623   8.238  -4.834  1.00  0.00     0.016 A 
ATOM     37  C   UNL     1       5.702   7.015  -5.146  1.00  0.00     0.016 A 
ATOM     38  C   UNL     1       4.298   9.204  -4.087  1.00  0.00     0.010 A 
ATOM     39  C   UNL     1       6.381   8.000  -4.429  1.00  0.00     0.010 A 
ATOM     40  C   UNL     1       5.686   9.109  -3.920  1.00  0.00    -0.014 A 
BRANCH  40  41
ATOM     41  C   UNL     1       6.447  10.289  -3.454  1.00  0.00     0.031 A 
ATOM     42  C   UNL     1       6.938  11.246  -4.504  1.00  0.00     0.074 A 
ATOM     43  C   UNL     1       6.709  10.504  -2.153  1.00  0.00     0.049 A 
ATOM     44  N   UNL     1       7.663  12.323  -4.375  1.00  0.00    -0.248 NA
ATOM     45  C   UNL     1       6.560  10.933  -5.894  1.00  0.00     0.031 C 
ATOM     46  C   UNL     1       6.264   9.659  -1.047  1.00  0.00     0.029 A 
ATOM     47  N   UNL     1       7.432  11.501  -1.548  1.00  0.00    -0.354 N 
ATOM     48  C   UNL     1       7.832  12.815  -5.664  1.00  0.00     0.074 A 
ATOM     49  C   UNL     1       7.159  11.905  -6.563  1.00  0.00     0.031 C 
ATOM     50  C   UNL     1       6.744  10.163   0.105  1.00  0.00     0.029 A 
ATOM     51  C   UNL     1       7.550  11.349  -0.187  1.00  0.00     0.049 A 
ATOM     52  H   UNL     1       7.829  12.254  -2.042  1.00  0.00     0.167 HD
ATOM     53  C   UNL     1       8.486  13.929  -6.063  1.00  0.00     0.037 A 
ATOM     54  C   UNL     1       8.249  12.074   0.710  1.00  0.00     0.037 A 
ATOM     55  C   UNL     1       9.172  14.816  -5.165  1.00  0.00     0.049 A 
ATOM     56  C   UNL     1       9.026  13.278   0.239  1.00  0.00     0.074 A 
ATOM     57  C   UNL     1       9.850  15.985  -5.460  1.00  0.00     0.029 A 
ATOM     58  N   UNL     1       9.285  14.620  -3.796  1.00  0.00    -0.354 N 
ATOM     59  N   UNL     1       9.143  13.761  -0.976  1.00  0.00    -0.248 NA
ATOM     60  C   UNL     1       9.765  14.036   1.258  1.00  0.00     0.031 C 
ATOM     61  C   UNL     1      10.419  16.467  -4.277  1.00  0.00     0.029 A 
ATOM     62  C   UNL     1      10.048  15.630  -3.235  1.00  0.00     0.049 A 
ATOM     63  H   UNL     1       8.882  13.873  -3.297  1.00  0.00     0.167 HD
ATOM     64  C   UNL     1       9.949  14.890  -0.865  1.00  0.00     0.074 A 
ATOM     65  C   UNL     1      10.282  15.024   0.539  1.00  0.00     0.031 C 
ATOM     66  C   UNL     1      10.372  15.742  -1.833  1.00  0.00     0.037 A 
BRANCH  53  67
ATOM     67  C   UNL     1       8.520  14.211  -7.538  1.00  0.00     0.058 A 
ATOM     68  C   UNL     1       7.373  14.611  -8.243  1.00  0.00     0.135 A 
ATOM     69  C   UNL     1       9.714  14.061  -8.261  1.00  0.00     0.135 A 
ATOM     70  F   UNL     1       6.199  14.743  -7.605  1.00  0.00    -0.206 F 
ATOM     71  C   UNL     1       7.400  14.816  -9.618  1.00  0.00     0.059 A 
ATOM     72  C   UNL     1       9.771  14.290  -9.632  1.00  0.00     0.059 A 
ATOM     73  F   UNL     1      10.838  13.672  -7.638  1.00  0.00    -0.206 F 
ATOM     74  C   UNL     1       8.604  14.649 -10.305  1.00  0.00     0.060 A 
BRANCH  74  75
ATOM     75  S   UNL     1       8.621  14.902 -12.092  1.00  0.00     0.124 S 
ATOM     76  O   UNL     1       7.929  13.706 -12.561  1.00  0.00    -0.237 OA
ATOM     77  O   UNL     1       7.887  16.155 -12.236  1.00  0.00    -0.237 OA
ATOM     78  O   UNL     1      10.043  14.971 -12.412  1.00  0.00    -0.744 OA
ENDBRANCH  74  75
ENDBRANCH  53  67
BRANCH  54  79
ATOM     79  C   UNL     1       8.255  11.671   2.143  1.00  0.00     0.058 A 
ATOM     80  C   UNL     1       7.589  12.430   3.115  1.00  0.00     0.135 A 
ATOM     81  C   UNL     1       8.908  10.501   2.563  1.00  0.00     0.135 A 
ATOM     82  F   UNL     1       6.965  13.566   2.768  1.00  0.00    -0.206 F 
ATOM     83  C   UNL     1       7.565  12.043   4.453  1.00  0.00     0.059 A 
ATOM     84  C   UNL     1       8.879  10.081   3.889  1.00  0.00     0.059 A 
ATOM     85  F   UNL     1       9.558   9.736   1.671  1.00  0.00    -0.206 F 
ATOM     86  C   UNL     1       8.206  10.861   4.828  1.00  0.00     0.060 A 
BRANCH  86  87
ATOM     87  S   UNL     1       8.094  10.323   6.550  1.00  0.00     0.124 S 
ATOM     88  O   UNL     1       8.973  11.278   7.215  1.00  0.00    -0.237 OA
ATOM     89  O   UNL     1       6.668  10.469   6.823  1.00  0.00    -0.237 OA
ATOM     90  O   UNL     1       8.576   8.946   6.503  1.00  0.00    -0.744 OA
ENDBRANCH  86  87
ENDBRANCH  54  79
BRANCH  66  91
ATOM     91  C   UNL     1      11.223  16.909  -1.413  1.00  0.00     0.058 A 
ATOM     92  C   UNL     1      12.563  16.744  -1.028  1.00  0.00     0.135 A 
ATOM     93  C   UNL     1      10.712  18.216  -1.465  1.00  0.00     0.135 A 
ATOM     94  F   UNL     1      13.100  15.516  -0.959  1.00  0.00    -0.206 F 
ATOM     95  C   UNL     1      13.360  17.833  -0.690  1.00  0.00     0.059 A 
ATOM     96  C   UNL     1      11.498  19.321  -1.158  1.00  0.00     0.059 A 
ATOM     97  F   UNL     1       9.441  18.430  -1.840  1.00  0.00    -0.206 F 
ATOM     98  C   UNL     1      12.819  19.119  -0.760  1.00  0.00     0.060 A 
BRANCH  98  99
ATOM     99  S   UNL     1      13.874  20.526  -0.355  1.00  0.00     0.124 S 
ATOM    100  O   UNL     1      13.961  20.419   1.098  1.00  0.00    -0.237 OA
ATOM    101  O   UNL     1      15.099  20.221  -1.087  1.00  0.00    -0.237 OA
ATOM    102  O   UNL     1      13.121  21.672  -0.856  1.00  0.00    -0.744 OA
ENDBRANCH  98  99
ENDBRANCH  66  91
ENDBRANCH  40  41
ENDBRANCH  33  35
ENDBRANCH  32  33
ENDBRANCH  31  32
ENDBRANCH  30  31
ENDBRANCH  29  30
ENDBRANCH  28  29
ENDBRANCH  27  28
ENDBRANCH   1  27
TORSDOF 26
