REMARK SMILES Cc1ccc([C@H](C)Nc2ccc(C(=O)OCCOCCOCCOCCOC(=O)c3ccc(-c4c5nc(c(-c6c(F)cc(S(=O)(=O)[O-])cc6F)c6ccc([nH]6)c(-c6c(F)cc(S(=O)(=O)[O-])cc6F)c6nc(c(-c7c(F)cc(S(=O)(=O)[O-])cc7F)c7ccc4[nH]7)C=C6)C=C5)cc3)cc2Cl)cc1F
REMARK SMILES IDX 21 1 20 2 19 3 18 4 17 5 16 6 15 7 13 8 14 9 12 10 9 11
REMARK SMILES IDX 10 12 97 13 11 14 96 15 98 16 8 17 6 19 7 20 5 21 1 22 2 23
REMARK SMILES IDX 3 24 100 25 4 26 99 27 101 28 22 29 23 30 24 31 25 32 26 33
REMARK SMILES IDX 27 34 28 35 29 36 30 37 31 38 95 39 32 40 94 41 33 42 34 43
REMARK SMILES IDX 35 44 88 45 36 46 93 47 87 48 89 49 37 50 92 51 86 52 85 53
REMARK SMILES IDX 38 55 72 56 51 57 71 58 52 59 55 60 70 61 90 62 53 63 54 64
REMARK SMILES IDX 69 66 91 67 56 68 39 69 40 70 49 71 41 72 42 73 48 74 50 75
REMARK SMILES IDX 43 76 44 77 45 78 46 79 47 80 73 81 74 82 83 83 75 84 76 85
REMARK SMILES IDX 82 86 84 87 77 88 78 89 79 90 80 91 81 92 57 93 58 94 67 95
REMARK SMILES IDX 59 96 60 97 66 98 68 99 61 100 62 101 63 102 64 103 65 104
REMARK H PARENT 8 18 89 54 55 65
REMARK Flexibility Score: inf
ROOT
ATOM      1  O   UNL     1      -8.355  -3.212   4.848  1.00  0.00    -0.377 OA
ENDROOT
BRANCH   1   2
ATOM      2  C   UNL     1      -7.139  -3.684   5.388  1.00  0.00     0.188 C 
BRANCH   2   3
ATOM      3  C   UNL     1      -6.605  -3.016   6.681  1.00  0.00     0.188 C 
BRANCH   3   4
ATOM      4  O   UNL     1      -7.101  -1.819   7.279  1.00  0.00    -0.376 OA
BRANCH   4   5
ATOM      5  C   UNL     1      -8.475  -1.485   7.226  1.00  0.00     0.202 C 
BRANCH   5   6
ATOM      6  C   UNL     1      -8.821  -0.501   6.090  1.00  0.00     0.261 C 
BRANCH   6   7
ATOM      7  O   UNL     1      -8.030  -0.663   4.904  1.00  0.00    -0.460 OA
BRANCH   7   8
ATOM      8  C   UNL     1      -6.754  -0.222   4.984  1.00  0.00     0.338 C 
ATOM      9  O   UNL     1      -6.287   0.532   5.824  1.00  0.00    -0.246 OA
BRANCH   8  10
ATOM     10  C   UNL     1      -5.930  -0.880   3.943  1.00  0.00     0.061 A 
ATOM     11  C   UNL     1      -4.280  -2.143   2.025  1.00  0.00     0.053 A 
ATOM     12  C   UNL     1      -3.806  -1.864   3.316  1.00  0.00     0.028 A 
ATOM     13  C   UNL     1      -5.621  -1.806   1.731  1.00  0.00     0.065 A 
ATOM     14  C   UNL     1      -4.610  -1.218   4.257  1.00  0.00     0.018 A 
ATOM     15  C   UNL     1      -6.446  -1.208   2.690  1.00  0.00     0.038 A 
ATOM     16  Cl  UNL     1      -6.363  -2.156   0.206  1.00  0.00    -0.082 Cl
BRANCH  11  17
ATOM     17  N   UNL     1      -3.368  -2.656   1.109  1.00  0.00    -0.377 N 
ATOM     18  H   UNL     1      -2.952  -3.531   1.283  1.00  0.00     0.161 HD
BRANCH  17  19
ATOM     19  C   UNL     1      -3.011  -1.923  -0.106  1.00  0.00     0.106 C 
ATOM     20  C   UNL     1      -1.829  -1.002   0.235  1.00  0.00     0.036 C 
BRANCH  19  21
ATOM     21  C   UNL     1      -2.810  -2.917  -1.247  1.00  0.00    -0.023 A 
ATOM     22  C   UNL     1      -2.819  -5.504  -4.730  1.00  0.00     0.047 C 
ATOM     23  C   UNL     1      -2.767  -4.631  -3.516  1.00  0.00    -0.015 A 
ATOM     24  C   UNL     1      -1.817  -3.616  -3.371  1.00  0.00     0.007 A 
ATOM     25  C   UNL     1      -3.716  -4.797  -2.513  1.00  0.00     0.126 A 
ATOM     26  C   UNL     1      -1.841  -2.768  -2.252  1.00  0.00     0.006 A 
ATOM     27  C   UNL     1      -3.737  -3.968  -1.398  1.00  0.00     0.045 A 
ATOM     28  F   UNL     1      -4.652  -5.749  -2.632  1.00  0.00    -0.207 F 
ENDBRANCH  19  21
ENDBRANCH  17  19
ENDBRANCH  11  17
ENDBRANCH   8  10
ENDBRANCH   7   8
ENDBRANCH   6   7
ENDBRANCH   5   6
ENDBRANCH   4   5
ENDBRANCH   3   4
ENDBRANCH   2   3
ENDBRANCH   1   2
BRANCH   1  29
ATOM     29  C   UNL     1      -9.557  -3.764   5.342  1.00  0.00     0.188 C 
BRANCH  29  30
ATOM     30  C   UNL     1      -9.463  -4.874   6.371  1.00  0.00     0.188 C 
BRANCH  30  31
ATOM     31  O   UNL     1      -8.776  -4.697   7.609  1.00  0.00    -0.376 OA
BRANCH  31  32
ATOM     32  C   UNL     1      -8.035  -5.879   7.988  1.00  0.00     0.202 C 
BRANCH  32  33
ATOM     33  C   UNL     1      -8.813  -7.195   8.114  1.00  0.00     0.261 C 
BRANCH  33  34
ATOM     34  O   UNL     1      -9.853  -7.303   7.138  1.00  0.00    -0.460 OA
BRANCH  34  35
ATOM     35  C   UNL     1     -11.160  -7.071   7.436  1.00  0.00     0.338 C 
ATOM     36  O   UNL     1     -11.618  -6.822   8.512  1.00  0.00    -0.246 OA
BRANCH  35  37
ATOM     37  C   UNL     1     -11.920  -7.276   6.140  1.00  0.00     0.060 A 
ATOM     38  C   UNL     1     -13.084  -8.022   6.252  1.00  0.00     0.016 A 
ATOM     39  C   UNL     1     -11.310  -7.119   4.874  1.00  0.00     0.016 A 
ATOM     40  C   UNL     1     -13.389  -8.899   5.213  1.00  0.00     0.010 A 
ATOM     41  C   UNL     1     -11.631  -7.973   3.831  1.00  0.00     0.010 A 
ATOM     42  C   UNL     1     -12.563  -8.962   4.074  1.00  0.00    -0.014 A 
BRANCH  42  43
ATOM     43  C   UNL     1     -12.592 -10.140   3.210  1.00  0.00     0.031 A 
ATOM     44  C   UNL     1     -13.728 -10.239   2.319  1.00  0.00     0.074 A 
ATOM     45  C   UNL     1     -11.798 -11.222   3.390  1.00  0.00     0.049 A 
ATOM     46  N   UNL     1     -14.739 -11.006   2.515  1.00  0.00    -0.248 NA
ATOM     47  C   UNL     1     -13.797  -9.413   1.126  1.00  0.00     0.031 C 
ATOM     48  C   UNL     1     -12.001 -12.584   2.906  1.00  0.00     0.029 A 
ATOM     49  N   UNL     1     -10.753 -11.367   4.287  1.00  0.00    -0.354 N 
ATOM     50  C   UNL     1     -15.362 -11.078   1.294  1.00  0.00     0.074 A 
ATOM     51  C   UNL     1     -14.882  -9.933   0.542  1.00  0.00     0.031 C 
ATOM     52  C   UNL     1     -11.406 -13.437   3.769  1.00  0.00     0.029 A 
ATOM     53  C   UNL     1     -10.762 -12.666   4.825  1.00  0.00     0.049 A 
ATOM     54  H   UNL     1     -10.102 -10.665   4.514  1.00  0.00     0.167 HD
ATOM     55  C   UNL     1     -15.980 -12.234   0.919  1.00  0.00     0.037 A 
ATOM     56  C   UNL     1     -10.900 -12.847   6.181  1.00  0.00     0.037 A 
ATOM     57  C   UNL     1     -15.722 -13.304   1.895  1.00  0.00     0.049 A 
ATOM     58  C   UNL     1     -12.322 -13.271   6.530  1.00  0.00     0.074 A 
ATOM     59  C   UNL     1     -14.850 -14.383   1.869  1.00  0.00     0.029 A 
ATOM     60  N   UNL     1     -16.090 -13.151   3.234  1.00  0.00    -0.354 N 
ATOM     61  N   UNL     1     -13.283 -13.344   5.650  1.00  0.00    -0.248 NA
ATOM     62  C   UNL     1     -12.783 -13.665   7.862  1.00  0.00     0.031 C 
ATOM     63  C   UNL     1     -14.633 -14.823   3.196  1.00  0.00     0.029 A 
ATOM     64  C   UNL     1     -15.374 -14.020   4.042  1.00  0.00     0.049 A 
ATOM     65  H   UNL     1     -16.766 -12.513   3.559  1.00  0.00     0.167 HD
ATOM     66  C   UNL     1     -14.432 -13.814   6.228  1.00  0.00     0.074 A 
ATOM     67  C   UNL     1     -14.067 -13.998   7.621  1.00  0.00     0.031 C 
ATOM     68  C   UNL     1     -15.561 -14.050   5.489  1.00  0.00     0.037 A 
BRANCH  55  69
ATOM     69  C   UNL     1     -16.452 -12.443  -0.502  1.00  0.00     0.058 A 
ATOM     70  C   UNL     1     -16.370 -13.694  -1.145  1.00  0.00     0.135 A 
ATOM     71  C   UNL     1     -17.010 -11.409  -1.286  1.00  0.00     0.135 A 
ATOM     72  F   UNL     1     -15.944 -14.790  -0.507  1.00  0.00    -0.206 F 
ATOM     73  C   UNL     1     -16.733 -13.887  -2.477  1.00  0.00     0.059 A 
ATOM     74  C   UNL     1     -17.335 -11.565  -2.636  1.00  0.00     0.059 A 
ATOM     75  F   UNL     1     -17.286 -10.210  -0.748  1.00  0.00    -0.206 F 
ATOM     76  C   UNL     1     -17.201 -12.815  -3.223  1.00  0.00     0.060 A 
BRANCH  76  77
ATOM     77  S   UNL     1     -17.688 -13.103  -4.933  1.00  0.00     0.124 S 
ATOM     78  O   UNL     1     -16.493 -13.723  -5.497  1.00  0.00    -0.237 OA
ATOM     79  O   UNL     1     -18.842 -13.981  -4.771  1.00  0.00    -0.237 OA
ATOM     80  O   UNL     1     -17.987 -11.764  -5.433  1.00  0.00    -0.744 OA
ENDBRANCH  76  77
ENDBRANCH  55  69
BRANCH  56  81
ATOM     81  C   UNL     1     -10.018 -11.916   7.016  1.00  0.00     0.058 A 
ATOM     82  C   UNL     1      -8.625 -12.163   6.951  1.00  0.00     0.135 A 
ATOM     83  C   UNL     1     -10.380 -10.587   6.911  1.00  0.00     0.135 A 
ATOM     84  F   UNL     1      -8.150 -13.347   7.365  1.00  0.00    -0.206 F 
ATOM     85  C   UNL     1      -7.727 -11.269   6.345  1.00  0.00     0.059 A 
ATOM     86  C   UNL     1      -9.549  -9.760   6.160  1.00  0.00     0.059 A 
ATOM     87  F   UNL     1     -11.650 -10.231   7.135  1.00  0.00    -0.206 F 
ATOM     88  C   UNL     1      -8.252 -10.109   5.819  1.00  0.00     0.060 A 
BRANCH  88  89
ATOM     89  S   UNL     1      -7.470  -9.194   4.464  1.00  0.00     0.124 S 
ATOM     90  O   UNL     1      -7.193  -7.899   5.080  1.00  0.00    -0.237 OA
ATOM     91  O   UNL     1      -6.304 -10.009   4.145  1.00  0.00    -0.237 OA
ATOM     92  O   UNL     1      -8.523  -9.204   3.451  1.00  0.00    -0.744 OA
ENDBRANCH  88  89
ENDBRANCH  56  81
BRANCH  68  93
ATOM     93  C   UNL     1     -16.908 -14.497   6.008  1.00  0.00     0.058 A 
ATOM     94  C   UNL     1     -17.415 -14.200   7.281  1.00  0.00     0.135 A 
ATOM     95  C   UNL     1     -17.804 -15.178   5.139  1.00  0.00     0.135 A 
ATOM     96  F   UNL     1     -16.711 -13.471   8.159  1.00  0.00    -0.206 F 
ATOM     97  C   UNL     1     -18.688 -14.608   7.688  1.00  0.00     0.059 A 
ATOM     98  C   UNL     1     -19.097 -15.531   5.501  1.00  0.00     0.059 A 
ATOM     99  F   UNL     1     -17.456 -15.524   3.891  1.00  0.00    -0.206 F 
ATOM    100  C   UNL     1     -19.522 -15.272   6.791  1.00  0.00     0.060 A 
BRANCH 100 101
ATOM    101  S   UNL     1     -21.178 -15.762   7.295  1.00  0.00     0.124 S 
ATOM    102  O   UNL     1     -20.914 -17.034   7.959  1.00  0.00    -0.237 OA
ATOM    103  O   UNL     1     -21.583 -14.664   8.169  1.00  0.00    -0.237 OA
ATOM    104  O   UNL     1     -21.905 -15.847   6.032  1.00  0.00    -0.744 OA
ENDBRANCH 100 101
ENDBRANCH  68  93
ENDBRANCH  42  43
ENDBRANCH  35  37
ENDBRANCH  34  35
ENDBRANCH  33  34
ENDBRANCH  32  33
ENDBRANCH  31  32
ENDBRANCH  30  31
ENDBRANCH  29  30
ENDBRANCH   1  29
TORSDOF 26
