REMARK SMILES CC(C)CN(C)c1cc2c(cc1Cl)C=C(C(=O)OCCOCCOCCOCCOC(=O)c1ccc(-c3c4nc(c(-c5c(F)cc(S(=O)(=O)[O-])cc5F)c5ccc([nH]5)c(-c5c(F)cc(S(=O)(=O)[O-])cc5F)c5nc(c(-c6c(F)cc(S(=O)(=O)[O-])cc6F)c6ccc3[nH]6)C=C5)C=C4)cc1)[C@@H](C(F)(F)F)O2
REMARK SMILES IDX 24 1 23 2 22 3 21 4 20 5 19 6 18 7 16 8 17 9 15 10 7 11 8 12
REMARK SMILES IDX 12 13 9 14 11 15 13 16 10 17 104 18 14 19 99 20 5 21 6 22
REMARK SMILES IDX 4 23 2 24 1 25 3 26 100 27 101 28 102 29 103 30 25 31 26 32
REMARK SMILES IDX 27 33 28 34 29 35 30 36 31 37 32 38 33 39 34 40 98 41 35 42
REMARK SMILES IDX 97 43 36 44 37 45 38 46 91 47 39 48 96 49 90 50 92 51 40 52
REMARK SMILES IDX 95 53 89 54 88 55 41 57 75 58 54 59 74 60 55 61 58 62 73 63
REMARK SMILES IDX 93 64 56 65 57 66 72 68 94 69 59 70 42 71 43 72 52 73 44 74
REMARK SMILES IDX 45 75 51 76 53 77 46 78 47 79 48 80 49 81 50 82 76 83 77 84
REMARK SMILES IDX 86 85 78 86 79 87 85 88 87 89 80 90 81 91 82 92 83 93 84 94
REMARK SMILES IDX 60 95 61 96 70 97 62 98 63 99 69 100 71 101 64 102 65 103
REMARK SMILES IDX 66 104 67 105 68 106
REMARK H PARENT 92 56 58 67
REMARK Flexibility Score: inf
ROOT
ATOM      1  O   UNL     1      -1.428  -6.648  -5.603  1.00  0.00    -0.377 OA
ENDROOT
BRANCH   1   2
ATOM      2  C   UNL     1      -0.398  -5.745  -5.247  1.00  0.00     0.188 C 
BRANCH   2   3
ATOM      3  C   UNL     1       0.988  -6.396  -5.088  1.00  0.00     0.188 C 
BRANCH   3   4
ATOM      4  O   UNL     1       1.068  -7.697  -5.659  1.00  0.00    -0.376 OA
BRANCH   4   5
ATOM      5  C   UNL     1       1.045  -8.811  -4.776  1.00  0.00     0.202 C 
BRANCH   5   6
ATOM      6  C   UNL     1      -0.248  -9.078  -3.984  1.00  0.00     0.261 C 
BRANCH   6   7
ATOM      7  O   UNL     1      -0.747  -7.963  -3.230  1.00  0.00    -0.460 OA
BRANCH   7   8
ATOM      8  C   UNL     1       0.006  -7.566  -2.190  1.00  0.00     0.338 C 
ATOM      9  O   UNL     1       1.021  -8.110  -1.782  1.00  0.00    -0.246 OA
BRANCH   8  10
ATOM     10  C   UNL     1      -0.467  -6.248  -1.723  1.00  0.00     0.087 C 
ATOM     11  C   UNL     1      -0.699  -1.851   0.699  1.00  0.00     0.059 A 
ATOM     12  C   UNL     1      -1.632  -2.599  -0.056  1.00  0.00     0.074 A 
ATOM     13  C   UNL     1       0.629  -2.333   0.735  1.00  0.00     0.065 A 
ATOM     14  C   UNL     1      -1.254  -3.777  -0.721  1.00  0.00     0.130 A 
ATOM     15  C   UNL     1       1.028  -3.423  -0.035  1.00  0.00     0.034 A 
ATOM     16  Cl  UNL     1       1.825  -1.735   1.836  1.00  0.00    -0.082 Cl
ATOM     17  C   UNL     1       0.084  -4.160  -0.738  1.00  0.00     0.019 A 
ATOM     18  O   UNL     1      -2.233  -4.519  -1.329  1.00  0.00    -0.475 OA
ATOM     19  C   UNL     1       0.496  -5.387  -1.381  1.00  0.00     0.027 C 
ATOM     20  C   UNL     1      -1.937  -5.929  -1.618  1.00  0.00     0.316 C 
BRANCH  11  21
ATOM     21  N   UNL     1      -1.095  -0.722   1.432  1.00  0.00    -0.373 N 
ATOM     22  C   UNL     1      -2.201  -0.935   2.363  1.00  0.00     0.143 C 
BRANCH  21  23
ATOM     23  C   UNL     1      -0.999   0.616   0.807  1.00  0.00     0.119 C 
BRANCH  23  24
ATOM     24  C   UNL     1       0.448   1.142   0.700  1.00  0.00     0.002 C 
ATOM     25  C   UNL     1       1.060   0.848  -0.672  1.00  0.00     0.009 C 
ATOM     26  C   UNL     1       0.547   2.644   0.980  1.00  0.00     0.009 C 
ENDBRANCH  23  24
ENDBRANCH  21  23
ENDBRANCH  11  21
BRANCH  20  27
ATOM     27  C   UNL     1      -2.626  -6.840  -0.593  1.00  0.00     0.430 C 
ATOM     28  F   UNL     1      -3.940  -6.544  -0.469  1.00  0.00    -0.167 F 
ATOM     29  F   UNL     1      -2.541  -8.142  -0.954  1.00  0.00    -0.167 F 
ATOM     30  F   UNL     1      -2.065  -6.724   0.634  1.00  0.00    -0.167 F 
ENDBRANCH  20  27
ENDBRANCH   8  10
ENDBRANCH   7   8
ENDBRANCH   6   7
ENDBRANCH   5   6
ENDBRANCH   4   5
ENDBRANCH   3   4
ENDBRANCH   2   3
ENDBRANCH   1   2
BRANCH   1  31
ATOM     31  C   UNL     1      -1.469  -7.151  -6.939  1.00  0.00     0.188 C 
BRANCH  31  32
ATOM     32  C   UNL     1      -0.337  -6.904  -7.966  1.00  0.00     0.188 C 
BRANCH  32  33
ATOM     33  O   UNL     1       0.282  -5.625  -7.873  1.00  0.00    -0.376 OA
BRANCH  33  34
ATOM     34  C   UNL     1       0.001  -4.700  -8.912  1.00  0.00     0.202 C 
BRANCH  34  35
ATOM     35  C   UNL     1      -1.391  -4.066  -8.831  1.00  0.00     0.261 C 
BRANCH  35  36
ATOM     36  O   UNL     1      -2.491  -4.981  -8.937  1.00  0.00    -0.460 OA
BRANCH  36  37
ATOM     37  C   UNL     1      -2.592  -5.725 -10.062  1.00  0.00     0.338 C 
ATOM     38  O   UNL     1      -1.864  -5.685 -11.038  1.00  0.00    -0.246 OA
BRANCH  37  39
ATOM     39  C   UNL     1      -3.630  -6.748  -9.814  1.00  0.00     0.060 A 
ATOM     40  C   UNL     1      -4.886  -6.367  -9.335  1.00  0.00     0.016 A 
ATOM     41  C   UNL     1      -3.326  -8.102 -10.011  1.00  0.00     0.016 A 
ATOM     42  C   UNL     1      -5.851  -7.341  -9.081  1.00  0.00     0.010 A 
ATOM     43  C   UNL     1      -4.293  -9.077  -9.750  1.00  0.00     0.010 A 
ATOM     44  C   UNL     1      -5.570  -8.700  -9.307  1.00  0.00    -0.014 A 
BRANCH  44  45
ATOM     45  C   UNL     1      -6.680  -9.683  -9.270  1.00  0.00     0.031 A 
ATOM     46  C   UNL     1      -6.906 -10.594  -8.101  1.00  0.00     0.074 A 
ATOM     47  C   UNL     1      -7.506  -9.722 -10.334  1.00  0.00     0.049 A 
ATOM     48  N   UNL     1      -7.890 -11.433  -7.901  1.00  0.00    -0.248 NA
ATOM     49  C   UNL     1      -5.907 -10.570  -7.024  1.00  0.00     0.031 C 
ATOM     50  C   UNL     1      -7.357  -8.899 -11.538  1.00  0.00     0.029 A 
ATOM     51  N   UNL     1      -8.630 -10.466 -10.576  1.00  0.00    -0.354 N 
ATOM     52  C   UNL     1      -7.648 -12.022  -6.666  1.00  0.00     0.074 A 
ATOM     53  C   UNL     1      -6.397 -11.474  -6.182  1.00  0.00     0.031 C 
ATOM     54  C   UNL     1      -8.365  -9.169 -12.381  1.00  0.00     0.029 A 
ATOM     55  C   UNL     1      -9.217 -10.195 -11.790  1.00  0.00     0.049 A 
ATOM     56  H   UNL     1      -8.985 -11.131  -9.942  1.00  0.00     0.167 HD
ATOM     57  C   UNL     1      -8.412 -12.921  -6.000  1.00  0.00     0.037 A 
ATOM     58  C   UNL     1     -10.319 -10.712 -12.364  1.00  0.00     0.037 A 
ATOM     59  C   UNL     1      -9.653 -13.464  -6.500  1.00  0.00     0.049 A 
ATOM     60  C   UNL     1     -11.127 -11.732 -11.612  1.00  0.00     0.074 A 
ATOM     61  C   UNL     1     -10.518 -14.346  -5.872  1.00  0.00     0.029 A 
ATOM     62  N   UNL     1     -10.202 -13.191  -7.744  1.00  0.00    -0.354 N 
ATOM     63  N   UNL     1     -10.925 -12.217 -10.411  1.00  0.00    -0.248 NA
ATOM     64  C   UNL     1     -12.314 -12.271 -12.289  1.00  0.00     0.031 C 
ATOM     65  C   UNL     1     -11.561 -14.645  -6.755  1.00  0.00     0.029 A 
ATOM     66  C   UNL     1     -11.376 -13.909  -7.913  1.00  0.00     0.049 A 
ATOM     67  H   UNL     1      -9.815 -12.577  -8.409  1.00  0.00     0.167 HD
ATOM     68  C   UNL     1     -11.971 -13.103 -10.180  1.00  0.00     0.074 A 
ATOM     69  C   UNL     1     -12.814 -13.072 -11.357  1.00  0.00     0.031 C 
ATOM     70  C   UNL     1     -12.209 -13.873  -9.090  1.00  0.00     0.037 A 
BRANCH  57  71
ATOM     71  C   UNL     1      -7.961 -13.376  -4.638  1.00  0.00     0.058 A 
ATOM     72  C   UNL     1      -8.077 -12.539  -3.518  1.00  0.00     0.135 A 
ATOM     73  C   UNL     1      -7.540 -14.699  -4.427  1.00  0.00     0.135 A 
ATOM     74  F   UNL     1      -8.467 -11.263  -3.664  1.00  0.00    -0.206 F 
ATOM     75  C   UNL     1      -7.796 -12.999  -2.235  1.00  0.00     0.059 A 
ATOM     76  C   UNL     1      -7.274 -15.187  -3.150  1.00  0.00     0.059 A 
ATOM     77  F   UNL     1      -7.414 -15.542  -5.464  1.00  0.00    -0.206 F 
ATOM     78  C   UNL     1      -7.406 -14.328  -2.059  1.00  0.00     0.060 A 
BRANCH  78  79
ATOM     79  S   UNL     1      -7.104 -14.921  -0.380  1.00  0.00     0.124 S 
ATOM     80  O   UNL     1      -5.891 -14.190  -0.026  1.00  0.00    -0.237 OA
ATOM     81  O   UNL     1      -8.319 -14.508   0.316  1.00  0.00    -0.237 OA
ATOM     82  O   UNL     1      -6.940 -16.361  -0.550  1.00  0.00    -0.744 OA
ENDBRANCH  78  79
ENDBRANCH  57  71
BRANCH  58  83
ATOM     83  C   UNL     1     -10.732 -10.255 -13.716  1.00  0.00     0.058 A 
ATOM     84  C   UNL     1     -11.889  -9.485 -13.897  1.00  0.00     0.135 A 
ATOM     85  C   UNL     1      -9.972 -10.575 -14.852  1.00  0.00     0.135 A 
ATOM     86  F   UNL     1     -12.647  -9.154 -12.841  1.00  0.00    -0.206 F 
ATOM     87  C   UNL     1     -12.293  -9.067 -15.160  1.00  0.00     0.059 A 
ATOM     88  C   UNL     1     -10.340 -10.145 -16.122  1.00  0.00     0.059 A 
ATOM     89  F   UNL     1      -8.844 -11.292 -14.728  1.00  0.00    -0.206 F 
ATOM     90  C   UNL     1     -11.511  -9.403 -16.267  1.00  0.00     0.060 A 
BRANCH  90  91
ATOM     91  S   UNL     1     -12.035  -8.836 -17.899  1.00  0.00     0.124 S 
ATOM     92  O   UNL     1     -13.200  -9.680 -18.142  1.00  0.00    -0.237 OA
ATOM     93  O   UNL     1     -12.308  -7.423 -17.658  1.00  0.00    -0.237 OA
ATOM     94  O   UNL     1     -10.872  -9.109 -18.738  1.00  0.00    -0.744 OA
ENDBRANCH  90  91
ENDBRANCH  58  83
BRANCH  70  95
ATOM     95  C   UNL     1     -13.436 -14.743  -9.109  1.00  0.00     0.058 A 
ATOM     96  C   UNL     1     -13.506 -15.894  -9.909  1.00  0.00     0.135 A 
ATOM     97  C   UNL     1     -14.529 -14.457  -8.275  1.00  0.00     0.135 A 
ATOM     98  F   UNL     1     -12.493 -16.208 -10.732  1.00  0.00    -0.206 F 
ATOM     99  C   UNL     1     -14.623 -16.723  -9.893  1.00  0.00     0.059 A 
ATOM    100  C   UNL     1     -15.645 -15.287  -8.223  1.00  0.00     0.059 A 
ATOM    101  F   UNL     1     -14.511 -13.371  -7.485  1.00  0.00    -0.206 F 
ATOM    102  C   UNL     1     -15.686 -16.414  -9.042  1.00  0.00     0.060 A 
BRANCH 102 103
ATOM    103  S   UNL     1     -17.109 -17.524  -9.002  1.00  0.00     0.124 S 
ATOM    104  O   UNL     1     -17.725 -17.262 -10.298  1.00  0.00    -0.237 OA
ATOM    105  O   UNL     1     -16.478 -18.832  -8.854  1.00  0.00    -0.237 OA
ATOM    106  O   UNL     1     -17.867 -17.066  -7.842  1.00  0.00    -0.744 OA
ENDBRANCH 102 103
ENDBRANCH  70  95
ENDBRANCH  44  45
ENDBRANCH  37  39
ENDBRANCH  36  37
ENDBRANCH  35  36
ENDBRANCH  34  35
ENDBRANCH  33  34
ENDBRANCH  32  33
ENDBRANCH  31  32
ENDBRANCH   1  31
TORSDOF 27
