REMARK SMILES CC(=O)N[C@@H](Cc1c(OCC(C)C)ccc2ccccc12)C(=O)OCCOCCOCCOCCOC(=O)c1ccc(-c2c3nc(c(-c4c(F)cc(S(=O)(=O)[O-])cc4F)c4ccc([nH]4)c(-c4c(F)cc(S(=O)(=O)[O-])cc4F)c4nc(c(-c5c(F)cc(S(=O)(=O)[O-])cc5F)c5ccc2[nH]5)C=C4)C=C3)cc1
REMARK SMILES IDX 29 1 28 2 27 3 26 4 25 5 24 6 22 7 23 8 5 9 4 10 1 11 2 12
REMARK SMILES IDX 3 13 6 15 7 16 8 17 21 18 14 19 16 20 20 21 15 22 17 23
REMARK SMILES IDX 19 24 18 25 9 26 10 27 11 28 12 29 13 30 30 31 31 32 32 33
REMARK SMILES IDX 33 34 34 35 35 36 36 37 37 38 38 39 39 40 40 41 104 42 41 43
REMARK SMILES IDX 103 44 42 45 43 46 44 47 97 48 45 49 102 50 96 51 98 52
REMARK SMILES IDX 46 53 101 54 95 55 94 56 47 58 81 59 60 60 80 61 61 62 64 63
REMARK SMILES IDX 79 64 99 65 62 66 63 67 78 69 100 70 65 71 48 72 49 73 58 74
REMARK SMILES IDX 50 75 51 76 57 77 59 78 52 79 53 80 54 81 55 82 56 83 82 84
REMARK SMILES IDX 83 85 92 86 84 87 85 88 91 89 93 90 86 91 87 92 88 93 89 94
REMARK SMILES IDX 90 95 66 96 67 97 76 98 68 99 69 100 75 101 77 102 70 103
REMARK SMILES IDX 71 104 72 105 73 106 74 107
REMARK H PARENT 4 14 98 57 64 68
REMARK Flexibility Score: inf
ROOT
ATOM      1  C   UNL     1      -1.219   2.366   2.285  1.00  0.00     0.188 C 
ENDROOT
BRANCH   1   2
ATOM      2  C   UNL     1      -0.585   1.769   3.550  1.00  0.00     0.188 C 
BRANCH   2   3
ATOM      3  O   UNL     1      -0.621   2.475   4.787  1.00  0.00    -0.376 OA
BRANCH   3   4
ATOM      4  C   UNL     1      -0.357   3.874   4.807  1.00  0.00     0.202 C 
BRANCH   4   5
ATOM      5  C   UNL     1       0.905   4.428   4.124  1.00  0.00     0.261 C 
BRANCH   5   6
ATOM      6  O   UNL     1       1.237   3.800   2.875  1.00  0.00    -0.462 OA
BRANCH   6   7
ATOM      7  C   UNL     1       2.433   3.158   2.790  1.00  0.00     0.329 C 
ATOM      8  O   UNL     1       3.252   3.076   3.698  1.00  0.00    -0.250 OA
BRANCH   7   9
ATOM      9  C   UNL     1       2.691   2.598   1.371  1.00  0.00     0.196 C 
BRANCH   9  10
ATOM     10  N   UNL     1       1.490   2.268   0.600  1.00  0.00    -0.343 N 
ATOM     11  C   UNL     1       1.803  -0.150   0.265  1.00  0.00     0.114 C 
ATOM     12  C   UNL     1       1.117   1.140  -0.059  1.00  0.00     0.217 C 
ATOM     13  O   UNL     1       0.174   1.177  -0.849  1.00  0.00    -0.275 OA
ATOM     14  H   UNL     1       0.832   2.999   0.550  1.00  0.00     0.164 HD
ENDBRANCH   9  10
BRANCH   9  15
ATOM     15  C   UNL     1       3.525   3.603   0.540  1.00  0.00     0.077 C 
BRANCH  15  16
ATOM     16  C   UNL     1       2.938   5.022   0.514  1.00  0.00     0.005 A 
ATOM     17  C   UNL     1       3.472   5.971   1.415  1.00  0.00     0.123 A 
ATOM     18  C   UNL     1       1.802   5.378  -0.290  1.00  0.00    -0.011 A 
ATOM     19  C   UNL     1       2.821   7.185   1.621  1.00  0.00     0.047 A 
ATOM     20  C   UNL     1       1.165   6.623  -0.055  1.00  0.00    -0.018 A 
ATOM     21  C   UNL     1       1.238   4.570  -1.308  1.00  0.00     0.009 A 
ATOM     22  C   UNL     1       1.682   7.506   0.892  1.00  0.00     0.012 A 
ATOM     23  C   UNL     1      -0.004   6.976  -0.748  1.00  0.00     0.009 A 
ATOM     24  C   UNL     1       0.044   4.905  -1.955  1.00  0.00     0.001 A 
ATOM     25  C   UNL     1      -0.581   6.109  -1.670  1.00  0.00     0.001 A 
BRANCH  17  26
ATOM     26  O   UNL     1       4.636   5.618   2.041  1.00  0.00    -0.493 OA
BRANCH  26  27
ATOM     27  C   UNL     1       5.510   6.647   2.506  1.00  0.00     0.232 C 
BRANCH  27  28
ATOM     28  C   UNL     1       6.385   7.275   1.401  1.00  0.00     0.020 C 
ATOM     29  C   UNL     1       5.611   8.042   0.326  1.00  0.00     0.011 C 
ATOM     30  C   UNL     1       7.402   8.218   2.045  1.00  0.00     0.011 C 
ENDBRANCH  27  28
ENDBRANCH  26  27
ENDBRANCH  17  26
ENDBRANCH  15  16
ENDBRANCH   9  15
ENDBRANCH   7   9
ENDBRANCH   6   7
ENDBRANCH   5   6
ENDBRANCH   4   5
ENDBRANCH   3   4
ENDBRANCH   2   3
ENDBRANCH   1   2
BRANCH   1  31
ATOM     31  O   UNL     1      -1.477   3.751   2.337  1.00  0.00    -0.377 OA
BRANCH  31  32
ATOM     32  C   UNL     1      -2.852   4.102   2.402  1.00  0.00     0.188 C 
BRANCH  32  33
ATOM     33  C   UNL     1      -3.719   3.283   3.385  1.00  0.00     0.188 C 
BRANCH  33  34
ATOM     34  O   UNL     1      -3.629   1.870   3.241  1.00  0.00    -0.376 OA
BRANCH  34  35
ATOM     35  C   UNL     1      -4.536   1.184   2.387  1.00  0.00     0.202 C 
BRANCH  35  36
ATOM     36  C   UNL     1      -4.607   1.538   0.887  1.00  0.00     0.261 C 
BRANCH  36  37
ATOM     37  O   UNL     1      -4.878   2.906   0.552  1.00  0.00    -0.460 OA
BRANCH  37  38
ATOM     38  C   UNL     1      -5.999   3.470   1.042  1.00  0.00     0.338 C 
ATOM     39  O   UNL     1      -6.873   2.917   1.690  1.00  0.00    -0.246 OA
BRANCH  38  40
ATOM     40  C   UNL     1      -5.883   4.932   0.856  1.00  0.00     0.060 A 
ATOM     41  C   UNL     1      -5.912   5.758   1.988  1.00  0.00     0.016 A 
ATOM     42  C   UNL     1      -5.723   5.485  -0.417  1.00  0.00     0.016 A 
ATOM     43  C   UNL     1      -5.809   7.141   1.849  1.00  0.00     0.010 A 
ATOM     44  C   UNL     1      -5.656   6.874  -0.558  1.00  0.00     0.010 A 
ATOM     45  C   UNL     1      -5.729   7.708   0.572  1.00  0.00    -0.014 A 
BRANCH  45  46
ATOM     46  C   UNL     1      -5.921   9.169   0.413  1.00  0.00     0.031 A 
ATOM     47  C   UNL     1      -7.292   9.672   0.049  1.00  0.00     0.074 A 
ATOM     48  C   UNL     1      -4.911  10.033   0.618  1.00  0.00     0.049 A 
ATOM     49  N   UNL     1      -7.691  10.891  -0.196  1.00  0.00    -0.248 NA
ATOM     50  C   UNL     1      -8.355   8.657  -0.052  1.00  0.00     0.031 C 
ATOM     51  C   UNL     1      -3.556   9.668   1.028  1.00  0.00     0.029 A 
ATOM     52  N   UNL     1      -4.872  11.399   0.499  1.00  0.00    -0.354 N 
ATOM     53  C   UNL     1      -9.046  10.792  -0.489  1.00  0.00     0.074 A 
ATOM     54  C   UNL     1      -9.395   9.390  -0.418  1.00  0.00     0.031 C 
ATOM     55  C   UNL     1      -2.812  10.785   1.110  1.00  0.00     0.029 A 
ATOM     56  C   UNL     1      -3.627  11.936   0.721  1.00  0.00     0.049 A 
ATOM     57  H   UNL     1      -5.661  11.944   0.276  1.00  0.00     0.167 HD
ATOM     58  C   UNL     1      -9.921  11.782  -0.786  1.00  0.00     0.037 A 
ATOM     59  C   UNL     1      -3.191  13.206   0.594  1.00  0.00     0.037 A 
ATOM     60  C   UNL     1      -9.563  13.175  -0.859  1.00  0.00     0.049 A 
ATOM     61  C   UNL     1      -4.164  14.282   0.179  1.00  0.00     0.074 A 
ATOM     62  C   UNL     1     -10.377  14.258  -1.137  1.00  0.00     0.029 A 
ATOM     63  N   UNL     1      -8.283  13.676  -0.666  1.00  0.00    -0.354 N 
ATOM     64  N   UNL     1      -5.448  14.181  -0.076  1.00  0.00    -0.248 NA
ATOM     65  C   UNL     1      -3.631  15.643   0.034  1.00  0.00     0.031 C 
ATOM     66  C   UNL     1      -9.579  15.405  -1.176  1.00  0.00     0.029 A 
ATOM     67  C   UNL     1      -8.279  15.048  -0.854  1.00  0.00     0.049 A 
ATOM     68  H   UNL     1      -7.495  13.136  -0.431  1.00  0.00     0.167 HD
ATOM     69  C   UNL     1      -5.879  15.468  -0.385  1.00  0.00     0.074 A 
ATOM     70  C   UNL     1      -4.723  16.332  -0.269  1.00  0.00     0.031 C 
ATOM     71  C   UNL     1      -7.119  15.897  -0.733  1.00  0.00     0.037 A 
BRANCH  58  72
ATOM     72  C   UNL     1     -11.342  11.392  -1.091  1.00  0.00     0.058 A 
ATOM     73  C   UNL     1     -12.212  10.912  -0.099  1.00  0.00     0.135 A 
ATOM     74  C   UNL     1     -11.851  11.533  -2.393  1.00  0.00     0.135 A 
ATOM     75  F   UNL     1     -11.774  10.737   1.158  1.00  0.00    -0.206 F 
ATOM     76  C   UNL     1     -13.527  10.566  -0.390  1.00  0.00     0.059 A 
ATOM     77  C   UNL     1     -13.171  11.222  -2.701  1.00  0.00     0.059 A 
ATOM     78  F   UNL     1     -11.061  11.981  -3.382  1.00  0.00    -0.206 F 
ATOM     79  C   UNL     1     -13.999  10.727  -1.694  1.00  0.00     0.060 A 
BRANCH  79  80
ATOM     80  S   UNL     1     -15.712  10.285  -2.052  1.00  0.00     0.124 S 
ATOM     81  O   UNL     1     -15.666   8.830  -1.947  1.00  0.00    -0.237 OA
ATOM     82  O   UNL     1     -16.438  10.975  -0.991  1.00  0.00    -0.237 OA
ATOM     83  O   UNL     1     -15.926  10.809  -3.397  1.00  0.00    -0.744 OA
ENDBRANCH  79  80
ENDBRANCH  58  72
BRANCH  59  84
ATOM     84  C   UNL     1      -1.758  13.530   0.838  1.00  0.00     0.058 A 
ATOM     85  C   UNL     1      -1.366  14.329   1.921  1.00  0.00     0.135 A 
ATOM     86  C   UNL     1      -0.751  13.047  -0.015  1.00  0.00     0.135 A 
ATOM     87  F   UNL     1      -2.290  14.827   2.756  1.00  0.00    -0.206 F 
ATOM     88  C   UNL     1      -0.030  14.649   2.146  1.00  0.00     0.059 A 
ATOM     89  C   UNL     1       0.593  13.328   0.206  1.00  0.00     0.059 A 
ATOM     90  F   UNL     1      -1.070  12.271  -1.062  1.00  0.00    -0.206 F 
ATOM     91  C   UNL     1       0.943  14.137   1.286  1.00  0.00     0.060 A 
BRANCH  91  92
ATOM     92  S   UNL     1       2.678  14.505   1.625  1.00  0.00     0.124 S 
ATOM     93  O   UNL     1       2.752  15.921   1.283  1.00  0.00    -0.237 OA
ATOM     94  O   UNL     1       2.785  14.183   3.045  1.00  0.00    -0.237 OA
ATOM     95  O   UNL     1       3.394  13.600   0.731  1.00  0.00    -0.744 OA
ENDBRANCH  91  92
ENDBRANCH  59  84
BRANCH  71  96
ATOM     96  C   UNL     1      -7.303  17.371  -0.984  1.00  0.00     0.058 A 
ATOM     97  C   UNL     1      -6.767  18.003  -2.118  1.00  0.00     0.135 A 
ATOM     98  C   UNL     1      -8.074  18.151  -0.106  1.00  0.00     0.135 A 
ATOM     99  F   UNL     1      -6.018  17.307  -2.988  1.00  0.00    -0.206 F 
ATOM    100  C   UNL     1      -6.966  19.359  -2.357  1.00  0.00     0.059 A 
ATOM    101  C   UNL     1      -8.314  19.502  -0.343  1.00  0.00     0.059 A 
ATOM    102  F   UNL     1      -8.622  17.598   0.988  1.00  0.00    -0.206 F 
ATOM    103  C   UNL     1      -7.744  20.100  -1.466  1.00  0.00     0.060 A 
BRANCH 103 104
ATOM    104  S   UNL     1      -8.019  21.851  -1.806  1.00  0.00     0.124 S 
ATOM    105  O   UNL     1      -6.702  22.416  -1.526  1.00  0.00    -0.237 OA
ATOM    106  O   UNL     1      -8.416  21.836  -3.211  1.00  0.00    -0.237 OA
ATOM    107  O   UNL     1      -9.072  22.221  -0.866  1.00  0.00    -0.744 OA
ENDBRANCH 103 104
ENDBRANCH  71  96
ENDBRANCH  45  46
ENDBRANCH  38  40
ENDBRANCH  37  38
ENDBRANCH  36  37
ENDBRANCH  35  36
ENDBRANCH  34  35
ENDBRANCH  33  34
ENDBRANCH  32  33
ENDBRANCH  31  32
ENDBRANCH   1  31
TORSDOF 29
