REMARK SMILES C[N@@H+]1CCN(C(=O)c2ccc3[nH]c4c(c3c2)CSCC4)C[C@H]1C(=O)OCCOCCOCCOCCOC(=O)c1ccc(-c2c3nc(c(-c4c(F)cc(S(=O)(=O)[O-])cc4F)c4ccc([nH]4)c(-c4c(F)cc(S(=O)(=O)[O-])cc4F)c4nc(c(-c5c(F)cc(S(=O)(=O)[O-])cc5F)c5ccc2[nH]5)C=C4)C=C3)cc1
REMARK SMILES IDX 32 1 31 2 30 3 29 4 28 5 27 6 26 7 25 8 23 9 24 10 22 11
REMARK SMILES IDX 1 12 2 13 3 14 4 16 21 17 5 18 6 19 7 20 8 21 9 22 16 23
REMARK SMILES IDX 10 24 15 25 11 26 14 27 12 28 13 29 17 30 20 32 18 33 19 34
REMARK SMILES IDX 33 35 34 36 35 37 36 38 37 39 38 40 39 41 40 42 41 43 105 44
REMARK SMILES IDX 42 45 104 46 43 47 44 48 45 49 98 50 46 51 103 52 97 53
REMARK SMILES IDX 99 54 47 55 102 56 96 57 95 58 48 60 82 61 61 62 81 63 62 64
REMARK SMILES IDX 65 65 80 66 100 67 63 68 64 69 79 71 101 72 66 73 49 74
REMARK SMILES IDX 50 75 59 76 51 77 52 78 58 79 60 80 53 81 54 82 55 83 56 84
REMARK SMILES IDX 57 85 83 86 84 87 93 88 85 89 86 90 92 91 94 92 87 93 88 94
REMARK SMILES IDX 89 95 90 96 91 97 67 98 68 99 77 100 69 101 70 102 76 103
REMARK SMILES IDX 78 104 71 105 72 106 73 107 74 108 75 109
REMARK H PARENT 2 15 12 31 99 59 65 70
REMARK Flexibility Score: inf
ROOT
ATOM      1  C   UNL     1       4.272  -2.343  -1.035  1.00  0.00     0.188 C 
ENDROOT
BRANCH   1   2
ATOM      2  O   UNL     1       3.429  -2.025   0.074  1.00  0.00    -0.377 OA
BRANCH   2   3
ATOM      3  C   UNL     1       3.422  -2.916   1.179  1.00  0.00     0.188 C 
BRANCH   3   4
ATOM      4  C   UNL     1       2.758  -4.277   0.941  1.00  0.00     0.188 C 
BRANCH   4   5
ATOM      5  O   UNL     1       3.203  -4.861  -0.265  1.00  0.00    -0.376 OA
BRANCH   5   6
ATOM      6  C   UNL     1       2.271  -5.031  -1.336  1.00  0.00     0.202 C 
BRANCH   6   7
ATOM      7  C   UNL     1       0.993  -4.178  -1.561  1.00  0.00     0.261 C 
BRANCH   7   8
ATOM      8  O   UNL     1       0.999  -2.758  -1.272  1.00  0.00    -0.459 OA
BRANCH   8   9
ATOM      9  C   UNL     1       0.203  -2.420  -0.225  1.00  0.00     0.366 C 
ATOM     10  O   UNL     1      -0.215  -3.244   0.596  1.00  0.00    -0.245 OA
BRANCH   9  11
ATOM     11  C   UNL     1      -0.276  -0.989  -0.066  1.00  0.00     0.314 C 
ATOM     12  C   UNL     1       1.824   0.283  -0.391  1.00  0.00     0.333 C 
ATOM     13  N   UNL     1       0.400   0.212  -0.674  1.00  0.00    -0.323 N 
ATOM     14  C   UNL     1      -0.257   1.420  -0.083  1.00  0.00     0.284 C 
ATOM     15  H   UNL     1       0.305   0.151  -1.688  1.00  0.00     0.348 HD
ATOM     16  C   UNL     1      -1.785   1.461  -0.293  1.00  0.00     0.181 C 
ATOM     17  C   UNL     1      -1.755  -0.981  -0.509  1.00  0.00     0.197 C 
ATOM     18  N   UNL     1      -2.407   0.198   0.084  1.00  0.00    -0.326 N 
BRANCH  18  19
ATOM     19  C   UNL     1      -3.445   0.162   1.002  1.00  0.00     0.254 C 
ATOM     20  O   UNL     1      -3.905   1.155   1.559  1.00  0.00    -0.269 OA
BRANCH  19  21
ATOM     21  C   UNL     1      -4.052  -1.150   1.300  1.00  0.00     0.040 A 
ATOM     22  C   UNL     1      -3.406  -2.062   2.138  1.00  0.00     0.016 A 
ATOM     23  C   UNL     1      -5.258  -1.461   0.661  1.00  0.00     0.024 A 
ATOM     24  C   UNL     1      -3.936  -3.342   2.324  1.00  0.00     0.027 A 
ATOM     25  C   UNL     1      -5.814  -2.738   0.856  1.00  0.00     0.004 A 
ATOM     26  C   UNL     1      -5.137  -3.649   1.669  1.00  0.00     0.046 A 
ATOM     27  C   UNL     1      -6.985  -3.388   0.360  1.00  0.00    -0.009 A 
ATOM     28  N   UNL     1      -5.843  -4.831   1.618  1.00  0.00    -0.358 N 
ATOM     29  C   UNL     1      -7.005  -4.647   0.922  1.00  0.00     0.021 A 
ATOM     30  C   UNL     1      -7.987  -2.830  -0.592  1.00  0.00     0.107 C 
ATOM     31  H   UNL     1      -5.553  -5.681   2.022  1.00  0.00     0.166 HD
ATOM     32  C   UNL     1      -8.051  -5.684   0.746  1.00  0.00     0.065 C 
ATOM     33  S   UNL     1      -9.445  -3.892  -0.928  1.00  0.00    -0.157 SA
ATOM     34  C   UNL     1      -9.407  -5.006   0.525  1.00  0.00     0.076 C 
ENDBRANCH  19  21
ENDBRANCH  18  19
ENDBRANCH   9  11
ENDBRANCH   8   9
ENDBRANCH   7   8
ENDBRANCH   6   7
ENDBRANCH   5   6
ENDBRANCH   4   5
ENDBRANCH   3   4
ENDBRANCH   2   3
ENDBRANCH   1   2
BRANCH   1  35
ATOM     35  C   UNL     1       5.722  -2.653  -0.665  1.00  0.00     0.188 C 
BRANCH  35  36
ATOM     36  O   UNL     1       6.399  -1.644   0.091  1.00  0.00    -0.376 OA
BRANCH  36  37
ATOM     37  C   UNL     1       6.170  -0.286  -0.294  1.00  0.00     0.202 C 
BRANCH  37  38
ATOM     38  C   UNL     1       6.830   0.139  -1.613  1.00  0.00     0.261 C 
BRANCH  38  39
ATOM     39  O   UNL     1       6.215  -0.533  -2.722  1.00  0.00    -0.460 OA
BRANCH  39  40
ATOM     40  C   UNL     1       7.051  -1.182  -3.569  1.00  0.00     0.338 C 
ATOM     41  O   UNL     1       8.254  -1.020  -3.686  1.00  0.00    -0.246 OA
BRANCH  40  42
ATOM     42  C   UNL     1       6.302  -2.333  -4.119  1.00  0.00     0.060 A 
ATOM     43  C   UNL     1       4.971  -2.208  -4.522  1.00  0.00     0.016 A 
ATOM     44  C   UNL     1       6.915  -3.595  -4.059  1.00  0.00     0.016 A 
ATOM     45  C   UNL     1       4.253  -3.355  -4.843  1.00  0.00     0.010 A 
ATOM     46  C   UNL     1       6.186  -4.743  -4.364  1.00  0.00     0.010 A 
ATOM     47  C   UNL     1       4.854  -4.625  -4.760  1.00  0.00    -0.014 A 
BRANCH  47  48
ATOM     48  C   UNL     1       4.114  -5.748  -5.346  1.00  0.00     0.031 A 
ATOM     49  C   UNL     1       3.886  -5.602  -6.814  1.00  0.00     0.074 A 
ATOM     50  C   UNL     1       3.776  -6.924  -4.780  1.00  0.00     0.049 A 
ATOM     51  N   UNL     1       2.767  -5.468  -7.446  1.00  0.00    -0.248 NA
ATOM     52  C   UNL     1       5.081  -5.500  -7.666  1.00  0.00     0.031 C 
ATOM     53  C   UNL     1       4.199  -7.479  -3.496  1.00  0.00     0.029 A 
ATOM     54  N   UNL     1       3.015  -7.927  -5.320  1.00  0.00    -0.354 N 
ATOM     55  C   UNL     1       3.098  -5.437  -8.799  1.00  0.00     0.074 A 
ATOM     56  C   UNL     1       4.533  -5.333  -8.869  1.00  0.00     0.031 C 
ATOM     57  C   UNL     1       3.845  -8.785  -3.441  1.00  0.00     0.029 A 
ATOM     58  C   UNL     1       3.065  -9.126  -4.622  1.00  0.00     0.049 A 
ATOM     59  H   UNL     1       2.476  -7.807  -6.135  1.00  0.00     0.167 HD
ATOM     60  C   UNL     1       2.187  -5.671  -9.782  1.00  0.00     0.037 A 
ATOM     61  C   UNL     1       2.551 -10.317  -5.021  1.00  0.00     0.037 A 
ATOM     62  C   UNL     1       0.835  -5.574  -9.306  1.00  0.00     0.049 A 
ATOM     63  C   UNL     1       1.506 -10.049  -6.041  1.00  0.00     0.074 A 
ATOM     64  C   UNL     1       0.064  -4.578  -8.740  1.00  0.00     0.029 A 
ATOM     65  N   UNL     1       0.139  -6.740  -9.112  1.00  0.00    -0.354 N 
ATOM     66  N   UNL     1       0.360  -9.473  -5.802  1.00  0.00    -0.248 NA
ATOM     67  C   UNL     1       1.855 -10.174  -7.449  1.00  0.00     0.031 C 
ATOM     68  C   UNL     1      -0.828  -5.247  -7.852  1.00  0.00     0.029 A 
ATOM     69  C   UNL     1      -0.551  -6.612  -7.934  1.00  0.00     0.049 A 
ATOM     70  H   UNL     1       0.136  -7.524  -9.709  1.00  0.00     0.167 HD
ATOM     71  C   UNL     1       0.036  -8.821  -6.979  1.00  0.00     0.074 A 
ATOM     72  C   UNL     1       0.913  -9.399  -7.987  1.00  0.00     0.031 C 
ATOM     73  C   UNL     1      -0.718  -7.683  -6.973  1.00  0.00     0.037 A 
BRANCH  60  74
ATOM     74  C   UNL     1       2.528  -6.293 -11.114  1.00  0.00     0.058 A 
ATOM     75  C   UNL     1       1.593  -6.248 -12.168  1.00  0.00     0.135 A 
ATOM     76  C   UNL     1       3.623  -7.165 -11.302  1.00  0.00     0.135 A 
ATOM     77  F   UNL     1       0.505  -5.466 -12.084  1.00  0.00    -0.206 F 
ATOM     78  C   UNL     1       1.706  -7.057 -13.299  1.00  0.00     0.059 A 
ATOM     79  C   UNL     1       3.785  -7.938 -12.447  1.00  0.00     0.059 A 
ATOM     80  F   UNL     1       4.530  -7.381 -10.341  1.00  0.00    -0.206 F 
ATOM     81  C   UNL     1       2.799  -7.912 -13.419  1.00  0.00     0.060 A 
BRANCH  81  82
ATOM     82  S   UNL     1       2.879  -9.051 -14.813  1.00  0.00     0.124 S 
ATOM     83  O   UNL     1       1.816  -9.991 -14.477  1.00  0.00    -0.237 OA
ATOM     84  O   UNL     1       2.619  -8.168 -15.945  1.00  0.00    -0.237 OA
ATOM     85  O   UNL     1       4.239  -9.578 -14.736  1.00  0.00    -0.744 OA
ENDBRANCH  81  82
ENDBRANCH  60  74
BRANCH  61  86
ATOM     86  C   UNL     1       3.056 -11.695  -4.775  1.00  0.00     0.058 A 
ATOM     87  C   UNL     1       2.266 -12.823  -5.073  1.00  0.00     0.135 A 
ATOM     88  C   UNL     1       4.420 -11.944  -4.527  1.00  0.00     0.135 A 
ATOM     89  F   UNL     1       0.959 -12.683  -5.340  1.00  0.00    -0.206 F 
ATOM     90  C   UNL     1       2.808 -14.108  -5.184  1.00  0.00     0.059 A 
ATOM     91  C   UNL     1       4.979 -13.218  -4.615  1.00  0.00     0.059 A 
ATOM     92  F   UNL     1       5.274 -10.939  -4.286  1.00  0.00    -0.206 F 
ATOM     93  C   UNL     1       4.173 -14.291  -4.977  1.00  0.00     0.060 A 
BRANCH  93  94
ATOM     94  S   UNL     1       4.910 -15.909  -5.307  1.00  0.00     0.124 S 
ATOM     95  O   UNL     1       4.341 -16.723  -4.239  1.00  0.00    -0.237 OA
ATOM     96  O   UNL     1       4.428 -16.195  -6.654  1.00  0.00    -0.237 OA
ATOM     97  O   UNL     1       6.344 -15.655  -5.203  1.00  0.00    -0.744 OA
ENDBRANCH  93  94
ENDBRANCH  61  86
BRANCH  73  98
ATOM     98  C   UNL     1      -1.553  -7.386  -5.757  1.00  0.00     0.058 A 
ATOM     99  C   UNL     1      -1.029  -7.127  -4.479  1.00  0.00     0.135 A 
ATOM    100  C   UNL     1      -2.936  -7.211  -5.933  1.00  0.00     0.135 A 
ATOM    101  F   UNL     1       0.292  -7.167  -4.249  1.00  0.00    -0.206 F 
ATOM    102  C   UNL     1      -1.849  -6.739  -3.418  1.00  0.00     0.059 A 
ATOM    103  C   UNL     1      -3.767  -6.788  -4.897  1.00  0.00     0.059 A 
ATOM    104  F   UNL     1      -3.488  -7.391  -7.145  1.00  0.00    -0.206 F 
ATOM    105  C   UNL     1      -3.214  -6.557  -3.640  1.00  0.00     0.060 A 
BRANCH 105 106
ATOM    106  S   UNL     1      -4.225  -5.882  -2.300  1.00  0.00     0.124 S 
ATOM    107  O   UNL     1      -4.254  -6.986  -1.345  1.00  0.00    -0.237 OA
ATOM    108  O   UNL     1      -3.443  -4.714  -1.899  1.00  0.00    -0.237 OA
ATOM    109  O   UNL     1      -5.496  -5.585  -2.955  1.00  0.00    -0.744 OA
ENDBRANCH 105 106
ENDBRANCH  73  98
ENDBRANCH  47  48
ENDBRANCH  40  42
ENDBRANCH  39  40
ENDBRANCH  38  39
ENDBRANCH  37  38
ENDBRANCH  36  37
ENDBRANCH  35  36
ENDBRANCH   1  35
TORSDOF 25
