REMARK SMILES CC(=O)Nc1cccc(NC(=O)N[C@H](C(=O)OCCOCCOCCOCCOC(=O)c2ccc(-c3c4nc(c(-c5c(F)cc(S(=O)(=O)[O-])cc5F)c5ccc([nH]5)c(-c5c(F)cc(S(=O)(=O)[O-])cc5F)c5nc(c(-c6c(F)cc(S(=O)(=O)[O-])cc6F)c6ccc3[nH]6)C=C5)C=C4)cc2)C(C)C)c1
REMARK SMILES IDX 23 1 22 2 21 3 20 4 19 5 18 6 17 7 15 8 16 9 14 10 13 11
REMARK SMILES IDX 10 12 11 13 12 15 9 17 5 18 6 19 101 20 7 21 8 22 4 23 1 24
REMARK SMILES IDX 2 25 3 26 98 28 99 29 100 30 24 31 25 32 26 33 27 34 28 35
REMARK SMILES IDX 29 36 30 37 31 38 32 39 33 40 97 41 34 42 96 43 35 44 36 45
REMARK SMILES IDX 37 46 90 47 38 48 95 49 89 50 91 51 39 52 94 53 88 54 87 55
REMARK SMILES IDX 40 57 74 58 53 59 73 60 54 61 57 62 72 63 92 64 55 65 56 66
REMARK SMILES IDX 71 68 93 69 58 70 41 71 42 72 51 73 43 74 44 75 50 76 52 77
REMARK SMILES IDX 45 78 46 79 47 80 48 81 49 82 75 83 76 84 85 85 77 86 78 87
REMARK SMILES IDX 84 88 86 89 79 90 80 91 81 92 82 93 83 94 59 95 60 96 69 97
REMARK SMILES IDX 61 98 62 99 68 100 70 101 63 102 64 103 65 104 66 105 67 106
REMARK H PARENT 10 14 13 16 4 27 91 56 57 67
REMARK Flexibility Score: inf
ROOT
ATOM      1  O   UNL     1       6.389   3.693   5.153  1.00  0.00    -0.377 OA
ENDROOT
BRANCH   1   2
ATOM      2  C   UNL     1       5.538   2.725   4.590  1.00  0.00     0.188 C 
BRANCH   2   3
ATOM      3  C   UNL     1       6.222   1.752   3.618  1.00  0.00     0.188 C 
BRANCH   3   4
ATOM      4  O   UNL     1       7.623   1.700   3.368  1.00  0.00    -0.376 OA
BRANCH   4   5
ATOM      5  C   UNL     1       8.598   2.712   3.583  1.00  0.00     0.202 C 
BRANCH   5   6
ATOM      6  C   UNL     1       8.624   4.124   2.945  1.00  0.00     0.261 C 
BRANCH   6   7
ATOM      7  O   UNL     1       7.492   4.994   3.123  1.00  0.00    -0.462 OA
BRANCH   7   8
ATOM      8  C   UNL     1       6.492   4.615   2.309  1.00  0.00     0.329 C 
ATOM      9  O   UNL     1       6.561   3.581   1.640  1.00  0.00    -0.250 OA
BRANCH   8  10
ATOM     10  C   UNL     1       5.213   5.473   2.261  1.00  0.00     0.196 C 
BRANCH  10  11
ATOM     11  N   UNL     1       5.079   6.885   2.732  1.00  0.00    -0.324 N 
ATOM     12  N   UNL     1       3.389   8.227   1.580  1.00  0.00    -0.308 N 
ATOM     13  C   UNL     1       4.040   7.761   2.684  1.00  0.00     0.319 C 
ATOM     14  H   UNL     1       2.544   8.679   1.805  1.00  0.00     0.171 HD
ATOM     15  O   UNL     1       3.678   8.254   3.762  1.00  0.00    -0.248 OA
ATOM     16  H   UNL     1       5.891   7.248   3.154  1.00  0.00     0.166 HD
BRANCH  12  17
ATOM     17  C   UNL     1       3.640   8.217   0.189  1.00  0.00     0.044 A 
ATOM     18  C   UNL     1       4.730   9.115  -1.781  1.00  0.00     0.043 A 
ATOM     19  C   UNL     1       4.279   8.010  -2.518  1.00  0.00     0.026 A 
ATOM     20  C   UNL     1       4.439   9.189  -0.410  1.00  0.00     0.052 A 
ATOM     21  C   UNL     1       3.372   7.121  -1.959  1.00  0.00     0.004 A 
ATOM     22  C   UNL     1       2.970   7.299  -0.636  1.00  0.00     0.026 A 
BRANCH  18  23
ATOM     23  N   UNL     1       5.357  10.114  -2.545  1.00  0.00    -0.326 N 
ATOM     24  C   UNL     1       6.236  11.697  -0.836  1.00  0.00     0.114 C 
ATOM     25  C   UNL     1       5.876  11.334  -2.243  1.00  0.00     0.221 C 
ATOM     26  O   UNL     1       6.054  12.131  -3.169  1.00  0.00    -0.275 OA
ATOM     27  H   UNL     1       5.438   9.881  -3.498  1.00  0.00     0.169 HD
ENDBRANCH  18  23
ENDBRANCH  12  17
ENDBRANCH  10  11
BRANCH  10  28
ATOM     28  C   UNL     1       4.658   5.237   0.861  1.00  0.00     0.017 C 
ATOM     29  C   UNL     1       5.623   4.974  -0.310  1.00  0.00     0.010 C 
ATOM     30  C   UNL     1       3.413   4.353   0.913  1.00  0.00     0.010 C 
ENDBRANCH  10  28
ENDBRANCH   8  10
ENDBRANCH   7   8
ENDBRANCH   6   7
ENDBRANCH   5   6
ENDBRANCH   4   5
ENDBRANCH   3   4
ENDBRANCH   2   3
ENDBRANCH   1   2
BRANCH   1  31
ATOM     31  C   UNL     1       7.069   3.345   6.355  1.00  0.00     0.188 C 
BRANCH  31  32
ATOM     32  C   UNL     1       7.373   1.856   6.658  1.00  0.00     0.188 C 
BRANCH  32  33
ATOM     33  O   UNL     1       6.287   0.969   6.430  1.00  0.00    -0.376 OA
BRANCH  33  34
ATOM     34  C   UNL     1       5.503   0.567   7.541  1.00  0.00     0.202 C 
BRANCH  34  35
ATOM     35  C   UNL     1       4.673   1.661   8.232  1.00  0.00     0.261 C 
BRANCH  35  36
ATOM     36  O   UNL     1       5.415   2.756   8.791  1.00  0.00    -0.460 OA
BRANCH  36  37
ATOM     37  C   UNL     1       6.374   2.458   9.690  1.00  0.00     0.338 C 
ATOM     38  O   UNL     1       6.621   1.355  10.155  1.00  0.00    -0.246 OA
BRANCH  37  39
ATOM     39  C   UNL     1       7.241   3.641   9.862  1.00  0.00     0.060 A 
ATOM     40  C   UNL     1       8.617   3.495   9.642  1.00  0.00     0.016 A 
ATOM     41  C   UNL     1       6.713   4.869  10.267  1.00  0.00     0.016 A 
ATOM     42  C   UNL     1       9.480   4.553   9.906  1.00  0.00     0.010 A 
ATOM     43  C   UNL     1       7.583   5.923  10.560  1.00  0.00     0.010 A 
ATOM     44  C   UNL     1       8.972   5.743  10.440  1.00  0.00    -0.014 A 
BRANCH  44  45
ATOM     45  C   UNL     1       9.915   6.644  11.144  1.00  0.00     0.031 A 
ATOM     46  C   UNL     1      10.071   6.466  12.633  1.00  0.00     0.074 A 
ATOM     47  C   UNL     1      10.683   7.522  10.477  1.00  0.00     0.049 A 
ATOM     48  N   UNL     1      10.861   7.086  13.469  1.00  0.00    -0.248 NA
ATOM     49  C   UNL     1       9.218   5.442  13.263  1.00  0.00     0.031 C 
ATOM     50  C   UNL     1      10.657   7.744   9.033  1.00  0.00     0.029 A 
ATOM     51  N   UNL     1      11.644   8.387  10.936  1.00  0.00    -0.354 N 
ATOM     52  C   UNL     1      10.600   6.531  14.717  1.00  0.00     0.074 A 
ATOM     53  C   UNL     1       9.552   5.553  14.538  1.00  0.00     0.031 C 
ATOM     54  C   UNL     1      11.561   8.691   8.723  1.00  0.00     0.029 A 
ATOM     55  C   UNL     1      12.211   9.155   9.949  1.00  0.00     0.049 A 
ATOM     56  H   UNL     1      11.903   8.450  11.884  1.00  0.00     0.167 HD
ATOM     57  C   UNL     1      11.190   6.802  15.905  1.00  0.00     0.037 A 
ATOM     58  C   UNL     1      13.139  10.129  10.033  1.00  0.00     0.037 A 
ATOM     59  C   UNL     1      12.231   7.780  16.076  1.00  0.00     0.049 A 
ATOM     60  C   UNL     1      13.740  10.457  11.377  1.00  0.00     0.074 A 
ATOM     61  C   UNL     1      12.899   8.132  17.235  1.00  0.00     0.029 A 
ATOM     62  N   UNL     1      12.751   8.567  15.059  1.00  0.00    -0.354 N 
ATOM     63  N   UNL     1      13.495   9.916  12.548  1.00  0.00    -0.248 NA
ATOM     64  C   UNL     1      14.756  11.518  11.407  1.00  0.00     0.031 C 
ATOM     65  C   UNL     1      13.785   9.171  16.928  1.00  0.00     0.029 A 
ATOM     66  C   UNL     1      13.716   9.420  15.566  1.00  0.00     0.049 A 
ATOM     67  H   UNL     1      12.475   8.525  14.115  1.00  0.00     0.167 HD
ATOM     68  C   UNL     1      14.348  10.550  13.448  1.00  0.00     0.074 A 
ATOM     69  C   UNL     1      15.126  11.501  12.679  1.00  0.00     0.031 C 
ATOM     70  C   UNL     1      14.481  10.362  14.786  1.00  0.00     0.037 A 
BRANCH  57  71
ATOM     71  C   UNL     1      10.693   6.054  17.112  1.00  0.00     0.058 A 
ATOM     72  C   UNL     1      10.932   4.681  17.289  1.00  0.00     0.135 A 
ATOM     73  C   UNL     1       9.973   6.726  18.114  1.00  0.00     0.135 A 
ATOM     74  F   UNL     1      11.592   3.983  16.351  1.00  0.00    -0.206 F 
ATOM     75  C   UNL     1      10.453   3.996  18.401  1.00  0.00     0.059 A 
ATOM     76  C   UNL     1       9.510   6.067  19.249  1.00  0.00     0.059 A 
ATOM     77  F   UNL     1       9.707   8.036  17.992  1.00  0.00    -0.206 F 
ATOM     78  C   UNL     1       9.743   4.699  19.377  1.00  0.00     0.060 A 
BRANCH  78  79
ATOM     79  S   UNL     1       9.131   3.798  20.816  1.00  0.00     0.124 S 
ATOM     80  O   UNL     1       8.051   3.011  20.230  1.00  0.00    -0.237 OA
ATOM     81  O   UNL     1      10.309   3.044  21.235  1.00  0.00    -0.237 OA
ATOM     82  O   UNL     1       8.711   4.857  21.728  1.00  0.00    -0.744 OA
ENDBRANCH  78  79
ENDBRANCH  57  71
BRANCH  58  83
ATOM     83  C   UNL     1      13.558  10.865   8.809  1.00  0.00     0.058 A 
ATOM     84  C   UNL     1      14.851  10.730   8.281  1.00  0.00     0.135 A 
ATOM     85  C   UNL     1      12.671  11.728   8.147  1.00  0.00     0.135 A 
ATOM     86  F   UNL     1      15.741   9.928   8.884  1.00  0.00    -0.206 F 
ATOM     87  C   UNL     1      15.254  11.434   7.151  1.00  0.00     0.059 A 
ATOM     88  C   UNL     1      13.041  12.421   6.999  1.00  0.00     0.059 A 
ATOM     89  F   UNL     1      11.419  11.887   8.606  1.00  0.00    -0.206 F 
ATOM     90  C   UNL     1      14.339  12.274   6.513  1.00  0.00     0.060 A 
BRANCH  90  91
ATOM     91  S   UNL     1      14.856  13.141   5.016  1.00  0.00     0.124 S 
ATOM     92  O   UNL     1      15.770  14.141   5.555  1.00  0.00    -0.237 OA
ATOM     93  O   UNL     1      15.469  12.067   4.239  1.00  0.00    -0.237 OA
ATOM     94  O   UNL     1      13.601  13.656   4.477  1.00  0.00    -0.744 OA
ENDBRANCH  90  91
ENDBRANCH  58  83
BRANCH  70  95
ATOM     95  C   UNL     1      15.537  11.169  15.494  1.00  0.00     0.058 A 
ATOM     96  C   UNL     1      15.419  12.557  15.674  1.00  0.00     0.135 A 
ATOM     97  C   UNL     1      16.680  10.539  16.013  1.00  0.00     0.135 A 
ATOM     98  F   UNL     1      14.346  13.211  15.200  1.00  0.00    -0.206 F 
ATOM     99  C   UNL     1      16.421  13.298  16.293  1.00  0.00     0.059 A 
ATOM    100  C   UNL     1      17.678  11.254  16.668  1.00  0.00     0.059 A 
ATOM    101  F   UNL     1      16.837   9.211  15.889  1.00  0.00    -0.206 F 
ATOM    102  C   UNL     1      17.550  12.637  16.781  1.00  0.00     0.060 A 
BRANCH 102 103
ATOM    103  S   UNL     1      18.852  13.611  17.566  1.00  0.00     0.124 S 
ATOM    104  O   UNL     1      19.472  14.254  16.412  1.00  0.00    -0.237 OA
ATOM    105  O   UNL     1      18.096  14.489  18.452  1.00  0.00    -0.237 OA
ATOM    106  O   UNL     1      19.670  12.605  18.238  1.00  0.00    -0.744 OA
ENDBRANCH 102 103
ENDBRANCH  70  95
ENDBRANCH  44  45
ENDBRANCH  37  39
ENDBRANCH  36  37
ENDBRANCH  35  36
ENDBRANCH  34  35
ENDBRANCH  33  34
ENDBRANCH  32  33
ENDBRANCH  31  32
ENDBRANCH   1  31
TORSDOF 27
