REMARK SMILES Cc1ccc(F)c(C(=O)N[C@@H]2C=C[C@@H](C(=O)OCCOCCOCCOCCOC(=O)c3ccc(-c4c5nc(c(-c6c(F)cc(S(=O)(=O)[O-])cc6F)c6ccc([nH]6)c(-c6c(F)cc(S(=O)(=O)[O-])cc6F)c6nc(c(-c7c(F)cc(S(=O)(=O)[O-])cc7F)c7ccc4[nH]7)C=C6)C=C5)cc3)C2)c1
REMARK SMILES IDX 24 1 23 2 22 3 21 4 20 5 19 6 18 7 17 8 15 9 16 10 14 11
REMARK SMILES IDX 11 12 12 13 98 14 13 15 10 16 8 17 9 18 7 20 1 21 2 22 3 23
REMARK SMILES IDX 99 24 4 25 5 26 6 27 25 28 26 29 27 30 28 31 29 32 30 33
REMARK SMILES IDX 31 34 32 35 33 36 97 37 34 38 96 39 35 40 36 41 37 42 90 43
REMARK SMILES IDX 38 44 95 45 89 46 91 47 39 48 94 49 88 50 87 51 40 53 74 54
REMARK SMILES IDX 53 55 73 56 54 57 57 58 72 59 92 60 55 61 56 62 71 64 93 65
REMARK SMILES IDX 58 66 41 67 42 68 51 69 43 70 44 71 50 72 52 73 45 74 46 75
REMARK SMILES IDX 47 76 48 77 49 78 75 79 76 80 85 81 77 82 78 83 84 84 86 85
REMARK SMILES IDX 79 86 80 87 81 88 82 89 83 90 59 91 60 92 69 93 61 94 62 95
REMARK SMILES IDX 68 96 70 97 63 98 64 99 65 100 66 101 67 102
REMARK H PARENT 10 19 91 52 57 63
REMARK Flexibility Score: inf
ROOT
ATOM      1  C   UNL     1       0.537  -8.541   3.601  1.00  0.00     0.188 C 
ENDROOT
BRANCH   1   2
ATOM      2  O   UNL     1       1.304  -7.389   3.260  1.00  0.00    -0.377 OA
BRANCH   2   3
ATOM      3  C   UNL     1       2.610  -7.556   2.746  1.00  0.00     0.188 C 
BRANCH   3   4
ATOM      4  C   UNL     1       3.752  -7.130   3.678  1.00  0.00     0.188 C 
BRANCH   4   5
ATOM      5  O   UNL     1       3.568  -7.242   5.081  1.00  0.00    -0.376 OA
BRANCH   5   6
ATOM      6  C   UNL     1       2.483  -6.533   5.676  1.00  0.00     0.202 C 
BRANCH   6   7
ATOM      7  C   UNL     1       2.275  -5.049   5.329  1.00  0.00     0.261 C 
BRANCH   7   8
ATOM      8  O   UNL     1       2.136  -4.774   3.916  1.00  0.00    -0.463 OA
BRANCH   8   9
ATOM      9  C   UNL     1       2.941  -3.803   3.414  1.00  0.00     0.312 C 
ATOM     10  O   UNL     1       3.750  -3.165   4.085  1.00  0.00    -0.252 OA
BRANCH   9  11
ATOM     11  C   UNL     1       2.820  -3.587   1.903  1.00  0.00     0.124 C 
ATOM     12  C   UNL     1       1.100  -3.398   0.127  1.00  0.00     0.106 C 
ATOM     13  C   UNL     1       1.461  -2.072   0.715  1.00  0.00    -0.006 C 
ATOM     14  C   UNL     1       1.795  -4.385   1.085  1.00  0.00     0.048 C 
ATOM     15  C   UNL     1       2.405  -2.168   1.655  1.00  0.00    -0.014 C 
BRANCH  12  16
ATOM     16  N   UNL     1       1.558  -3.377  -1.257  1.00  0.00    -0.346 N 
ATOM     17  C   UNL     1       1.550  -4.299  -2.276  1.00  0.00     0.254 C 
ATOM     18  O   UNL     1       1.829  -3.914  -3.410  1.00  0.00    -0.269 OA
ATOM     19  H   UNL     1       1.960  -2.517  -1.518  1.00  0.00     0.164 HD
BRANCH  17  20
ATOM     20  C   UNL     1       1.276  -5.729  -2.042  1.00  0.00     0.075 A 
ATOM     21  C   UNL     1      -0.793  -7.929   0.233  1.00  0.00     0.044 C 
ATOM     22  C   UNL     1       0.174  -7.511  -0.827  1.00  0.00    -0.050 A 
ATOM     23  C   UNL     1       0.975  -8.455  -1.480  1.00  0.00     0.006 A 
ATOM     24  C   UNL     1       0.286  -6.157  -1.158  1.00  0.00     0.020 A 
ATOM     25  C   UNL     1       1.898  -8.043  -2.436  1.00  0.00     0.040 A 
ATOM     26  C   UNL     1       2.051  -6.685  -2.706  1.00  0.00     0.135 A 
ATOM     27  F   UNL     1       2.993  -6.330  -3.592  1.00  0.00    -0.206 F 
ENDBRANCH  17  20
ENDBRANCH  12  16
ENDBRANCH   9  11
ENDBRANCH   8   9
ENDBRANCH   7   8
ENDBRANCH   6   7
ENDBRANCH   5   6
ENDBRANCH   4   5
ENDBRANCH   3   4
ENDBRANCH   2   3
ENDBRANCH   1   2
BRANCH   1  28
ATOM     28  C   UNL     1       1.233  -9.837   4.045  1.00  0.00     0.188 C 
BRANCH  28  29
ATOM     29  O   UNL     1       2.041 -10.564   3.119  1.00  0.00    -0.376 OA
BRANCH  29  30
ATOM     30  C   UNL     1       1.651 -10.685   1.754  1.00  0.00     0.202 C 
BRANCH  30  31
ATOM     31  C   UNL     1       0.455 -11.575   1.432  1.00  0.00     0.261 C 
BRANCH  31  32
ATOM     32  O   UNL     1      -0.770 -10.970   1.866  1.00  0.00    -0.460 OA
BRANCH  32  33
ATOM     33  C   UNL     1      -1.388 -11.618   2.877  1.00  0.00     0.338 C 
ATOM     34  O   UNL     1      -1.052 -12.670   3.388  1.00  0.00    -0.246 OA
BRANCH  33  35
ATOM     35  C   UNL     1      -2.463 -10.773   3.422  1.00  0.00     0.060 A 
ATOM     36  C   UNL     1      -2.504 -10.631   4.813  1.00  0.00     0.016 A 
ATOM     37  C   UNL     1      -3.462 -10.223   2.614  1.00  0.00     0.016 A 
ATOM     38  C   UNL     1      -3.595 -10.020   5.413  1.00  0.00     0.010 A 
ATOM     39  C   UNL     1      -4.563  -9.613   3.220  1.00  0.00     0.010 A 
ATOM     40  C   UNL     1      -4.658  -9.568   4.623  1.00  0.00    -0.014 A 
BRANCH  40  41
ATOM     41  C   UNL     1      -5.946  -9.265   5.288  1.00  0.00     0.031 A 
ATOM     42  C   UNL     1      -7.015 -10.326   5.290  1.00  0.00     0.074 A 
ATOM     43  C   UNL     1      -6.125  -8.105   5.941  1.00  0.00     0.049 A 
ATOM     44  N   UNL     1      -8.207 -10.300   5.823  1.00  0.00    -0.248 NA
ATOM     45  C   UNL     1      -6.695 -11.589   4.600  1.00  0.00     0.031 C 
ATOM     46  C   UNL     1      -5.138  -7.030   6.038  1.00  0.00     0.029 A 
ATOM     47  N   UNL     1      -7.204  -7.638   6.646  1.00  0.00    -0.354 N 
ATOM     48  C   UNL     1      -8.784 -11.529   5.522  1.00  0.00     0.074 A 
ATOM     49  C   UNL     1      -7.822 -12.271   4.739  1.00  0.00     0.031 C 
ATOM     50  C   UNL     1      -5.665  -6.020   6.753  1.00  0.00     0.029 A 
ATOM     51  C   UNL     1      -7.032  -6.367   7.136  1.00  0.00     0.049 A 
ATOM     52  H   UNL     1      -8.024  -8.165   6.789  1.00  0.00     0.167 HD
ATOM     53  C   UNL     1     -10.003 -11.997   5.876  1.00  0.00     0.037 A 
ATOM     54  C   UNL     1      -7.892  -5.568   7.798  1.00  0.00     0.037 A 
ATOM     55  C   UNL     1     -10.944 -11.254   6.671  1.00  0.00     0.049 A 
ATOM     56  C   UNL     1      -9.263  -6.095   8.137  1.00  0.00     0.074 A 
ATOM     57  C   UNL     1     -12.192 -11.649   7.119  1.00  0.00     0.029 A 
ATOM     58  N   UNL     1     -10.745  -9.960   7.129  1.00  0.00    -0.354 N 
ATOM     59  N   UNL     1      -9.781  -7.274   7.881  1.00  0.00    -0.248 NA
ATOM     60  C   UNL     1     -10.164  -5.189   8.862  1.00  0.00     0.031 C 
ATOM     61  C   UNL     1     -12.772 -10.571   7.794  1.00  0.00     0.029 A 
ATOM     62  C   UNL     1     -11.861  -9.527   7.824  1.00  0.00     0.049 A 
ATOM     63  H   UNL     1      -9.930  -9.427   6.981  1.00  0.00     0.167 HD
ATOM     64  C   UNL     1     -11.056  -7.260   8.438  1.00  0.00     0.074 A 
ATOM     65  C   UNL     1     -11.225  -5.961   9.056  1.00  0.00     0.031 C 
ATOM     66  C   UNL     1     -12.003  -8.232   8.440  1.00  0.00     0.037 A 
BRANCH  53  67
ATOM     67  C   UNL     1     -10.407 -13.358   5.381  1.00  0.00     0.058 A 
ATOM     68  C   UNL     1      -9.834 -14.537   5.884  1.00  0.00     0.135 A 
ATOM     69  C   UNL     1     -11.422 -13.484   4.418  1.00  0.00     0.135 A 
ATOM     70  F   UNL     1      -8.844 -14.476   6.788  1.00  0.00    -0.206 F 
ATOM     71  C   UNL     1     -10.243 -15.791   5.440  1.00  0.00     0.059 A 
ATOM     72  C   UNL     1     -11.867 -14.727   3.981  1.00  0.00     0.059 A 
ATOM     73  F   UNL     1     -11.998 -12.389   3.897  1.00  0.00    -0.206 F 
ATOM     74  C   UNL     1     -11.264 -15.876   4.491  1.00  0.00     0.060 A 
BRANCH  74  75
ATOM     75  S   UNL     1     -11.801 -17.510   3.944  1.00  0.00     0.124 S 
ATOM     76  O   UNL     1     -10.659 -17.938   3.142  1.00  0.00    -0.237 OA
ATOM     77  O   UNL     1     -11.987 -18.215   5.208  1.00  0.00    -0.237 OA
ATOM     78  O   UNL     1     -13.024 -17.235   3.197  1.00  0.00    -0.744 OA
ENDBRANCH  74  75
ENDBRANCH  53  67
BRANCH  54  79
ATOM     79  C   UNL     1      -7.495  -4.181   8.157  1.00  0.00     0.058 A 
ATOM     80  C   UNL     1      -7.326  -3.789   9.493  1.00  0.00     0.135 A 
ATOM     81  C   UNL     1      -7.287  -3.211   7.162  1.00  0.00     0.135 A 
ATOM     82  F   UNL     1      -7.520  -4.676  10.481  1.00  0.00    -0.206 F 
ATOM     83  C   UNL     1      -6.990  -2.482   9.832  1.00  0.00     0.059 A 
ATOM     84  C   UNL     1      -6.922  -1.907   7.474  1.00  0.00     0.059 A 
ATOM     85  F   UNL     1      -7.421  -3.537   5.867  1.00  0.00    -0.206 F 
ATOM     86  C   UNL     1      -6.790  -1.548   8.815  1.00  0.00     0.060 A 
BRANCH  86  87
ATOM     87  S   UNL     1      -6.322   0.138   9.263  1.00  0.00     0.124 S 
ATOM     88  O   UNL     1      -7.573   0.654   9.807  1.00  0.00    -0.237 OA
ATOM     89  O   UNL     1      -5.250  -0.089  10.226  1.00  0.00    -0.237 OA
ATOM     90  O   UNL     1      -5.900   0.717   7.991  1.00  0.00    -0.744 OA
ENDBRANCH  86  87
ENDBRANCH  54  79
BRANCH  66  91
ATOM     91  C   UNL     1     -13.291  -7.946   9.165  1.00  0.00     0.058 A 
ATOM     92  C   UNL     1     -14.240  -7.044   8.660  1.00  0.00     0.135 A 
ATOM     93  C   UNL     1     -13.602  -8.631  10.351  1.00  0.00     0.135 A 
ATOM     94  F   UNL     1     -13.990  -6.360   7.532  1.00  0.00    -0.206 F 
ATOM     95  C   UNL     1     -15.441  -6.810   9.321  1.00  0.00     0.059 A 
ATOM     96  C   UNL     1     -14.811  -8.437  11.011  1.00  0.00     0.059 A 
ATOM     97  F   UNL     1     -12.735  -9.516  10.869  1.00  0.00    -0.206 F 
ATOM     98  C   UNL     1     -15.719  -7.513  10.495  1.00  0.00     0.060 A 
BRANCH  98  99
ATOM     99  S   UNL     1     -17.294  -7.223  11.325  1.00  0.00     0.124 S 
ATOM    100  O   UNL     1     -17.083  -5.899  11.901  1.00  0.00    -0.237 OA
ATOM    101  O   UNL     1     -18.246  -7.289  10.221  1.00  0.00    -0.237 OA
ATOM    102  O   UNL     1     -17.380  -8.319  12.286  1.00  0.00    -0.744 OA
ENDBRANCH  98  99
ENDBRANCH  66  91
ENDBRANCH  40  41
ENDBRANCH  33  35
ENDBRANCH  32  33
ENDBRANCH  31  32
ENDBRANCH  30  31
ENDBRANCH  29  30
ENDBRANCH  28  29
ENDBRANCH   1  28
TORSDOF 25
