REMARK SMILES Nc1c(CC(=O)OCCOCCOCCOCCOC(=O)c2ccc(-c3c4nc(c(-c5c(F)cc(S(=O)(=O)[O-])cc5F)c5ccc([nH]5)c(-c5c(F)cc(S(=O)(=O)[O-])cc5F)c5nc(c(-c6c(F)cc(S(=O)(=O)[O-])cc6F)c6ccc3[nH]6)C=C5)C=C4)cc2)cccc1C(=O)c1ccc(Br)cc1
REMARK SMILES IDX 13 1 12 2 11 3 10 4 9 5 8 6 7 7 5 8 6 9 4 10 3 11 2 12 91 13
REMARK SMILES IDX 88 14 90 15 89 16 1 17 92 20 93 21 94 22 95 23 100 24 96 25
REMARK SMILES IDX 99 26 97 27 98 28 14 29 15 30 16 31 17 32 18 33 19 34 20 35
REMARK SMILES IDX 21 36 22 37 23 38 87 39 24 40 86 41 25 42 26 43 27 44 80 45
REMARK SMILES IDX 28 46 85 47 79 48 81 49 29 50 84 51 78 52 77 53 30 55 64 56
REMARK SMILES IDX 43 57 63 58 44 59 47 60 62 61 82 62 45 63 46 64 61 66 83 67
REMARK SMILES IDX 48 68 31 69 32 70 41 71 33 72 34 73 40 74 42 75 35 76 36 77
REMARK SMILES IDX 37 78 38 79 39 80 65 81 66 82 75 83 67 84 68 85 74 86 76 87
REMARK SMILES IDX 69 88 70 89 71 90 72 91 73 92 49 93 50 94 59 95 51 96 52 97
REMARK SMILES IDX 58 98 60 99 53 100 54 101 55 102 56 103 57 104
REMARK H PARENT 1 18 1 19 81 54 47 65
REMARK Flexibility Score: inf
ROOT
ATOM      1  O   UNL     1      -1.159  -2.531   3.413  1.00  0.00    -0.377 OA
ENDROOT
BRANCH   1   2
ATOM      2  C   UNL     1      -1.272  -2.643   2.006  1.00  0.00     0.188 C 
BRANCH   2   3
ATOM      3  C   UNL     1      -1.163  -4.088   1.461  1.00  0.00     0.188 C 
BRANCH   3   4
ATOM      4  O   UNL     1      -0.488  -5.120   2.180  1.00  0.00    -0.376 OA
BRANCH   4   5
ATOM      5  C   UNL     1       0.326  -4.774   3.287  1.00  0.00     0.202 C 
BRANCH   5   6
ATOM      6  C   UNL     1       1.591  -3.950   2.981  1.00  0.00     0.261 C 
BRANCH   6   7
ATOM      7  O   UNL     1       1.481  -3.042   1.860  1.00  0.00    -0.463 OA
BRANCH   7   8
ATOM      8  C   UNL     1       1.970  -3.461   0.671  1.00  0.00     0.310 C 
ATOM      9  O   UNL     1       2.647  -4.478   0.534  1.00  0.00    -0.252 OA
BRANCH   8  10
ATOM     10  C   UNL     1       1.587  -2.623  -0.539  1.00  0.00     0.160 C 
BRANCH  10  11
ATOM     11  C   UNL     1       0.808  -1.315  -0.422  1.00  0.00    -0.013 A 
ATOM     12  C   UNL     1       1.390  -0.121   0.062  1.00  0.00     0.047 A 
ATOM     13  C   UNL     1       0.650   1.091  -0.064  1.00  0.00     0.046 A 
ATOM     14  C   UNL     1      -0.529  -1.288  -0.887  1.00  0.00     0.006 A 
ATOM     15  C   UNL     1      -0.697   1.069  -0.459  1.00  0.00     0.014 A 
ATOM     16  C   UNL     1      -1.290  -0.120  -0.857  1.00  0.00     0.001 A 
BRANCH  12  17
ATOM     17  N   UNL     1       2.710  -0.148   0.516  1.00  0.00    -0.398 N 
ATOM     18  H   UNL     1       3.188  -1.005   0.590  1.00  0.00     0.156 HD
ATOM     19  H   UNL     1       3.162   0.691   0.764  1.00  0.00     0.156 HD
ENDBRANCH  12  17
BRANCH  13  20
ATOM     20  C   UNL     1       1.214   2.461   0.158  1.00  0.00     0.195 C 
ATOM     21  O   UNL     1       0.494   3.386   0.524  1.00  0.00    -0.289 OA
BRANCH  20  22
ATOM     22  C   UNL     1       2.641   2.748  -0.102  1.00  0.00     0.023 A 
ATOM     23  C   UNL     1       3.373   3.413   0.887  1.00  0.00     0.013 A 
ATOM     24  C   UNL     1       3.272   2.276  -1.260  1.00  0.00     0.013 A 
ATOM     25  C   UNL     1       4.758   3.519   0.762  1.00  0.00     0.016 A 
ATOM     26  C   UNL     1       4.657   2.383  -1.380  1.00  0.00     0.016 A 
ATOM     27  C   UNL     1       5.395   2.984  -0.359  1.00  0.00     0.018 A 
ATOM     28  Br  UNL     1       7.280   3.037  -0.481  1.00  0.00    -0.051 Br
ENDBRANCH  20  22
ENDBRANCH  13  20
ENDBRANCH  10  11
ENDBRANCH   8  10
ENDBRANCH   7   8
ENDBRANCH   6   7
ENDBRANCH   5   6
ENDBRANCH   4   5
ENDBRANCH   3   4
ENDBRANCH   2   3
ENDBRANCH   1   2
BRANCH   1  29
ATOM     29  C   UNL     1      -2.364  -2.211   4.080  1.00  0.00     0.188 C 
BRANCH  29  30
ATOM     30  C   UNL     1      -3.473  -3.250   3.867  1.00  0.00     0.188 C 
BRANCH  30  31
ATOM     31  O   UNL     1      -3.778  -3.439   2.489  1.00  0.00    -0.376 OA
BRANCH  31  32
ATOM     32  C   UNL     1      -4.930  -2.830   1.937  1.00  0.00     0.202 C 
BRANCH  32  33
ATOM     33  C   UNL     1      -4.971  -1.297   1.797  1.00  0.00     0.261 C 
BRANCH  33  34
ATOM     34  O   UNL     1      -4.593  -0.523   2.941  1.00  0.00    -0.460 OA
BRANCH  34  35
ATOM     35  C   UNL     1      -5.370  -0.622   4.038  1.00  0.00     0.338 C 
ATOM     36  O   UNL     1      -6.394  -1.282   4.142  1.00  0.00    -0.246 OA
BRANCH  35  37
ATOM     37  C   UNL     1      -4.659   0.011   5.171  1.00  0.00     0.060 A 
ATOM     38  C   UNL     1      -4.423  -0.760   6.317  1.00  0.00     0.016 A 
ATOM     39  C   UNL     1      -4.213   1.336   5.111  1.00  0.00     0.016 A 
ATOM     40  C   UNL     1      -3.795  -0.196   7.424  1.00  0.00     0.010 A 
ATOM     41  C   UNL     1      -3.610   1.912   6.236  1.00  0.00     0.010 A 
ATOM     42  C   UNL     1      -3.446   1.160   7.413  1.00  0.00    -0.014 A 
BRANCH  42  43
ATOM     43  C   UNL     1      -3.168   1.820   8.713  1.00  0.00     0.031 A 
ATOM     44  C   UNL     1      -4.307   2.533   9.395  1.00  0.00     0.074 A 
ATOM     45  C   UNL     1      -1.975   1.705   9.323  1.00  0.00     0.049 A 
ATOM     46  N   UNL     1      -4.339   3.132  10.556  1.00  0.00    -0.248 NA
ATOM     47  C   UNL     1      -5.588   2.567   8.668  1.00  0.00     0.031 C 
ATOM     48  C   UNL     1      -0.814   0.997   8.785  1.00  0.00     0.029 A 
ATOM     49  N   UNL     1      -1.548   2.177  10.539  1.00  0.00    -0.354 N 
ATOM     50  C   UNL     1      -5.636   3.614  10.697  1.00  0.00     0.074 A 
ATOM     51  C   UNL     1      -6.351   3.272   9.488  1.00  0.00     0.031 C 
ATOM     52  C   UNL     1       0.196   1.083   9.669  1.00  0.00     0.029 A 
ATOM     53  C   UNL     1      -0.238   1.873  10.821  1.00  0.00     0.049 A 
ATOM     54  H   UNL     1      -2.127   2.686  11.152  1.00  0.00     0.167 HD
ATOM     55  C   UNL     1      -6.188   4.268  11.746  1.00  0.00     0.037 A 
ATOM     56  C   UNL     1       0.524   2.206  11.883  1.00  0.00     0.037 A 
ATOM     57  C   UNL     1      -5.470   4.607  12.946  1.00  0.00     0.049 A 
ATOM     58  C   UNL     1      -0.093   2.999  13.009  1.00  0.00     0.074 A 
ATOM     59  C   UNL     1      -5.936   5.262  14.072  1.00  0.00     0.029 A 
ATOM     60  N   UNL     1      -4.130   4.325  13.173  1.00  0.00    -0.354 N 
ATOM     61  N   UNL     1      -1.327   3.429  13.140  1.00  0.00    -0.248 NA
ATOM     62  C   UNL     1       0.784   3.344  14.136  1.00  0.00     0.031 C 
ATOM     63  C   UNL     1      -4.864   5.431  14.953  1.00  0.00     0.029 A 
ATOM     64  C   UNL     1      -3.745   4.820  14.408  1.00  0.00     0.049 A 
ATOM     65  H   UNL     1      -3.540   3.845  12.548  1.00  0.00     0.167 HD
ATOM     66  C   UNL     1      -1.379   4.069  14.375  1.00  0.00     0.074 A 
ATOM     67  C   UNL     1      -0.059   3.952  14.959  1.00  0.00     0.031 C 
ATOM     68  C   UNL     1      -2.424   4.697  14.974  1.00  0.00     0.037 A 
BRANCH  55  69
ATOM     69  C   UNL     1      -7.627   4.691  11.623  1.00  0.00     0.058 A 
ATOM     70  C   UNL     1      -8.680   3.762  11.630  1.00  0.00     0.135 A 
ATOM     71  C   UNL     1      -7.958   6.052  11.519  1.00  0.00     0.135 A 
ATOM     72  F   UNL     1      -8.421   2.446  11.702  1.00  0.00    -0.206 F 
ATOM     73  C   UNL     1     -10.007   4.164  11.512  1.00  0.00     0.059 A 
ATOM     74  C   UNL     1      -9.280   6.479  11.433  1.00  0.00     0.059 A 
ATOM     75  F   UNL     1      -6.992   6.984  11.500  1.00  0.00    -0.206 F 
ATOM     76  C   UNL     1     -10.297   5.526  11.417  1.00  0.00     0.060 A 
BRANCH  76  77
ATOM     77  S   UNL     1     -12.024   6.032  11.276  1.00  0.00     0.124 S 
ATOM     78  O   UNL     1     -12.350   5.584   9.925  1.00  0.00    -0.237 OA
ATOM     79  O   UNL     1     -12.655   5.287  12.360  1.00  0.00    -0.237 OA
ATOM     80  O   UNL     1     -11.972   7.479  11.460  1.00  0.00    -0.744 OA
ENDBRANCH  76  77
ENDBRANCH  55  69
BRANCH  56  81
ATOM     81  C   UNL     1       1.957   1.804  11.931  1.00  0.00     0.058 A 
ATOM     82  C   UNL     1       2.428   0.880  12.876  1.00  0.00     0.135 A 
ATOM     83  C   UNL     1       2.890   2.350  11.034  1.00  0.00     0.135 A 
ATOM     84  F   UNL     1       1.581   0.340  13.765  1.00  0.00    -0.206 F 
ATOM     85  C   UNL     1       3.772   0.522  12.941  1.00  0.00     0.059 A 
ATOM     86  C   UNL     1       4.233   1.986  11.060  1.00  0.00     0.059 A 
ATOM     87  F   UNL     1       2.494   3.234  10.105  1.00  0.00    -0.206 F 
ATOM     88  C   UNL     1       4.666   1.078  12.024  1.00  0.00     0.060 A 
BRANCH  88  89
ATOM     89  S   UNL     1       6.398   0.569  12.085  1.00  0.00     0.124 S 
ATOM     90  O   UNL     1       6.852   1.212  13.312  1.00  0.00    -0.237 OA
ATOM     91  O   UNL     1       6.286  -0.886  12.128  1.00  0.00    -0.237 OA
ATOM     92  O   UNL     1       6.950   1.110  10.846  1.00  0.00    -0.744 OA
ENDBRANCH  88  89
ENDBRANCH  56  81
BRANCH  68  93
ATOM     93  C   UNL     1      -2.191   5.275  16.346  1.00  0.00     0.058 A 
ATOM     94  C   UNL     1      -1.369   6.395  16.550  1.00  0.00     0.135 A 
ATOM     95  C   UNL     1      -2.825   4.718  17.469  1.00  0.00     0.135 A 
ATOM     96  F   UNL     1      -0.737   6.968  15.513  1.00  0.00    -0.206 F 
ATOM     97  C   UNL     1      -1.149   6.914  17.822  1.00  0.00     0.059 A 
ATOM     98  C   UNL     1      -2.649   5.243  18.745  1.00  0.00     0.059 A 
ATOM     99  F   UNL     1      -3.637   3.657  17.331  1.00  0.00    -0.206 F 
ATOM    100  C   UNL     1      -1.793   6.329  18.915  1.00  0.00     0.060 A 
BRANCH 100 101
ATOM    101  S   UNL     1      -1.500   7.013  20.559  1.00  0.00     0.124 S 
ATOM    102  O   UNL     1      -0.135   6.571  20.823  1.00  0.00    -0.237 OA
ATOM    103  O   UNL     1      -1.672   8.445  20.336  1.00  0.00    -0.237 OA
ATOM    104  O   UNL     1      -2.533   6.384  21.378  1.00  0.00    -0.744 OA
ENDBRANCH 100 101
ENDBRANCH  68  93
ENDBRANCH  42  43
ENDBRANCH  35  37
ENDBRANCH  34  35
ENDBRANCH  33  34
ENDBRANCH  32  33
ENDBRANCH  31  32
ENDBRANCH  30  31
ENDBRANCH  29  30
ENDBRANCH   1  29
TORSDOF 27
