REMARK SMILES CN1C(=O)C[C@@H](C(=O)OCCOCCOCCOCCOC(=O)c2ccc(-c3c4nc(c(-c5c(F)cc(S(=O)(=O)[O-])cc5F)c5ccc([nH]5)c(-c5c(F)cc(S(=O)(=O)[O-])cc5F)c5nc(c(-c6c(F)cc(S(=O)(=O)[O-])cc6F)c6ccc3[nH]6)C=C5)C=C4)cc2)C12CCN(C(=O)c1ccccc1-n1cccn1)CC2
REMARK SMILES IDX 16 1 15 2 14 3 13 4 12 5 11 6 10 7 9 8 7 9 8 10 6 11 1 12
REMARK SMILES IDX 2 13 3 14 90 15 4 16 5 17 91 18 108 19 92 20 107 21 93 22
REMARK SMILES IDX 94 23 95 24 96 25 97 26 101 27 98 28 100 29 99 30 102 31
REMARK SMILES IDX 103 32 106 33 104 34 105 35 17 36 18 37 19 38 20 39 21 40
REMARK SMILES IDX 22 41 23 42 24 43 25 44 89 45 26 46 88 47 27 48 28 49 29 50
REMARK SMILES IDX 82 51 30 52 87 53 81 54 83 55 31 56 86 57 80 58 79 59 32 61
REMARK SMILES IDX 66 62 45 63 65 64 46 65 49 66 64 67 84 68 47 69 48 70 63 72
REMARK SMILES IDX 85 73 50 74 33 75 34 76 43 77 35 78 36 79 42 80 44 81 37 82
REMARK SMILES IDX 38 83 39 84 40 85 41 86 67 87 68 88 77 89 69 90 70 91 76 92
REMARK SMILES IDX 78 93 71 94 72 95 73 96 74 97 75 98 51 99 52 100 61 101
REMARK SMILES IDX 53 102 54 103 60 104 62 105 55 106 56 107 57 108 58 109
REMARK SMILES IDX 59 110
REMARK H PARENT 83 60 49 71
REMARK Flexibility Score: inf
ROOT
ATOM      1  C   UNL     1       0.061  -3.326  -5.000  1.00  0.00     0.188 C 
ENDROOT
BRANCH   1   2
ATOM      2  O   UNL     1      -0.336  -1.963  -4.938  1.00  0.00    -0.377 OA
BRANCH   2   3
ATOM      3  C   UNL     1      -1.531  -1.498  -5.525  1.00  0.00     0.188 C 
BRANCH   3   4
ATOM      4  C   UNL     1      -1.395  -0.715  -6.826  1.00  0.00     0.188 C 
BRANCH   4   5
ATOM      5  O   UNL     1      -0.221  -0.855  -7.594  1.00  0.00    -0.376 OA
BRANCH   5   6
ATOM      6  C   UNL     1       1.053  -0.733  -6.967  1.00  0.00     0.202 C 
BRANCH   6   7
ATOM      7  C   UNL     1       1.365   0.410  -5.970  1.00  0.00     0.261 C 
BRANCH   7   8
ATOM      8  O   UNL     1       0.779   0.344  -4.633  1.00  0.00    -0.463 OA
BRANCH   8   9
ATOM      9  C   UNL     1      -0.209   1.226  -4.380  1.00  0.00     0.311 C 
ATOM     10  O   UNL     1      -0.672   1.980  -5.239  1.00  0.00    -0.252 OA
BRANCH   9  11
ATOM     11  C   UNL     1      -0.706   1.389  -2.944  1.00  0.00     0.134 C 
ATOM     12  C   UNL     1       1.341   0.261   0.019  1.00  0.00     0.147 C 
ATOM     13  N   UNL     1       0.685   0.888  -1.117  1.00  0.00    -0.339 N 
ATOM     14  C   UNL     1       1.041   2.171  -1.505  1.00  0.00     0.223 C 
ATOM     15  C   UNL     1      -0.597   0.440  -1.708  1.00  0.00     0.060 C 
ATOM     16  O   UNL     1       1.970   2.834  -1.075  1.00  0.00    -0.275 OA
ATOM     17  C   UNL     1       0.012   2.672  -2.474  1.00  0.00     0.118 C 
ATOM     18  C   UNL     1      -0.619  -1.083  -1.926  1.00  0.00     0.051 C 
ATOM     19  C   UNL     1      -1.744   0.783  -0.690  1.00  0.00     0.051 C 
ATOM     20  C   UNL     1      -1.987  -1.736  -2.128  1.00  0.00     0.122 C 
ATOM     21  C   UNL     1      -3.091   0.123  -0.986  1.00  0.00     0.122 C 
ATOM     22  N   UNL     1      -2.979  -1.321  -1.151  1.00  0.00    -0.338 N 
ATOM     23  C   UNL     1      -4.011  -2.128  -0.650  1.00  0.00     0.256 C 
ATOM     24  O   UNL     1      -4.968  -1.667  -0.027  1.00  0.00    -0.269 OA
BRANCH  23  25
ATOM     25  C   UNL     1      -4.042  -3.599  -0.872  1.00  0.00     0.065 A 
ATOM     26  C   UNL     1      -5.147  -4.086  -1.599  1.00  0.00     0.016 A 
ATOM     27  C   UNL     1      -3.100  -4.520  -0.388  1.00  0.00     0.077 A 
ATOM     28  C   UNL     1      -5.318  -5.457  -1.827  1.00  0.00     0.001 A 
ATOM     29  C   UNL     1      -3.278  -5.899  -0.620  1.00  0.00     0.029 A 
ATOM     30  C   UNL     1      -4.398  -6.365  -1.312  1.00  0.00     0.002 A 
BRANCH  27  31
ATOM     31  N   UNL     1      -1.926  -4.126   0.288  1.00  0.00    -0.240 N 
ATOM     32  C   UNL     1      -1.751  -3.113   1.200  1.00  0.00     0.115 A 
ATOM     33  N   UNL     1      -0.751  -4.742  -0.004  1.00  0.00    -0.177 NA
ATOM     34  C   UNL     1      -0.399  -3.009   1.423  1.00  0.00     0.042 A 
ATOM     35  C   UNL     1       0.171  -4.012   0.625  1.00  0.00     0.135 A 
ENDBRANCH  27  31
ENDBRANCH  23  25
ENDBRANCH   9  11
ENDBRANCH   8   9
ENDBRANCH   7   8
ENDBRANCH   6   7
ENDBRANCH   5   6
ENDBRANCH   4   5
ENDBRANCH   3   4
ENDBRANCH   2   3
ENDBRANCH   1   2
BRANCH   1  36
ATOM     36  C   UNL     1      -0.577  -4.226  -6.060  1.00  0.00     0.188 C 
BRANCH  36  37
ATOM     37  O   UNL     1      -1.992  -4.411  -5.965  1.00  0.00    -0.376 OA
BRANCH  37  38
ATOM     38  C   UNL     1      -2.531  -4.607  -4.657  1.00  0.00     0.202 C 
BRANCH  38  39
ATOM     39  C   UNL     1      -2.189  -5.951  -4.051  1.00  0.00     0.261 C 
BRANCH  39  40
ATOM     40  O   UNL     1      -0.835  -5.950  -3.594  1.00  0.00    -0.460 OA
BRANCH  40  41
ATOM     41  C   UNL     1      -0.175  -7.093  -3.830  1.00  0.00     0.338 C 
ATOM     42  O   UNL     1      -0.624  -8.135  -4.306  1.00  0.00    -0.246 OA
BRANCH  41  43
ATOM     43  C   UNL     1       1.247  -6.860  -3.610  1.00  0.00     0.060 A 
ATOM     44  C   UNL     1       2.071  -6.850  -4.738  1.00  0.00     0.016 A 
ATOM     45  C   UNL     1       1.772  -6.772  -2.317  1.00  0.00     0.016 A 
ATOM     46  C   UNL     1       3.446  -6.850  -4.574  1.00  0.00     0.010 A 
ATOM     47  C   UNL     1       3.157  -6.778  -2.155  1.00  0.00     0.010 A 
ATOM     48  C   UNL     1       3.990  -6.881  -3.283  1.00  0.00    -0.014 A 
BRANCH  48  49
ATOM     49  C   UNL     1       5.414  -7.253  -3.147  1.00  0.00     0.031 A 
ATOM     50  C   UNL     1       5.750  -8.689  -2.849  1.00  0.00     0.074 A 
ATOM     51  C   UNL     1       6.375  -6.349  -3.396  1.00  0.00     0.049 A 
ATOM     52  N   UNL     1       6.920  -9.263  -2.755  1.00  0.00    -0.248 NA
ATOM     53  C   UNL     1       4.614  -9.603  -2.636  1.00  0.00     0.031 C 
ATOM     54  C   UNL     1       6.140  -4.947  -3.743  1.00  0.00     0.029 A 
ATOM     55  N   UNL     1       7.737  -6.478  -3.408  1.00  0.00    -0.354 N 
ATOM     56  C   UNL     1       6.662 -10.599  -2.469  1.00  0.00     0.074 A 
ATOM     57  C   UNL     1       5.228 -10.746  -2.372  1.00  0.00     0.031 C 
ATOM     58  C   UNL     1       7.325  -4.342  -3.929  1.00  0.00     0.029 A 
ATOM     59  C   UNL     1       8.396  -5.306  -3.687  1.00  0.00     0.049 A 
ATOM     60  H   UNL     1       8.200  -7.329  -3.232  1.00  0.00     0.167 HD
ATOM     61  C   UNL     1       7.546 -11.612  -2.313  1.00  0.00     0.037 A 
ATOM     62  C   UNL     1       9.717  -5.045  -3.723  1.00  0.00     0.037 A 
ATOM     63  C   UNL     1       8.972 -11.441  -2.415  1.00  0.00     0.049 A 
ATOM     64  C   UNL     1      10.684  -6.174  -3.487  1.00  0.00     0.074 A 
ATOM     65  C   UNL     1       9.964 -12.396  -2.288  1.00  0.00     0.029 A 
ATOM     66  N   UNL     1       9.607 -10.231  -2.657  1.00  0.00    -0.354 N 
ATOM     67  N   UNL     1      10.430  -7.439  -3.241  1.00  0.00    -0.248 NA
ATOM     68  C   UNL     1      12.114  -5.847  -3.539  1.00  0.00     0.031 C 
ATOM     69  C   UNL     1      11.201 -11.751  -2.393  1.00  0.00     0.029 A 
ATOM     70  C   UNL     1      10.979 -10.406  -2.652  1.00  0.00     0.049 A 
ATOM     71  H   UNL     1       9.148  -9.373  -2.811  1.00  0.00     0.167 HD
ATOM     72  C   UNL     1      11.667  -8.064  -3.133  1.00  0.00     0.074 A 
ATOM     73  C   UNL     1      12.668  -7.038  -3.355  1.00  0.00     0.031 C 
ATOM     74  C   UNL     1      11.954  -9.365  -2.876  1.00  0.00     0.037 A 
BRANCH  61  75
ATOM     75  C   UNL     1       7.000 -12.972  -1.974  1.00  0.00     0.058 A 
ATOM     76  C   UNL     1       6.275 -13.739  -2.901  1.00  0.00     0.135 A 
ATOM     77  C   UNL     1       7.219 -13.525  -0.701  1.00  0.00     0.135 A 
ATOM     78  F   UNL     1       6.016 -13.253  -4.125  1.00  0.00    -0.206 F 
ATOM     79  C   UNL     1       5.764 -14.991  -2.570  1.00  0.00     0.059 A 
ATOM     80  C   UNL     1       6.743 -14.787  -0.358  1.00  0.00     0.059 A 
ATOM     81  F   UNL     1       7.899 -12.834   0.227  1.00  0.00    -0.206 F 
ATOM     82  C   UNL     1       6.004 -15.507  -1.295  1.00  0.00     0.060 A 
BRANCH  82  83
ATOM     83  S   UNL     1       5.335 -17.132  -0.879  1.00  0.00     0.124 S 
ATOM     84  O   UNL     1       3.908 -16.844  -0.781  1.00  0.00    -0.237 OA
ATOM     85  O   UNL     1       5.742 -17.938  -2.026  1.00  0.00    -0.237 OA
ATOM     86  O   UNL     1       5.996 -17.460   0.380  1.00  0.00    -0.744 OA
ENDBRANCH  82  83
ENDBRANCH  61  75
BRANCH  62  87
ATOM     87  C   UNL     1      10.186  -3.656  -3.974  1.00  0.00     0.058 A 
ATOM     88  C   UNL     1      10.855  -3.309  -5.156  1.00  0.00     0.135 A 
ATOM     89  C   UNL     1       9.948  -2.639  -3.035  1.00  0.00     0.135 A 
ATOM     90  F   UNL     1      11.112  -4.246  -6.081  1.00  0.00    -0.206 F 
ATOM     91  C   UNL     1      11.281  -2.006  -5.395  1.00  0.00     0.059 A 
ATOM     92  C   UNL     1      10.339  -1.324  -3.264  1.00  0.00     0.059 A 
ATOM     93  F   UNL     1       9.299  -2.915  -1.893  1.00  0.00    -0.206 F 
ATOM     94  C   UNL     1      11.013  -1.019  -4.445  1.00  0.00     0.060 A 
BRANCH  94  95
ATOM     95  S   UNL     1      11.522   0.678  -4.791  1.00  0.00     0.124 S 
ATOM     96  O   UNL     1      12.971   0.583  -4.660  1.00  0.00    -0.237 OA
ATOM     97  O   UNL     1      11.014   0.878  -6.145  1.00  0.00    -0.237 OA
ATOM     98  O   UNL     1      10.843   1.450  -3.754  1.00  0.00    -0.744 OA
ENDBRANCH  94  95
ENDBRANCH  62  87
BRANCH  74  99
ATOM     99  C   UNL     1      13.405  -9.760  -2.849  1.00  0.00     0.058 A 
ATOM    100  C   UNL     1      14.255  -9.380  -1.800  1.00  0.00     0.135 A 
ATOM    101  C   UNL     1      13.933 -10.582  -3.858  1.00  0.00     0.135 A 
ATOM    102  F   UNL     1      13.801  -8.591  -0.813  1.00  0.00    -0.206 F 
ATOM    103  C   UNL     1      15.587  -9.778  -1.766  1.00  0.00     0.059 A 
ATOM    104  C   UNL     1      15.253 -11.018  -3.828  1.00  0.00     0.059 A 
ATOM    105  F   UNL     1      13.158 -10.985  -4.878  1.00  0.00    -0.206 F 
ATOM    106  C   UNL     1      16.076 -10.600  -2.783  1.00  0.00     0.060 A 
BRANCH 106 107
ATOM    107  S   UNL     1      17.797 -11.137  -2.708  1.00  0.00     0.124 S 
ATOM    108  O   UNL     1      18.504  -9.905  -3.047  1.00  0.00    -0.237 OA
ATOM    109  O   UNL     1      17.925 -11.581  -1.324  1.00  0.00    -0.237 OA
ATOM    110  O   UNL     1      17.868 -12.196  -3.710  1.00  0.00    -0.744 OA
ENDBRANCH 106 107
ENDBRANCH  74  99
ENDBRANCH  48  49
ENDBRANCH  41  43
ENDBRANCH  40  41
ENDBRANCH  39  40
ENDBRANCH  38  39
ENDBRANCH  37  38
ENDBRANCH  36  37
ENDBRANCH   1  36
TORSDOF 25
