REMARK SMILES CC[C@@](C)([NH2+]CC(=O)N[C@@H](C)C(C)C)C(=O)OCCOCCOCCOCCOC(=O)c1ccc(-c2c3nc(c(-c4c(F)cc(S(=O)(=O)[O-])cc4F)c4ccc([nH]4)c(-c4c(F)cc(S(=O)(=O)[O-])cc4F)c4nc(c(-c5c(F)cc(S(=O)(=O)[O-])cc5F)c5ccc2[nH]5)C=C4)C=C3)cc1
REMARK SMILES IDX 22 1 21 2 20 3 19 4 18 5 17 6 15 7 16 8 3 9 4 10 2 11 1 12
REMARK SMILES IDX 5 13 6 16 7 17 8 18 9 19 10 21 11 22 12 23 13 24 14 25 23 26
REMARK SMILES IDX 24 27 25 28 26 29 27 30 28 31 29 32 30 33 31 34 32 35 33 36
REMARK SMILES IDX 97 37 34 38 96 39 35 40 36 41 37 42 90 43 38 44 95 45 89 46
REMARK SMILES IDX 91 47 39 48 94 49 88 50 87 51 40 53 74 54 53 55 73 56 54 57
REMARK SMILES IDX 57 58 72 59 92 60 55 61 56 62 71 64 93 65 58 66 41 67 42 68
REMARK SMILES IDX 51 69 43 70 44 71 50 72 52 73 45 74 46 75 47 76 48 77 49 78
REMARK SMILES IDX 75 79 76 80 85 81 77 82 78 83 84 84 86 85 79 86 80 87 81 88
REMARK SMILES IDX 82 89 83 90 59 91 60 92 69 93 61 94 62 95 68 96 70 97 63 98
REMARK SMILES IDX 64 99 65 100 66 101 67 102
REMARK H PARENT 5 14 5 15 9 20 91 52 57 63
REMARK Flexibility Score: inf
ROOT
ATOM      1  C   UNL     1       2.909  -4.107   0.332  1.00  0.00     0.188 C 
ENDROOT
BRANCH   1   2
ATOM      2  C   UNL     1       3.629  -3.073  -0.559  1.00  0.00     0.188 C 
BRANCH   2   3
ATOM      3  O   UNL     1       4.963  -2.812  -0.138  1.00  0.00    -0.376 OA
BRANCH   3   4
ATOM      4  C   UNL     1       5.165  -1.690   0.711  1.00  0.00     0.202 C 
BRANCH   4   5
ATOM      5  C   UNL     1       4.230  -1.457   1.899  1.00  0.00     0.261 C 
BRANCH   5   6
ATOM      6  O   UNL     1       2.833  -1.686   1.642  1.00  0.00    -0.459 OA
BRANCH   6   7
ATOM      7  C   UNL     1       1.894  -0.733   1.426  1.00  0.00     0.367 C 
ATOM      8  O   UNL     1       2.151   0.438   1.187  1.00  0.00    -0.245 OA
BRANCH   7   9
ATOM      9  C   UNL     1       0.447  -1.365   1.516  1.00  0.00     0.191 C 
ATOM     10  C   UNL     1      -0.701  -0.501   2.057  1.00  0.00     0.092 C 
BRANCH   9  11
ATOM     11  C   UNL     1       0.053  -1.692   0.038  1.00  0.00     0.077 C 
ATOM     12  C   UNL     1       0.125  -0.483  -0.908  1.00  0.00     0.011 C 
ENDBRANCH   9  11
BRANCH   9  13
ATOM     13  N   UNL     1       0.438  -2.596   2.373  1.00  0.00    -0.325 N 
ATOM     14  H   UNL     1       0.917  -3.330   1.851  1.00  0.00     0.347 HD
ATOM     15  H   UNL     1      -0.549  -2.756   2.570  1.00  0.00     0.347 HD
BRANCH  13  16
ATOM     16  C   UNL     1       1.075  -2.528   3.725  1.00  0.00     0.362 C 
BRANCH  16  17
ATOM     17  C   UNL     1       0.388  -1.633   4.773  1.00  0.00     0.275 C 
ATOM     18  O   UNL     1      -0.658  -1.999   5.319  1.00  0.00    -0.268 OA
ATOM     19  N   UNL     1       0.913  -0.410   5.137  1.00  0.00    -0.349 N 
ATOM     20  H   UNL     1       0.606  -0.061   6.004  1.00  0.00     0.163 HD
BRANCH  19  21
ATOM     21  C   UNL     1       1.862   0.444   4.419  1.00  0.00     0.081 C 
ATOM     22  C   UNL     1       1.178   1.738   3.943  1.00  0.00     0.031 C 
BRANCH  21  23
ATOM     23  C   UNL     1       3.171   0.771   5.172  1.00  0.00     0.005 C 
ATOM     24  C   UNL     1       3.884  -0.501   5.631  1.00  0.00     0.009 C 
ATOM     25  C   UNL     1       4.106   1.614   4.281  1.00  0.00     0.009 C 
ENDBRANCH  21  23
ENDBRANCH  19  21
ENDBRANCH  16  17
ENDBRANCH  13  16
ENDBRANCH   9  13
ENDBRANCH   7   9
ENDBRANCH   6   7
ENDBRANCH   5   6
ENDBRANCH   4   5
ENDBRANCH   3   4
ENDBRANCH   2   3
ENDBRANCH   1   2
BRANCH   1  26
ATOM     26  O   UNL     1       3.530  -4.321   1.588  1.00  0.00    -0.377 OA
BRANCH  26  27
ATOM     27  C   UNL     1       4.623  -5.223   1.662  1.00  0.00     0.188 C 
BRANCH  27  28
ATOM     28  C   UNL     1       5.426  -5.619   0.404  1.00  0.00     0.188 C 
BRANCH  28  29
ATOM     29  O   UNL     1       4.659  -5.792  -0.783  1.00  0.00    -0.376 OA
BRANCH  29  30
ATOM     30  C   UNL     1       4.279  -7.109  -1.153  1.00  0.00     0.202 C 
BRANCH  30  31
ATOM     31  C   UNL     1       3.250  -7.809  -0.250  1.00  0.00     0.261 C 
BRANCH  31  32
ATOM     32  O   UNL     1       3.672  -8.053   1.099  1.00  0.00    -0.460 OA
BRANCH  32  33
ATOM     33  C   UNL     1       4.796  -8.772   1.270  1.00  0.00     0.338 C 
ATOM     34  O   UNL     1       5.470  -9.310   0.395  1.00  0.00    -0.246 OA
BRANCH  33  35
ATOM     35  C   UNL     1       5.213  -8.656   2.675  1.00  0.00     0.060 A 
ATOM     36  C   UNL     1       6.483  -8.137   2.958  1.00  0.00     0.016 A 
ATOM     37  C   UNL     1       4.369  -9.081   3.704  1.00  0.00     0.016 A 
ATOM     38  C   UNL     1       6.939  -8.101   4.272  1.00  0.00     0.010 A 
ATOM     39  C   UNL     1       4.837  -9.066   5.020  1.00  0.00     0.010 A 
ATOM     40  C   UNL     1       6.141  -8.623   5.299  1.00  0.00    -0.014 A 
BRANCH  40  41
ATOM     41  C   UNL     1       6.775  -8.934   6.602  1.00  0.00     0.031 A 
ATOM     42  C   UNL     1       7.291 -10.333   6.817  1.00  0.00     0.074 A 
ATOM     43  C   UNL     1       6.950  -7.988   7.541  1.00  0.00     0.049 A 
ATOM     44  N   UNL     1       7.892 -10.846   7.857  1.00  0.00    -0.248 NA
ATOM     45  C   UNL     1       7.104 -11.279   5.702  1.00  0.00     0.031 C 
ATOM     46  C   UNL     1       6.527  -6.594   7.428  1.00  0.00     0.029 A 
ATOM     47  N   UNL     1       7.533  -8.066   8.780  1.00  0.00    -0.354 N 
ATOM     48  C   UNL     1       8.168 -12.166   7.518  1.00  0.00     0.074 A 
ATOM     49  C   UNL     1       7.627 -12.390   6.197  1.00  0.00     0.031 C 
ATOM     50  C   UNL     1       6.852  -5.948   8.563  1.00  0.00     0.029 A 
ATOM     51  C   UNL     1       7.485  -6.888   9.487  1.00  0.00     0.049 A 
ATOM     52  H   UNL     1       7.946  -8.888   9.131  1.00  0.00     0.167 HD
ATOM     53  C   UNL     1       8.830 -13.103   8.236  1.00  0.00     0.037 A 
ATOM     54  C   UNL     1       7.891  -6.612  10.742  1.00  0.00     0.037 A 
ATOM     55  C   UNL     1       9.352 -12.881   9.558  1.00  0.00     0.049 A 
ATOM     56  C   UNL     1       8.559  -7.695  11.554  1.00  0.00     0.074 A 
ATOM     57  C   UNL     1      10.020 -13.769  10.382  1.00  0.00     0.029 A 
ATOM     58  N   UNL     1       9.261 -11.683  10.251  1.00  0.00    -0.354 N 
ATOM     59  N   UNL     1       8.824  -8.937  11.218  1.00  0.00    -0.248 NA
ATOM     60  C   UNL     1       8.993  -7.337  12.912  1.00  0.00     0.031 C 
ATOM     61  C   UNL     1      10.296 -13.121  11.590  1.00  0.00     0.029 A 
ATOM     62  C   UNL     1       9.848 -11.812  11.498  1.00  0.00     0.049 A 
ATOM     63  H   UNL     1       8.841 -10.861   9.908  1.00  0.00     0.167 HD
ATOM     64  C   UNL     1       9.480  -9.497  12.311  1.00  0.00     0.074 A 
ATOM     65  C   UNL     1       9.586  -8.454  13.310  1.00  0.00     0.031 C 
ATOM     66  C   UNL     1       9.952 -10.758  12.477  1.00  0.00     0.037 A 
BRANCH  53  67
ATOM     67  C   UNL     1       9.013 -14.456   7.607  1.00  0.00     0.058 A 
ATOM     68  C   UNL     1       9.895 -14.653   6.532  1.00  0.00     0.135 A 
ATOM     69  C   UNL     1       8.319 -15.574   8.098  1.00  0.00     0.135 A 
ATOM     70  F   UNL     1      10.565 -13.615   6.007  1.00  0.00    -0.206 F 
ATOM     71  C   UNL     1      10.068 -15.906   5.954  1.00  0.00     0.059 A 
ATOM     72  C   UNL     1       8.497 -16.841   7.552  1.00  0.00     0.059 A 
ATOM     73  F   UNL     1       7.457 -15.440   9.117  1.00  0.00    -0.206 F 
ATOM     74  C   UNL     1       9.366 -16.995   6.473  1.00  0.00     0.060 A 
BRANCH  74  75
ATOM     75  S   UNL     1       9.615 -18.617   5.721  1.00  0.00     0.124 S 
ATOM     76  O   UNL     1       8.926 -18.455   4.444  1.00  0.00    -0.237 OA
ATOM     77  O   UNL     1      11.070 -18.707   5.649  1.00  0.00    -0.237 OA
ATOM     78  O   UNL     1       8.979 -19.532   6.664  1.00  0.00    -0.744 OA
ENDBRANCH  74  75
ENDBRANCH  53  67
BRANCH  54  79
ATOM     79  C   UNL     1       7.662  -5.261  11.323  1.00  0.00     0.058 A 
ATOM     80  C   UNL     1       8.729  -4.402  11.626  1.00  0.00     0.135 A 
ATOM     81  C   UNL     1       6.364  -4.814  11.615  1.00  0.00     0.135 A 
ATOM     82  F   UNL     1       9.991  -4.787  11.376  1.00  0.00    -0.206 F 
ATOM     83  C   UNL     1       8.522  -3.161  12.220  1.00  0.00     0.059 A 
ATOM     84  C   UNL     1       6.128  -3.565  12.182  1.00  0.00     0.059 A 
ATOM     85  F   UNL     1       5.306  -5.591  11.336  1.00  0.00    -0.206 F 
ATOM     86  C   UNL     1       7.215  -2.752  12.495  1.00  0.00     0.060 A 
BRANCH  86  87
ATOM     87  S   UNL     1       6.953  -1.127  13.238  1.00  0.00     0.124 S 
ATOM     88  O   UNL     1       7.394  -1.356  14.609  1.00  0.00    -0.237 OA
ATOM     89  O   UNL     1       7.814  -0.274  12.424  1.00  0.00    -0.237 OA
ATOM     90  O   UNL     1       5.520  -0.906  13.063  1.00  0.00    -0.744 OA
ENDBRANCH  86  87
ENDBRANCH  54  79
BRANCH  66  91
ATOM     91  C   UNL     1      10.661 -11.069  13.767  1.00  0.00     0.058 A 
ATOM     92  C   UNL     1       9.972 -11.173  14.986  1.00  0.00     0.135 A 
ATOM     93  C   UNL     1      12.047 -11.300  13.778  1.00  0.00     0.135 A 
ATOM     94  F   UNL     1       8.647 -10.961  15.033  1.00  0.00    -0.206 F 
ATOM     95  C   UNL     1      10.636 -11.458  16.174  1.00  0.00     0.059 A 
ATOM     96  C   UNL     1      12.727 -11.617  14.949  1.00  0.00     0.059 A 
ATOM     97  F   UNL     1      12.753 -11.229  12.638  1.00  0.00    -0.206 F 
ATOM     98  C   UNL     1      12.015 -11.676  16.146  1.00  0.00     0.060 A 
BRANCH  98  99
ATOM     99  S   UNL     1      12.864 -12.053  17.694  1.00  0.00     0.124 S 
ATOM    100  O   UNL     1      12.880 -10.748  18.346  1.00  0.00    -0.237 OA
ATOM    101  O   UNL     1      11.987 -13.053  18.297  1.00  0.00    -0.237 OA
ATOM    102  O   UNL     1      14.164 -12.553  17.256  1.00  0.00    -0.744 OA
ENDBRANCH  98  99
ENDBRANCH  66  91
ENDBRANCH  40  41
ENDBRANCH  33  35
ENDBRANCH  32  33
ENDBRANCH  31  32
ENDBRANCH  30  31
ENDBRANCH  29  30
ENDBRANCH  28  29
ENDBRANCH  27  28
ENDBRANCH  26  27
ENDBRANCH   1  26
TORSDOF 29
