REMARK SMILES CSc1ccc(Cl)c(C(=O)N[C@@H](CO)C(=O)OCCOCCOCCOCCOC(=O)c2ccc(-c3c4nc(c(-c5c(F)cc(S(=O)(=O)[O-])cc5F)c5ccc([nH]5)c(-c5c(F)cc(S(=O)(=O)[O-])cc5F)c5nc(c(-c6c(F)cc(S(=O)(=O)[O-])cc6F)c6ccc3[nH]6)C=C5)C=C4)cc2)c1
REMARK SMILES IDX 23 1 22 2 21 3 20 4 19 5 18 6 17 7 15 8 16 9 12 10 11 11
REMARK SMILES IDX 9 12 10 13 8 15 3 16 4 17 98 18 5 19 6 20 7 21 2 22 1 23
REMARK SMILES IDX 13 24 14 25 24 27 25 28 26 29 27 30 28 31 29 32 30 33 31 34
REMARK SMILES IDX 32 35 33 36 97 37 34 38 96 39 35 40 36 41 37 42 90 43 38 44
REMARK SMILES IDX 95 45 89 46 91 47 39 48 94 49 88 50 87 51 40 53 74 54 53 55
REMARK SMILES IDX 73 56 54 57 57 58 72 59 92 60 55 61 56 62 71 64 93 65 58 66
REMARK SMILES IDX 41 67 42 68 51 69 43 70 44 71 50 72 52 73 45 74 46 75 47 76
REMARK SMILES IDX 48 77 49 78 75 79 76 80 85 81 77 82 78 83 84 84 86 85 79 86
REMARK SMILES IDX 80 87 81 88 82 89 83 90 59 91 60 92 69 93 61 94 62 95 68 96
REMARK SMILES IDX 70 97 63 98 64 99 65 100 66 101 67 102
REMARK H PARENT 11 14 14 26 91 52 57 63
REMARK Flexibility Score: inf
ROOT
ATOM      1  O   UNL     1       0.466   8.918   1.133  1.00  0.00    -0.377 OA
ENDROOT
BRANCH   1   2
ATOM      2  C   UNL     1       1.058   7.651   0.965  1.00  0.00     0.188 C 
BRANCH   2   3
ATOM      3  C   UNL     1       2.594   7.647   0.991  1.00  0.00     0.188 C 
BRANCH   3   4
ATOM      4  O   UNL     1       3.311   8.649   1.696  1.00  0.00    -0.376 OA
BRANCH   4   5
ATOM      5  C   UNL     1       3.072  10.033   1.463  1.00  0.00     0.202 C 
BRANCH   5   6
ATOM      6  C   UNL     1       2.766  10.612   0.070  1.00  0.00     0.261 C 
BRANCH   6   7
ATOM      7  O   UNL     1       1.962   9.778  -0.780  1.00  0.00    -0.462 OA
BRANCH   7   8
ATOM      8  C   UNL     1       2.564   9.368  -1.916  1.00  0.00     0.331 C 
ATOM      9  O   UNL     1       3.665   9.763  -2.296  1.00  0.00    -0.250 OA
BRANCH   8  10
ATOM     10  C   UNL     1       1.843   8.218  -2.639  1.00  0.00     0.218 C 
BRANCH  10  11
ATOM     11  N   UNL     1       0.582   7.570  -2.259  1.00  0.00    -0.337 N 
ATOM     12  C   UNL     1       0.156   6.254  -2.320  1.00  0.00     0.253 C 
ATOM     13  O   UNL     1      -1.069   6.104  -2.246  1.00  0.00    -0.269 OA
ATOM     14  H   UNL     1      -0.089   8.190  -1.890  1.00  0.00     0.164 HD
BRANCH  12  15
ATOM     15  C   UNL     1       1.008   4.997  -2.291  1.00  0.00     0.059 A 
ATOM     16  C   UNL     1       0.936   2.608  -1.566  1.00  0.00     0.008 A 
ATOM     17  C   UNL     1       2.285   2.474  -1.861  1.00  0.00     0.016 A 
ATOM     18  C   UNL     1       0.331   3.867  -1.743  1.00  0.00     0.030 A 
ATOM     19  C   UNL     1       2.970   3.546  -2.425  1.00  0.00     0.022 A 
ATOM     20  C   UNL     1       2.317   4.758  -2.729  1.00  0.00     0.053 A 
ATOM     21  Cl  UNL     1       3.181   5.677  -3.911  1.00  0.00    -0.083 Cl
BRANCH  16  22
ATOM     22  S   UNL     1      -0.088   1.201  -1.156  1.00  0.00    -0.130 SA
ATOM     23  C   UNL     1       0.921   0.311   0.060  1.00  0.00     0.091 C 
ENDBRANCH  16  22
ENDBRANCH  12  15
ENDBRANCH  10  11
BRANCH  10  24
ATOM     24  C   UNL     1       1.703   8.661  -4.100  1.00  0.00     0.193 C 
BRANCH  24  25
ATOM     25  O   UNL     1       0.760   9.730  -4.220  1.00  0.00    -0.394 OA
ATOM     26  H   UNL     1      -0.109   9.431  -3.909  1.00  0.00     0.210 HD
ENDBRANCH  24  25
ENDBRANCH  10  24
ENDBRANCH   8  10
ENDBRANCH   7   8
ENDBRANCH   6   7
ENDBRANCH   5   6
ENDBRANCH   4   5
ENDBRANCH   3   4
ENDBRANCH   2   3
ENDBRANCH   1   2
BRANCH   1  27
ATOM     27  C   UNL     1       0.007   9.265   2.430  1.00  0.00     0.188 C 
BRANCH  27  28
ATOM     28  C   UNL     1       0.690   8.637   3.666  1.00  0.00     0.188 C 
BRANCH  28  29
ATOM     29  O   UNL     1       0.902   7.234   3.587  1.00  0.00    -0.376 OA
BRANCH  29  30
ATOM     30  C   UNL     1      -0.067   6.363   4.154  1.00  0.00     0.202 C 
BRANCH  30  31
ATOM     31  C   UNL     1      -1.490   6.366   3.569  1.00  0.00     0.261 C 
BRANCH  31  32
ATOM     32  O   UNL     1      -2.200   7.613   3.590  1.00  0.00    -0.460 OA
BRANCH  32  33
ATOM     33  C   UNL     1      -2.363   8.238   4.774  1.00  0.00     0.338 C 
ATOM     34  O   UNL     1      -2.025   7.824   5.872  1.00  0.00    -0.246 OA
BRANCH  33  35
ATOM     35  C   UNL     1      -2.827   9.615   4.499  1.00  0.00     0.060 A 
ATOM     36  C   UNL     1      -2.052  10.694   4.945  1.00  0.00     0.016 A 
ATOM     37  C   UNL     1      -4.010   9.842   3.791  1.00  0.00     0.016 A 
ATOM     38  C   UNL     1      -2.478  12.004   4.722  1.00  0.00     0.010 A 
ATOM     39  C   UNL     1      -4.449  11.155   3.590  1.00  0.00     0.010 A 
ATOM     40  C   UNL     1      -3.705  12.239   4.089  1.00  0.00    -0.014 A 
BRANCH  40  41
ATOM     41  C   UNL     1      -4.310  13.593   4.140  1.00  0.00     0.031 A 
ATOM     42  C   UNL     1      -5.350  13.866   5.194  1.00  0.00     0.074 A 
ATOM     43  C   UNL     1      -3.941  14.565   3.288  1.00  0.00     0.049 A 
ATOM     44  N   UNL     1      -6.058  14.943   5.406  1.00  0.00    -0.248 NA
ATOM     45  C   UNL     1      -5.629  12.767   6.133  1.00  0.00     0.031 C 
ATOM     46  C   UNL     1      -2.918  14.438   2.252  1.00  0.00     0.029 A 
ATOM     47  N   UNL     1      -4.399  15.852   3.153  1.00  0.00    -0.354 N 
ATOM     48  C   UNL     1      -6.877  14.649   6.490  1.00  0.00     0.074 A 
ATOM     49  C   UNL     1      -6.599  13.282   6.872  1.00  0.00     0.031 C 
ATOM     50  C   UNL     1      -2.839  15.597   1.574  1.00  0.00     0.029 A 
ATOM     51  C   UNL     1      -3.830  16.534   2.105  1.00  0.00     0.049 A 
ATOM     52  H   UNL     1      -5.073  16.250   3.752  1.00  0.00     0.167 HD
ATOM     53  C   UNL     1      -7.776  15.447   7.114  1.00  0.00     0.037 A 
ATOM     54  C   UNL     1      -4.098  17.761   1.613  1.00  0.00     0.037 A 
ATOM     55  C   UNL     1      -8.052  16.804   6.722  1.00  0.00     0.049 A 
ATOM     56  C   UNL     1      -5.150  18.611   2.278  1.00  0.00     0.074 A 
ATOM     57  C   UNL     1      -8.926  17.705   7.303  1.00  0.00     0.029 A 
ATOM     58  N   UNL     1      -7.471  17.451   5.640  1.00  0.00    -0.354 N 
ATOM     59  N   UNL     1      -5.898  18.335   3.322  1.00  0.00    -0.248 NA
ATOM     60  C   UNL     1      -5.394  19.942   1.704  1.00  0.00     0.031 C 
ATOM     61  C   UNL     1      -8.923  18.873   6.534  1.00  0.00     0.029 A 
ATOM     62  C   UNL     1      -7.993  18.729   5.516  1.00  0.00     0.049 A 
ATOM     63  H   UNL     1      -6.789  17.060   5.048  1.00  0.00     0.167 HD
ATOM     64  C   UNL     1      -6.677  19.467   3.546  1.00  0.00     0.074 A 
ATOM     65  C   UNL     1      -6.303  20.434   2.535  1.00  0.00     0.031 C 
ATOM     66  C   UNL     1      -7.611  19.686   4.506  1.00  0.00     0.037 A 
BRANCH  53  67
ATOM     67  C   UNL     1      -8.557  14.852   8.255  1.00  0.00     0.058 A 
ATOM     68  C   UNL     1      -7.954  14.517   9.479  1.00  0.00     0.135 A 
ATOM     69  C   UNL     1      -9.936  14.620   8.123  1.00  0.00     0.135 A 
ATOM     70  F   UNL     1      -6.635  14.698   9.656  1.00  0.00    -0.206 F 
ATOM     71  C   UNL     1      -8.681  13.938  10.514  1.00  0.00     0.059 A 
ATOM     72  C   UNL     1     -10.690  14.074   9.158  1.00  0.00     0.059 A 
ATOM     73  F   UNL     1     -10.566  14.919   6.976  1.00  0.00    -0.206 F 
ATOM     74  C   UNL     1     -10.049  13.719  10.343  1.00  0.00     0.060 A 
BRANCH  74  75
ATOM     75  S   UNL     1     -10.975  12.954  11.690  1.00  0.00     0.124 S 
ATOM     76  O   UNL     1     -10.475  11.583  11.646  1.00  0.00    -0.237 OA
ATOM     77  O   UNL     1     -10.556  13.744  12.844  1.00  0.00    -0.237 OA
ATOM     78  O   UNL     1     -12.367  13.126  11.288  1.00  0.00    -0.744 OA
ENDBRANCH  74  75
ENDBRANCH  53  67
BRANCH  54  79
ATOM     79  C   UNL     1      -3.361  18.253   0.417  1.00  0.00     0.058 A 
ATOM     80  C   UNL     1      -2.433  19.300   0.513  1.00  0.00     0.135 A 
ATOM     81  C   UNL     1      -3.554  17.667  -0.845  1.00  0.00     0.135 A 
ATOM     82  F   UNL     1      -2.224  19.904   1.692  1.00  0.00    -0.206 F 
ATOM     83  C   UNL     1      -1.724  19.750  -0.596  1.00  0.00     0.059 A 
ATOM     84  C   UNL     1      -2.837  18.080  -1.963  1.00  0.00     0.059 A 
ATOM     85  F   UNL     1      -4.428  16.658  -0.991  1.00  0.00    -0.206 F 
ATOM     86  C   UNL     1      -1.925  19.126  -1.829  1.00  0.00     0.060 A 
BRANCH  86  87
ATOM     87  S   UNL     1      -0.940  19.667  -3.242  1.00  0.00     0.124 S 
ATOM     88  O   UNL     1      -1.504  20.986  -3.507  1.00  0.00    -0.237 OA
ATOM     89  O   UNL     1       0.412  19.649  -2.693  1.00  0.00    -0.237 OA
ATOM     90  O   UNL     1      -1.213  18.649  -4.252  1.00  0.00    -0.744 OA
ENDBRANCH  86  87
ENDBRANCH  54  79
BRANCH  66  91
ATOM     91  C   UNL     1      -8.274  21.039   4.544  1.00  0.00     0.058 A 
ATOM     92  C   UNL     1      -9.198  21.444   3.568  1.00  0.00     0.135 A 
ATOM     93  C   UNL     1      -8.026  21.918   5.613  1.00  0.00     0.135 A 
ATOM     94  F   UNL     1      -9.470  20.648   2.523  1.00  0.00    -0.206 F 
ATOM     95  C   UNL     1      -9.835  22.680   3.638  1.00  0.00     0.059 A 
ATOM     96  C   UNL     1      -8.675  23.144   5.720  1.00  0.00     0.059 A 
ATOM     97  F   UNL     1      -7.161  21.578   6.581  1.00  0.00    -0.206 F 
ATOM     98  C   UNL     1      -9.570  23.522   4.720  1.00  0.00     0.060 A 
BRANCH  98  99
ATOM     99  S   UNL     1     -10.430  25.107   4.816  1.00  0.00     0.124 S 
ATOM    100  O   UNL     1      -9.781  25.859   3.747  1.00  0.00    -0.237 OA
ATOM    101  O   UNL     1     -11.816  24.724   4.571  1.00  0.00    -0.237 OA
ATOM    102  O   UNL     1     -10.143  25.569   6.171  1.00  0.00    -0.744 OA
ENDBRANCH  98  99
ENDBRANCH  66  91
ENDBRANCH  40  41
ENDBRANCH  33  35
ENDBRANCH  32  33
ENDBRANCH  31  32
ENDBRANCH  30  31
ENDBRANCH  29  30
ENDBRANCH  28  29
ENDBRANCH  27  28
ENDBRANCH   1  27
TORSDOF 28
