REMARK SMILES Cc1nc(COc2ccc(/C=C3\CCc4oc(C(=O)OCCOCCOCCOCCOC(=O)c5ccc(-c6c7nc(c(-c8c(F)cc(S(=O)(=O)[O-])cc8F)c8ccc([nH]8)c(-c8c(F)cc(S(=O)(=O)[O-])cc8F)c8nc(c(-c9c(F)cc(S(=O)(=O)[O-])cc9F)c9ccc6[nH]9)C=C8)C=C7)cc5)c(C)c4C3=O)cc2)no1
REMARK SMILES IDX 25 1 24 2 23 3 22 4 21 5 20 6 18 7 19 8 17 9 11 10 12 11
REMARK SMILES IDX 13 12 104 13 14 14 103 15 105 16 15 17 101 18 16 19 102 20
REMARK SMILES IDX 10 21 7 22 8 23 107 24 9 25 106 26 6 27 5 28 4 29 1 30 2 31
REMARK SMILES IDX 3 32 109 33 108 34 26 35 27 36 28 37 29 38 30 39 31 40 32 41
REMARK SMILES IDX 33 42 34 43 35 44 36 45 100 46 37 47 99 48 38 49 39 50 40 51
REMARK SMILES IDX 93 52 41 53 98 54 92 55 94 56 42 57 97 58 91 59 90 60 43 62
REMARK SMILES IDX 77 63 56 64 76 65 57 66 60 67 75 68 95 69 58 70 59 71 74 73
REMARK SMILES IDX 96 74 61 75 44 76 45 77 54 78 46 79 47 80 53 81 55 82 48 83
REMARK SMILES IDX 49 84 50 85 51 86 52 87 78 88 79 89 88 90 80 91 81 92 87 93
REMARK SMILES IDX 89 94 82 95 83 96 84 97 85 98 86 99 62 100 63 101 72 102
REMARK SMILES IDX 64 103 65 104 71 105 73 106 66 107 67 108 68 109 69 110
REMARK SMILES IDX 70 111
REMARK H PARENT 94 61 60 72
REMARK Flexibility Score: inf
ROOT
ATOM      1  C   UNL     1       5.420   2.854  13.388  1.00  0.00     0.188 C 
ENDROOT
BRANCH   1   2
ATOM      2  C   UNL     1       4.536   2.024  14.339  1.00  0.00     0.188 C 
BRANCH   2   3
ATOM      3  O   UNL     1       5.191   1.241  15.317  1.00  0.00    -0.376 OA
BRANCH   3   4
ATOM      4  C   UNL     1       5.902   0.054  15.033  1.00  0.00     0.202 C 
BRANCH   4   5
ATOM      5  C   UNL     1       6.182  -0.543  13.644  1.00  0.00     0.261 C 
BRANCH   5   6
ATOM      6  O   UNL     1       5.505  -0.000  12.521  1.00  0.00    -0.457 OA
BRANCH   6   7
ATOM      7  C   UNL     1       4.204  -0.326  12.352  1.00  0.00     0.374 C 
ATOM      8  O   UNL     1       3.568  -1.093  13.077  1.00  0.00    -0.242 OA
BRANCH   7   9
ATOM      9  C   UNL     1       3.664   0.490  11.291  1.00  0.00     0.215 A 
ATOM     10  C   UNL     1       1.411   2.006   6.526  1.00  0.00     0.016 C 
ATOM     11  C   UNL     1       2.041   2.555   7.582  1.00  0.00     0.001 C 
ATOM     12  C   UNL     1       3.394   3.224   7.668  1.00  0.00     0.048 C 
ATOM     13  C   UNL     1       1.447   2.258   8.944  1.00  0.00     0.192 C 
ATOM     14  C   UNL     1       4.407   2.203   8.223  1.00  0.00     0.081 C 
ATOM     15  C   UNL     1       2.457   1.665   9.809  1.00  0.00     0.067 A 
ATOM     16  O   UNL     1       0.267   2.400   9.229  1.00  0.00    -0.289 OA
ATOM     17  C   UNL     1       3.777   1.593   9.419  1.00  0.00     0.116 A 
ATOM     18  C   UNL     1       2.423   1.105  11.117  1.00  0.00     0.014 A 
ATOM     19  O   UNL     1       4.509   0.854  10.269  1.00  0.00    -0.453 OA
ATOM     20  C   UNL     1       1.310   1.208  12.095  1.00  0.00     0.049 C 
BRANCH  10  21
ATOM     21  C   UNL     1       1.863   1.854   5.125  1.00  0.00    -0.025 A 
ATOM     22  C   UNL     1       2.602   1.360   2.428  1.00  0.00     0.120 A 
ATOM     23  C   UNL     1       3.548   1.771   3.354  1.00  0.00     0.047 A 
ATOM     24  C   UNL     1       1.293   1.156   2.856  1.00  0.00     0.047 A 
ATOM     25  C   UNL     1       3.185   1.997   4.686  1.00  0.00     0.012 A 
ATOM     26  C   UNL     1       0.926   1.411   4.185  1.00  0.00     0.012 A 
BRANCH  22  27
ATOM     27  O   UNL     1       3.079   1.068   1.182  1.00  0.00    -0.485 OA
BRANCH  27  28
ATOM     28  C   UNL     1       2.295   1.550   0.075  1.00  0.00     0.310 C 
BRANCH  28  29
ATOM     29  C   UNL     1       1.134   0.684  -0.273  1.00  0.00     0.209 A 
ATOM     30  C   UNL     1      -2.304  -0.162  -0.184  1.00  0.00     0.114 C 
ATOM     31  C   UNL     1      -0.855   0.045  -0.329  1.00  0.00     0.223 A 
ATOM     32  N   UNL     1      -0.159   1.149  -0.200  1.00  0.00    -0.193 NA
ATOM     33  O   UNL     1      -0.087  -1.062  -0.538  1.00  0.00    -0.340 OA
ATOM     34  N   UNL     1       1.242  -0.632  -0.513  1.00  0.00    -0.059 NA
ENDBRANCH  28  29
ENDBRANCH  27  28
ENDBRANCH  22  27
ENDBRANCH  10  21
ENDBRANCH   7   9
ENDBRANCH   6   7
ENDBRANCH   5   6
ENDBRANCH   4   5
ENDBRANCH   3   4
ENDBRANCH   2   3
ENDBRANCH   1   2
BRANCH   1  35
ATOM     35  O   UNL     1       6.787   2.488  13.410  1.00  0.00    -0.377 OA
BRANCH  35  36
ATOM     36  C   UNL     1       7.607   2.995  14.460  1.00  0.00     0.188 C 
BRANCH  36  37
ATOM     37  C   UNL     1       7.034   3.418  15.843  1.00  0.00     0.188 C 
BRANCH  37  38
ATOM     38  O   UNL     1       5.683   3.854  15.848  1.00  0.00    -0.376 OA
BRANCH  38  39
ATOM     39  C   UNL     1       5.287   5.197  16.040  1.00  0.00     0.202 C 
BRANCH  39  40
ATOM     40  C   UNL     1       5.672   6.197  14.961  1.00  0.00     0.261 C 
BRANCH  40  41
ATOM     41  O   UNL     1       6.977   5.985  14.473  1.00  0.00    -0.460 OA
BRANCH  41  42
ATOM     42  C   UNL     1       7.949   6.270  15.356  1.00  0.00     0.338 C 
ATOM     43  O   UNL     1       7.825   6.506  16.551  1.00  0.00    -0.246 OA
BRANCH  42  44
ATOM     44  C   UNL     1       9.198   6.382  14.614  1.00  0.00     0.060 A 
ATOM     45  C   UNL     1      10.335   6.624  15.385  1.00  0.00     0.016 A 
ATOM     46  C   UNL     1       9.090   6.740  13.262  1.00  0.00     0.016 A 
ATOM     47  C   UNL     1      11.238   7.528  14.896  1.00  0.00     0.010 A 
ATOM     48  C   UNL     1       9.952   7.686  12.804  1.00  0.00     0.010 A 
ATOM     49  C   UNL     1      10.953   8.128  13.669  1.00  0.00    -0.014 A 
BRANCH  49  50
ATOM     50  C   UNL     1      11.791   9.206  13.219  1.00  0.00     0.031 A 
ATOM     51  C   UNL     1      13.053   8.700  12.641  1.00  0.00     0.074 A 
ATOM     52  C   UNL     1      11.311  10.464  13.209  1.00  0.00     0.049 A 
ATOM     53  N   UNL     1      14.255   8.927  13.050  1.00  0.00    -0.248 NA
ATOM     54  C   UNL     1      12.961   7.625  11.630  1.00  0.00     0.031 C 
ATOM     55  C   UNL     1       9.957  10.910  13.562  1.00  0.00     0.029 A 
ATOM     56  N   UNL     1      11.886  11.596  12.733  1.00  0.00    -0.354 N 
ATOM     57  C   UNL     1      15.069   8.237  12.160  1.00  0.00     0.074 A 
ATOM     58  C   UNL     1      14.238   7.272  11.501  1.00  0.00     0.031 C 
ATOM     59  C   UNL     1       9.755  12.150  13.064  1.00  0.00     0.029 A 
ATOM     60  C   UNL     1      10.980  12.612  12.440  1.00  0.00     0.049 A 
ATOM     61  H   UNL     1      12.858  11.691  12.607  1.00  0.00     0.167 HD
ATOM     62  C   UNL     1      16.275   8.742  11.796  1.00  0.00     0.037 A 
ATOM     63  C   UNL     1      11.225  13.663  11.613  1.00  0.00     0.037 A 
ATOM     64  C   UNL     1      16.745   9.702  12.762  1.00  0.00     0.049 A 
ATOM     65  C   UNL     1      12.711  13.775  11.500  1.00  0.00     0.074 A 
ATOM     66  C   UNL     1      16.985   9.645  14.123  1.00  0.00     0.029 A 
ATOM     67  N   UNL     1      16.634  11.037  12.450  1.00  0.00    -0.354 N 
ATOM     68  N   UNL     1      13.488  14.096  12.502  1.00  0.00    -0.248 NA
ATOM     69  C   UNL     1      13.366  13.043  10.423  1.00  0.00     0.031 C 
ATOM     70  C   UNL     1      16.541  10.899  14.630  1.00  0.00     0.029 A 
ATOM     71  C   UNL     1      16.131  11.683  13.552  1.00  0.00     0.049 A 
ATOM     72  H   UNL     1      16.873  11.454  11.591  1.00  0.00     0.167 HD
ATOM     73  C   UNL     1      14.589  13.255  12.387  1.00  0.00     0.074 A 
ATOM     74  C   UNL     1      14.492  12.682  11.047  1.00  0.00     0.031 C 
ATOM     75  C   UNL     1      15.304  12.870  13.486  1.00  0.00     0.037 A 
BRANCH  62  76
ATOM     76  C   UNL     1      16.799   8.665  10.384  1.00  0.00     0.058 A 
ATOM     77  C   UNL     1      18.124   9.062  10.130  1.00  0.00     0.135 A 
ATOM     78  C   UNL     1      15.986   8.484   9.239  1.00  0.00     0.135 A 
ATOM     79  F   UNL     1      18.979   9.272  11.144  1.00  0.00    -0.206 F 
ATOM     80  C   UNL     1      18.584   9.334   8.843  1.00  0.00     0.059 A 
ATOM     81  C   UNL     1      16.441   8.689   7.946  1.00  0.00     0.059 A 
ATOM     82  F   UNL     1      14.681   8.197   9.311  1.00  0.00    -0.206 F 
ATOM     83  C   UNL     1      17.727   9.159   7.759  1.00  0.00     0.060 A 
BRANCH  83  84
ATOM     84  S   UNL     1      18.278   9.615   6.109  1.00  0.00     0.124 S 
ATOM     85  O   UNL     1      18.349  11.067   6.221  1.00  0.00    -0.237 OA
ATOM     86  O   UNL     1      19.554   8.914   6.015  1.00  0.00    -0.237 OA
ATOM     87  O   UNL     1      17.219   9.097   5.247  1.00  0.00    -0.744 OA
ENDBRANCH  83  84
ENDBRANCH  62  76
BRANCH  63  88
ATOM     88  C   UNL     1      10.281  14.272  10.628  1.00  0.00     0.058 A 
ATOM     89  C   UNL     1      10.620  15.442   9.923  1.00  0.00     0.135 A 
ATOM     90  C   UNL     1       9.137  13.588  10.162  1.00  0.00     0.135 A 
ATOM     91  F   UNL     1      11.701  16.154  10.278  1.00  0.00    -0.206 F 
ATOM     92  C   UNL     1       9.904  15.874   8.797  1.00  0.00     0.059 A 
ATOM     93  C   UNL     1       8.399  14.009   9.058  1.00  0.00     0.059 A 
ATOM     94  F   UNL     1       8.744  12.427  10.702  1.00  0.00    -0.206 F 
ATOM     95  C   UNL     1       8.805  15.136   8.359  1.00  0.00     0.060 A 
BRANCH  95  96
ATOM     96  S   UNL     1       7.991  15.562   6.801  1.00  0.00     0.124 S 
ATOM     97  O   UNL     1       7.304  16.801   7.148  1.00  0.00    -0.237 OA
ATOM     98  O   UNL     1       9.121  15.691   5.888  1.00  0.00    -0.237 OA
ATOM     99  O   UNL     1       7.120  14.416   6.550  1.00  0.00    -0.744 OA
ENDBRANCH  95  96
ENDBRANCH  63  88
BRANCH  75 100
ATOM    100  C   UNL     1      15.053  13.582  14.793  1.00  0.00     0.058 A 
ATOM    101  C   UNL     1      13.831  13.558  15.490  1.00  0.00     0.135 A 
ATOM    102  C   UNL     1      16.147  14.167  15.446  1.00  0.00     0.135 A 
ATOM    103  F   UNL     1      12.765  12.918  14.990  1.00  0.00    -0.206 F 
ATOM    104  C   UNL     1      13.692  14.131  16.756  1.00  0.00     0.059 A 
ATOM    105  C   UNL     1      16.042  14.713  16.722  1.00  0.00     0.059 A 
ATOM    106  F   UNL     1      17.358  14.161  14.865  1.00  0.00    -0.206 F 
ATOM    107  C   UNL     1      14.806  14.706  17.365  1.00  0.00     0.060 A 
BRANCH 107 108
ATOM    108  S   UNL     1      14.648  15.384  19.031  1.00  0.00     0.124 S 
ATOM    109  O   UNL     1      13.863  16.591  18.796  1.00  0.00    -0.237 OA
ATOM    110  O   UNL     1      13.964  14.312  19.748  1.00  0.00    -0.237 OA
ATOM    111  O   UNL     1      16.032  15.611  19.441  1.00  0.00    -0.744 OA
ENDBRANCH 107 108
ENDBRANCH  75 100
ENDBRANCH  49  50
ENDBRANCH  42  44
ENDBRANCH  41  42
ENDBRANCH  40  41
ENDBRANCH  39  40
ENDBRANCH  38  39
ENDBRANCH  37  38
ENDBRANCH  36  37
ENDBRANCH  35  36
ENDBRANCH   1  35
TORSDOF 27
