REMARK SMILES Cc1ccc(F)cc1NC(=O)c1nn(C)cc1C(=O)OCCOCCOCCOCCOC(=O)c1ccc(-c2c3nc(c(-c4c(F)cc(S(=O)(=O)[O-])cc4F)c4ccc([nH]4)c(-c4c(F)cc(S(=O)(=O)[O-])cc4F)c4nc(c(-c5c(F)cc(S(=O)(=O)[O-])cc5F)c5ccc2[nH]5)C=C4)C=C3)cc1
REMARK SMILES IDX 27 1 26 2 25 3 24 4 23 5 22 6 21 7 20 8 18 9 19 10 17 11
REMARK SMILES IDX 12 12 13 13 14 14 16 15 15 16 10 17 9 18 11 20 8 21 1 22
REMARK SMILES IDX 2 23 3 24 4 25 7 26 5 27 6 28 28 29 29 30 30 31 31 32 32 33
REMARK SMILES IDX 33 34 34 35 35 36 36 37 100 38 37 39 99 40 38 41 39 42 40 43
REMARK SMILES IDX 93 44 41 45 98 46 92 47 94 48 42 49 97 50 91 51 90 52 43 54
REMARK SMILES IDX 77 55 56 56 76 57 57 58 60 59 75 60 95 61 58 62 59 63 74 65
REMARK SMILES IDX 96 66 61 67 44 68 45 69 54 70 46 71 47 72 53 73 55 74 48 75
REMARK SMILES IDX 49 76 50 77 51 78 52 79 78 80 79 81 88 82 80 83 81 84 87 85
REMARK SMILES IDX 89 86 82 87 83 88 84 89 85 90 86 91 62 92 63 93 72 94 64 95
REMARK SMILES IDX 65 96 71 97 73 98 66 99 67 100 68 101 69 102 70 103
REMARK H PARENT 9 19 94 53 60 64
REMARK Flexibility Score: inf
ROOT
ATOM      1  C   UNL     1      -1.308   2.123  -1.297  1.00  0.00     0.188 C 
ENDROOT
BRANCH   1   2
ATOM      2  O   UNL     1      -0.887   1.059  -2.144  1.00  0.00    -0.377 OA
BRANCH   2   3
ATOM      3  C   UNL     1       0.121   0.209  -1.636  1.00  0.00     0.188 C 
BRANCH   3   4
ATOM      4  C   UNL     1       0.900  -0.546  -2.723  1.00  0.00     0.188 C 
BRANCH   4   5
ATOM      5  O   UNL     1       0.760  -0.144  -4.076  1.00  0.00    -0.376 OA
BRANCH   5   6
ATOM      6  C   UNL     1      -0.556  -0.064  -4.619  1.00  0.00     0.202 C 
BRANCH   6   7
ATOM      7  C   UNL     1      -1.457  -1.308  -4.552  1.00  0.00     0.261 C 
BRANCH   7   8
ATOM      8  O   UNL     1      -1.759  -1.821  -3.235  1.00  0.00    -0.460 OA
BRANCH   8   9
ATOM      9  C   UNL     1      -1.186  -3.023  -2.916  1.00  0.00     0.342 C 
ATOM     10  O   UNL     1      -0.348  -3.593  -3.603  1.00  0.00    -0.246 OA
BRANCH   9  11
ATOM     11  C   UNL     1      -1.634  -3.572  -1.652  1.00  0.00     0.111 A 
ATOM     12  C   UNL     1      -0.860  -4.270  -0.671  1.00  0.00     0.165 A 
ATOM     13  N   UNL     1      -1.661  -4.826   0.262  1.00  0.00    -0.167 NA
ATOM     14  N   UNL     1      -2.878  -4.325  -0.007  1.00  0.00    -0.274 N 
ATOM     15  C   UNL     1      -2.918  -3.566  -1.137  1.00  0.00     0.125 A 
ATOM     16  C   UNL     1      -3.957  -4.596   0.913  1.00  0.00     0.173 C 
BRANCH  12  17
ATOM     17  C   UNL     1       0.606  -4.382  -0.572  1.00  0.00     0.277 C 
ATOM     18  N   UNL     1       1.329  -3.447   0.171  1.00  0.00    -0.320 N 
ATOM     19  H   UNL     1       2.306  -3.568   0.145  1.00  0.00     0.170 HD
ATOM     20  O   UNL     1       1.240  -5.243  -1.183  1.00  0.00    -0.267 OA
BRANCH  18  21
ATOM     21  C   UNL     1       0.891  -2.357   0.952  1.00  0.00     0.047 A 
ATOM     22  C   UNL     1       3.099  -1.072   0.550  1.00  0.00     0.046 C 
ATOM     23  C   UNL     1       1.696  -1.208   1.076  1.00  0.00    -0.027 A 
ATOM     24  C   UNL     1       1.105  -0.037   1.580  1.00  0.00     0.008 A 
ATOM     25  C   UNL     1      -0.239  -0.012   1.943  1.00  0.00     0.039 A 
ATOM     26  C   UNL     1      -0.369  -2.355   1.554  1.00  0.00     0.065 A 
ATOM     27  C   UNL     1      -0.957  -1.181   1.972  1.00  0.00     0.125 A 
ATOM     28  F   UNL     1      -2.240  -1.172   2.356  1.00  0.00    -0.207 F 
ENDBRANCH  18  21
ENDBRANCH  12  17
ENDBRANCH   9  11
ENDBRANCH   8   9
ENDBRANCH   7   8
ENDBRANCH   6   7
ENDBRANCH   5   6
ENDBRANCH   4   5
ENDBRANCH   3   4
ENDBRANCH   2   3
ENDBRANCH   1   2
BRANCH   1  29
ATOM     29  C   UNL     1      -0.155   3.043  -0.878  1.00  0.00     0.188 C 
BRANCH  29  30
ATOM     30  O   UNL     1       0.360   2.614   0.388  1.00  0.00    -0.376 OA
BRANCH  30  31
ATOM     31  C   UNL     1       0.379   3.598   1.421  1.00  0.00     0.202 C 
BRANCH  31  32
ATOM     32  C   UNL     1      -0.920   3.661   2.241  1.00  0.00     0.261 C 
BRANCH  32  33
ATOM     33  O   UNL     1      -2.086   3.847   1.438  1.00  0.00    -0.460 OA
BRANCH  33  34
ATOM     34  C   UNL     1      -2.141   5.057   0.849  1.00  0.00     0.338 C 
ATOM     35  O   UNL     1      -1.330   5.968   0.949  1.00  0.00    -0.246 OA
BRANCH  34  36
ATOM     36  C   UNL     1      -3.252   5.057  -0.095  1.00  0.00     0.060 A 
ATOM     37  C   UNL     1      -2.980   5.368  -1.432  1.00  0.00     0.016 A 
ATOM     38  C   UNL     1      -4.552   4.838   0.364  1.00  0.00     0.016 A 
ATOM     39  C   UNL     1      -4.030   5.539  -2.315  1.00  0.00     0.010 A 
ATOM     40  C   UNL     1      -5.606   5.033  -0.515  1.00  0.00     0.010 A 
ATOM     41  C   UNL     1      -5.339   5.439  -1.833  1.00  0.00    -0.014 A 
BRANCH  41  42
ATOM     42  C   UNL     1      -6.432   5.995  -2.641  1.00  0.00     0.031 A 
ATOM     43  C   UNL     1      -6.892   7.387  -2.328  1.00  0.00     0.074 A 
ATOM     44  C   UNL     1      -6.971   5.261  -3.623  1.00  0.00     0.049 A 
ATOM     45  N   UNL     1      -7.894   8.057  -2.822  1.00  0.00    -0.248 NA
ATOM     46  C   UNL     1      -6.120   8.120  -1.306  1.00  0.00     0.031 C 
ATOM     47  C   UNL     1      -6.536   3.918  -4.005  1.00  0.00     0.029 A 
ATOM     48  N   UNL     1      -8.014   5.537  -4.459  1.00  0.00    -0.354 N 
ATOM     49  C   UNL     1      -7.880   9.284  -2.172  1.00  0.00     0.074 A 
ATOM     50  C   UNL     1      -6.795   9.254  -1.218  1.00  0.00     0.031 C 
ATOM     51  C   UNL     1      -7.336   3.469  -4.986  1.00  0.00     0.029 A 
ATOM     52  C   UNL     1      -8.355   4.479  -5.262  1.00  0.00     0.049 A 
ATOM     53  H   UNL     1      -8.475   6.407  -4.483  1.00  0.00     0.167 HD
ATOM     54  C   UNL     1      -8.701  10.341  -2.367  1.00  0.00     0.037 A 
ATOM     55  C   UNL     1      -9.404   4.338  -6.091  1.00  0.00     0.037 A 
ATOM     56  C   UNL     1      -9.785  10.321  -3.313  1.00  0.00     0.049 A 
ATOM     57  C   UNL     1     -10.354   5.495  -6.240  1.00  0.00     0.074 A 
ATOM     58  C   UNL     1     -10.694  11.319  -3.608  1.00  0.00     0.029 A 
ATOM     59  N   UNL     1     -10.111   9.230  -4.112  1.00  0.00    -0.354 N 
ATOM     60  N   UNL     1     -10.332   6.662  -5.636  1.00  0.00    -0.248 NA
ATOM     61  C   UNL     1     -11.463   5.324  -7.184  1.00  0.00     0.031 C 
ATOM     62  C   UNL     1     -11.604  10.811  -4.542  1.00  0.00     0.029 A 
ATOM     63  C   UNL     1     -11.224   9.520  -4.880  1.00  0.00     0.049 A 
ATOM     64  H   UNL     1      -9.621   8.376  -4.128  1.00  0.00     0.167 HD
ATOM     65  C   UNL     1     -11.413   7.374  -6.140  1.00  0.00     0.074 A 
ATOM     66  C   UNL     1     -12.056   6.509  -7.112  1.00  0.00     0.031 C 
ATOM     67  C   UNL     1     -11.838   8.626  -5.834  1.00  0.00     0.037 A 
BRANCH  54  68
ATOM     68  C   UNL     1      -8.476  11.563  -1.520  1.00  0.00     0.058 A 
ATOM     69  C   UNL     1      -7.326  12.361  -1.657  1.00  0.00     0.135 A 
ATOM     70  C   UNL     1      -9.414  11.938  -0.545  1.00  0.00     0.135 A 
ATOM     71  F   UNL     1      -6.382  12.038  -2.555  1.00  0.00    -0.206 F 
ATOM     72  C   UNL     1      -7.099  13.460  -0.835  1.00  0.00     0.059 A 
ATOM     73  C   UNL     1      -9.223  13.053   0.266  1.00  0.00     0.059 A 
ATOM     74  F   UNL     1     -10.526  11.210  -0.362  1.00  0.00    -0.206 F 
ATOM     75  C   UNL     1      -8.053  13.798   0.126  1.00  0.00     0.060 A 
BRANCH  75  76
ATOM     76  S   UNL     1      -7.736  15.218   1.194  1.00  0.00     0.124 S 
ATOM     77  O   UNL     1      -6.661  14.710   2.042  1.00  0.00    -0.237 OA
ATOM     78  O   UNL     1      -7.351  16.248   0.235  1.00  0.00    -0.237 OA
ATOM     79  O   UNL     1      -9.014  15.433   1.864  1.00  0.00    -0.744 OA
ENDBRANCH  75  76
ENDBRANCH  54  68
BRANCH  55  80
ATOM     80  C   UNL     1      -9.602   3.052  -6.804  1.00  0.00     0.058 A 
ATOM     81  C   UNL     1      -9.414   2.952  -8.189  1.00  0.00     0.135 A 
ATOM     82  C   UNL     1      -9.927   1.880  -6.101  1.00  0.00     0.135 A 
ATOM     83  F   UNL     1      -9.104   4.043  -8.904  1.00  0.00    -0.206 F 
ATOM     84  C   UNL     1      -9.545   1.737  -8.854  1.00  0.00     0.059 A 
ATOM     85  C   UNL     1     -10.036   0.650  -6.738  1.00  0.00     0.059 A 
ATOM     86  F   UNL     1     -10.097   1.919  -4.769  1.00  0.00    -0.206 F 
ATOM     87  C   UNL     1      -9.848   0.590  -8.118  1.00  0.00     0.060 A 
BRANCH  87  88
ATOM     88  S   UNL     1      -9.946  -0.992  -8.983  1.00  0.00     0.124 S 
ATOM     89  O   UNL     1     -11.176  -0.831  -9.749  1.00  0.00    -0.237 OA
ATOM     90  O   UNL     1      -8.707  -0.993  -9.753  1.00  0.00    -0.237 OA
ATOM     91  O   UNL     1     -10.001  -1.966  -7.896  1.00  0.00    -0.744 OA
ENDBRANCH  87  88
ENDBRANCH  55  80
BRANCH  67  92
ATOM     92  C   UNL     1     -13.040   9.139  -6.577  1.00  0.00     0.058 A 
ATOM     93  C   UNL     1     -14.330   8.648  -6.322  1.00  0.00     0.135 A 
ATOM     94  C   UNL     1     -12.904  10.180  -7.510  1.00  0.00     0.135 A 
ATOM     95  F   UNL     1     -14.511   7.648  -5.444  1.00  0.00    -0.206 F 
ATOM     96  C   UNL     1     -15.441   9.154  -6.985  1.00  0.00     0.059 A 
ATOM     97  C   UNL     1     -14.006  10.724  -8.159  1.00  0.00     0.059 A 
ATOM     98  F   UNL     1     -11.693  10.693  -7.781  1.00  0.00    -0.206 F 
ATOM     99  C   UNL     1     -15.269  10.197  -7.898  1.00  0.00     0.060 A 
BRANCH  99 100
ATOM    100  S   UNL     1     -16.727  10.871  -8.720  1.00  0.00     0.124 S 
ATOM    101  O   UNL     1     -17.076   9.789  -9.634  1.00  0.00    -0.237 OA
ATOM    102  O   UNL     1     -17.643  11.080  -7.603  1.00  0.00    -0.237 OA
ATOM    103  O   UNL     1     -16.229  12.090  -9.351  1.00  0.00    -0.744 OA
ENDBRANCH  99 100
ENDBRANCH  67  92
ENDBRANCH  41  42
ENDBRANCH  34  36
ENDBRANCH  33  34
ENDBRANCH  32  33
ENDBRANCH  31  32
ENDBRANCH  30  31
ENDBRANCH  29  30
ENDBRANCH   1  29
TORSDOF 25
