REMARK SMILES O=C(OCCOCCOCCOCCOC(=O)c1cc(N2CCN(c3ccc(F)cc3)CC2)ccc1NC(=O)C1CCCC1)c1ccc(-c2c3nc(c(-c4c(F)cc(S(=O)(=O)[O-])cc4F)c4ccc([nH]4)c(-c4c(F)cc(S(=O)(=O)[O-])cc4F)c4nc(c(-c5c(F)cc(S(=O)(=O)[O-])cc5F)c5ccc2[nH]5)C=C4)C=C3)cc1
REMARK SMILES IDX 8 1 7 2 6 3 5 4 4 5 3 6 2 7 1 8 45 9 46 10 110 11 47 12
REMARK SMILES IDX 109 13 48 14 49 15 50 16 103 17 51 18 108 19 102 20 104 21
REMARK SMILES IDX 52 22 107 23 101 24 100 25 53 27 87 28 66 29 86 30 67 31
REMARK SMILES IDX 70 32 85 33 105 34 68 35 69 36 84 38 106 39 71 40 54 41
REMARK SMILES IDX 55 42 64 43 56 44 57 45 63 46 65 47 58 48 59 49 60 50 61 51
REMARK SMILES IDX 62 52 88 53 89 54 98 55 90 56 91 57 97 58 99 59 92 60 93 61
REMARK SMILES IDX 94 62 95 63 96 64 72 65 73 66 82 67 74 68 75 69 81 70 83 71
REMARK SMILES IDX 76 72 77 73 78 74 79 75 80 76 9 77 10 78 11 79 12 80 13 81
REMARK SMILES IDX 14 82 15 83 16 84 17 85 18 86 19 87 36 88 20 89 35 90 34 91
REMARK SMILES IDX 37 92 38 93 39 95 40 96 41 97 44 98 42 99 43 100 21 101
REMARK SMILES IDX 22 102 33 103 23 104 32 105 24 106 25 107 26 108 31 109
REMARK SMILES IDX 27 110 30 111 28 112 29 113
REMARK H PARENT 104 26 70 37 37 94
REMARK Flexibility Score: inf
ROOT
ATOM      1  C   UNL     1       1.712   0.514   2.615  1.00  0.00     0.188 C 
ENDROOT
BRANCH   1   2
ATOM      2  C   UNL     1       2.150   0.661   1.157  1.00  0.00     0.188 C 
BRANCH   2   3
ATOM      3  O   UNL     1       3.516   0.322   0.948  1.00  0.00    -0.376 OA
BRANCH   3   4
ATOM      4  C   UNL     1       4.325   1.257   0.236  1.00  0.00     0.202 C 
BRANCH   4   5
ATOM      5  C   UNL     1       4.116   1.264  -1.276  1.00  0.00     0.261 C 
BRANCH   5   6
ATOM      6  O   UNL     1       2.775   0.936  -1.655  1.00  0.00    -0.460 OA
BRANCH   6   7
ATOM      7  C   UNL     1       2.233  -0.296  -1.823  1.00  0.00     0.338 C 
ATOM      8  O   UNL     1       1.041  -0.358  -2.124  1.00  0.00    -0.246 OA
BRANCH   7   9
ATOM      9  C   UNL     1       2.975  -1.589  -1.657  1.00  0.00     0.060 A 
ATOM     10  C   UNL     1       4.118  -1.788  -0.880  1.00  0.00     0.016 A 
ATOM     11  C   UNL     1       2.413  -2.715  -2.281  1.00  0.00     0.016 A 
ATOM     12  C   UNL     1       4.702  -3.033  -0.732  1.00  0.00     0.010 A 
ATOM     13  C   UNL     1       2.996  -3.979  -2.151  1.00  0.00     0.010 A 
ATOM     14  C   UNL     1       4.158  -4.127  -1.388  1.00  0.00    -0.014 A 
BRANCH  14  15
ATOM     15  C   UNL     1       4.978  -5.344  -1.428  1.00  0.00     0.031 A 
ATOM     16  C   UNL     1       5.771  -5.585  -2.675  1.00  0.00     0.074 A 
ATOM     17  C   UNL     1       5.135  -6.085  -0.318  1.00  0.00     0.049 A 
ATOM     18  N   UNL     1       6.523  -6.599  -2.993  1.00  0.00    -0.248 NA
ATOM     19  C   UNL     1       5.727  -4.523  -3.700  1.00  0.00     0.031 C 
ATOM     20  C   UNL     1       4.528  -5.794   0.985  1.00  0.00     0.029 A 
ATOM     21  N   UNL     1       5.874  -7.213  -0.096  1.00  0.00    -0.354 N 
ATOM     22  C   UNL     1       7.004  -6.320  -4.265  1.00  0.00     0.074 A 
ATOM     23  C   UNL     1       6.472  -5.040  -4.664  1.00  0.00     0.031 C 
ATOM     24  C   UNL     1       4.918  -6.727   1.869  1.00  0.00     0.029 A 
ATOM     25  C   UNL     1       5.736  -7.715   1.177  1.00  0.00     0.049 A 
ATOM     26  H   UNL     1       6.448  -7.627  -0.780  1.00  0.00     0.167 HD
ATOM     27  C   UNL     1       7.811  -7.087  -5.028  1.00  0.00     0.037 A 
ATOM     28  C   UNL     1       6.183  -8.877   1.690  1.00  0.00     0.037 A 
ATOM     29  C   UNL     1       8.322  -8.352  -4.580  1.00  0.00     0.049 A 
ATOM     30  C   UNL     1       6.982  -9.771   0.776  1.00  0.00     0.074 A 
ATOM     31  C   UNL     1       9.097  -9.264  -5.267  1.00  0.00     0.029 A 
ATOM     32  N   UNL     1       8.099  -8.878  -3.312  1.00  0.00    -0.354 N 
ATOM     33  N   UNL     1       7.371  -9.548  -0.460  1.00  0.00    -0.248 NA
ATOM     34  C   UNL     1       7.391 -11.074   1.310  1.00  0.00     0.031 C 
ATOM     35  C   UNL     1       9.293 -10.370  -4.433  1.00  0.00     0.029 A 
ATOM     36  C   UNL     1       8.700 -10.116  -3.204  1.00  0.00     0.049 A 
ATOM     37  H   UNL     1       7.588  -8.434  -2.598  1.00  0.00     0.167 HD
ATOM     38  C   UNL     1       8.091 -10.672  -0.843  1.00  0.00     0.074 A 
ATOM     39  C   UNL     1       8.099 -11.563   0.301  1.00  0.00     0.031 C 
ATOM     40  C   UNL     1       8.690 -10.953  -2.028  1.00  0.00     0.037 A 
BRANCH  27  41
ATOM     41  C   UNL     1       8.101  -6.620  -6.425  1.00  0.00     0.058 A 
ATOM     42  C   UNL     1       8.947  -5.533  -6.696  1.00  0.00     0.135 A 
ATOM     43  C   UNL     1       7.511  -7.279  -7.516  1.00  0.00     0.135 A 
ATOM     44  F   UNL     1       9.501  -4.838  -5.689  1.00  0.00    -0.206 F 
ATOM     45  C   UNL     1       9.194  -5.114  -8.000  1.00  0.00     0.059 A 
ATOM     46  C   UNL     1       7.764  -6.894  -8.828  1.00  0.00     0.059 A 
ATOM     47  F   UNL     1       6.671  -8.306  -7.310  1.00  0.00    -0.206 F 
ATOM     48  C   UNL     1       8.604  -5.806  -9.060  1.00  0.00     0.060 A 
BRANCH  48  49
ATOM     49  S   UNL     1       8.965  -5.274 -10.746  1.00  0.00     0.124 S 
ATOM     50  O   UNL     1       8.256  -4.000 -10.810  1.00  0.00    -0.237 OA
ATOM     51  O   UNL     1      10.422  -5.188 -10.737  1.00  0.00    -0.237 OA
ATOM     52  O   UNL     1       8.408  -6.344 -11.568  1.00  0.00    -0.744 OA
ENDBRANCH  48  49
ENDBRANCH  27  41
BRANCH  28  53
ATOM     53  C   UNL     1       5.823  -9.293   3.075  1.00  0.00     0.058 A 
ATOM     54  C   UNL     1       6.801  -9.506   4.057  1.00  0.00     0.135 A 
ATOM     55  C   UNL     1       4.484  -9.525   3.436  1.00  0.00     0.135 A 
ATOM     56  F   UNL     1       8.096  -9.304   3.769  1.00  0.00    -0.206 F 
ATOM     57  C   UNL     1       6.472  -9.966   5.330  1.00  0.00     0.059 A 
ATOM     58  C   UNL     1       4.127  -9.952   4.711  1.00  0.00     0.059 A 
ATOM     59  F   UNL     1       3.501  -9.330   2.543  1.00  0.00    -0.206 F 
ATOM     60  C   UNL     1       5.131 -10.191   5.646  1.00  0.00     0.060 A 
BRANCH  60  61
ATOM     61  S   UNL     1       4.714 -10.800   7.294  1.00  0.00     0.124 S 
ATOM     62  O   UNL     1       5.204 -12.172   7.233  1.00  0.00    -0.237 OA
ATOM     63  O   UNL     1       5.464  -9.891   8.155  1.00  0.00    -0.237 OA
ATOM     64  O   UNL     1       3.262 -10.650   7.351  1.00  0.00    -0.744 OA
ENDBRANCH  60  61
ENDBRANCH  28  53
BRANCH  40  65
ATOM     65  C   UNL     1       9.441 -12.248  -2.119  1.00  0.00     0.058 A 
ATOM     66  C   UNL     1       8.778 -13.482  -2.189  1.00  0.00     0.135 A 
ATOM     67  C   UNL     1      10.842 -12.240  -2.212  1.00  0.00     0.135 A 
ATOM     68  F   UNL     1       7.440 -13.538  -2.098  1.00  0.00    -0.206 F 
ATOM     69  C   UNL     1       9.483 -14.670  -2.325  1.00  0.00     0.059 A 
ATOM     70  C   UNL     1      11.564 -13.412  -2.386  1.00  0.00     0.059 A 
ATOM     71  F   UNL     1      11.518 -11.080  -2.165  1.00  0.00    -0.206 F 
ATOM     72  C   UNL     1      10.876 -14.624  -2.429  1.00  0.00     0.060 A 
BRANCH  72  73
ATOM     73  S   UNL     1      11.774 -16.171  -2.654  1.00  0.00     0.124 S 
ATOM     74  O   UNL     1      11.661 -16.770  -1.328  1.00  0.00    -0.237 OA
ATOM     75  O   UNL     1      11.010 -16.823  -3.713  1.00  0.00    -0.237 OA
ATOM     76  O   UNL     1      13.114 -15.733  -3.034  1.00  0.00    -0.744 OA
ENDBRANCH  72  73
ENDBRANCH  40  65
ENDBRANCH  14  15
ENDBRANCH   7   9
ENDBRANCH   6   7
ENDBRANCH   5   6
ENDBRANCH   4   5
ENDBRANCH   3   4
ENDBRANCH   2   3
ENDBRANCH   1   2
BRANCH   1  77
ATOM     77  O   UNL     1       2.462   1.246   3.573  1.00  0.00    -0.377 OA
BRANCH  77  78
ATOM     78  C   UNL     1       3.879   1.144   3.504  1.00  0.00     0.188 C 
BRANCH  78  79
ATOM     79  C   UNL     1       4.565  -0.246   3.415  1.00  0.00     0.188 C 
BRANCH  79  80
ATOM     80  O   UNL     1       3.683  -1.355   3.438  1.00  0.00    -0.376 OA
BRANCH  80  81
ATOM     81  C   UNL     1       3.631  -2.066   4.671  1.00  0.00     0.202 C 
BRANCH  81  82
ATOM     82  C   UNL     1       2.990  -1.290   5.834  1.00  0.00     0.261 C 
BRANCH  82  83
ATOM     83  O   UNL     1       3.605  -0.025   6.173  1.00  0.00    -0.460 OA
BRANCH  83  84
ATOM     84  C   UNL     1       4.919  -0.021   6.502  1.00  0.00     0.340 C 
ATOM     85  O   UNL     1       5.635  -0.989   6.654  1.00  0.00    -0.246 OA
BRANCH  84  86
ATOM     86  C   UNL     1       5.426   1.377   6.507  1.00  0.00     0.085 A 
ATOM     87  C   UNL     1       6.533   1.717   5.672  1.00  0.00     0.043 A 
ATOM     88  C   UNL     1       4.884   2.330   7.366  1.00  0.00     0.055 A 
ATOM     89  C   UNL     1       7.122   2.986   5.728  1.00  0.00     0.038 A 
ATOM     90  C   UNL     1       5.729   3.358   7.675  1.00  0.00     0.029 A 
ATOM     91  C   UNL     1       6.736   3.768   6.807  1.00  0.00     0.028 A 
BRANCH  88  92
ATOM     92  N   UNL     1       3.550   2.288   7.816  1.00  0.00    -0.325 N 
ATOM     93  C   UNL     1       2.659   3.189   8.327  1.00  0.00     0.227 C 
ATOM     94  H   UNL     1       3.163   1.386   7.744  1.00  0.00     0.169 HD
ATOM     95  O   UNL     1       1.503   2.739   8.436  1.00  0.00    -0.274 OA
BRANCH  93  96
ATOM     96  C   UNL     1       2.890   4.636   8.845  1.00  0.00     0.079 C 
ATOM     97  C   UNL     1       4.036   5.537   8.423  1.00  0.00     0.013 C 
ATOM     98  C   UNL     1       1.681   5.519   8.448  1.00  0.00     0.013 C 
ATOM     99  C   UNL     1       3.623   6.965   8.700  1.00  0.00     0.001 C 
ATOM    100  C   UNL     1       2.125   6.981   8.529  1.00  0.00     0.001 C 
ENDBRANCH  93  96
ENDBRANCH  88  92
BRANCH  89 101
ATOM    101  N   UNL     1       8.194   3.353   4.939  1.00  0.00    -0.368 N 
ATOM    102  C   UNL     1       8.072   3.943   3.579  1.00  0.00     0.138 C 
ATOM    103  C   UNL     1       9.446   3.667   5.647  1.00  0.00     0.138 C 
ATOM    104  C   UNL     1       8.555   5.437   3.478  1.00  0.00     0.138 C 
ATOM    105  C   UNL     1       9.713   5.182   5.656  1.00  0.00     0.138 C 
ATOM    106  N   UNL     1       9.763   5.699   4.286  1.00  0.00    -0.368 N 
BRANCH 106 107
ATOM    107  C   UNL     1      10.978   6.052   3.736  1.00  0.00     0.037 A 
ATOM    108  C   UNL     1      11.128   7.247   3.018  1.00  0.00     0.029 A 
ATOM    109  C   UNL     1      12.130   5.274   3.943  1.00  0.00     0.029 A 
ATOM    110  C   UNL     1      12.385   7.663   2.558  1.00  0.00     0.041 A 
ATOM    111  C   UNL     1      13.384   5.671   3.473  1.00  0.00     0.041 A 
ATOM    112  C   UNL     1      13.501   6.870   2.791  1.00  0.00     0.123 A 
ATOM    113  F   UNL     1      14.705   7.271   2.362  1.00  0.00    -0.207 F 
ENDBRANCH 106 107
ENDBRANCH  89 101
ENDBRANCH  84  86
ENDBRANCH  83  84
ENDBRANCH  82  83
ENDBRANCH  81  82
ENDBRANCH  80  81
ENDBRANCH  79  80
ENDBRANCH  78  79
ENDBRANCH  77  78
ENDBRANCH   1  77
TORSDOF 27
