REMARK SMILES COc1cc(Cl)c2c(c1)C=C(C(=O)OCCOCCOCCOCCOC(=O)c1ccc(-c3c4nc(c(-c5c(F)cc(S(=O)(=O)[O-])cc5F)c5ccc([nH]5)c(-c5c(F)cc(S(=O)(=O)[O-])cc5F)c5nc(c(-c6c(F)cc(S(=O)(=O)[O-])cc6F)c6ccc3[nH]6)C=C5)C=C4)cc1)[C@@H](C(F)(F)F)O2
REMARK SMILES IDX 21 1 20 2 19 3 18 4 17 5 16 6 15 7 14 8 12 9 13 10 11 11
REMARK SMILES IDX 3 12 4 13 9 14 5 15 8 16 6 17 7 18 10 19 100 20 95 21 2 22
REMARK SMILES IDX 1 23 96 24 97 25 98 26 99 27 22 28 23 29 24 30 25 31 26 32
REMARK SMILES IDX 27 33 28 34 29 35 30 36 94 37 31 38 93 39 32 40 33 41 34 42
REMARK SMILES IDX 87 43 35 44 92 45 86 46 88 47 36 48 91 49 85 50 84 51 37 53
REMARK SMILES IDX 71 54 50 55 70 56 51 57 54 58 69 59 89 60 52 61 53 62 68 64
REMARK SMILES IDX 90 65 55 66 38 67 39 68 48 69 40 70 41 71 47 72 49 73 42 74
REMARK SMILES IDX 43 75 44 76 45 77 46 78 72 79 73 80 82 81 74 82 75 83 81 84
REMARK SMILES IDX 83 85 76 86 77 87 78 88 79 89 80 90 56 91 57 92 66 93 58 94
REMARK SMILES IDX 59 95 65 96 67 97 60 98 61 99 62 100 63 101 64 102
REMARK H PARENT 88 52 54 63
REMARK Flexibility Score: inf
ROOT
ATOM      1  C   UNL     1      -1.311   3.144 -10.570  1.00  0.00     0.188 C 
ENDROOT
BRANCH   1   2
ATOM      2  O   UNL     1      -0.980   3.403  -9.209  1.00  0.00    -0.377 OA
BRANCH   2   3
ATOM      3  C   UNL     1      -1.291   2.390  -8.271  1.00  0.00     0.188 C 
BRANCH   3   4
ATOM      4  C   UNL     1      -2.702   2.539  -7.673  1.00  0.00     0.188 C 
BRANCH   4   5
ATOM      5  O   UNL     1      -3.634   3.362  -8.346  1.00  0.00    -0.376 OA
BRANCH   5   6
ATOM      6  C   UNL     1      -3.494   4.767  -8.492  1.00  0.00     0.202 C 
BRANCH   6   7
ATOM      7  C   UNL     1      -2.396   5.672  -7.897  1.00  0.00     0.261 C 
BRANCH   7   8
ATOM      8  O   UNL     1      -1.359   5.059  -7.141  1.00  0.00    -0.460 OA
BRANCH   8   9
ATOM      9  C   UNL     1      -1.587   4.895  -5.827  1.00  0.00     0.338 C 
ATOM     10  O   UNL     1      -2.579   5.229  -5.203  1.00  0.00    -0.246 OA
BRANCH   9  11
ATOM     11  C   UNL     1      -0.491   4.065  -5.284  1.00  0.00     0.087 C 
ATOM     12  C   UNL     1       0.869   0.570  -2.298  1.00  0.00     0.121 A 
ATOM     13  C   UNL     1       2.208   0.840  -2.563  1.00  0.00     0.070 A 
ATOM     14  C   UNL     1      -0.137   1.241  -2.986  1.00  0.00     0.058 A 
ATOM     15  C   UNL     1       2.538   1.806  -3.517  1.00  0.00     0.087 A 
ATOM     16  C   UNL     1       0.195   2.248  -3.898  1.00  0.00     0.022 A 
ATOM     17  Cl  UNL     1       4.212   2.122  -3.806  1.00  0.00    -0.080 Cl
ATOM     18  C   UNL     1       1.536   2.517  -4.190  1.00  0.00     0.146 A 
ATOM     19  C   UNL     1      -0.855   3.060  -4.479  1.00  0.00     0.027 C 
ATOM     20  O   UNL     1       1.919   3.452  -5.111  1.00  0.00    -0.474 OA
ATOM     21  C   UNL     1       0.930   4.339  -5.702  1.00  0.00     0.316 C 
BRANCH  12  22
ATOM     22  O   UNL     1       0.483  -0.374  -1.387  1.00  0.00    -0.497 OA
ATOM     23  C   UNL     1       0.898  -0.020  -0.067  1.00  0.00     0.278 C 
ENDBRANCH  12  22
BRANCH  21  24
ATOM     24  C   UNL     1       1.342   5.787  -5.411  1.00  0.00     0.430 C 
ATOM     25  F   UNL     1       2.645   6.000  -5.706  1.00  0.00    -0.167 F 
ATOM     26  F   UNL     1       0.622   6.674  -6.135  1.00  0.00    -0.167 F 
ATOM     27  F   UNL     1       1.165   6.096  -4.104  1.00  0.00    -0.167 F 
ENDBRANCH  21  24
ENDBRANCH   9  11
ENDBRANCH   8   9
ENDBRANCH   7   8
ENDBRANCH   6   7
ENDBRANCH   5   6
ENDBRANCH   4   5
ENDBRANCH   3   4
ENDBRANCH   2   3
ENDBRANCH   1   2
BRANCH   1  28
ATOM     28  C   UNL     1      -2.546   2.278 -10.912  1.00  0.00     0.188 C 
BRANCH  28  29
ATOM     29  O   UNL     1      -2.621   1.062 -10.176  1.00  0.00    -0.376 OA
BRANCH  29  30
ATOM     30  C   UNL     1      -2.288  -0.145 -10.844  1.00  0.00     0.202 C 
BRANCH  30  31
ATOM     31  C   UNL     1      -0.808  -0.342 -11.200  1.00  0.00     0.261 C 
BRANCH  31  32
ATOM     32  O   UNL     1      -0.215   0.681 -12.012  1.00  0.00    -0.460 OA
BRANCH  32  33
ATOM     33  C   UNL     1      -0.728   0.872 -13.246  1.00  0.00     0.338 C 
ATOM     34  O   UNL     1      -1.626   0.240 -13.775  1.00  0.00    -0.246 OA
BRANCH  33  35
ATOM     35  C   UNL     1      -0.140   2.117 -13.777  1.00  0.00     0.060 A 
ATOM     36  C   UNL     1      -0.972   3.217 -14.028  1.00  0.00     0.016 A 
ATOM     37  C   UNL     1       1.232   2.190 -14.027  1.00  0.00     0.016 A 
ATOM     38  C   UNL     1      -0.438   4.387 -14.566  1.00  0.00     0.010 A 
ATOM     39  C   UNL     1       1.758   3.344 -14.607  1.00  0.00     0.010 A 
ATOM     40  C   UNL     1       0.917   4.426 -14.919  1.00  0.00    -0.014 A 
BRANCH  40  41
ATOM     41  C   UNL     1       1.387   5.441 -15.889  1.00  0.00     0.031 A 
ATOM     42  C   UNL     1       1.273   5.100 -17.350  1.00  0.00     0.074 A 
ATOM     43  C   UNL     1       1.901   6.618 -15.501  1.00  0.00     0.049 A 
ATOM     44  N   UNL     1       1.702   5.754 -18.395  1.00  0.00    -0.248 NA
ATOM     45  C   UNL     1       0.575   3.842 -17.668  1.00  0.00     0.031 C 
ATOM     46  C   UNL     1       1.987   7.095 -14.124  1.00  0.00     0.029 A 
ATOM     47  N   UNL     1       2.457   7.626 -16.247  1.00  0.00    -0.354 N 
ATOM     48  C   UNL     1       1.319   4.993 -19.494  1.00  0.00     0.074 A 
ATOM     49  C   UNL     1       0.661   3.811 -18.987  1.00  0.00     0.031 C 
ATOM     50  C   UNL     1       2.575   8.305 -14.122  1.00  0.00     0.029 A 
ATOM     51  C   UNL     1       2.942   8.664 -15.492  1.00  0.00     0.049 A 
ATOM     52  H   UNL     1       2.503   7.606 -17.230  1.00  0.00     0.167 HD
ATOM     53  C   UNL     1       1.494   5.258 -20.810  1.00  0.00     0.037 A 
ATOM     54  C   UNL     1       3.624   9.764 -15.870  1.00  0.00     0.037 A 
ATOM     55  C   UNL     1       2.199   6.409 -21.306  1.00  0.00     0.049 A 
ATOM     56  C   UNL     1       3.939   9.972 -17.329  1.00  0.00     0.074 A 
ATOM     57  C   UNL     1       2.479   6.752 -22.615  1.00  0.00     0.029 A 
ATOM     58  N   UNL     1       2.752   7.400 -20.505  1.00  0.00    -0.354 N 
ATOM     59  N   UNL     1       3.603   9.235 -18.363  1.00  0.00    -0.248 NA
ATOM     60  C   UNL     1       4.733  11.159 -17.671  1.00  0.00     0.031 C 
ATOM     61  C   UNL     1       3.247   7.923 -22.604  1.00  0.00     0.029 A 
ATOM     62  C   UNL     1       3.394   8.342 -21.290  1.00  0.00     0.049 A 
ATOM     63  H   UNL     1       2.695   7.428 -19.523  1.00  0.00     0.167 HD
ATOM     64  C   UNL     1       4.128   9.878 -19.480  1.00  0.00     0.074 A 
ATOM     65  C   UNL     1       4.788  11.074 -18.993  1.00  0.00     0.031 C 
ATOM     66  C   UNL     1       4.070   9.515 -20.788  1.00  0.00     0.037 A 
BRANCH  53  67
ATOM     67  C   UNL     1       0.947   4.247 -21.782  1.00  0.00     0.058 A 
ATOM     68  C   UNL     1      -0.436   4.052 -21.940  1.00  0.00     0.135 A 
ATOM     69  C   UNL     1       1.811   3.432 -22.529  1.00  0.00     0.135 A 
ATOM     70  F   UNL     1      -1.309   4.785 -21.230  1.00  0.00    -0.206 F 
ATOM     71  C   UNL     1      -0.941   3.054 -22.767  1.00  0.00     0.059 A 
ATOM     72  C   UNL     1       1.328   2.449 -23.388  1.00  0.00     0.059 A 
ATOM     73  F   UNL     1       3.141   3.568 -22.412  1.00  0.00    -0.206 F 
ATOM     74  C   UNL     1      -0.049   2.252 -23.482  1.00  0.00     0.060 A 
BRANCH  74  75
ATOM     75  S   UNL     1      -0.720   0.934 -24.517  1.00  0.00     0.124 S 
ATOM     76  O   UNL     1      -1.219   0.001 -23.512  1.00  0.00    -0.237 OA
ATOM     77  O   UNL     1      -1.738   1.636 -25.291  1.00  0.00    -0.237 OA
ATOM     78  O   UNL     1       0.438   0.476 -25.278  1.00  0.00    -0.744 OA
ENDBRANCH  74  75
ENDBRANCH  53  67
BRANCH  54  79
ATOM     79  C   UNL     1       4.035  10.759 -14.845  1.00  0.00     0.058 A 
ATOM     80  C   UNL     1       3.406  12.010 -14.774  1.00  0.00     0.135 A 
ATOM     81  C   UNL     1       5.019  10.466 -13.887  1.00  0.00     0.135 A 
ATOM     82  F   UNL     1       2.476  12.345 -15.681  1.00  0.00    -0.206 F 
ATOM     83  C   UNL     1       3.720  12.928 -13.778  1.00  0.00     0.059 A 
ATOM     84  C   UNL     1       5.335  11.358 -12.867  1.00  0.00     0.059 A 
ATOM     85  F   UNL     1       5.652   9.283 -13.913  1.00  0.00    -0.206 F 
ATOM     86  C   UNL     1       4.673  12.585 -12.817  1.00  0.00     0.060 A 
BRANCH  86  87
ATOM     87  S   UNL     1       4.983  13.742 -11.465  1.00  0.00     0.124 S 
ATOM     88  O   UNL     1       5.594  14.864 -12.168  1.00  0.00    -0.237 OA
ATOM     89  O   UNL     1       3.635  13.969 -10.951  1.00  0.00    -0.237 OA
ATOM     90  O   UNL     1       5.869  12.995 -10.578  1.00  0.00    -0.744 OA
ENDBRANCH  86  87
ENDBRANCH  54  79
BRANCH  66  91
ATOM     91  C   UNL     1       4.736  10.426 -21.787  1.00  0.00     0.058 A 
ATOM     92  C   UNL     1       6.133  10.551 -21.855  1.00  0.00     0.135 A 
ATOM     93  C   UNL     1       3.969  11.163 -22.706  1.00  0.00     0.135 A 
ATOM     94  F   UNL     1       6.915   9.870 -21.002  1.00  0.00    -0.206 F 
ATOM     95  C   UNL     1       6.743  11.406 -22.767  1.00  0.00     0.059 A 
ATOM     96  C   UNL     1       4.560  11.998 -23.649  1.00  0.00     0.059 A 
ATOM     97  F   UNL     1       2.630  11.069 -22.700  1.00  0.00    -0.206 F 
ATOM     98  C   UNL     1       5.948  12.129 -23.659  1.00  0.00     0.060 A 
BRANCH  98  99
ATOM     99  S   UNL     1       6.755  13.242 -24.828  1.00  0.00     0.124 S 
ATOM    100  O   UNL     1       7.223  14.306 -23.946  1.00  0.00    -0.237 OA
ATOM    101  O   UNL     1       7.793  12.391 -25.401  1.00  0.00    -0.237 OA
ATOM    102  O   UNL     1       5.680  13.613 -25.744  1.00  0.00    -0.744 OA
ENDBRANCH  98  99
ENDBRANCH  66  91
ENDBRANCH  40  41
ENDBRANCH  33  35
ENDBRANCH  32  33
ENDBRANCH  31  32
ENDBRANCH  30  31
ENDBRANCH  29  30
ENDBRANCH  28  29
ENDBRANCH   1  28
TORSDOF 25
