REMARK SMILES C[C@@]1(C(=O)OCCOCCOCCOCCOC(=O)c2ccc(-c3c4nc(c(-c5c(F)cc(S(=O)(=O)[O-])cc5F)c5ccc([nH]5)c(-c5c(F)cc(S(=O)(=O)[O-])cc5F)c5nc(c(-c6c(F)cc(S(=O)(=O)[O-])cc6F)c6ccc3[nH]6)C=C5)C=C4)cc2)CCCN1c1ncnc2c1CCCCC2
REMARK SMILES IDX 10 1 9 2 8 3 7 4 6 5 5 6 3 7 4 8 2 9 1 10 86 11 89 12 87 13
REMARK SMILES IDX 88 14 90 15 91 16 95 17 92 18 94 19 93 20 96 21 97 22 100 24
REMARK SMILES IDX 99 25 98 26 11 28 12 29 13 30 14 31 15 32 16 33 17 34 18 35
REMARK SMILES IDX 19 36 20 37 21 38 85 39 22 40 84 41 23 42 24 43 25 44 78 45
REMARK SMILES IDX 26 46 83 47 77 48 79 49 27 50 82 51 76 52 75 53 28 55 62 56
REMARK SMILES IDX 41 57 61 58 42 59 45 60 60 61 80 62 43 63 44 64 59 66 81 67
REMARK SMILES IDX 46 68 29 69 30 70 39 71 31 72 32 73 38 74 40 75 33 76 34 77
REMARK SMILES IDX 35 78 36 79 37 80 63 81 64 82 73 83 65 84 66 85 72 86 74 87
REMARK SMILES IDX 67 88 68 89 69 90 70 91 71 92 47 93 48 94 57 95 49 96 50 97
REMARK SMILES IDX 56 98 58 99 51 100 52 101 53 102 54 103 55 104
REMARK H PARENT 79 54 45 65
REMARK Flexibility Score: 80.00
ROOT
ATOM      1  C   UNL     1      -3.136   0.530   2.143  1.00  0.00     0.188 C 
ENDROOT
BRANCH   1   2
ATOM      2  C   UNL     1      -2.792  -0.555   1.094  1.00  0.00     0.188 C 
BRANCH   2   3
ATOM      3  O   UNL     1      -2.967  -1.900   1.527  1.00  0.00    -0.376 OA
BRANCH   3   4
ATOM      4  C   UNL     1      -2.774  -2.118   2.916  1.00  0.00     0.202 C 
BRANCH   4   5
ATOM      5  C   UNL     1      -1.383  -1.746   3.488  1.00  0.00     0.261 C 
BRANCH   5   6
ATOM      6  O   UNL     1      -0.712  -0.582   2.910  1.00  0.00    -0.461 OA
BRANCH   6   7
ATOM      7  C   UNL     1       0.188  -0.837   1.910  1.00  0.00     0.331 C 
ATOM      8  O   UNL     1       0.439  -1.993   1.563  1.00  0.00    -0.249 OA
BRANCH   7   9
ATOM      9  C   UNL     1       0.976   0.411   1.315  1.00  0.00     0.136 C 
ATOM     10  C   UNL     1       1.500  -0.023  -0.066  1.00  0.00     0.047 C 
ATOM     11  C   UNL     1       2.131   0.607   2.324  1.00  0.00     0.042 C 
ATOM     12  N   UNL     1       0.278   1.795   1.286  1.00  0.00    -0.340 N 
ATOM     13  C   UNL     1       1.553   1.607   3.311  1.00  0.00     0.025 C 
ATOM     14  C   UNL     1       0.848   2.600   2.401  1.00  0.00     0.119 C 
BRANCH  12  15
ATOM     15  C   UNL     1       0.291   2.624   0.123  1.00  0.00     0.136 A 
ATOM     16  N   UNL     1       1.486   2.979  -0.390  1.00  0.00    -0.219 NA
ATOM     17  C   UNL     1      -0.881   3.191  -0.440  1.00  0.00     0.016 A 
ATOM     18  C   UNL     1       1.522   3.802  -1.467  1.00  0.00     0.224 A 
ATOM     19  C   UNL     1      -0.723   3.939  -1.788  1.00  0.00     0.049 A 
ATOM     20  N   UNL     1       0.504   4.243  -2.230  1.00  0.00    -0.241 NA
BRANCH  17  21
ATOM     21  C   UNL     1      -2.302   2.954   0.537  1.00  0.00     0.041 C 
BRANCH  21  22
ATOM     22  C   UNL     1      -4.077   3.654   0.332  1.00  0.00     0.005 CG0
ATOM     23  G   UNL     1      -4.833   4.338  -1.309  1.00  0.00     0.000 G0
ENDBRANCH  21  22
ENDBRANCH  17  21
BRANCH  19  24
ATOM     24  C   UNL     1      -1.953   4.487  -2.967  1.00  0.00     0.057 C 
BRANCH  24  25
ATOM     25  C   UNL     1      -3.737   4.986  -2.711  1.00  0.00     0.006 C 
BRANCH  25  26
ATOM     26  C   UNL     1      -4.833   4.338  -1.309  1.00  0.00     0.001 CG0
ATOM     27  G   UNL     1      -4.077   3.654   0.332  1.00  0.00     0.000 G0
ENDBRANCH  25  26
ENDBRANCH  24  25
ENDBRANCH  19  24
ENDBRANCH  12  15
ENDBRANCH   7   9
ENDBRANCH   6   7
ENDBRANCH   5   6
ENDBRANCH   4   5
ENDBRANCH   3   4
ENDBRANCH   2   3
ENDBRANCH   1   2
BRANCH   1  28
ATOM     28  O   UNL     1      -4.248   1.361   1.861  1.00  0.00    -0.377 OA
BRANCH  28  29
ATOM     29  C   UNL     1      -5.211   0.869   0.936  1.00  0.00     0.188 C 
BRANCH  29  30
ATOM     30  C   UNL     1      -4.986   1.274  -0.585  1.00  0.00     0.188 C 
BRANCH  30  31
ATOM     31  O   UNL     1      -3.650   1.687  -0.950  1.00  0.00    -0.376 OA
BRANCH  31  32
ATOM     32  C   UNL     1      -3.143   3.022  -1.561  1.00  0.00     0.202 C 
BRANCH  32  33
ATOM     33  C   UNL     1      -2.700   4.857  -0.700  1.00  0.00     0.261 C 
BRANCH  33  34
ATOM     34  O   UNL     1      -3.737   6.094  -0.345  1.00  0.00    -0.460 OA
BRANCH  34  35
ATOM     35  C   UNL     1      -4.697   6.589   0.487  1.00  0.00     0.338 C 
ATOM     36  O   UNL     1      -5.494   7.415   0.037  1.00  0.00    -0.246 OA
BRANCH  35  37
ATOM     37  C   UNL     1      -4.951   6.231   1.917  1.00  0.00     0.060 A 
ATOM     38  C   UNL     1      -5.952   5.296   2.272  1.00  0.00     0.016 A 
ATOM     39  C   UNL     1      -4.496   7.125   2.885  1.00  0.00     0.016 A 
ATOM     40  C   UNL     1      -6.515   5.286   3.555  1.00  0.00     0.010 A 
ATOM     41  C   UNL     1      -5.097   7.152   4.152  1.00  0.00     0.010 A 
ATOM     42  C   UNL     1      -6.150   6.277   4.470  1.00  0.00    -0.014 A 
BRANCH  42  43
ATOM     43  C   UNL     1      -7.003   6.556   5.656  1.00  0.00     0.031 A 
ATOM     44  C   UNL     1      -8.002   7.687   5.574  1.00  0.00     0.074 A 
ATOM     45  C   UNL     1      -6.886   5.818   6.774  1.00  0.00     0.049 A 
ATOM     46  N   UNL     1      -8.731   8.227   6.516  1.00  0.00    -0.248 NA
ATOM     47  C   UNL     1      -8.200   8.294   4.246  1.00  0.00     0.031 C 
ATOM     48  C   UNL     1      -6.008   4.659   6.926  1.00  0.00     0.029 A 
ATOM     49  N   UNL     1      -7.492   5.943   7.998  1.00  0.00    -0.354 N 
ATOM     50  C   UNL     1      -9.462   9.242   5.901  1.00  0.00     0.074 A 
ATOM     51  C   UNL     1      -9.074   9.257   4.508  1.00  0.00     0.031 C 
ATOM     52  C   UNL     1      -6.112   4.194   8.182  1.00  0.00     0.029 A 
ATOM     53  C   UNL     1      -7.025   5.049   8.934  1.00  0.00     0.049 A 
ATOM     54  H   UNL     1      -8.193   6.608   8.189  1.00  0.00     0.167 HD
ATOM     55  C   UNL     1     -10.373  10.081   6.453  1.00  0.00     0.037 A 
ATOM     56  C   UNL     1      -7.279   4.964  10.255  1.00  0.00     0.037 A 
ATOM     57  C   UNL     1     -10.732  10.046   7.850  1.00  0.00     0.049 A 
ATOM     58  C   UNL     1      -8.233   5.960  10.864  1.00  0.00     0.074 A 
ATOM     59  C   UNL     1     -11.612  10.859   8.541  1.00  0.00     0.029 A 
ATOM     60  N   UNL     1     -10.226   9.134   8.769  1.00  0.00    -0.354 N 
ATOM     61  N   UNL     1      -8.887   6.940  10.283  1.00  0.00    -0.248 NA
ATOM     62  C   UNL     1      -8.487   5.840  12.306  1.00  0.00     0.031 C 
ATOM     63  C   UNL     1     -11.608  10.464   9.884  1.00  0.00     0.029 A 
ATOM     64  C   UNL     1     -10.769   9.369  10.020  1.00  0.00     0.049 A 
ATOM     65  H   UNL     1      -9.576   8.425   8.560  1.00  0.00     0.167 HD
ATOM     66  C   UNL     1      -9.653   7.533  11.280  1.00  0.00     0.074 A 
ATOM     67  C   UNL     1      -9.395   6.786  12.496  1.00  0.00     0.031 C 
ATOM     68  C   UNL     1     -10.493   8.597  11.207  1.00  0.00     0.037 A 
BRANCH  55  69
ATOM     69  C   UNL     1     -11.031  11.110   5.565  1.00  0.00     0.058 A 
ATOM     70  C   UNL     1     -11.966  10.749   4.581  1.00  0.00     0.135 A 
ATOM     71  C   UNL     1     -10.767  12.481   5.733  1.00  0.00     0.135 A 
ATOM     72  F   UNL     1     -12.250   9.456   4.362  1.00  0.00    -0.206 F 
ATOM     73  C   UNL     1     -12.602  11.704   3.789  1.00  0.00     0.059 A 
ATOM     74  C   UNL     1     -11.411  13.455   4.970  1.00  0.00     0.059 A 
ATOM     75  F   UNL     1      -9.881  12.890   6.655  1.00  0.00    -0.206 F 
ATOM     76  C   UNL     1     -12.322  13.055   3.994  1.00  0.00     0.060 A 
BRANCH  76  77
ATOM     77  S   UNL     1     -13.179  14.281   2.979  1.00  0.00     0.124 S 
ATOM     78  O   UNL     1     -12.572  14.055   1.670  1.00  0.00    -0.237 OA
ATOM     79  O   UNL     1     -14.575  13.868   3.107  1.00  0.00    -0.237 OA
ATOM     80  O   UNL     1     -12.843  15.548   3.615  1.00  0.00    -0.744 OA
ENDBRANCH  76  77
ENDBRANCH  55  69
BRANCH  56  81
ATOM     81  C   UNL     1      -6.611   3.927  11.090  1.00  0.00     0.058 A 
ATOM     82  C   UNL     1      -7.348   2.901  11.702  1.00  0.00     0.135 A 
ATOM     83  C   UNL     1      -5.223   3.944  11.306  1.00  0.00     0.135 A 
ATOM     84  F   UNL     1      -8.678   2.839  11.533  1.00  0.00    -0.206 F 
ATOM     85  C   UNL     1      -6.742   1.952  12.520  1.00  0.00     0.059 A 
ATOM     86  C   UNL     1      -4.589   2.986  12.092  1.00  0.00     0.059 A 
ATOM     87  F   UNL     1      -4.464   4.891  10.733  1.00  0.00    -0.206 F 
ATOM     88  C   UNL     1      -5.361   2.004  12.710  1.00  0.00     0.060 A 
BRANCH  88  89
ATOM     89  S   UNL     1      -4.577   0.759  13.758  1.00  0.00     0.124 S 
ATOM     90  O   UNL     1      -5.009   1.185  15.089  1.00  0.00    -0.237 OA
ATOM     91  O   UNL     1      -5.176  -0.479  13.262  1.00  0.00    -0.237 OA
ATOM     92  O   UNL     1      -3.161   0.920  13.473  1.00  0.00    -0.744 OA
ENDBRANCH  88  89
ENDBRANCH  56  81
BRANCH  68  93
ATOM     93  C   UNL     1     -11.220   8.971  12.468  1.00  0.00     0.058 A 
ATOM     94  C   UNL     1     -10.558   9.557  13.558  1.00  0.00     0.135 A 
ATOM     95  C   UNL     1     -12.602   8.747  12.580  1.00  0.00     0.135 A 
ATOM     96  F   UNL     1      -9.236   9.786  13.503  1.00  0.00    -0.206 F 
ATOM     97  C   UNL     1     -11.232   9.864  14.735  1.00  0.00     0.059 A 
ATOM     98  C   UNL     1     -13.302   9.079  13.735  1.00  0.00     0.059 A 
ATOM     99  F   UNL     1     -13.285   8.202  11.561  1.00  0.00    -0.206 F 
ATOM    100  C   UNL     1     -12.604   9.617  14.814  1.00  0.00     0.060 A 
BRANCH 100 101
ATOM    101  S   UNL     1     -13.466  10.021  16.347  1.00  0.00     0.124 S 
ATOM    102  O   UNL     1     -13.009   8.952  17.229  1.00  0.00    -0.237 OA
ATOM    103  O   UNL     1     -12.958  11.354  16.649  1.00  0.00    -0.237 OA
ATOM    104  O   UNL     1     -14.876   9.963  15.969  1.00  0.00    -0.744 OA
ENDBRANCH 100 101
ENDBRANCH  68  93
ENDBRANCH  42  43
ENDBRANCH  35  37
ENDBRANCH  34  35
ENDBRANCH  33  34
ENDBRANCH  32  33
ENDBRANCH  31  32
ENDBRANCH  30  31
ENDBRANCH  29  30
ENDBRANCH  28  29
ENDBRANCH   1  28
TORSDOF 24
