REMARK SMILES Cc1cc([N+](=O)[O-])ccc1-c1ccc(/C=C/C(=O)Nc2ccc(O)c(C(=O)OCCOCCOCCOCCOC(=O)c3ccc(-c4c5nc(c(-c6c(F)cc(S(=O)(=O)[O-])cc6F)c6ccc([nH]6)c(-c6c(F)cc(S(=O)(=O)[O-])cc6F)c6nc(c(-c7c(F)cc(S(=O)(=O)[O-])cc7F)c7ccc4[nH]7)C=C6)C=C5)cc3)c2)o1
REMARK SMILES IDX 33 1 32 2 31 3 30 4 29 5 28 6 26 7 27 8 25 9 20 10 21 11
REMARK SMILES IDX 109 12 22 13 23 14 19 15 17 16 18 17 16 19 15 20 14 21 11 22
REMARK SMILES IDX 12 23 110 24 13 25 10 26 1 27 2 28 3 29 4 30 9 31 8 32 5 33
REMARK SMILES IDX 6 34 7 35 24 36 34 38 35 39 36 40 37 41 38 42 39 43 40 44
REMARK SMILES IDX 41 45 42 46 43 47 44 48 108 49 45 50 107 51 46 52 47 53
REMARK SMILES IDX 48 54 101 55 49 56 106 57 100 58 102 59 50 60 105 61 99 62
REMARK SMILES IDX 98 63 51 65 85 66 64 67 84 68 65 69 68 70 83 71 103 72 66 73
REMARK SMILES IDX 67 74 82 76 104 77 69 78 52 79 53 80 62 81 54 82 55 83 61 84
REMARK SMILES IDX 63 85 56 86 57 87 58 88 59 89 60 90 86 91 87 92 96 93 88 94
REMARK SMILES IDX 89 95 95 96 97 97 90 98 91 99 92 100 93 101 94 102 70 103
REMARK SMILES IDX 71 104 80 105 72 106 73 107 79 108 81 109 74 110 75 111
REMARK SMILES IDX 76 112 77 113 78 114
REMARK H PARENT 19 18 24 37 102 64 68 75
REMARK Flexibility Score: inf
ROOT
ATOM      1  C   UNL     1       4.756  11.185  -0.401  1.00  0.00     0.188 C 
ENDROOT
BRANCH   1   2
ATOM      2  C   UNL     1       4.837  11.124   1.142  1.00  0.00     0.188 C 
BRANCH   2   3
ATOM      3  O   UNL     1       6.073  11.409   1.788  1.00  0.00    -0.376 OA
BRANCH   3   4
ATOM      4  C   UNL     1       7.198  10.605   1.442  1.00  0.00     0.202 C 
BRANCH   4   5
ATOM      5  C   UNL     1       7.102   9.086   1.559  1.00  0.00     0.261 C 
BRANCH   5   6
ATOM      6  O   UNL     1       6.061   8.542   0.743  1.00  0.00    -0.460 OA
BRANCH   6   7
ATOM      7  C   UNL     1       5.327   7.580   1.321  1.00  0.00     0.342 C 
ATOM      8  O   UNL     1       5.597   6.892   2.285  1.00  0.00    -0.246 OA
BRANCH   7   9
ATOM      9  C   UNL     1       3.940   7.770   0.888  1.00  0.00     0.103 A 
ATOM     10  C   UNL     1       1.703   8.046   1.727  1.00  0.00     0.042 A 
ATOM     11  C   UNL     1       1.201   7.940   0.430  1.00  0.00     0.030 A 
ATOM     12  C   UNL     1       3.067   8.012   1.951  1.00  0.00     0.045 A 
ATOM     13  C   UNL     1       2.089   7.795  -0.647  1.00  0.00     0.049 A 
ATOM     14  C   UNL     1       3.465   7.710  -0.418  1.00  0.00     0.130 A 
BRANCH  10  15
ATOM     15  N   UNL     1       0.893   7.960   2.866  1.00  0.00    -0.322 N 
ATOM     16  C   UNL     1       0.460   6.763   3.398  1.00  0.00     0.248 C 
ATOM     17  O   UNL     1      -0.017   6.709   4.528  1.00  0.00    -0.270 OA
ATOM     18  H   UNL     1       0.619   8.795   3.309  1.00  0.00     0.170 HD
BRANCH  16  19
ATOM     19  C   UNL     1       0.502   5.556   2.541  1.00  0.00     0.075 C 
ATOM     20  C   UNL     1       1.654   5.053   2.071  1.00  0.00     0.053 C 
BRANCH  20  21
ATOM     21  C   UNL     1       1.615   4.080   1.045  1.00  0.00     0.127 A 
ATOM     22  C   UNL     1       0.990   2.267  -0.046  1.00  0.00     0.135 A 
ATOM     23  C   UNL     1       1.939   2.865  -0.839  1.00  0.00     0.051 A 
ATOM     24  O   UNL     1       0.743   3.025   1.050  1.00  0.00    -0.457 OA
ATOM     25  C   UNL     1       2.369   4.006  -0.121  1.00  0.00     0.051 A 
BRANCH  22  26
ATOM     26  C   UNL     1       0.268   1.013  -0.074  1.00  0.00     0.021 A 
ATOM     27  C   UNL     1       2.443  -0.344   0.018  1.00  0.00     0.045 C 
ATOM     28  C   UNL     1       0.940  -0.226  -0.029  1.00  0.00    -0.033 A 
ATOM     29  C   UNL     1       0.183  -1.410  -0.018  1.00  0.00     0.089 A 
ATOM     30  C   UNL     1      -1.217  -1.354  -0.015  1.00  0.00     0.269 A 
ATOM     31  C   UNL     1      -1.137   1.051  -0.063  1.00  0.00     0.019 A 
ATOM     32  C   UNL     1      -1.884  -0.125  -0.033  1.00  0.00     0.086 A 
BRANCH  30  33
ATOM     33  N   UNL     1      -1.994  -2.598   0.015  1.00  0.00     0.062 N 
ATOM     34  O   UNL     1      -1.372  -3.671   0.017  1.00  0.00    -0.258 OA
ATOM     35  O   UNL     1      -3.231  -2.507   0.028  1.00  0.00    -0.258 OA
ENDBRANCH  30  33
ENDBRANCH  22  26
ENDBRANCH  20  21
ENDBRANCH  16  19
ENDBRANCH  10  15
BRANCH  14  36
ATOM     36  O   UNL     1       4.271   7.553  -1.506  1.00  0.00    -0.507 OA
ATOM     37  H   UNL     1       3.898   7.519  -2.364  1.00  0.00     0.293 HD
ENDBRANCH  14  36
ENDBRANCH   7   9
ENDBRANCH   6   7
ENDBRANCH   5   6
ENDBRANCH   4   5
ENDBRANCH   3   4
ENDBRANCH   2   3
ENDBRANCH   1   2
BRANCH   1  38
ATOM     38  O   UNL     1       5.685  10.324  -1.036  1.00  0.00    -0.377 OA
BRANCH  38  39
ATOM     39  C   UNL     1       6.205  10.725  -2.305  1.00  0.00     0.188 C 
BRANCH  39  40
ATOM     40  C   UNL     1       6.810  12.136  -2.376  1.00  0.00     0.188 C 
BRANCH  40  41
ATOM     41  O   UNL     1       7.370  12.528  -1.126  1.00  0.00    -0.376 OA
BRANCH  41  42
ATOM     42  C   UNL     1       7.047  13.845  -0.686  1.00  0.00     0.202 C 
BRANCH  42  43
ATOM     43  C   UNL     1       7.779  14.924  -1.480  1.00  0.00     0.261 C 
BRANCH  43  44
ATOM     44  O   UNL     1       9.186  14.838  -1.203  1.00  0.00    -0.460 OA
BRANCH  44  45
ATOM     45  C   UNL     1       9.896  14.226  -2.192  1.00  0.00     0.338 C 
ATOM     46  O   UNL     1      10.002  14.668  -3.322  1.00  0.00    -0.246 OA
BRANCH  45  47
ATOM     47  C   UNL     1      10.401  12.907  -1.711  1.00  0.00     0.060 A 
ATOM     48  C   UNL     1      10.757  11.910  -2.627  1.00  0.00     0.016 A 
ATOM     49  C   UNL     1      10.320  12.586  -0.359  1.00  0.00     0.016 A 
ATOM     50  C   UNL     1      10.913  10.573  -2.206  1.00  0.00     0.010 A 
ATOM     51  C   UNL     1      10.414  11.257   0.035  1.00  0.00     0.010 A 
ATOM     52  C   UNL     1      10.675  10.214  -0.874  1.00  0.00    -0.014 A 
BRANCH  52  53
ATOM     53  C   UNL     1      10.457   8.827  -0.368  1.00  0.00     0.031 A 
ATOM     54  C   UNL     1      10.850   8.448   1.054  1.00  0.00     0.074 A 
ATOM     55  C   UNL     1       9.581   7.997  -1.008  1.00  0.00     0.049 A 
ATOM     56  N   UNL     1      10.458   7.365   1.644  1.00  0.00    -0.248 NA
ATOM     57  C   UNL     1      11.695   9.243   1.956  1.00  0.00     0.031 C 
ATOM     58  C   UNL     1       8.690   7.047  -0.324  1.00  0.00     0.029 A 
ATOM     59  N   UNL     1       9.148   7.866  -2.323  1.00  0.00    -0.354 N 
ATOM     60  C   UNL     1      10.612   7.504   3.001  1.00  0.00     0.074 A 
ATOM     61  C   UNL     1      11.504   8.629   3.136  1.00  0.00     0.031 C 
ATOM     62  C   UNL     1       7.836   6.484  -1.181  1.00  0.00     0.029 A 
ATOM     63  C   UNL     1       8.405   6.678  -2.479  1.00  0.00     0.049 A 
ATOM     64  H   UNL     1       9.334   8.511  -3.043  1.00  0.00     0.167 HD
ATOM     65  C   UNL     1       9.877   6.716   3.843  1.00  0.00     0.037 A 
ATOM     66  C   UNL     1       8.838   5.597  -3.209  1.00  0.00     0.037 A 
ATOM     67  C   UNL     1       9.162   5.631   3.149  1.00  0.00     0.049 A 
ATOM     68  C   UNL     1       9.176   4.346  -2.392  1.00  0.00     0.074 A 
ATOM     69  C   UNL     1       7.874   5.127   3.146  1.00  0.00     0.029 A 
ATOM     70  N   UNL     1       9.847   4.872   2.212  1.00  0.00    -0.354 N 
ATOM     71  N   UNL     1       8.930   4.229  -1.112  1.00  0.00    -0.248 NA
ATOM     72  C   UNL     1       9.868   3.158  -2.897  1.00  0.00     0.031 C 
ATOM     73  C   UNL     1       7.803   4.063   2.192  1.00  0.00     0.029 A 
ATOM     74  C   UNL     1       9.062   3.891   1.648  1.00  0.00     0.049 A 
ATOM     75  H   UNL     1      10.792   5.018   1.975  1.00  0.00     0.167 HD
ATOM     76  C   UNL     1       9.566   3.138  -0.596  1.00  0.00     0.074 A 
ATOM     77  C   UNL     1      10.083   2.453  -1.766  1.00  0.00     0.031 C 
ATOM     78  C   UNL     1       9.686   2.932   0.748  1.00  0.00     0.037 A 
BRANCH  65  79
ATOM     79  C   UNL     1       9.707   6.935   5.340  1.00  0.00     0.058 A 
ATOM     80  C   UNL     1       9.235   5.886   6.166  1.00  0.00     0.135 A 
ATOM     81  C   UNL     1       9.887   8.168   6.003  1.00  0.00     0.135 A 
ATOM     82  F   UNL     1       9.025   4.657   5.674  1.00  0.00    -0.206 F 
ATOM     83  C   UNL     1       8.952   6.048   7.527  1.00  0.00     0.059 A 
ATOM     84  C   UNL     1       9.666   8.337   7.378  1.00  0.00     0.059 A 
ATOM     85  F   UNL     1      10.235   9.278   5.339  1.00  0.00    -0.206 F 
ATOM     86  C   UNL     1       9.176   7.277   8.129  1.00  0.00     0.060 A 
BRANCH  86  87
ATOM     87  S   UNL     1       8.834   7.473   9.891  1.00  0.00     0.124 S 
ATOM     88  O   UNL     1       7.376   7.537   9.911  1.00  0.00    -0.237 OA
ATOM     89  O   UNL     1       9.426   6.271  10.467  1.00  0.00    -0.237 OA
ATOM     90  O   UNL     1       9.517   8.720  10.230  1.00  0.00    -0.744 OA
ENDBRANCH  86  87
ENDBRANCH  65  79
BRANCH  66  91
ATOM     91  C   UNL     1       9.334   6.006  -4.551  1.00  0.00     0.058 A 
ATOM     92  C   UNL     1       8.316   6.480  -5.405  1.00  0.00     0.135 A 
ATOM     93  C   UNL     1      10.602   6.596  -4.651  1.00  0.00     0.135 A 
ATOM     94  F   UNL     1       7.100   5.908  -5.377  1.00  0.00    -0.206 F 
ATOM     95  C   UNL     1       8.451   7.688  -6.072  1.00  0.00     0.059 A 
ATOM     96  C   UNL     1      10.764   7.807  -5.324  1.00  0.00     0.059 A 
ATOM     97  F   UNL     1      11.615   6.144  -3.896  1.00  0.00    -0.206 F 
ATOM     98  C   UNL     1       9.649   8.389  -5.933  1.00  0.00     0.060 A 
BRANCH  98  99
ATOM     99  S   UNL     1       9.597  10.174  -6.236  1.00  0.00     0.124 S 
ATOM    100  O   UNL     1       9.206  10.238  -7.638  1.00  0.00    -0.237 OA
ATOM    101  O   UNL     1       8.584  10.589  -5.267  1.00  0.00    -0.237 OA
ATOM    102  O   UNL     1      10.957  10.603  -5.930  1.00  0.00    -0.744 OA
ENDBRANCH  98  99
ENDBRANCH  66  91
BRANCH  78 103
ATOM    103  C   UNL     1      10.477   1.814   1.362  1.00  0.00     0.058 A 
ATOM    104  C   UNL     1      10.270   0.472   1.024  1.00  0.00     0.135 A 
ATOM    105  C   UNL     1      11.388   2.066   2.414  1.00  0.00     0.135 A 
ATOM    106  F   UNL     1       9.389   0.139   0.067  1.00  0.00    -0.206 F 
ATOM    107  C   UNL     1      10.959  -0.561   1.663  1.00  0.00     0.059 A 
ATOM    108  C   UNL     1      12.048   1.052   3.098  1.00  0.00     0.059 A 
ATOM    109  F   UNL     1      11.700   3.317   2.784  1.00  0.00    -0.206 F 
ATOM    110  C   UNL     1      11.853  -0.260   2.692  1.00  0.00     0.060 A 
BRANCH 110 111
ATOM    111  S   UNL     1      12.792  -1.581   3.479  1.00  0.00     0.124 S 
ATOM    112  O   UNL     1      11.836  -2.684   3.507  1.00  0.00    -0.237 OA
ATOM    113  O   UNL     1      13.904  -1.736   2.545  1.00  0.00    -0.237 OA
ATOM    114  O   UNL     1      13.139  -1.025   4.782  1.00  0.00    -0.744 OA
ENDBRANCH 110 111
ENDBRANCH  78 103
ENDBRANCH  52  53
ENDBRANCH  45  47
ENDBRANCH  44  45
ENDBRANCH  43  44
ENDBRANCH  42  43
ENDBRANCH  41  42
ENDBRANCH  40  41
ENDBRANCH  39  40
ENDBRANCH  38  39
ENDBRANCH   1  38
TORSDOF 29
