REMARK SMILES O=C(COc1cc(-c2ccccc2)nc(Nc2ccccc2Br)n1)OCCOCCOCCOCCOC(=O)c1ccc(-c2c3nc(c(-c4c(F)cc(S(=O)(=O)[O-])cc4F)c4ccc([nH]4)c(-c4c(F)cc(S(=O)(=O)[O-])cc4F)c4nc(c(-c5c(F)cc(S(=O)(=O)[O-])cc5F)c5ccc2[nH]5)C=C4)C=C3)cc1
REMARK SMILES IDX 30 1 29 2 28 3 27 4 26 5 25 6 2 7 1 8 3 9 4 10 5 11 6 12
REMARK SMILES IDX 24 13 7 14 15 15 14 16 8 17 9 18 13 19 10 20 12 21 11 22
REMARK SMILES IDX 16 23 17 25 18 26 22 27 19 28 21 29 23 30 20 31 31 32 32 33
REMARK SMILES IDX 33 34 34 35 35 36 36 37 37 38 38 39 39 40 40 41 41 42 105 43
REMARK SMILES IDX 42 44 104 45 43 46 44 47 45 48 98 49 46 50 103 51 97 52
REMARK SMILES IDX 99 53 47 54 102 55 96 56 95 57 48 59 82 60 61 61 81 62 62 63
REMARK SMILES IDX 65 64 80 65 100 66 63 67 64 68 79 70 101 71 66 72 49 73
REMARK SMILES IDX 50 74 59 75 51 76 52 77 58 78 60 79 53 80 54 81 55 82 56 83
REMARK SMILES IDX 57 84 83 85 84 86 93 87 85 88 86 89 92 90 94 91 87 92 88 93
REMARK SMILES IDX 89 94 90 95 91 96 67 97 68 98 77 99 69 100 70 101 76 102
REMARK SMILES IDX 78 103 71 104 72 105 73 106 74 107 75 108
REMARK H PARENT 16 24 99 58 65 69
REMARK Flexibility Score: inf
ROOT
ATOM      1  C   UNL     1       2.100   1.782   1.494  1.00  0.00     0.188 C 
ENDROOT
BRANCH   1   2
ATOM      2  C   UNL     1       2.822   0.502   1.938  1.00  0.00     0.188 C 
BRANCH   2   3
ATOM      3  O   UNL     1       4.201   0.409   1.621  1.00  0.00    -0.376 OA
BRANCH   3   4
ATOM      4  C   UNL     1       4.763   0.073   0.368  1.00  0.00     0.202 C 
BRANCH   4   5
ATOM      5  C   UNL     1       4.047   0.366  -0.952  1.00  0.00     0.261 C 
BRANCH   5   6
ATOM      6  O   UNL     1       2.633   0.105  -1.011  1.00  0.00    -0.461 OA
BRANCH   6   7
ATOM      7  C   UNL     1       2.006  -1.007  -0.567  1.00  0.00     0.344 C 
ATOM      8  O   UNL     1       0.781  -1.022  -0.473  1.00  0.00    -0.248 OA
BRANCH   7   9
ATOM      9  C   UNL     1       2.859  -2.197  -0.153  1.00  0.00     0.353 C 
BRANCH   9  10
ATOM     10  O   UNL     1       3.948  -2.438  -1.050  1.00  0.00    -0.466 OA
BRANCH  10  11
ATOM     11  C   UNL     1       3.434  -3.186  -2.071  1.00  0.00     0.219 A 
ATOM     12  C   UNL     1       2.683  -2.569  -3.026  1.00  0.00     0.097 A 
ATOM     13  N   UNL     1       3.441  -4.485  -1.829  1.00  0.00    -0.177 NA
ATOM     14  C   UNL     1       1.707  -3.359  -3.580  1.00  0.00     0.080 A 
ATOM     15  C   UNL     1       2.576  -5.224  -2.515  1.00  0.00     0.231 A 
ATOM     16  N   UNL     1       1.665  -4.703  -3.362  1.00  0.00    -0.212 NA
BRANCH  14  17
ATOM     17  C   UNL     1       0.545  -2.693  -4.212  1.00  0.00     0.000 A 
ATOM     18  C   UNL     1      -0.768  -3.094  -3.912  1.00  0.00     0.010 A 
ATOM     19  C   UNL     1       0.702  -1.523  -4.986  1.00  0.00     0.010 A 
ATOM     20  C   UNL     1      -1.871  -2.355  -4.357  1.00  0.00     0.001 A 
ATOM     21  C   UNL     1      -0.397  -0.780  -5.426  1.00  0.00     0.001 A 
ATOM     22  C   UNL     1      -1.685  -1.198  -5.111  1.00  0.00     0.000 A 
ENDBRANCH  14  17
BRANCH  15  23
ATOM     23  N   UNL     1       2.648  -6.606  -2.325  1.00  0.00    -0.323 N 
ATOM     24  H   UNL     1       1.984  -7.172  -2.781  1.00  0.00     0.170 HD
BRANCH  23  25
ATOM     25  C   UNL     1       3.617  -7.238  -1.517  1.00  0.00     0.055 A 
ATOM     26  C   UNL     1       4.714  -7.856  -2.139  1.00  0.00     0.027 A 
ATOM     27  C   UNL     1       3.637  -7.131  -0.109  1.00  0.00     0.041 A 
ATOM     28  C   UNL     1       5.785  -8.358  -1.389  1.00  0.00     0.002 A 
ATOM     29  C   UNL     1       4.705  -7.644   0.641  1.00  0.00     0.018 A 
ATOM     30  Br  UNL     1       2.205  -6.338   0.865  1.00  0.00    -0.049 Br
ATOM     31  C   UNL     1       5.779  -8.255  -0.001  1.00  0.00     0.001 A 
ENDBRANCH  23  25
ENDBRANCH  15  23
ENDBRANCH  10  11
ENDBRANCH   9  10
ENDBRANCH   7   9
ENDBRANCH   6   7
ENDBRANCH   5   6
ENDBRANCH   4   5
ENDBRANCH   3   4
ENDBRANCH   2   3
ENDBRANCH   1   2
BRANCH   1  32
ATOM     32  O   UNL     1       2.699   2.992   1.942  1.00  0.00    -0.377 OA
BRANCH  32  33
ATOM     33  C   UNL     1       4.045   3.163   1.532  1.00  0.00     0.188 C 
BRANCH  33  34
ATOM     34  C   UNL     1       5.098   2.852   2.618  1.00  0.00     0.188 C 
BRANCH  34  35
ATOM     35  O   UNL     1       4.749   2.260   3.859  1.00  0.00    -0.376 OA
BRANCH  35  36
ATOM     36  C   UNL     1       3.586   2.640   4.573  1.00  0.00     0.202 C 
BRANCH  36  37
ATOM     37  C   UNL     1       3.145   4.097   4.777  1.00  0.00     0.261 C 
BRANCH  37  38
ATOM     38  O   UNL     1       3.446   5.020   3.736  1.00  0.00    -0.460 OA
BRANCH  38  39
ATOM     39  C   UNL     1       4.617   5.683   3.861  1.00  0.00     0.338 C 
ATOM     40  O   UNL     1       5.435   5.583   4.760  1.00  0.00    -0.246 OA
BRANCH  39  41
ATOM     41  C   UNL     1       4.842   6.410   2.597  1.00  0.00     0.060 A 
ATOM     42  C   UNL     1       6.023   6.173   1.876  1.00  0.00     0.016 A 
ATOM     43  C   UNL     1       3.867   7.280   2.107  1.00  0.00     0.016 A 
ATOM     44  C   UNL     1       6.242   6.819   0.664  1.00  0.00     0.010 A 
ATOM     45  C   UNL     1       4.108   7.965   0.921  1.00  0.00     0.010 A 
ATOM     46  C   UNL     1       5.311   7.761   0.219  1.00  0.00    -0.014 A 
BRANCH  46  47
ATOM     47  C   UNL     1       5.702   8.754  -0.800  1.00  0.00     0.031 A 
ATOM     48  C   UNL     1       6.245  10.061  -0.302  1.00  0.00     0.074 A 
ATOM     49  C   UNL     1       5.524   8.528  -2.110  1.00  0.00     0.049 A 
ATOM     50  N   UNL     1       6.480  11.166  -0.954  1.00  0.00    -0.248 NA
ATOM     51  C   UNL     1       6.541  10.131   1.140  1.00  0.00     0.031 C 
ATOM     52  C   UNL     1       5.049   7.277  -2.697  1.00  0.00     0.029 A 
ATOM     53  N   UNL     1       5.687   9.369  -3.180  1.00  0.00    -0.354 N 
ATOM     54  C   UNL     1       6.920  12.073   0.003  1.00  0.00     0.074 A 
ATOM     55  C   UNL     1       6.903  11.395   1.279  1.00  0.00     0.031 C 
ATOM     56  C   UNL     1       4.915   7.448  -4.024  1.00  0.00     0.029 A 
ATOM     57  C   UNL     1       5.249   8.831  -4.365  1.00  0.00     0.049 A 
ATOM     58  H   UNL     1       6.079  10.269  -3.106  1.00  0.00     0.167 HD
ATOM     59  C   UNL     1       7.294  13.361  -0.172  1.00  0.00     0.037 A 
ATOM     60  C   UNL     1       5.089   9.410  -5.572  1.00  0.00     0.037 A 
ATOM     61  C   UNL     1       7.282  14.020  -1.449  1.00  0.00     0.049 A 
ATOM     62  C   UNL     1       5.453  10.862  -5.742  1.00  0.00     0.074 A 
ATOM     63  C   UNL     1       7.659  15.314  -1.752  1.00  0.00     0.029 A 
ATOM     64  N   UNL     1       6.847  13.438  -2.633  1.00  0.00    -0.354 N 
ATOM     65  N   UNL     1       5.890  11.714  -4.843  1.00  0.00    -0.248 NA
ATOM     66  C   UNL     1       5.307  11.434  -7.087  1.00  0.00     0.031 C 
ATOM     67  C   UNL     1       7.392  15.536  -3.107  1.00  0.00     0.029 A 
ATOM     68  C   UNL     1       6.920  14.356  -3.665  1.00  0.00     0.049 A 
ATOM     69  H   UNL     1       6.533  12.510  -2.724  1.00  0.00     0.167 HD
ATOM     70  C   UNL     1       6.102  12.912  -5.519  1.00  0.00     0.074 A 
ATOM     71  C   UNL     1       5.741  12.675  -6.902  1.00  0.00     0.031 C 
ATOM     72  C   UNL     1       6.565  14.095  -5.041  1.00  0.00     0.037 A 
BRANCH  59  73
ATOM     73  C   UNL     1       7.676  14.138   1.058  1.00  0.00     0.058 A 
ATOM     74  C   UNL     1       8.828  13.839   1.805  1.00  0.00     0.135 A 
ATOM     75  C   UNL     1       6.853  15.180   1.517  1.00  0.00     0.135 A 
ATOM     76  F   UNL     1       9.639  12.838   1.426  1.00  0.00    -0.206 F 
ATOM     77  C   UNL     1       9.121  14.508   2.989  1.00  0.00     0.059 A 
ATOM     78  C   UNL     1       7.147  15.887   2.678  1.00  0.00     0.059 A 
ATOM     79  F   UNL     1       5.737  15.506   0.846  1.00  0.00    -0.206 F 
ATOM     80  C   UNL     1       8.270  15.526   3.420  1.00  0.00     0.060 A 
BRANCH  80  81
ATOM     81  S   UNL     1       8.642  16.360   4.977  1.00  0.00     0.124 S 
ATOM     82  O   UNL     1       8.300  15.326   5.949  1.00  0.00    -0.237 OA
ATOM     83  O   UNL     1      10.064  16.655   4.840  1.00  0.00    -0.237 OA
ATOM     84  O   UNL     1       7.758  17.521   4.960  1.00  0.00    -0.744 OA
ENDBRANCH  80  81
ENDBRANCH  59  73
BRANCH  60  85
ATOM     85  C   UNL     1       4.539   8.607  -6.694  1.00  0.00     0.058 A 
ATOM     86  C   UNL     1       5.355   8.192  -7.756  1.00  0.00     0.135 A 
ATOM     87  C   UNL     1       3.202   8.178  -6.690  1.00  0.00     0.135 A 
ATOM     88  F   UNL     1       6.636   8.588  -7.812  1.00  0.00    -0.206 F 
ATOM     89  C   UNL     1       4.871   7.367  -8.766  1.00  0.00     0.059 A 
ATOM     90  C   UNL     1       2.701   7.332  -7.676  1.00  0.00     0.059 A 
ATOM     91  F   UNL     1       2.382   8.540  -5.691  1.00  0.00    -0.206 F 
ATOM     92  C   UNL     1       3.546   6.928  -8.708  1.00  0.00     0.060 A 
BRANCH  92  93
ATOM     93  S   UNL     1       2.967   5.762  -9.959  1.00  0.00     0.124 S 
ATOM     94  O   UNL     1       2.917   6.604 -11.149  1.00  0.00    -0.237 OA
ATOM     95  O   UNL     1       4.017   4.748  -9.937  1.00  0.00    -0.237 OA
ATOM     96  O   UNL     1       1.675   5.324  -9.439  1.00  0.00    -0.744 OA
ENDBRANCH  92  93
ENDBRANCH  60  85
BRANCH  72  97
ATOM     97  C   UNL     1       6.769  15.220  -6.020  1.00  0.00     0.058 A 
ATOM     98  C   UNL     1       5.696  15.934  -6.572  1.00  0.00     0.135 A 
ATOM     99  C   UNL     1       8.072  15.653  -6.324  1.00  0.00     0.135 A 
ATOM    100  F   UNL     1       4.432  15.558  -6.319  1.00  0.00    -0.206 F 
ATOM    101  C   UNL     1       5.906  17.035  -7.397  1.00  0.00     0.059 A 
ATOM    102  C   UNL     1       8.304  16.768  -7.121  1.00  0.00     0.059 A 
ATOM    103  F   UNL     1       9.134  15.011  -5.814  1.00  0.00    -0.206 F 
ATOM    104  C   UNL     1       7.214  17.451  -7.657  1.00  0.00     0.060 A 
BRANCH 104 105
ATOM    105  S   UNL     1       7.470  18.921  -8.674  1.00  0.00     0.124 S 
ATOM    106  O   UNL     1       7.095  18.433  -9.997  1.00  0.00    -0.237 OA
ATOM    107  O   UNL     1       6.553  19.881  -8.068  1.00  0.00    -0.237 OA
ATOM    108  O   UNL     1       8.888  19.217  -8.494  1.00  0.00    -0.744 OA
ENDBRANCH 104 105
ENDBRANCH  72  97
ENDBRANCH  46  47
ENDBRANCH  39  41
ENDBRANCH  38  39
ENDBRANCH  37  38
ENDBRANCH  36  37
ENDBRANCH  35  36
ENDBRANCH  34  35
ENDBRANCH  33  34
ENDBRANCH  32  33
ENDBRANCH   1  32
TORSDOF 28
