REMARK SMILES CCOc1ncnc(N[C@@H]2C=C[C@H](C(=O)OCCOCCOCCOCCOC(=O)c3ccc(-c4c5nc(c(-c6c(F)cc(S(=O)(=O)[O-])cc6F)c6ccc([nH]6)c(-c6c(F)cc(S(=O)(=O)[O-])cc6F)c6nc(c(-c7c(F)cc(S(=O)(=O)[O-])cc7F)c7ccc4[nH]7)C=C6)C=C5)cc3)C2)c1C
REMARK SMILES IDX 21 1 20 2 19 3 18 4 17 5 16 6 14 7 15 8 13 9 10 10 11 11
REMARK SMILES IDX 97 12 12 13 9 14 8 16 4 17 5 18 98 19 6 20 99 21 7 22 3 23
REMARK SMILES IDX 2 24 1 25 22 26 23 27 24 28 25 29 26 30 27 31 28 32 29 33
REMARK SMILES IDX 30 34 31 35 32 36 96 37 33 38 95 39 34 40 35 41 36 42 89 43
REMARK SMILES IDX 37 44 94 45 88 46 90 47 38 48 93 49 87 50 86 51 39 53 73 54
REMARK SMILES IDX 52 55 72 56 53 57 56 58 71 59 91 60 54 61 55 62 70 64 92 65
REMARK SMILES IDX 57 66 40 67 41 68 50 69 42 70 43 71 49 72 51 73 44 74 45 75
REMARK SMILES IDX 46 76 47 77 48 78 74 79 75 80 84 81 76 82 77 83 83 84 85 85
REMARK SMILES IDX 78 86 79 87 80 88 81 89 82 90 58 91 59 92 68 93 60 94 61 95
REMARK SMILES IDX 67 96 69 97 62 98 63 99 64 100 65 101 66 102
REMARK H PARENT 9 15 90 52 56 63
REMARK Flexibility Score: inf
ROOT
ATOM      1  C   UNL     1      10.030  -3.128  -1.852  1.00  0.00     0.188 C 
ENDROOT
BRANCH   1   2
ATOM      2  C   UNL     1      10.654  -1.823  -1.306  1.00  0.00     0.188 C 
BRANCH   2   3
ATOM      3  O   UNL     1      12.015  -1.916  -0.931  1.00  0.00    -0.376 OA
BRANCH   3   4
ATOM      4  C   UNL     1      12.415  -1.711   0.407  1.00  0.00     0.202 C 
BRANCH   4   5
ATOM      5  C   UNL     1      12.063  -2.842   1.400  1.00  0.00     0.261 C 
BRANCH   5   6
ATOM      6  O   UNL     1      10.684  -3.263   1.450  1.00  0.00    -0.463 OA
BRANCH   6   7
ATOM      7  C   UNL     1       9.808  -2.247   1.630  1.00  0.00     0.312 C 
ATOM      8  O   UNL     1      10.172  -1.086   1.712  1.00  0.00    -0.252 OA
BRANCH   7   9
ATOM      9  C   UNL     1       8.361  -2.687   1.547  1.00  0.00     0.124 C 
ATOM     10  C   UNL     1       6.704  -0.899   1.940  1.00  0.00     0.104 C 
ATOM     11  C   UNL     1       6.856  -1.793   3.119  1.00  0.00    -0.006 C 
ATOM     12  C   UNL     1       7.500  -1.615   0.839  1.00  0.00     0.048 C 
ATOM     13  C   UNL     1       7.735  -2.780   2.901  1.00  0.00    -0.014 C 
BRANCH  10  14
ATOM     14  N   UNL     1       7.082   0.484   2.168  1.00  0.00    -0.363 N 
ATOM     15  H   UNL     1       6.388   1.158   1.988  1.00  0.00     0.162 HD
BRANCH  14  16
ATOM     16  C   UNL     1       8.300   0.971   2.608  1.00  0.00     0.136 A 
ATOM     17  C   UNL     1      10.089   2.492   2.478  1.00  0.00     0.221 A 
ATOM     18  N   UNL     1      10.861   1.757   3.288  1.00  0.00    -0.201 NA
ATOM     19  C   UNL     1       8.807   2.152   2.072  1.00  0.00     0.054 A 
ATOM     20  C   UNL     1      10.262   0.664   3.762  1.00  0.00     0.228 A 
ATOM     21  C   UNL     1       7.997   3.052   1.194  1.00  0.00     0.054 C 
ATOM     22  N   UNL     1       8.997   0.275   3.518  1.00  0.00    -0.219 NA
BRANCH  17  23
ATOM     23  O   UNL     1      10.650   3.657   2.004  1.00  0.00    -0.478 OA
BRANCH  23  24
ATOM     24  C   UNL     1      10.905   4.556   3.087  1.00  0.00     0.228 C 
ATOM     25  C   UNL     1       9.699   5.461   3.275  1.00  0.00     0.049 C 
ENDBRANCH  23  24
ENDBRANCH  17  23
ENDBRANCH  14  16
ENDBRANCH  10  14
ENDBRANCH   7   9
ENDBRANCH   6   7
ENDBRANCH   5   6
ENDBRANCH   4   5
ENDBRANCH   3   4
ENDBRANCH   2   3
ENDBRANCH   1   2
BRANCH   1  26
ATOM     26  O   UNL     1      10.794  -4.319  -1.990  1.00  0.00    -0.377 OA
BRANCH  26  27
ATOM     27  C   UNL     1      12.207  -4.226  -2.123  1.00  0.00     0.188 C 
BRANCH  27  28
ATOM     28  C   UNL     1      12.796  -3.215  -3.138  1.00  0.00     0.188 C 
BRANCH  28  29
ATOM     29  O   UNL     1      11.831  -2.368  -3.745  1.00  0.00    -0.376 OA
BRANCH  29  30
ATOM     30  C   UNL     1      11.442  -2.667  -5.074  1.00  0.00     0.202 C 
BRANCH  30  31
ATOM     31  C   UNL     1      10.814  -4.042  -5.356  1.00  0.00     0.261 C 
BRANCH  31  32
ATOM     32  O   UNL     1      11.527  -5.191  -4.874  1.00  0.00    -0.460 OA
BRANCH  32  33
ATOM     33  C   UNL     1      12.747  -5.441  -5.396  1.00  0.00     0.338 C 
ATOM     34  O   UNL     1      13.306  -4.811  -6.280  1.00  0.00    -0.246 OA
BRANCH  33  35
ATOM     35  C   UNL     1      13.393  -6.470  -4.549  1.00  0.00     0.060 A 
ATOM     36  C   UNL     1      14.608  -6.168  -3.914  1.00  0.00     0.016 A 
ATOM     37  C   UNL     1      12.776  -7.705  -4.334  1.00  0.00     0.016 A 
ATOM     38  C   UNL     1      15.222  -7.110  -3.088  1.00  0.00     0.010 A 
ATOM     39  C   UNL     1      13.412  -8.663  -3.541  1.00  0.00     0.010 A 
ATOM     40  C   UNL     1      14.655  -8.382  -2.945  1.00  0.00    -0.014 A 
BRANCH  40  41
ATOM     41  C   UNL     1      15.480  -9.488  -2.401  1.00  0.00     0.031 A 
ATOM     42  C   UNL     1      16.210 -10.358  -3.390  1.00  0.00     0.074 A 
ATOM     43  C   UNL     1      15.607  -9.702  -1.079  1.00  0.00     0.049 A 
ATOM     44  N   UNL     1      16.933 -11.426  -3.184  1.00  0.00    -0.248 NA
ATOM     45  C   UNL     1      16.106  -9.966  -4.807  1.00  0.00     0.031 C 
ATOM     46  C   UNL     1      14.993  -8.896  -0.025  1.00  0.00     0.029 A 
ATOM     47  N   UNL     1      16.292 -10.680  -0.400  1.00  0.00    -0.354 N 
ATOM     48  C   UNL     1      17.366 -11.835  -4.440  1.00  0.00     0.074 A 
ATOM     49  C   UNL     1      16.799 -10.922  -5.406  1.00  0.00     0.031 C 
ATOM     50  C   UNL     1      15.310  -9.428   1.169  1.00  0.00     0.029 A 
ATOM     51  C   UNL     1      16.119 -10.629   0.964  1.00  0.00     0.049 A 
ATOM     52  H   UNL     1      16.854 -11.353  -0.847  1.00  0.00     0.167 HD
ATOM     53  C   UNL     1      18.173 -12.872  -4.759  1.00  0.00     0.037 A 
ATOM     54  C   UNL     1      16.540 -11.476   1.926  1.00  0.00     0.037 A 
ATOM     55  C   UNL     1      18.730 -13.780  -3.792  1.00  0.00     0.049 A 
ATOM     56  C   UNL     1      17.370 -12.678   1.537  1.00  0.00     0.074 A 
ATOM     57  C   UNL     1      19.558 -14.866  -4.011  1.00  0.00     0.029 A 
ATOM     58  N   UNL     1      18.514 -13.710  -2.424  1.00  0.00    -0.354 N 
ATOM     59  N   UNL     1      17.782 -13.049   0.347  1.00  0.00    -0.248 NA
ATOM     60  C   UNL     1      17.796 -13.575   2.622  1.00  0.00     0.031 C 
ATOM     61  C   UNL     1      19.799 -15.485  -2.782  1.00  0.00     0.029 A 
ATOM     62  C   UNL     1      19.175 -14.746  -1.788  1.00  0.00     0.049 A 
ATOM     63  H   UNL     1      17.971 -13.024  -1.972  1.00  0.00     0.167 HD
ATOM     64  C   UNL     1      18.543 -14.199   0.547  1.00  0.00     0.074 A 
ATOM     65  C   UNL     1      18.544 -14.454   1.971  1.00  0.00     0.031 C 
ATOM     66  C   UNL     1      19.182 -14.974  -0.365  1.00  0.00     0.037 A 
BRANCH  53  67
ATOM     67  C   UNL     1      18.487 -13.095  -6.212  1.00  0.00     0.058 A 
ATOM     68  C   UNL     1      19.331 -12.229  -6.926  1.00  0.00     0.135 A 
ATOM     69  C   UNL     1      17.981 -14.219  -6.885  1.00  0.00     0.135 A 
ATOM     70  F   UNL     1      19.822 -11.126  -6.339  1.00  0.00    -0.206 F 
ATOM     71  C   UNL     1      19.655 -12.465  -8.257  1.00  0.00     0.059 A 
ATOM     72  C   UNL     1      18.315 -14.490  -8.207  1.00  0.00     0.059 A 
ATOM     73  F   UNL     1      17.161 -15.072  -6.252  1.00  0.00    -0.206 F 
ATOM     74  C   UNL     1      19.149 -13.604  -8.887  1.00  0.00     0.060 A 
BRANCH  74  75
ATOM     75  S   UNL     1      19.614 -13.916 -10.603  1.00  0.00     0.124 S 
ATOM     76  O   UNL     1      18.891 -12.855 -11.299  1.00  0.00    -0.237 OA
ATOM     77  O   UNL     1      21.065 -13.771 -10.562  1.00  0.00    -0.237 OA
ATOM     78  O   UNL     1      19.128 -15.270 -10.848  1.00  0.00    -0.744 OA
ENDBRANCH  74  75
ENDBRANCH  53  67
BRANCH  54  79
ATOM     79  C   UNL     1      16.162 -11.250   3.350  1.00  0.00     0.058 A 
ATOM     80  C   UNL     1      17.127 -10.957   4.326  1.00  0.00     0.135 A 
ATOM     81  C   UNL     1      14.827 -11.367   3.771  1.00  0.00     0.135 A 
ATOM     82  F   UNL     1      18.419 -10.848   3.980  1.00  0.00    -0.206 F 
ATOM     83  C   UNL     1      16.789 -10.820   5.670  1.00  0.00     0.059 A 
ATOM     84  C   UNL     1      14.460 -11.202   5.103  1.00  0.00     0.059 A 
ATOM     85  F   UNL     1      13.861 -11.639   2.880  1.00  0.00    -0.206 F 
ATOM     86  C   UNL     1      15.452 -10.945   6.048  1.00  0.00     0.060 A 
BRANCH  86  87
ATOM     87  S   UNL     1      15.022 -10.747   7.792  1.00  0.00     0.124 S 
ATOM     88  O   UNL     1      15.560 -11.974   8.368  1.00  0.00    -0.237 OA
ATOM     89  O   UNL     1      15.723  -9.516   8.141  1.00  0.00    -0.237 OA
ATOM     90  O   UNL     1      13.566 -10.646   7.769  1.00  0.00    -0.744 OA
ENDBRANCH  86  87
ENDBRANCH  54  79
BRANCH  66  91
ATOM     91  C   UNL     1      19.984 -16.141   0.147  1.00  0.00     0.058 A 
ATOM     92  C   UNL     1      19.374 -17.289   0.674  1.00  0.00     0.135 A 
ATOM     93  C   UNL     1      21.386 -16.133   0.048  1.00  0.00     0.135 A 
ATOM     94  F   UNL     1      18.038 -17.350   0.795  1.00  0.00    -0.206 F 
ATOM     95  C   UNL     1      20.125 -18.376   1.111  1.00  0.00     0.059 A 
ATOM     96  C   UNL     1      22.155 -17.222   0.447  1.00  0.00     0.059 A 
ATOM     97  F   UNL     1      22.023 -15.067  -0.463  1.00  0.00    -0.206 F 
ATOM     98  C   UNL     1      21.515 -18.334   0.990  1.00  0.00     0.060 A 
BRANCH  98  99
ATOM     99  S   UNL     1      22.474 -19.766   1.530  1.00  0.00     0.124 S 
ATOM    100  O   UNL     1      22.349 -19.674   2.980  1.00  0.00    -0.237 OA
ATOM    101  O   UNL     1      21.761 -20.873   0.900  1.00  0.00    -0.237 OA
ATOM    102  O   UNL     1      23.808 -19.503   0.997  1.00  0.00    -0.744 OA
ENDBRANCH  98  99
ENDBRANCH  66  91
ENDBRANCH  40  41
ENDBRANCH  33  35
ENDBRANCH  32  33
ENDBRANCH  31  32
ENDBRANCH  30  31
ENDBRANCH  29  30
ENDBRANCH  28  29
ENDBRANCH  27  28
ENDBRANCH  26  27
ENDBRANCH   1  26
TORSDOF 27
