REMARK SMILES Cn1ccc(NS(=O)(=O)c2cc(C(=O)OCCOCCOCCOCCOC(=O)c3ccc(-c4c5nc(c(-c6c(F)cc(S(=O)(=O)[O-])cc6F)c6ccc([nH]6)c(-c6c(F)cc(S(=O)(=O)[O-])cc6F)c6nc(c(-c7c(F)cc(S(=O)(=O)[O-])cc7F)c7ccc4[nH]7)C=C6)C=C5)cc3)ccc2F)n1
REMARK SMILES IDX 21 1 20 2 19 3 18 4 17 5 16 6 15 7 13 8 14 9 12 10 10 11
REMARK SMILES IDX 11 12 98 13 97 14 99 15 96 16 7 17 8 18 9 19 6 20 5 22 1 23
REMARK SMILES IDX 2 24 3 25 100 26 4 27 22 28 23 29 24 30 25 31 26 32 27 33
REMARK SMILES IDX 28 34 29 35 30 36 31 37 95 38 32 39 94 40 33 41 34 42 35 43
REMARK SMILES IDX 88 44 36 45 93 46 87 47 89 48 37 49 92 50 86 51 85 52 38 54
REMARK SMILES IDX 72 55 51 56 71 57 52 58 55 59 70 60 90 61 53 62 54 63 69 65
REMARK SMILES IDX 91 66 56 67 39 68 40 69 49 70 41 71 42 72 48 73 50 74 43 75
REMARK SMILES IDX 44 76 45 77 46 78 47 79 73 80 74 81 83 82 75 83 76 84 82 85
REMARK SMILES IDX 84 86 77 87 78 88 79 89 80 90 81 91 57 92 58 93 67 94 59 95
REMARK SMILES IDX 60 96 66 97 68 98 61 99 62 100 63 101 64 102 65 103
REMARK H PARENT 6 21 89 53 55 64
REMARK Flexibility Score: inf
ROOT
ATOM      1  O   UNL     1      -4.507   2.378  -2.338  1.00  0.00    -0.377 OA
ENDROOT
BRANCH   1   2
ATOM      2  C   UNL     1      -3.167   2.042  -2.019  1.00  0.00     0.188 C 
BRANCH   2   3
ATOM      3  C   UNL     1      -2.881   0.834  -1.105  1.00  0.00     0.188 C 
BRANCH   3   4
ATOM      4  O   UNL     1      -4.009   0.034  -0.798  1.00  0.00    -0.376 OA
BRANCH   4   5
ATOM      5  C   UNL     1      -4.592   0.127   0.490  1.00  0.00     0.202 C 
BRANCH   5   6
ATOM      6  C   UNL     1      -4.994   1.496   1.066  1.00  0.00     0.261 C 
BRANCH   6   7
ATOM      7  O   UNL     1      -4.069   2.570   0.833  1.00  0.00    -0.460 OA
BRANCH   7   8
ATOM      8  C   UNL     1      -3.032   2.665   1.694  1.00  0.00     0.338 C 
ATOM      9  O   UNL     1      -2.822   1.954   2.661  1.00  0.00    -0.246 OA
BRANCH   8  10
ATOM     10  C   UNL     1      -2.025   3.591   1.119  1.00  0.00     0.061 A 
ATOM     11  C   UNL     1       0.278   3.820   0.353  1.00  0.00     0.124 A 
ATOM     12  C   UNL     1      -0.722   3.093   0.993  1.00  0.00     0.041 A 
ATOM     13  C   UNL     1      -0.009   5.126  -0.036  1.00  0.00     0.143 A 
ATOM     14  C   UNL     1      -1.296   5.659   0.133  1.00  0.00     0.041 A 
ATOM     15  F   UNL     1       0.939   5.944  -0.510  1.00  0.00    -0.205 F 
ATOM     16  C   UNL     1      -2.323   4.881   0.680  1.00  0.00     0.019 A 
BRANCH  11  17
ATOM     17  S   UNL     1       1.928   3.197   0.252  1.00  0.00     0.266 S 
ATOM     18  O   UNL     1       2.468   3.174   1.595  1.00  0.00    -0.201 OA
ATOM     19  O   UNL     1       2.610   3.962  -0.779  1.00  0.00    -0.201 OA
BRANCH  17  20
ATOM     20  N   UNL     1       1.998   1.657  -0.395  1.00  0.00    -0.262 N 
ATOM     21  H   UNL     1       2.503   1.595  -1.238  1.00  0.00     0.182 HD
BRANCH  20  22
ATOM     22  C   UNL     1       1.474   0.455   0.041  1.00  0.00     0.161 A 
ATOM     23  C   UNL     1      -1.280  -1.504   0.898  1.00  0.00     0.173 C 
ATOM     24  N   UNL     1       0.039  -1.008   0.589  1.00  0.00    -0.274 N 
ATOM     25  C   UNL     1       1.102  -1.739   0.153  1.00  0.00     0.110 A 
ATOM     26  N   UNL     1       0.262   0.315   0.560  1.00  0.00    -0.155 NA
ATOM     27  C   UNL     1       2.056  -0.813  -0.209  1.00  0.00     0.069 A 
ENDBRANCH  20  22
ENDBRANCH  17  20
ENDBRANCH  11  17
ENDBRANCH   8  10
ENDBRANCH   7   8
ENDBRANCH   6   7
ENDBRANCH   5   6
ENDBRANCH   4   5
ENDBRANCH   3   4
ENDBRANCH   2   3
ENDBRANCH   1   2
BRANCH   1  28
ATOM     28  C   UNL     1      -5.437   1.352  -2.668  1.00  0.00     0.188 C 
BRANCH  28  29
ATOM     29  C   UNL     1      -4.986   0.064  -3.398  1.00  0.00     0.188 C 
BRANCH  29  30
ATOM     30  O   UNL     1      -3.608   0.023  -3.736  1.00  0.00    -0.376 OA
BRANCH  30  31
ATOM     31  C   UNL     1      -3.274   0.118  -5.110  1.00  0.00     0.202 C 
BRANCH  31  32
ATOM     32  C   UNL     1      -3.589   1.446  -5.814  1.00  0.00     0.261 C 
BRANCH  32  33
ATOM     33  O   UNL     1      -4.922   1.950  -5.651  1.00  0.00    -0.460 OA
BRANCH  33  34
ATOM     34  C   UNL     1      -5.923   1.266  -6.243  1.00  0.00     0.338 C 
ATOM     35  O   UNL     1      -5.819   0.245  -6.910  1.00  0.00    -0.246 OA
BRANCH  34  36
ATOM     36  C   UNL     1      -7.197   1.846  -5.770  1.00  0.00     0.060 A 
ATOM     37  C   UNL     1      -8.115   1.026  -5.099  1.00  0.00     0.016 A 
ATOM     38  C   UNL     1      -7.459   3.209  -5.939  1.00  0.00     0.016 A 
ATOM     39  C   UNL     1      -9.309   1.564  -4.615  1.00  0.00     0.010 A 
ATOM     40  C   UNL     1      -8.667   3.739  -5.481  1.00  0.00     0.010 A 
ATOM     41  C   UNL     1      -9.610   2.913  -4.843  1.00  0.00    -0.014 A 
BRANCH  41  42
ATOM     42  C   UNL     1     -10.989   3.410  -4.622  1.00  0.00     0.031 A 
ATOM     43  C   UNL     1     -11.918   3.445  -5.805  1.00  0.00     0.074 A 
ATOM     44  C   UNL     1     -11.415   3.808  -3.409  1.00  0.00     0.049 A 
ATOM     45  N   UNL     1     -13.140   3.900  -5.888  1.00  0.00    -0.248 NA
ATOM     46  C   UNL     1     -11.395   2.891  -7.067  1.00  0.00     0.031 C 
ATOM     47  C   UNL     1     -10.624   3.775  -2.181  1.00  0.00     0.029 A 
ATOM     48  N   UNL     1     -12.624   4.328  -3.017  1.00  0.00    -0.354 N 
ATOM     49  C   UNL     1     -13.530   3.690  -7.205  1.00  0.00     0.074 A 
ATOM     50  C   UNL     1     -12.408   3.097  -7.896  1.00  0.00     0.031 C 
ATOM     51  C   UNL     1     -11.366   4.266  -1.171  1.00  0.00     0.029 A 
ATOM     52  C   UNL     1     -12.670   4.681  -1.688  1.00  0.00     0.049 A 
ATOM     53  H   UNL     1     -13.387   4.438  -3.629  1.00  0.00     0.167 HD
ATOM     54  C   UNL     1     -14.722   3.958  -7.783  1.00  0.00     0.037 A 
ATOM     55  C   UNL     1     -13.644   5.291  -0.981  1.00  0.00     0.037 A 
ATOM     56  C   UNL     1     -15.836   4.547  -7.090  1.00  0.00     0.049 A 
ATOM     57  C   UNL     1     -14.937   5.659  -1.670  1.00  0.00     0.074 A 
ATOM     58  C   UNL     1     -17.090   4.851  -7.588  1.00  0.00     0.029 A 
ATOM     59  N   UNL     1     -15.831   4.924  -5.755  1.00  0.00    -0.354 N 
ATOM     60  N   UNL     1     -15.299   5.446  -2.914  1.00  0.00    -0.248 NA
ATOM     61  C   UNL     1     -15.953   6.352  -0.863  1.00  0.00     0.031 C 
ATOM     62  C   UNL     1     -17.826   5.463  -6.570  1.00  0.00     0.029 A 
ATOM     63  C   UNL     1     -17.052   5.482  -5.420  1.00  0.00     0.049 A 
ATOM     64  H   UNL     1     -15.072   4.812  -5.139  1.00  0.00     0.167 HD
ATOM     65  C   UNL     1     -16.591   5.950  -3.028  1.00  0.00     0.074 A 
ATOM     66  C   UNL     1     -16.953   6.469  -1.726  1.00  0.00     0.031 C 
ATOM     67  C   UNL     1     -17.405   5.981  -4.113  1.00  0.00     0.037 A 
BRANCH  54  68
ATOM     68  C   UNL     1     -14.893   3.629  -9.239  1.00  0.00     0.058 A 
ATOM     69  C   UNL     1     -15.022   4.654 -10.188  1.00  0.00     0.135 A 
ATOM     70  C   UNL     1     -15.017   2.303  -9.683  1.00  0.00     0.135 A 
ATOM     71  F   UNL     1     -14.897   5.939  -9.819  1.00  0.00    -0.206 F 
ATOM     72  C   UNL     1     -15.304   4.379 -11.521  1.00  0.00     0.059 A 
ATOM     73  C   UNL     1     -15.272   2.003 -11.017  1.00  0.00     0.059 A 
ATOM     74  F   UNL     1     -14.872   1.285  -8.820  1.00  0.00    -0.206 F 
ATOM     75  C   UNL     1     -15.435   3.049 -11.925  1.00  0.00     0.060 A 
BRANCH  75  76
ATOM     76  S   UNL     1     -15.814   2.711 -13.657  1.00  0.00     0.124 S 
ATOM     77  O   UNL     1     -17.167   3.241 -13.778  1.00  0.00    -0.237 OA
ATOM     78  O   UNL     1     -14.770   3.463 -14.348  1.00  0.00    -0.237 OA
ATOM     79  O   UNL     1     -15.696   1.259 -13.752  1.00  0.00    -0.744 OA
ENDBRANCH  75  76
ENDBRANCH  54  68
BRANCH  55  80
ATOM     80  C   UNL     1     -13.438   5.605   0.461  1.00  0.00     0.058 A 
ATOM     81  C   UNL     1     -12.494   6.560   0.870  1.00  0.00     0.135 A 
ATOM     82  C   UNL     1     -14.184   4.960   1.459  1.00  0.00     0.135 A 
ATOM     83  F   UNL     1     -11.751   7.208  -0.041  1.00  0.00    -0.206 F 
ATOM     84  C   UNL     1     -12.280   6.846   2.214  1.00  0.00     0.059 A 
ATOM     85  C   UNL     1     -14.010   5.251   2.810  1.00  0.00     0.059 A 
ATOM     86  F   UNL     1     -15.114   4.054   1.119  1.00  0.00    -0.206 F 
ATOM     87  C   UNL     1     -13.043   6.185   3.178  1.00  0.00     0.060 A 
BRANCH  87  88
ATOM     88  S   UNL     1     -12.747   6.571   4.917  1.00  0.00     0.124 S 
ATOM     89  O   UNL     1     -11.412   6.015   5.114  1.00  0.00    -0.237 OA
ATOM     90  O   UNL     1     -12.836   8.027   4.926  1.00  0.00    -0.237 OA
ATOM     91  O   UNL     1     -13.826   5.872   5.607  1.00  0.00    -0.744 OA
ENDBRANCH  87  88
ENDBRANCH  55  80
BRANCH  67  92
ATOM     92  C   UNL     1     -18.784   6.561  -3.951  1.00  0.00     0.058 A 
ATOM     93  C   UNL     1     -19.916   5.734  -4.044  1.00  0.00     0.135 A 
ATOM     94  C   UNL     1     -18.992   7.941  -3.808  1.00  0.00     0.135 A 
ATOM     95  F   UNL     1     -19.776   4.407  -4.191  1.00  0.00    -0.206 F 
ATOM     96  C   UNL     1     -21.204   6.258  -4.027  1.00  0.00     0.059 A 
ATOM     97  C   UNL     1     -20.274   8.484  -3.757  1.00  0.00     0.059 A 
ATOM     98  F   UNL     1     -17.945   8.775  -3.708  1.00  0.00    -0.206 F 
ATOM     99  C   UNL     1     -21.373   7.636  -3.886  1.00  0.00     0.060 A 
BRANCH  99 100
ATOM    100  S   UNL     1     -23.053   8.296  -3.862  1.00  0.00     0.124 S 
ATOM    101  O   UNL     1     -23.483   8.071  -5.238  1.00  0.00    -0.237 OA
ATOM    102  O   UNL     1     -23.696   7.462  -2.851  1.00  0.00    -0.237 OA
ATOM    103  O   UNL     1     -22.863   9.693  -3.485  1.00  0.00    -0.744 OA
ENDBRANCH  99 100
ENDBRANCH  67  92
ENDBRANCH  41  42
ENDBRANCH  34  36
ENDBRANCH  33  34
ENDBRANCH  32  33
ENDBRANCH  31  32
ENDBRANCH  30  31
ENDBRANCH  29  30
ENDBRANCH  28  29
ENDBRANCH   1  28
TORSDOF 26
