REMARK SMILES CC[C@H]1CN(C(=O)N(CC(=O)OCCOCCOCCOCCOC(=O)c2ccc(-c3c4nc(c(-c5c(F)cc(S(=O)(=O)[O-])cc5F)c5ccc([nH]5)c(-c5c(F)cc(S(=O)(=O)[O-])cc5F)c5nc(c(-c6c(F)cc(S(=O)(=O)[O-])cc6F)c6ccc3[nH]6)C=C5)C=C4)cc2)C(C)(C)C)CC[N@@H+]1C
REMARK SMILES IDX 17 1 16 2 15 3 14 4 13 5 12 6 10 7 11 8 9 9 8 10 6 11 7 12
REMARK SMILES IDX 5 13 3 14 4 15 99 16 98 17 100 18 97 20 2 21 1 22 93 23
REMARK SMILES IDX 94 24 95 25 96 26 18 27 19 28 20 29 21 30 22 31 23 32 24 33
REMARK SMILES IDX 25 34 26 35 27 36 28 37 92 38 29 39 91 40 30 41 31 42 32 43
REMARK SMILES IDX 85 44 33 45 90 46 84 47 86 48 34 49 89 50 83 51 82 52 35 54
REMARK SMILES IDX 69 55 48 56 68 57 49 58 52 59 67 60 87 61 50 62 51 63 66 65
REMARK SMILES IDX 88 66 53 67 36 68 37 69 46 70 38 71 39 72 45 73 47 74 40 75
REMARK SMILES IDX 41 76 42 77 43 78 44 79 70 80 71 81 80 82 72 83 73 84 79 85
REMARK SMILES IDX 81 86 74 87 75 88 76 89 77 90 78 91 54 92 55 93 64 94 56 95
REMARK SMILES IDX 57 96 63 97 65 98 58 99 59 100 60 101 61 102 62 103
REMARK H PARENT 99 19 86 53 52 64
REMARK Flexibility Score: inf
ROOT
ATOM      1  C   UNL     1      -3.186  -5.261  -5.151  1.00  0.00     0.188 C 
ENDROOT
BRANCH   1   2
ATOM      2  C   UNL     1      -4.551  -4.644  -4.795  1.00  0.00     0.188 C 
BRANCH   2   3
ATOM      3  O   UNL     1      -5.151  -3.655  -5.627  1.00  0.00    -0.376 OA
BRANCH   3   4
ATOM      4  C   UNL     1      -4.413  -3.100  -6.704  1.00  0.00     0.202 C 
BRANCH   4   5
ATOM      5  C   UNL     1      -3.237  -2.168  -6.342  1.00  0.00     0.261 C 
BRANCH   5   6
ATOM      6  O   UNL     1      -2.330  -2.610  -5.301  1.00  0.00    -0.462 OA
BRANCH   6   7
ATOM      7  C   UNL     1      -2.688  -2.291  -4.035  1.00  0.00     0.325 C 
ATOM      8  O   UNL     1      -3.661  -1.587  -3.760  1.00  0.00    -0.250 OA
BRANCH   7   9
ATOM      9  C   UNL     1      -1.734  -2.748  -2.900  1.00  0.00     0.244 C 
BRANCH   9  10
ATOM     10  N   UNL     1      -0.592  -3.709  -2.820  1.00  0.00    -0.309 N 
BRANCH  10  11
ATOM     11  C   UNL     1       0.720  -3.392  -3.162  1.00  0.00     0.321 C 
ATOM     12  O   UNL     1       1.500  -4.285  -3.516  1.00  0.00    -0.248 OA
BRANCH  11  13
ATOM     13  N   UNL     1       1.221  -2.108  -3.023  1.00  0.00    -0.313 N 
ATOM     14  C   UNL     1       1.240   0.309  -2.357  1.00  0.00     0.203 C 
ATOM     15  C   UNL     1       0.868  -1.146  -1.977  1.00  0.00     0.186 C 
ATOM     16  N   UNL     1       2.703   0.449  -2.591  1.00  0.00    -0.332 N 
ATOM     17  C   UNL     1       3.143  -0.522  -3.621  1.00  0.00     0.284 C 
ATOM     18  C   UNL     1       3.478   0.292  -1.360  1.00  0.00     0.333 C 
ATOM     19  H   UNL     1       2.875   1.397  -2.926  1.00  0.00     0.348 HD
ATOM     20  C   UNL     1       2.626  -1.967  -3.461  1.00  0.00     0.183 C 
BRANCH  14  21
ATOM     21  C   UNL     1       0.504   0.925  -3.580  1.00  0.00     0.063 C 
ATOM     22  C   UNL     1      -0.998   0.736  -3.643  1.00  0.00     0.010 C 
ENDBRANCH  14  21
ENDBRANCH  11  13
ENDBRANCH  10  11
BRANCH  10  23
ATOM     23  C   UNL     1      -0.821  -5.150  -2.362  1.00  0.00     0.037 C 
ATOM     24  C   UNL     1      -0.443  -6.184  -3.459  1.00  0.00     0.034 C 
ATOM     25  C   UNL     1       0.063  -5.467  -1.120  1.00  0.00     0.034 C 
ATOM     26  C   UNL     1      -2.257  -5.439  -1.864  1.00  0.00     0.034 C 
ENDBRANCH  10  23
ENDBRANCH   9  10
ENDBRANCH   7   9
ENDBRANCH   6   7
ENDBRANCH   5   6
ENDBRANCH   4   5
ENDBRANCH   3   4
ENDBRANCH   2   3
ENDBRANCH   1   2
BRANCH   1  27
ATOM     27  O   UNL     1      -2.944  -5.338  -6.537  1.00  0.00    -0.377 OA
BRANCH  27  28
ATOM     28  C   UNL     1      -2.940  -6.640  -7.080  1.00  0.00     0.188 C 
BRANCH  28  29
ATOM     29  C   UNL     1      -4.210  -7.458  -6.792  1.00  0.00     0.188 C 
BRANCH  29  30
ATOM     30  O   UNL     1      -4.502  -7.545  -5.406  1.00  0.00    -0.376 OA
BRANCH  30  31
ATOM     31  C   UNL     1      -4.143  -8.667  -4.627  1.00  0.00     0.202 C 
BRANCH  31  32
ATOM     32  C   UNL     1      -2.739  -9.300  -4.620  1.00  0.00     0.261 C 
BRANCH  32  33
ATOM     33  O   UNL     1      -1.894  -9.080  -5.747  1.00  0.00    -0.460 OA
BRANCH  33  34
ATOM     34  C   UNL     1      -2.061  -9.917  -6.795  1.00  0.00     0.338 C 
ATOM     35  O   UNL     1      -2.878 -10.822  -6.875  1.00  0.00    -0.246 OA
BRANCH  34  36
ATOM     36  C   UNL     1      -1.245  -9.426  -7.925  1.00  0.00     0.060 A 
ATOM     37  C   UNL     1      -1.912  -9.010  -9.084  1.00  0.00     0.016 A 
ATOM     38  C   UNL     1       0.149  -9.363  -7.849  1.00  0.00     0.016 A 
ATOM     39  C   UNL     1      -1.190  -8.546 -10.180  1.00  0.00     0.010 A 
ATOM     40  C   UNL     1       0.876  -8.941  -8.969  1.00  0.00     0.010 A 
ATOM     41  C   UNL     1       0.208  -8.562 -10.147  1.00  0.00    -0.014 A 
BRANCH  41  42
ATOM     42  C   UNL     1       0.948  -8.418 -11.423  1.00  0.00     0.031 A 
ATOM     43  C   UNL     1       1.298  -9.672 -12.176  1.00  0.00     0.074 A 
ATOM     44  C   UNL     1       1.245  -7.210 -11.933  1.00  0.00     0.049 A 
ATOM     45  N   UNL     1       1.949  -9.813 -13.300  1.00  0.00    -0.248 NA
ATOM     46  C   UNL     1       0.847 -10.940 -11.577  1.00  0.00     0.031 C 
ATOM     47  C   UNL     1       0.902  -5.926 -11.323  1.00  0.00     0.029 A 
ATOM     48  N   UNL     1       1.909  -6.870 -13.084  1.00  0.00    -0.354 N 
ATOM     49  C   UNL     1       1.984 -11.181 -13.544  1.00  0.00     0.074 A 
ATOM     50  C   UNL     1       1.320 -11.830 -12.436  1.00  0.00     0.031 C 
ATOM     51  C   UNL     1       1.378  -4.936 -12.098  1.00  0.00     0.029 A 
ATOM     52  C   UNL     1       2.083  -5.516 -13.241  1.00  0.00     0.049 A 
ATOM     53  H   UNL     1       2.231  -7.533 -13.737  1.00  0.00     0.167 HD
ATOM     54  C   UNL     1       2.517 -11.837 -14.601  1.00  0.00     0.037 A 
ATOM     55  C   UNL     1       2.759  -4.830 -14.185  1.00  0.00     0.037 A 
ATOM     56  C   UNL     1       3.192 -11.183 -15.691  1.00  0.00     0.049 A 
ATOM     57  C   UNL     1       3.424  -5.586 -15.309  1.00  0.00     0.074 A 
ATOM     58  C   UNL     1       3.775 -11.754 -16.807  1.00  0.00     0.029 A 
ATOM     59  N   UNL     1       3.384  -9.813 -15.794  1.00  0.00    -0.354 N 
ATOM     60  N   UNL     1       3.444  -6.879 -15.536  1.00  0.00    -0.248 NA
ATOM     61  C   UNL     1       4.152  -4.792 -16.308  1.00  0.00     0.031 C 
ATOM     62  C   UNL     1       4.369 -10.734 -17.557  1.00  0.00     0.029 A 
ATOM     63  C   UNL     1       4.099  -9.521 -16.943  1.00  0.00     0.049 A 
ATOM     64  H   UNL     1       3.060  -9.146 -15.146  1.00  0.00     0.167 HD
ATOM     65  C   UNL     1       4.161  -7.049 -16.717  1.00  0.00     0.074 A 
ATOM     66  C   UNL     1       4.547  -5.726 -17.162  1.00  0.00     0.031 C 
ATOM     67  C   UNL     1       4.469  -8.195 -17.376  1.00  0.00     0.037 A 
BRANCH  54  68
ATOM     68  C   UNL     1       2.420 -13.338 -14.608  1.00  0.00     0.058 A 
ATOM     69  C   UNL     1       1.197 -14.001 -14.796  1.00  0.00     0.135 A 
ATOM     70  C   UNL     1       3.571 -14.124 -14.442  1.00  0.00     0.135 A 
ATOM     71  F   UNL     1       0.060 -13.299 -14.935  1.00  0.00    -0.206 F 
ATOM     72  C   UNL     1       1.115 -15.390 -14.796  1.00  0.00     0.059 A 
ATOM     73  C   UNL     1       3.518 -15.515 -14.469  1.00  0.00     0.059 A 
ATOM     74  F   UNL     1       4.766 -13.543 -14.249  1.00  0.00    -0.206 F 
ATOM     75  C   UNL     1       2.282 -16.138 -14.633  1.00  0.00     0.060 A 
BRANCH  75  76
ATOM     76  S   UNL     1       2.159 -17.939 -14.644  1.00  0.00     0.124 S 
ATOM     77  O   UNL     1       1.490 -18.193 -13.371  1.00  0.00    -0.237 OA
ATOM     78  O   UNL     1       1.360 -18.189 -15.839  1.00  0.00    -0.237 OA
ATOM     79  O   UNL     1       3.549 -18.375 -14.719  1.00  0.00    -0.744 OA
ENDBRANCH  75  76
ENDBRANCH  54  68
BRANCH  55  80
ATOM     80  C   UNL     1       2.860  -3.347 -14.098  1.00  0.00     0.058 A 
ATOM     81  C   UNL     1       2.231  -2.515 -15.036  1.00  0.00     0.135 A 
ATOM     82  C   UNL     1       3.591  -2.731 -13.069  1.00  0.00     0.135 A 
ATOM     83  F   UNL     1       1.532  -3.053 -16.048  1.00  0.00    -0.206 F 
ATOM     84  C   UNL     1       2.332  -1.129 -14.966  1.00  0.00     0.059 A 
ATOM     85  C   UNL     1       3.683  -1.347 -12.961  1.00  0.00     0.059 A 
ATOM     86  F   UNL     1       4.209  -3.480 -12.142  1.00  0.00    -0.206 F 
ATOM     87  C   UNL     1       3.056  -0.554 -13.919  1.00  0.00     0.060 A 
BRANCH  87  88
ATOM     88  S   UNL     1       3.133   1.247 -13.807  1.00  0.00     0.124 S 
ATOM     89  O   UNL     1       3.996   1.576 -14.935  1.00  0.00    -0.237 OA
ATOM     90  O   UNL     1       1.729   1.621 -13.946  1.00  0.00    -0.237 OA
ATOM     91  O   UNL     1       3.707   1.477 -12.484  1.00  0.00    -0.744 OA
ENDBRANCH  87  88
ENDBRANCH  55  80
BRANCH  67  92
ATOM     92  C   UNL     1       5.226  -8.075 -18.672  1.00  0.00     0.058 A 
ATOM     93  C   UNL     1       6.580  -7.707 -18.711  1.00  0.00     0.135 A 
ATOM     94  C   UNL     1       4.602  -8.397 -19.889  1.00  0.00     0.135 A 
ATOM     95  F   UNL     1       7.226  -7.386 -17.578  1.00  0.00    -0.206 F 
ATOM     96  C   UNL     1       7.281  -7.638 -19.911  1.00  0.00     0.059 A 
ATOM     97  C   UNL     1       5.292  -8.367 -21.097  1.00  0.00     0.059 A 
ATOM     98  F   UNL     1       3.312  -8.769 -19.910  1.00  0.00    -0.206 F 
ATOM     99  C   UNL     1       6.629  -7.974 -21.099  1.00  0.00     0.060 A 
BRANCH  99 100
ATOM    100  S   UNL     1       7.560  -7.915 -22.644  1.00  0.00     0.124 S 
ATOM    101  O   UNL     1       7.708  -6.477 -22.844  1.00  0.00    -0.237 OA
ATOM    102  O   UNL     1       8.781  -8.636 -22.300  1.00  0.00    -0.237 OA
ATOM    103  O   UNL     1       6.686  -8.594 -23.596  1.00  0.00    -0.744 OA
ENDBRANCH  99 100
ENDBRANCH  67  92
ENDBRANCH  41  42
ENDBRANCH  34  36
ENDBRANCH  33  34
ENDBRANCH  32  33
ENDBRANCH  31  32
ENDBRANCH  30  31
ENDBRANCH  29  30
ENDBRANCH  28  29
ENDBRANCH  27  28
ENDBRANCH   1  27
TORSDOF 28
