REMARK SMILES O=C(/C=C/[C@@]12C=C(O)C(=O)C=C1C(=O)C1=Cc3cc(O)c(O)cc3O[C@@H](c3ccc(O)c(O)c3)[C@@H]12)OCCOCCOCCOCCOC(=O)c1ccc(-c2c3nc(c(-c4c(F)cc(S(=O)(=O)[O-])cc4F)c4ccc([nH]4)c(-c4c(F)cc(S(=O)(=O)[O-])cc4F)c4nc(c(-c5c(F)cc(S(=O)(=O)[O-])cc5F)c5ccc2[nH]5)C=C4)C=C3)cc1
REMARK SMILES IDX 40 1 39 2 38 3 37 4 36 5 2 6 1 7 3 8 4 9 5 10 6 11 12 12
REMARK SMILES IDX 35 13 7 14 11 15 13 16 15 17 9 19 14 20 16 21 10 22 8 23
REMARK SMILES IDX 17 25 18 26 24 27 19 28 23 29 21 30 25 31 26 32 27 34 28 35
REMARK SMILES IDX 34 36 29 37 32 38 30 39 33 40 31 42 20 44 22 46 41 48 42 49
REMARK SMILES IDX 43 50 44 51 45 52 46 53 47 54 48 55 49 56 50 57 51 58 52 59
REMARK SMILES IDX 116 60 53 61 115 62 54 63 55 64 56 65 109 66 57 67 114 68
REMARK SMILES IDX 108 69 110 70 58 71 113 72 107 73 106 74 59 76 93 77 72 78
REMARK SMILES IDX 92 79 73 80 76 81 91 82 111 83 74 84 75 85 90 87 112 88
REMARK SMILES IDX 77 89 60 90 61 91 70 92 62 93 63 94 69 95 71 96 64 97 65 98
REMARK SMILES IDX 66 99 67 100 68 101 94 102 95 103 104 104 96 105 97 106
REMARK SMILES IDX 103 107 105 108 98 109 99 110 100 111 101 112 102 113 78 114
REMARK SMILES IDX 79 115 88 116 80 117 81 118 87 119 89 120 82 121 83 122
REMARK SMILES IDX 84 123 85 124 86 125
REMARK H PARENT 8 24 33 41 31 43 20 45 22 47 110 75 76 86
REMARK Flexibility Score: 80.00
ROOT
ATOM      1  C   UNL     1       2.627  -0.517  -1.485  1.00  0.00     0.188 C 
ENDROOT
BRANCH   1   2
ATOM      2  O   UNL     1       3.972  -0.456  -1.017  1.00  0.00    -0.376 OA
BRANCH   2   3
ATOM      3  C   UNL     1       4.378  -0.951   0.255  1.00  0.00     0.202 C 
BRANCH   3   4
ATOM      4  C   UNL     1       3.714  -0.396   1.518  1.00  0.00     0.261 C 
BRANCH   4   5
ATOM      5  O   UNL     1       2.363   0.056   1.332  1.00  0.00    -0.460 OA
BRANCH   5   6
ATOM      6  C   UNL     1       1.944   1.338   1.177  1.00  0.00     0.330 C 
ATOM      7  O   UNL     1       0.862   1.681   1.649  1.00  0.00    -0.247 OA
BRANCH   6   8
ATOM      8  C   UNL     1       2.638   2.314   0.275  1.00  0.00     0.090 C 
ATOM      9  C   UNL     1       3.886   2.223  -0.207  1.00  0.00    -0.003 C 
BRANCH   9  10
ATOM     10  C   UNL     1       4.885   3.212  -0.835  1.00  0.00     0.051 C 
ATOM     11  C   UNL     1       4.757   4.405   0.064  1.00  0.00     0.040 C 
ATOM     12  C   UNL     1       6.212   2.489  -0.667  1.00  0.00     0.018 C 
ATOM     13  C   UNL     1       4.981   3.486  -2.385  1.00  0.00     0.087 CG0
ATOM     14  C   UNL     1       5.487   4.519   1.179  1.00  0.00     0.160 C 
ATOM     15  C   UNL     1       7.022   2.616   0.389  1.00  0.00     0.065 C 
ATOM     16  C   UNL     1       6.391   1.602  -1.869  1.00  0.00     0.186 C 
ATOM     17  C   UNL     1       5.510   2.181  -2.935  1.00  0.00     0.009 C 
ATOM     18  G   UNL     1       6.111   4.489  -2.883  1.00  0.00     0.000 G0
ATOM     19  C   UNL     1       6.618   3.570   1.457  1.00  0.00     0.220 C 
ATOM     20  O   UNL     1       7.192   0.702  -1.974  1.00  0.00    -0.289 OA
ATOM     21  C   UNL     1       5.445   1.827  -4.228  1.00  0.00     0.020 C 
ATOM     22  O   UNL     1       7.209   3.638   2.528  1.00  0.00    -0.286 OA
BRANCH  14  23
ATOM     23  O   UNL     1       5.196   5.496   2.110  1.00  0.00    -0.504 OA
ATOM     24  H   UNL     1       4.494   6.097   1.955  1.00  0.00     0.293 HD
ENDBRANCH  14  23
BRANCH  21  25
ATOM     25  C   UNL     1       4.935   2.815  -5.207  1.00  0.00     0.021 A 
ATOM     26  C   UNL     1       4.029   2.448  -6.216  1.00  0.00     0.062 A 
ATOM     27  C   UNL     1       5.396   4.150  -5.180  1.00  0.00     0.131 A 
ATOM     28  C   UNL     1       3.589   3.406  -7.137  1.00  0.00     0.158 A 
ATOM     29  C   UNL     1       4.996   5.081  -6.142  1.00  0.00     0.097 A 
ATOM     30  C   UNL     1       4.069   4.711  -7.093  1.00  0.00     0.161 A 
BRANCH  27  31
ATOM     31  O   UNL     1       6.327   4.629  -4.304  1.00  0.00    -0.484 OA
BRANCH  31  32
ATOM     32  C   UNL     1       6.111   4.489  -2.883  1.00  0.00     0.213 CG0
ATOM     33  G   UNL     1       4.981   3.486  -2.385  1.00  0.00     0.000 G0
BRANCH  32  34
ATOM     34  C   UNL     1       5.994   5.883  -2.317  1.00  0.00    -0.003 A 
ATOM     35  C   UNL     1       6.777   6.238  -1.206  1.00  0.00     0.011 A 
ATOM     36  C   UNL     1       5.053   6.791  -2.813  1.00  0.00     0.057 A 
ATOM     37  C   UNL     1       6.461   7.373  -0.467  1.00  0.00     0.050 A 
ATOM     38  C   UNL     1       4.802   7.966  -2.117  1.00  0.00     0.157 A 
ATOM     39  C   UNL     1       5.439   8.205  -0.905  1.00  0.00     0.157 A 
BRANCH  38  40
ATOM     40  O   UNL     1       3.885   8.853  -2.598  1.00  0.00    -0.504 OA
ATOM     41  H   UNL     1       3.712   9.647  -2.132  1.00  0.00     0.293 HD
ENDBRANCH  38  40
BRANCH  39  42
ATOM     42  O   UNL     1       5.035   9.232  -0.105  1.00  0.00    -0.504 OA
ATOM     43  H   UNL     1       5.467   9.390   0.711  1.00  0.00     0.293 HD
ENDBRANCH  39  42
ENDBRANCH  32  34
ENDBRANCH  31  32
ENDBRANCH  27  31
BRANCH  28  44
ATOM     44  O   UNL     1       2.682   3.116  -8.120  1.00  0.00    -0.504 OA
ATOM     45  H   UNL     1       2.329   2.251  -8.192  1.00  0.00     0.293 HD
ENDBRANCH  28  44
BRANCH  30  46
ATOM     46  O   UNL     1       3.631   5.647  -7.986  1.00  0.00    -0.504 OA
ATOM     47  H   UNL     1       3.002   5.412  -8.639  1.00  0.00     0.293 HD
ENDBRANCH  30  46
ENDBRANCH  21  25
ENDBRANCH   9  10
ENDBRANCH   6   8
ENDBRANCH   5   6
ENDBRANCH   4   5
ENDBRANCH   3   4
ENDBRANCH   2   3
ENDBRANCH   1   2
BRANCH   1  48
ATOM     48  C   UNL     1       1.954  -1.875  -1.551  1.00  0.00     0.188 C 
BRANCH  48  49
ATOM     49  O   UNL     1       2.519  -2.728  -2.530  1.00  0.00    -0.377 OA
BRANCH  49  50
ATOM     50  C   UNL     1       3.879  -3.040  -2.300  1.00  0.00     0.188 C 
BRANCH  50  51
ATOM     51  C   UNL     1       4.918  -2.234  -3.110  1.00  0.00     0.188 C 
BRANCH  51  52
ATOM     52  O   UNL     1       4.538  -1.356  -4.163  1.00  0.00    -0.376 OA
BRANCH  52  53
ATOM     53  C   UNL     1       3.373  -1.596  -4.927  1.00  0.00     0.202 C 
BRANCH  53  54
ATOM     54  C   UNL     1       3.160  -2.934  -5.651  1.00  0.00     0.261 C 
BRANCH  54  55
ATOM     55  O   UNL     1       3.523  -4.112  -4.925  1.00  0.00    -0.460 OA
BRANCH  55  56
ATOM     56  C   UNL     1       4.755  -4.626  -5.177  1.00  0.00     0.338 C 
ATOM     57  O   UNL     1       5.548  -4.237  -6.014  1.00  0.00    -0.246 OA
BRANCH  56  58
ATOM     58  C   UNL     1       5.083  -5.590  -4.090  1.00  0.00     0.060 A 
ATOM     59  C   UNL     1       4.126  -6.483  -3.597  1.00  0.00     0.016 A 
ATOM     60  C   UNL     1       6.330  -5.479  -3.451  1.00  0.00     0.016 A 
ATOM     61  C   UNL     1       4.431  -7.284  -2.493  1.00  0.00     0.010 A 
ATOM     62  C   UNL     1       6.632  -6.276  -2.342  1.00  0.00     0.010 A 
ATOM     63  C   UNL     1       5.699  -7.215  -1.882  1.00  0.00    -0.014 A 
BRANCH  63  64
ATOM     64  C   UNL     1       6.136  -8.336  -1.011  1.00  0.00     0.031 A 
ATOM     65  C   UNL     1       6.220  -8.252   0.482  1.00  0.00     0.074 A 
ATOM     66  C   UNL     1       6.463  -9.478  -1.648  1.00  0.00     0.049 A 
ATOM     67  N   UNL     1       6.447  -9.219   1.337  1.00  0.00    -0.248 NA
ATOM     68  C   UNL     1       6.046  -6.932   1.103  1.00  0.00     0.031 C 
ATOM     69  C   UNL     1       6.479  -9.641  -3.106  1.00  0.00     0.029 A 
ATOM     70  N   UNL     1       6.818 -10.713  -1.173  1.00  0.00    -0.354 N 
ATOM     71  C   UNL     1       6.415  -8.637   2.598  1.00  0.00     0.074 A 
ATOM     72  C   UNL     1       6.195  -7.219   2.393  1.00  0.00     0.031 C 
ATOM     73  C   UNL     1       6.772 -10.913  -3.404  1.00  0.00     0.029 A 
ATOM     74  C   UNL     1       6.995 -11.648  -2.165  1.00  0.00     0.049 A 
ATOM     75  H   UNL     1       6.935 -10.911  -0.216  1.00  0.00     0.167 HD
ATOM     76  C   UNL     1       6.540  -9.244   3.804  1.00  0.00     0.037 A 
ATOM     77  C   UNL     1       7.288 -12.959  -2.093  1.00  0.00     0.037 A 
ATOM     78  C   UNL     1       6.774 -10.659   3.981  1.00  0.00     0.049 A 
ATOM     79  C   UNL     1       7.432 -13.598  -0.743  1.00  0.00     0.074 A 
ATOM     80  C   UNL     1       6.859 -11.373   5.165  1.00  0.00     0.029 A 
ATOM     81  N   UNL     1       6.976 -11.571   2.955  1.00  0.00    -0.354 N 
ATOM     82  N   UNL     1       7.286 -13.053   0.441  1.00  0.00    -0.248 NA
ATOM     83  C   UNL     1       7.774 -15.025  -0.714  1.00  0.00     0.031 C 
ATOM     84  C   UNL     1       7.166 -12.701   4.859  1.00  0.00     0.029 A 
ATOM     85  C   UNL     1       7.215 -12.832   3.481  1.00  0.00     0.049 A 
ATOM     86  H   UNL     1       6.953 -11.356   1.994  1.00  0.00     0.167 HD
ATOM     87  C   UNL     1       7.497 -14.077   1.356  1.00  0.00     0.074 A 
ATOM     88  C   UNL     1       7.764 -15.276   0.589  1.00  0.00     0.031 C 
ATOM     89  C   UNL     1       7.472 -14.023   2.709  1.00  0.00     0.037 A 
BRANCH  76  90
ATOM     90  C   UNL     1       6.396  -8.412   5.052  1.00  0.00     0.058 A 
ATOM     91  C   UNL     1       5.143  -7.931   5.461  1.00  0.00     0.135 A 
ATOM     92  C   UNL     1       7.484  -8.221   5.923  1.00  0.00     0.135 A 
ATOM     93  F   UNL     1       4.070  -8.082   4.669  1.00  0.00    -0.206 F 
ATOM     94  C   UNL     1       4.971  -7.290   6.684  1.00  0.00     0.059 A 
ATOM     95  C   UNL     1       7.331  -7.603   7.163  1.00  0.00     0.059 A 
ATOM     96  F   UNL     1       8.704  -8.668   5.588  1.00  0.00    -0.206 F 
ATOM     97  C   UNL     1       6.070  -7.139   7.533  1.00  0.00     0.060 A 
BRANCH  97  98
ATOM     98  S   UNL     1       5.812  -6.339   9.132  1.00  0.00     0.124 S 
ATOM     99  O   UNL     1       5.497  -4.972   8.724  1.00  0.00    -0.237 OA
ATOM    100  O   UNL     1       4.702  -7.106   9.686  1.00  0.00    -0.237 OA
ATOM    101  O   UNL     1       7.093  -6.509   9.810  1.00  0.00    -0.744 OA
ENDBRANCH  97  98
ENDBRANCH  76  90
BRANCH  77 102
ATOM    102  C   UNL     1       7.420 -13.751  -3.342  1.00  0.00     0.058 A 
ATOM    103  C   UNL     1       6.472 -14.725  -3.682  1.00  0.00     0.135 A 
ATOM    104  C   UNL     1       8.477 -13.523  -4.238  1.00  0.00     0.135 A 
ATOM    105  F   UNL     1       5.440 -14.973  -2.861  1.00  0.00    -0.206 F 
ATOM    106  C   UNL     1       6.579 -15.466  -4.853  1.00  0.00     0.059 A 
ATOM    107  C   UNL     1       8.589 -14.229  -5.430  1.00  0.00     0.059 A 
ATOM    108  F   UNL     1       9.395 -12.580  -3.972  1.00  0.00    -0.206 F 
ATOM    109  C   UNL     1       7.642 -15.209  -5.722  1.00  0.00     0.060 A 
BRANCH 109 110
ATOM    110  S   UNL     1       7.757 -16.164  -7.249  1.00  0.00     0.124 S 
ATOM    111  O   UNL     1       8.103 -17.486  -6.741  1.00  0.00    -0.237 OA
ATOM    112  O   UNL     1       6.413 -16.021  -7.799  1.00  0.00    -0.237 OA
ATOM    113  O   UNL     1       8.809 -15.479  -7.995  1.00  0.00    -0.744 OA
ENDBRANCH 109 110
ENDBRANCH  77 102
BRANCH  89 114
ATOM    114  C   UNL     1       7.729 -15.296   3.468  1.00  0.00     0.058 A 
ATOM    115  C   UNL     1       9.017 -15.842   3.565  1.00  0.00     0.135 A 
ATOM    116  C   UNL     1       6.697 -15.912   4.195  1.00  0.00     0.135 A 
ATOM    117  F   UNL     1      10.036 -15.300   2.879  1.00  0.00    -0.206 F 
ATOM    118  C   UNL     1       9.277 -16.951   4.365  1.00  0.00     0.059 A 
ATOM    119  C   UNL     1       6.939 -17.005   5.022  1.00  0.00     0.059 A 
ATOM    120  F   UNL     1       5.446 -15.427   4.137  1.00  0.00    -0.206 F 
ATOM    121  C   UNL     1       8.234 -17.515   5.102  1.00  0.00     0.060 A 
BRANCH 121 122
ATOM    122  S   UNL     1       8.610 -18.894   6.205  1.00  0.00     0.124 S 
ATOM    123  O   UNL     1       8.924 -19.956   5.256  1.00  0.00    -0.237 OA
ATOM    124  O   UNL     1       9.738 -18.375   6.973  1.00  0.00    -0.237 OA
ATOM    125  O   UNL     1       7.374 -19.074   6.961  1.00  0.00    -0.744 OA
ENDBRANCH 121 122
ENDBRANCH  89 114
ENDBRANCH  63  64
ENDBRANCH  56  58
ENDBRANCH  55  56
ENDBRANCH  54  55
ENDBRANCH  53  54
ENDBRANCH  52  53
ENDBRANCH  51  52
ENDBRANCH  50  51
ENDBRANCH  49  50
ENDBRANCH  48  49
ENDBRANCH   1  48
TORSDOF 30
