REMARK SMILES Cc1ccc(OCCn2ccnc2)c(/C=C/C(=O)OCCOCCOCCOCCOC(=O)c2ccc(-c3c4nc(c(-c5c(F)cc(S(=O)(=O)[O-])cc5F)c5ccc([nH]5)c(-c5c(F)cc(S(=O)(=O)[O-])cc5F)c5nc(c(-c6c(F)cc(S(=O)(=O)[O-])cc6F)c6ccc3[nH]6)C=C5)C=C4)cc2)n1
REMARK SMILES IDX 24 1 23 2 22 3 21 4 20 5 19 6 17 7 18 8 16 9 15 10 14 11
REMARK SMILES IDX 1 12 2 13 3 14 100 15 4 16 5 17 6 18 7 19 8 20 9 21 10 22
REMARK SMILES IDX 13 23 11 24 12 25 25 26 26 27 27 28 28 29 29 30 30 31 31 32
REMARK SMILES IDX 32 33 33 34 34 35 35 36 99 37 36 38 98 39 37 40 38 41 39 42
REMARK SMILES IDX 92 43 40 44 97 45 91 46 93 47 41 48 96 49 90 50 89 51 42 53
REMARK SMILES IDX 76 54 55 55 75 56 56 57 59 58 74 59 94 60 57 61 58 62 73 64
REMARK SMILES IDX 95 65 60 66 43 67 44 68 53 69 45 70 46 71 52 72 54 73 47 74
REMARK SMILES IDX 48 75 49 76 50 77 51 78 77 79 78 80 87 81 79 82 80 83 86 84
REMARK SMILES IDX 88 85 81 86 82 87 83 88 84 89 85 90 61 91 62 92 71 93 63 94
REMARK SMILES IDX 64 95 70 96 72 97 65 98 66 99 67 100 68 101 69 102
REMARK H PARENT 93 52 59 63
REMARK Flexibility Score: inf
ROOT
ATOM      1  C   UNL     1      -1.726   4.921   2.335  1.00  0.00     0.188 C 
ENDROOT
BRANCH   1   2
ATOM      2  C   UNL     1      -1.092   6.106   1.520  1.00  0.00     0.188 C 
BRANCH   2   3
ATOM      3  O   UNL     1      -1.605   7.410   1.282  1.00  0.00    -0.376 OA
BRANCH   3   4
ATOM      4  C   UNL     1      -2.792   7.613   0.527  1.00  0.00     0.202 C 
BRANCH   4   5
ATOM      5  C   UNL     1      -3.315   6.582  -0.531  1.00  0.00     0.261 C 
BRANCH   5   6
ATOM      6  O   UNL     1      -2.862   5.198  -0.519  1.00  0.00    -0.460 OA
BRANCH   6   7
ATOM      7  C   UNL     1      -1.657   4.926  -1.144  1.00  0.00     0.330 C 
ATOM      8  O   UNL     1      -0.995   5.719  -1.741  1.00  0.00    -0.247 OA
BRANCH   7   9
ATOM      9  C   UNL     1      -1.061   3.633  -0.641  1.00  0.00     0.096 C 
ATOM     10  C   UNL     1      -1.723   2.543  -0.238  1.00  0.00     0.040 C 
BRANCH  10  11
ATOM     11  C   UNL     1      -1.062   1.282   0.181  1.00  0.00     0.105 A 
ATOM     12  C   UNL     1       2.408  -0.012   0.093  1.00  0.00     0.067 C 
ATOM     13  C   UNL     1       0.931   0.074   0.362  1.00  0.00     0.038 A 
ATOM     14  C   UNL     1       0.244  -1.057   0.777  1.00  0.00     0.027 A 
ATOM     15  N   UNL     1       0.304   1.258   0.133  1.00  0.00    -0.250 NA
ATOM     16  C   UNL     1      -1.147  -1.013   0.859  1.00  0.00     0.050 A 
ATOM     17  C   UNL     1      -1.826   0.136   0.455  1.00  0.00     0.145 A 
BRANCH  17  18
ATOM     18  O   UNL     1      -3.162   0.175   0.140  1.00  0.00    -0.489 OA
BRANCH  18  19
ATOM     19  C   UNL     1      -3.880  -1.053  -0.024  1.00  0.00     0.251 C 
BRANCH  19  20
ATOM     20  C   UNL     1      -3.687  -1.782  -1.373  1.00  0.00     0.164 C 
BRANCH  20  21
ATOM     21  N   UNL     1      -2.358  -2.285  -1.659  1.00  0.00    -0.334 N 
ATOM     22  C   UNL     1      -1.300  -1.553  -2.130  1.00  0.00     0.107 A 
ATOM     23  C   UNL     1      -1.908  -3.560  -1.456  1.00  0.00     0.199 A 
ATOM     24  C   UNL     1      -0.211  -2.386  -2.001  1.00  0.00     0.130 A 
ATOM     25  N   UNL     1      -0.603  -3.638  -1.607  1.00  0.00    -0.245 NA
ENDBRANCH  20  21
ENDBRANCH  19  20
ENDBRANCH  18  19
ENDBRANCH  17  18
ENDBRANCH  10  11
ENDBRANCH   7   9
ENDBRANCH   6   7
ENDBRANCH   5   6
ENDBRANCH   4   5
ENDBRANCH   3   4
ENDBRANCH   2   3
ENDBRANCH   1   2
BRANCH   1  26
ATOM     26  O   UNL     1      -3.105   4.814   2.559  1.00  0.00    -0.377 OA
BRANCH  26  27
ATOM     27  C   UNL     1      -3.767   6.028   2.780  1.00  0.00     0.188 C 
BRANCH  27  28
ATOM     28  C   UNL     1      -3.123   7.205   3.587  1.00  0.00     0.188 C 
BRANCH  28  29
ATOM     29  O   UNL     1      -1.754   7.486   3.853  1.00  0.00    -0.376 OA
BRANCH  29  30
ATOM     30  C   UNL     1      -0.927   6.586   4.577  1.00  0.00     0.202 C 
BRANCH  30  31
ATOM     31  C   UNL     1      -1.495   5.587   5.617  1.00  0.00     0.261 C 
BRANCH  31  32
ATOM     32  O   UNL     1      -2.893   5.256   5.604  1.00  0.00    -0.460 OA
BRANCH  32  33
ATOM     33  C   UNL     1      -3.752   6.100   6.239  1.00  0.00     0.338 C 
ATOM     34  O   UNL     1      -3.481   7.227   6.678  1.00  0.00    -0.246 OA
BRANCH  33  35
ATOM     35  C   UNL     1      -5.112   5.541   6.259  1.00  0.00     0.060 A 
ATOM     36  C   UNL     1      -6.196   6.322   6.685  1.00  0.00     0.016 A 
ATOM     37  C   UNL     1      -5.046   4.243   6.704  1.00  0.00     0.016 A 
ATOM     38  C   UNL     1      -6.808   5.963   7.948  1.00  0.00     0.010 A 
ATOM     39  C   UNL     1      -5.837   3.925   7.792  1.00  0.00     0.010 A 
ATOM     40  C   UNL     1      -6.271   4.856   8.749  1.00  0.00    -0.014 A 
BRANCH  40  41
ATOM     41  C   UNL     1      -6.884   3.984  10.085  1.00  0.00     0.031 A 
ATOM     42  C   UNL     1      -8.385   3.636   9.140  1.00  0.00     0.074 A 
ATOM     43  C   UNL     1      -6.306   3.564  11.523  1.00  0.00     0.049 A 
ATOM     44  N   UNL     1      -9.466   4.388   9.119  1.00  0.00    -0.248 NA
ATOM     45  C   UNL     1      -8.575   2.849   7.742  1.00  0.00     0.031 C 
ATOM     46  C   UNL     1      -4.916   3.687  12.452  1.00  0.00     0.029 A 
ATOM     47  N   UNL     1      -6.872   2.846  12.696  1.00  0.00    -0.354 N 
ATOM     48  C   UNL     1     -10.454   3.548   8.539  1.00  0.00     0.074 A 
ATOM     49  C   UNL     1      -9.884   2.878   7.464  1.00  0.00     0.031 C 
ATOM     50  C   UNL     1      -4.755   2.694  13.448  1.00  0.00     0.029 A 
ATOM     51  C   UNL     1      -6.002   2.015  13.652  1.00  0.00     0.049 A 
ATOM     52  H   UNL     1      -7.840   2.905  12.866  1.00  0.00     0.167 HD
ATOM     53  C   UNL     1     -11.345   2.943   9.351  1.00  0.00     0.037 A 
ATOM     54  C   UNL     1      -6.301   0.985  14.614  1.00  0.00     0.037 A 
ATOM     55  C   UNL     1     -11.315   3.684  10.571  1.00  0.00     0.049 A 
ATOM     56  C   UNL     1      -7.780   0.925  14.543  1.00  0.00     0.074 A 
ATOM     57  C   UNL     1     -11.454   5.030  10.853  1.00  0.00     0.029 A 
ATOM     58  N   UNL     1     -10.399   3.187  11.443  1.00  0.00    -0.354 N 
ATOM     59  N   UNL     1      -8.522   1.912  14.970  1.00  0.00    -0.248 NA
ATOM     60  C   UNL     1      -8.162   0.233  13.308  1.00  0.00     0.031 C 
ATOM     61  C   UNL     1     -10.559   5.315  11.917  1.00  0.00     0.029 A 
ATOM     62  C   UNL     1     -10.046   4.108  12.368  1.00  0.00     0.049 A 
ATOM     63  H   UNL     1     -10.039   2.271  11.406  1.00  0.00     0.167 HD
ATOM     64  C   UNL     1      -9.139   2.352  13.811  1.00  0.00     0.074 A 
ATOM     65  C   UNL     1      -8.902   1.234  12.807  1.00  0.00     0.031 C 
ATOM     66  C   UNL     1      -9.373   3.695  13.562  1.00  0.00     0.037 A 
BRANCH  53  67
ATOM     67  C   UNL     1     -11.757   1.486   9.280  1.00  0.00     0.058 A 
ATOM     68  C   UNL     1     -12.877   1.184  10.057  1.00  0.00     0.135 A 
ATOM     69  C   UNL     1     -11.080   0.368   8.706  1.00  0.00     0.135 A 
ATOM     70  F   UNL     1     -13.601   2.174  10.602  1.00  0.00    -0.206 F 
ATOM     71  C   UNL     1     -13.288  -0.114  10.295  1.00  0.00     0.059 A 
ATOM     72  C   UNL     1     -11.525  -0.945   8.869  1.00  0.00     0.059 A 
ATOM     73  F   UNL     1      -9.955   0.475   7.984  1.00  0.00    -0.206 F 
ATOM     74  C   UNL     1     -12.630  -1.169   9.673  1.00  0.00     0.060 A 
BRANCH  74  75
ATOM     75  S   UNL     1     -13.337  -2.809   9.852  1.00  0.00     0.124 S 
ATOM     76  O   UNL     1     -13.213  -3.029  11.297  1.00  0.00    -0.237 OA
ATOM     77  O   UNL     1     -14.689  -2.590   9.358  1.00  0.00    -0.237 OA
ATOM     78  O   UNL     1     -12.491  -3.641   9.011  1.00  0.00    -0.744 OA
ENDBRANCH  74  75
ENDBRANCH  53  67
BRANCH  54  79
ATOM     79  C   UNL     1      -5.502  -0.358  15.052  1.00  0.00     0.058 A 
ATOM     80  C   UNL     1      -5.729  -1.396  16.048  1.00  0.00     0.135 A 
ATOM     81  C   UNL     1      -4.562  -0.768  14.101  1.00  0.00     0.135 A 
ATOM     82  F   UNL     1      -6.601  -1.229  17.061  1.00  0.00    -0.206 F 
ATOM     83  C   UNL     1      -5.073  -2.695  16.029  1.00  0.00     0.059 A 
ATOM     84  C   UNL     1      -3.945  -2.031  14.042  1.00  0.00     0.059 A 
ATOM     85  F   UNL     1      -4.271   0.052  13.089  1.00  0.00    -0.206 F 
ATOM     86  C   UNL     1      -4.212  -3.013  14.982  1.00  0.00     0.060 A 
BRANCH  86  87
ATOM     87  S   UNL     1      -3.541  -4.702  14.721  1.00  0.00     0.124 S 
ATOM     88  O   UNL     1      -2.690  -4.901  15.889  1.00  0.00    -0.237 OA
ATOM     89  O   UNL     1      -4.748  -5.521  14.671  1.00  0.00    -0.237 OA
ATOM     90  O   UNL     1      -2.825  -4.589  13.452  1.00  0.00    -0.744 OA
ENDBRANCH  86  87
ENDBRANCH  54  79
BRANCH  66  91
ATOM     91  C   UNL     1      -9.123   4.805  14.583  1.00  0.00     0.058 A 
ATOM     92  C   UNL     1      -7.928   5.516  14.882  1.00  0.00     0.135 A 
ATOM     93  C   UNL     1     -10.285   5.329  15.151  1.00  0.00     0.135 A 
ATOM     94  F   UNL     1      -6.793   5.289  14.201  1.00  0.00    -0.206 F 
ATOM     95  C   UNL     1      -7.887   6.561  15.829  1.00  0.00     0.059 A 
ATOM     96  C   UNL     1     -10.281   6.398  16.038  1.00  0.00     0.059 A 
ATOM     97  F   UNL     1     -11.480   4.855  14.765  1.00  0.00    -0.206 F 
ATOM     98  C   UNL     1      -9.078   6.985  16.412  1.00  0.00     0.060 A 
BRANCH  98  99
ATOM     99  S   UNL     1      -9.095   8.346  17.604  1.00  0.00     0.124 S 
ATOM    100  O   UNL     1      -8.308   7.790  18.714  1.00  0.00    -0.237 OA
ATOM    101  O   UNL     1      -8.446   9.423  16.859  1.00  0.00    -0.237 OA
ATOM    102  O   UNL     1     -10.503   8.544  17.882  1.00  0.00    -0.744 OA
ENDBRANCH  98  99
ENDBRANCH  66  91
ENDBRANCH  40  41
ENDBRANCH  33  35
ENDBRANCH  32  33
ENDBRANCH  31  32
ENDBRANCH  30  31
ENDBRANCH  29  30
ENDBRANCH  28  29
ENDBRANCH  27  28
ENDBRANCH  26  27
ENDBRANCH   1  26
TORSDOF 28
