REMARK SMILES O=C(OCCOCCOCCOCCOC(=O)C1(c2ccccc2)CCN(S(=O)(=O)c2cccs2)CC1)c1ccc(-c2c3nc(c(-c4c(F)cc(S(=O)(=O)[O-])cc4F)c4ccc([nH]4)c(-c4c(F)cc(S(=O)(=O)[O-])cc4F)c4nc(c(-c5c(F)cc(S(=O)(=O)[O-])cc5F)c5ccc2[nH]5)C=C4)C=C3)cc1
REMARK SMILES IDX 8 1 7 2 6 3 5 4 4 5 3 6 2 7 1 8 38 9 39 10 103 11 40 12
REMARK SMILES IDX 102 13 41 14 42 15 43 16 96 17 44 18 101 19 95 20 97 21
REMARK SMILES IDX 45 22 100 23 94 24 93 25 46 27 80 28 59 29 79 30 60 31 63 32
REMARK SMILES IDX 78 33 98 34 61 35 62 36 77 38 99 39 64 40 47 41 48 42 57 43
REMARK SMILES IDX 49 44 50 45 56 46 58 47 51 48 52 49 53 50 54 51 55 52 81 53
REMARK SMILES IDX 82 54 91 55 83 56 84 57 90 58 92 59 85 60 86 61 87 62 88 63
REMARK SMILES IDX 89 64 65 65 66 66 75 67 67 68 68 69 74 70 76 71 69 72 70 73
REMARK SMILES IDX 71 74 72 75 73 76 9 77 10 78 11 79 12 80 13 81 14 82 15 83
REMARK SMILES IDX 16 84 17 85 18 86 25 87 37 88 26 89 36 90 27 91 19 92 20 93
REMARK SMILES IDX 24 94 21 95 23 96 22 97 28 98 29 99 30 100 31 101 32 102
REMARK SMILES IDX 35 103 33 104 34 105
REMARK H PARENT 97 26 63 37
REMARK Flexibility Score: inf
ROOT
ATOM      1  C   UNL     1       1.157  -1.594   1.265  1.00  0.00     0.188 C 
ENDROOT
BRANCH   1   2
ATOM      2  C   UNL     1       1.631  -0.142   1.140  1.00  0.00     0.188 C 
BRANCH   2   3
ATOM      3  O   UNL     1       2.975  -0.199   0.667  1.00  0.00    -0.376 OA
BRANCH   3   4
ATOM      4  C   UNL     1       3.803   0.932   0.892  1.00  0.00     0.202 C 
BRANCH   4   5
ATOM      5  C   UNL     1       3.791   1.910  -0.282  1.00  0.00     0.261 C 
BRANCH   5   6
ATOM      6  O   UNL     1       2.490   1.995  -0.883  1.00  0.00    -0.460 OA
BRANCH   6   7
ATOM      7  C   UNL     1       2.005   1.229  -1.893  1.00  0.00     0.338 C 
ATOM      8  O   UNL     1       0.834   1.391  -2.235  1.00  0.00    -0.246 OA
BRANCH   7   9
ATOM      9  C   UNL     1       2.813   0.220  -2.648  1.00  0.00     0.060 A 
ATOM     10  C   UNL     1       3.820  -0.587  -2.111  1.00  0.00     0.016 A 
ATOM     11  C   UNL     1       2.451   0.007  -3.988  1.00  0.00     0.016 A 
ATOM     12  C   UNL     1       4.468  -1.555  -2.866  1.00  0.00     0.010 A 
ATOM     13  C   UNL     1       3.087  -0.973  -4.755  1.00  0.00     0.010 A 
ATOM     14  C   UNL     1       4.106  -1.751  -4.192  1.00  0.00    -0.014 A 
BRANCH  14  15
ATOM     15  C   UNL     1       4.909  -2.671  -5.016  1.00  0.00     0.031 A 
ATOM     16  C   UNL     1       5.828  -2.062  -6.027  1.00  0.00     0.074 A 
ATOM     17  C   UNL     1       4.856  -3.999  -4.807  1.00  0.00     0.049 A 
ATOM     18  N   UNL     1       6.452  -2.623  -7.021  1.00  0.00    -0.248 NA
ATOM     19  C   UNL     1       6.069  -0.612  -5.902  1.00  0.00     0.031 C 
ATOM     20  C   UNL     1       4.096  -4.659  -3.742  1.00  0.00     0.029 A 
ATOM     21  N   UNL     1       5.454  -5.033  -5.477  1.00  0.00    -0.354 N 
ATOM     22  C   UNL     1       7.094  -1.588  -7.688  1.00  0.00     0.074 A 
ATOM     23  C   UNL     1       6.819  -0.368  -6.966  1.00  0.00     0.031 C 
ATOM     24  C   UNL     1       4.269  -5.988  -3.837  1.00  0.00     0.029 A 
ATOM     25  C   UNL     1       5.071  -6.273  -5.020  1.00  0.00     0.049 A 
ATOM     26  H   UNL     1       6.095  -4.902  -6.213  1.00  0.00     0.167 HD
ATOM     27  C   UNL     1       7.820  -1.667  -8.824  1.00  0.00     0.037 A 
ATOM     28  C   UNL     1       5.289  -7.491  -5.554  1.00  0.00     0.037 A 
ATOM     29  C   UNL     1       8.097  -2.917  -9.476  1.00  0.00     0.049 A 
ATOM     30  C   UNL     1       6.053  -7.551  -6.852  1.00  0.00     0.074 A 
ATOM     31  C   UNL     1       8.805  -3.149 -10.638  1.00  0.00     0.029 A 
ATOM     32  N   UNL     1       7.671  -4.153  -9.004  1.00  0.00    -0.354 N 
ATOM     33  N   UNL     1       6.604  -6.567  -7.528  1.00  0.00    -0.248 NA
ATOM     34  C   UNL     1       6.196  -8.868  -7.483  1.00  0.00     0.031 C 
ATOM     35  C   UNL     1       8.771  -4.525 -10.891  1.00  0.00     0.029 A 
ATOM     36  C   UNL     1       8.078  -5.153  -9.864  1.00  0.00     0.049 A 
ATOM     37  H   UNL     1       7.156  -4.295  -8.177  1.00  0.00     0.167 HD
ATOM     38  C   UNL     1       7.154  -7.144  -8.664  1.00  0.00     0.074 A 
ATOM     39  C   UNL     1       6.896  -8.568  -8.570  1.00  0.00     0.031 C 
ATOM     40  C   UNL     1       7.800  -6.559  -9.704  1.00  0.00     0.037 A 
BRANCH  27  41
ATOM     41  C   UNL     1       8.271  -0.384  -9.456  1.00  0.00     0.058 A 
ATOM     42  C   UNL     1       9.315   0.392  -8.931  1.00  0.00     0.135 A 
ATOM     43  C   UNL     1       7.629   0.082 -10.616  1.00  0.00     0.135 A 
ATOM     44  F   UNL     1       9.938   0.014  -7.804  1.00  0.00    -0.206 F 
ATOM     45  C   UNL     1       9.699   1.591  -9.527  1.00  0.00     0.059 A 
ATOM     46  C   UNL     1       8.009   1.266 -11.240  1.00  0.00     0.059 A 
ATOM     47  F   UNL     1       6.609  -0.611 -11.147  1.00  0.00    -0.206 F 
ATOM     48  C   UNL     1       9.041   2.018 -10.682  1.00  0.00     0.060 A 
BRANCH  48  49
ATOM     49  S   UNL     1       9.560   3.567 -11.453  1.00  0.00     0.124 S 
ATOM     50  O   UNL     1       9.031   4.552 -10.515  1.00  0.00    -0.237 OA
ATOM     51  O   UNL     1      11.012   3.431 -11.477  1.00  0.00    -0.237 OA
ATOM     52  O   UNL     1       8.908   3.532 -12.759  1.00  0.00    -0.744 OA
ENDBRANCH  48  49
ENDBRANCH  27  41
BRANCH  28  53
ATOM     53  C   UNL     1       4.688  -8.711  -4.944  1.00  0.00     0.058 A 
ATOM     54  C   UNL     1       5.486  -9.742  -4.423  1.00  0.00     0.135 A 
ATOM     55  C   UNL     1       3.294  -8.884  -4.886  1.00  0.00     0.135 A 
ATOM     56  F   UNL     1       6.823  -9.638  -4.461  1.00  0.00    -0.206 F 
ATOM     57  C   UNL     1       4.927 -10.902  -3.889  1.00  0.00     0.059 A 
ATOM     58  C   UNL     1       2.712 -10.019  -4.330  1.00  0.00     0.059 A 
ATOM     59  F   UNL     1       2.477  -7.932  -5.364  1.00  0.00    -0.206 F 
ATOM     60  C   UNL     1       3.538 -11.033  -3.850  1.00  0.00     0.060 A 
BRANCH  60  61
ATOM     61  S   UNL     1       2.818 -12.534  -3.148  1.00  0.00     0.124 S 
ATOM     62  O   UNL     1       3.058 -13.500  -4.214  1.00  0.00    -0.237 OA
ATOM     63  O   UNL     1       3.605 -12.717  -1.933  1.00  0.00    -0.237 OA
ATOM     64  O   UNL     1       1.422 -12.167  -2.930  1.00  0.00    -0.744 OA
ENDBRANCH  60  61
ENDBRANCH  28  53
BRANCH  40  65
ATOM     65  C   UNL     1       8.276  -7.461 -10.801  1.00  0.00     0.058 A 
ATOM     66  C   UNL     1       7.388  -7.960 -11.765  1.00  0.00     0.135 A 
ATOM     67  C   UNL     1       9.644  -7.737 -10.947  1.00  0.00     0.135 A 
ATOM     68  F   UNL     1       6.071  -7.728 -11.657  1.00  0.00    -0.206 F 
ATOM     69  C   UNL     1       7.844  -8.706 -12.844  1.00  0.00     0.059 A 
ATOM     70  C   UNL     1      10.124  -8.459 -12.031  1.00  0.00     0.059 A 
ATOM     71  F   UNL     1      10.527  -7.268 -10.051  1.00  0.00    -0.206 F 
ATOM     72  C   UNL     1       9.215  -8.940 -12.974  1.00  0.00     0.060 A 
BRANCH  72  73
ATOM     73  S   UNL     1       9.803  -9.836 -14.424  1.00  0.00     0.124 S 
ATOM     74  O   UNL     1       9.419 -11.206 -14.098  1.00  0.00    -0.237 OA
ATOM     75  O   UNL     1       9.052  -9.207 -15.506  1.00  0.00    -0.237 OA
ATOM     76  O   UNL     1      11.238  -9.570 -14.429  1.00  0.00    -0.744 OA
ENDBRANCH  72  73
ENDBRANCH  40  65
ENDBRANCH  14  15
ENDBRANCH   7   9
ENDBRANCH   6   7
ENDBRANCH   5   6
ENDBRANCH   4   5
ENDBRANCH   3   4
ENDBRANCH   2   3
ENDBRANCH   1   2
BRANCH   1  77
ATOM     77  O   UNL     1       1.678  -2.260   2.414  1.00  0.00    -0.377 OA
BRANCH  77  78
ATOM     78  C   UNL     1       3.074  -2.120   2.634  1.00  0.00     0.188 C 
BRANCH  78  79
ATOM     79  C   UNL     1       4.077  -2.759   1.646  1.00  0.00     0.188 C 
BRANCH  79  80
ATOM     80  O   UNL     1       4.077  -4.155   1.375  1.00  0.00    -0.376 OA
BRANCH  80  81
ATOM     81  C   UNL     1       3.038  -4.953   1.901  1.00  0.00     0.202 C 
BRANCH  81  82
ATOM     82  C   UNL     1       3.346  -5.491   3.301  1.00  0.00     0.261 C 
BRANCH  82  83
ATOM     83  O   UNL     1       3.704  -4.477   4.264  1.00  0.00    -0.463 OA
BRANCH  83  84
ATOM     84  C   UNL     1       5.032  -4.214   4.431  1.00  0.00     0.316 C 
ATOM     85  O   UNL     1       5.912  -4.752   3.768  1.00  0.00    -0.251 OA
BRANCH  84  86
ATOM     86  C   UNL     1       5.331  -3.258   5.647  1.00  0.00     0.095 C 
ATOM     87  C   UNL     1       4.897  -1.766   5.602  1.00  0.00     0.040 C 
ATOM     88  C   UNL     1       6.885  -3.192   5.754  1.00  0.00     0.040 C 
ATOM     89  C   UNL     1       5.614  -0.844   4.631  1.00  0.00     0.104 C 
ATOM     90  C   UNL     1       7.512  -2.414   4.578  1.00  0.00     0.104 C 
ATOM     91  N   UNL     1       7.092  -0.990   4.614  1.00  0.00    -0.197 NA
BRANCH  86  92
ATOM     92  C   UNL     1       4.598  -3.891   6.863  1.00  0.00    -0.031 A 
ATOM     93  C   UNL     1       5.241  -4.721   7.785  1.00  0.00     0.005 A 
ATOM     94  C   UNL     1       3.194  -3.736   6.990  1.00  0.00     0.005 A 
ATOM     95  C   UNL     1       4.508  -5.373   8.785  1.00  0.00     0.000 A 
ATOM     96  C   UNL     1       2.466  -4.388   7.982  1.00  0.00     0.000 A 
ATOM     97  C   UNL     1       3.126  -5.212   8.880  1.00  0.00     0.000 A 
ENDBRANCH  86  92
BRANCH  91  98
ATOM     98  S   UNL     1       7.716  -0.011   3.312  1.00  0.00     0.252 S 
ATOM     99  O   UNL     1       7.225  -0.605   2.075  1.00  0.00    -0.206 OA
ATOM    100  O   UNL     1       7.403   1.359   3.624  1.00  0.00    -0.206 OA
BRANCH  98 101
ATOM    101  C   UNL     1       9.482  -0.165   3.194  1.00  0.00     0.135 A 
ATOM    102  C   UNL     1      10.281  -1.178   2.692  1.00  0.00     0.033 A 
ATOM    103  S   UNL     1      10.421   1.176   3.692  1.00  0.00    -0.131 S 
ATOM    104  C   UNL     1      11.664  -0.841   2.704  1.00  0.00     0.013 A 
ATOM    105  C   UNL     1      11.878   0.424   3.203  1.00  0.00     0.066 A 
ENDBRANCH  98 101
ENDBRANCH  91  98
ENDBRANCH  84  86
ENDBRANCH  83  84
ENDBRANCH  82  83
ENDBRANCH  81  82
ENDBRANCH  80  81
ENDBRANCH  79  80
ENDBRANCH  78  79
ENDBRANCH  77  78
ENDBRANCH   1  77
TORSDOF 26
