REMARK SMILES O=C(OCCOCCOCCOCCOC(=O)[C@H]1C[C@](F)(c2cccc(F)c2)C1)c1ccc(-c2c3nc(c(-c4c(F)cc(S(=O)(=O)[O-])cc4F)c4ccc([nH]4)c(-c4c(F)cc(S(=O)(=O)[O-])cc4F)c4nc(c(-c5c(F)cc(S(=O)(=O)[O-])cc5F)c5ccc2[nH]5)C=C4)C=C3)cc1
REMARK SMILES IDX 8 1 7 2 6 3 5 4 4 5 3 6 2 7 1 8 30 9 31 10 95 11 32 12 94 13
REMARK SMILES IDX 33 14 34 15 35 16 88 17 36 18 93 19 87 20 89 21 37 22 92 23
REMARK SMILES IDX 86 24 85 25 38 27 72 28 51 29 71 30 52 31 55 32 70 33 90 34
REMARK SMILES IDX 53 35 54 36 69 38 91 39 56 40 39 41 40 42 49 43 41 44 42 45
REMARK SMILES IDX 48 46 50 47 43 48 44 49 45 50 46 51 47 52 73 53 74 54 83 55
REMARK SMILES IDX 75 56 76 57 82 58 84 59 77 60 78 61 79 62 80 63 81 64 57 65
REMARK SMILES IDX 58 66 67 67 59 68 60 69 66 70 68 71 61 72 62 73 63 74 64 75
REMARK SMILES IDX 65 76 9 77 10 78 11 79 12 80 13 81 14 82 15 83 16 84 17 85
REMARK SMILES IDX 18 86 19 87 29 88 20 89 21 90 22 91 23 92 28 93 24 94 26 95
REMARK SMILES IDX 25 96 27 97
REMARK H PARENT 89 26 55 37
REMARK Flexibility Score: inf
ROOT
ATOM      1  C   UNL     1       2.171   1.337   2.472  1.00  0.00     0.188 C 
ENDROOT
BRANCH   1   2
ATOM      2  C   UNL     1       2.550   1.104   1.014  1.00  0.00     0.188 C 
BRANCH   2   3
ATOM      3  O   UNL     1       3.866   0.574   0.892  1.00  0.00    -0.376 OA
BRANCH   3   4
ATOM      4  C   UNL     1       4.716   1.182  -0.079  1.00  0.00     0.202 C 
BRANCH   4   5
ATOM      5  C   UNL     1       4.356   0.895  -1.535  1.00  0.00     0.261 C 
BRANCH   5   6
ATOM      6  O   UNL     1       2.979   0.545  -1.733  1.00  0.00    -0.460 OA
BRANCH   6   7
ATOM      7  C   UNL     1       2.389  -0.670  -1.629  1.00  0.00     0.338 C 
ATOM      8  O   UNL     1       1.187  -0.752  -1.882  1.00  0.00    -0.246 OA
BRANCH   7   9
ATOM      9  C   UNL     1       3.096  -1.923  -1.223  1.00  0.00     0.060 A 
ATOM     10  C   UNL     1       4.208  -1.991  -0.387  1.00  0.00     0.016 A 
ATOM     11  C   UNL     1       2.531  -3.135  -1.652  1.00  0.00     0.016 A 
ATOM     12  C   UNL     1       4.786  -3.192  -0.022  1.00  0.00     0.010 A 
ATOM     13  C   UNL     1       3.096  -4.360  -1.284  1.00  0.00     0.010 A 
ATOM     14  C   UNL     1       4.246  -4.380  -0.488  1.00  0.00    -0.014 A 
BRANCH  14  15
ATOM     15  C   UNL     1       5.060  -5.587  -0.304  1.00  0.00     0.031 A 
ATOM     16  C   UNL     1       5.842  -6.062  -1.489  1.00  0.00     0.074 A 
ATOM     17  C   UNL     1       5.235  -6.096   0.928  1.00  0.00     0.049 A 
ATOM     18  N   UNL     1       6.581  -7.125  -1.617  1.00  0.00    -0.248 NA
ATOM     19  C   UNL     1       5.801  -5.208  -2.693  1.00  0.00     0.031 C 
ATOM     20  C   UNL     1       4.651  -5.549   2.158  1.00  0.00     0.029 A 
ATOM     21  N   UNL     1       5.984  -7.155   1.358  1.00  0.00    -0.354 N 
ATOM     22  C   UNL     1       7.057  -7.090  -2.921  1.00  0.00     0.074 A 
ATOM     23  C   UNL     1       6.528  -5.905  -3.550  1.00  0.00     0.031 C 
ATOM     24  C   UNL     1       5.078  -6.272   3.205  1.00  0.00     0.029 A 
ATOM     25  C   UNL     1       5.892  -7.376   2.712  1.00  0.00     0.049 A 
ATOM     26  H   UNL     1       6.535  -7.706   0.757  1.00  0.00     0.167 HD
ATOM     27  C   UNL     1       7.864  -7.986  -3.528  1.00  0.00     0.037 A 
ATOM     28  C   UNL     1       6.379  -8.393   3.448  1.00  0.00     0.037 A 
ATOM     29  C   UNL     1       8.373  -9.144  -2.848  1.00  0.00     0.049 A 
ATOM     30  C   UNL     1       7.163  -9.453   2.721  1.00  0.00     0.074 A 
ATOM     31  C   UNL     1       9.129 -10.181  -3.354  1.00  0.00     0.029 A 
ATOM     32  N   UNL     1       8.174  -9.405  -1.497  1.00  0.00    -0.354 N 
ATOM     33  N   UNL     1       7.518  -9.487   1.456  1.00  0.00    -0.248 NA
ATOM     34  C   UNL     1       7.591 -10.619   3.499  1.00  0.00     0.031 C 
ATOM     35  C   UNL     1       9.343 -11.096  -2.319  1.00  0.00     0.029 A 
ATOM     36  C   UNL     1       8.775 -10.599  -1.153  1.00  0.00     0.049 A 
ATOM     37  H   UNL     1       7.677  -8.824  -0.876  1.00  0.00     0.167 HD
ATOM     38  C   UNL     1       8.224 -10.670   1.287  1.00  0.00     0.074 A 
ATOM     39  C   UNL     1       8.259 -11.314   2.588  1.00  0.00     0.031 C 
ATOM     40  C   UNL     1       8.787 -11.186   0.166  1.00  0.00     0.037 A 
BRANCH  27  41
ATOM     41  C   UNL     1       8.163  -7.782  -4.984  1.00  0.00     0.058 A 
ATOM     42  C   UNL     1       7.577  -8.620  -5.945  1.00  0.00     0.135 A 
ATOM     43  C   UNL     1       9.014  -6.762  -5.438  1.00  0.00     0.135 A 
ATOM     44  F   UNL     1       6.730  -9.592  -5.569  1.00  0.00    -0.206 F 
ATOM     45  C   UNL     1       7.840  -8.471  -7.301  1.00  0.00     0.059 A 
ATOM     46  C   UNL     1       9.273  -6.578  -6.795  1.00  0.00     0.059 A 
ATOM     47  F   UNL     1       9.563  -5.901  -4.566  1.00  0.00    -0.206 F 
ATOM     48  C   UNL     1       8.693  -7.448  -7.717  1.00  0.00     0.060 A 
BRANCH  48  49
ATOM     49  S   UNL     1       9.005  -7.257  -9.485  1.00  0.00     0.124 S 
ATOM     50  O   UNL     1       9.776  -8.458  -9.784  1.00  0.00    -0.237 OA
ATOM     51  O   UNL     1       7.652  -7.216 -10.031  1.00  0.00    -0.237 OA
ATOM     52  O   UNL     1       9.742  -5.999  -9.565  1.00  0.00    -0.744 OA
ENDBRANCH  48  49
ENDBRANCH  27  41
BRANCH  28  53
ATOM     53  C   UNL     1       6.086  -8.477   4.905  1.00  0.00     0.058 A 
ATOM     54  C   UNL     1       4.769  -8.626   5.374  1.00  0.00     0.135 A 
ATOM     55  C   UNL     1       7.106  -8.387   5.864  1.00  0.00     0.135 A 
ATOM     56  F   UNL     1       3.749  -8.716   4.506  1.00  0.00    -0.206 F 
ATOM     57  C   UNL     1       4.471  -8.652   6.733  1.00  0.00     0.059 A 
ATOM     58  C   UNL     1       6.836  -8.440   7.231  1.00  0.00     0.059 A 
ATOM     59  F   UNL     1       8.382  -8.256   5.473  1.00  0.00    -0.206 F 
ATOM     60  C   UNL     1       5.513  -8.558   7.655  1.00  0.00     0.060 A 
BRANCH  60  61
ATOM     61  S   UNL     1       5.098  -8.600   9.412  1.00  0.00     0.124 S 
ATOM     62  O   UNL     1       4.384  -7.340   9.576  1.00  0.00    -0.237 OA
ATOM     63  O   UNL     1       4.291  -9.809   9.507  1.00  0.00    -0.237 OA
ATOM     64  O   UNL     1       6.407  -8.669  10.065  1.00  0.00    -0.744 OA
ENDBRANCH  60  61
ENDBRANCH  28  53
BRANCH  40  65
ATOM     65  C   UNL     1       9.511 -12.492   0.303  1.00  0.00     0.058 A 
ATOM     66  C   UNL     1      10.908 -12.537   0.179  1.00  0.00     0.135 A 
ATOM     67  C   UNL     1       8.815 -13.702   0.439  1.00  0.00     0.135 A 
ATOM     68  F   UNL     1      11.613 -11.403   0.037  1.00  0.00    -0.206 F 
ATOM     69  C   UNL     1      11.591 -13.744   0.154  1.00  0.00     0.059 A 
ATOM     70  C   UNL     1       9.482 -14.921   0.449  1.00  0.00     0.059 A 
ATOM     71  F   UNL     1       7.479 -13.703   0.571  1.00  0.00    -0.206 F 
ATOM     72  C   UNL     1      10.868 -14.931   0.283  1.00  0.00     0.060 A 
BRANCH  72  73
ATOM     73  S   UNL     1      11.773 -16.489   0.238  1.00  0.00     0.124 S 
ATOM     74  O   UNL     1      12.190 -16.551  -1.159  1.00  0.00    -0.237 OA
ATOM     75  O   UNL     1      12.836 -16.254   1.210  1.00  0.00    -0.237 OA
ATOM     76  O   UNL     1      10.772 -17.474   0.639  1.00  0.00    -0.744 OA
ENDBRANCH  72  73
ENDBRANCH  40  65
ENDBRANCH  14  15
ENDBRANCH   7   9
ENDBRANCH   6   7
ENDBRANCH   5   6
ENDBRANCH   4   5
ENDBRANCH   3   4
ENDBRANCH   2   3
ENDBRANCH   1   2
BRANCH   1  77
ATOM     77  O   UNL     1       3.044   2.205   3.193  1.00  0.00    -0.377 OA
BRANCH  77  78
ATOM     78  C   UNL     1       4.431   1.886   3.152  1.00  0.00     0.188 C 
BRANCH  78  79
ATOM     79  C   UNL     1       4.945   0.509   3.614  1.00  0.00     0.188 C 
BRANCH  79  80
ATOM     80  O   UNL     1       3.950  -0.487   3.791  1.00  0.00    -0.376 OA
BRANCH  80  81
ATOM     81  C   UNL     1       3.664  -0.803   5.154  1.00  0.00     0.202 C 
BRANCH  81  82
ATOM     82  C   UNL     1       2.858   0.267   5.912  1.00  0.00     0.261 C 
BRANCH  82  83
ATOM     83  O   UNL     1       3.429   1.592   5.838  1.00  0.00    -0.463 OA
BRANCH  83  84
ATOM     84  C   UNL     1       4.462   1.890   6.667  1.00  0.00     0.309 C 
ATOM     85  O   UNL     1       4.796   1.160   7.598  1.00  0.00    -0.252 OA
BRANCH  84  86
ATOM     86  C   UNL     1       5.239   3.166   6.245  1.00  0.00     0.106 C 
ATOM     87  C   UNL     1       5.542   4.177   7.375  1.00  0.00     0.061 C 
ATOM     88  C   UNL     1       4.603   4.378   5.498  1.00  0.00     0.061 C 
ATOM     89  C   UNL     1       5.585   5.299   6.285  1.00  0.00     0.137 C 
ATOM     90  F   UNL     1       5.036   6.479   6.668  1.00  0.00    -0.239 F 
BRANCH  89  91
ATOM     91  C   UNL     1       7.056   5.637   5.707  1.00  0.00    -0.008 A 
ATOM     92  C   UNL     1       8.102   5.939   6.612  1.00  0.00     0.007 A 
ATOM     93  C   UNL     1       7.403   5.679   4.342  1.00  0.00     0.046 A 
ATOM     94  C   UNL     1       9.405   6.239   6.202  1.00  0.00     0.003 A 
ATOM     95  C   UNL     1       8.705   5.987   3.930  1.00  0.00     0.123 A 
ATOM     96  C   UNL     1       9.708   6.263   4.849  1.00  0.00     0.039 A 
ATOM     97  F   UNL     1       8.993   6.022   2.622  1.00  0.00    -0.207 F 
ENDBRANCH  89  91
ENDBRANCH  84  86
ENDBRANCH  83  84
ENDBRANCH  82  83
ENDBRANCH  81  82
ENDBRANCH  80  81
ENDBRANCH  79  80
ENDBRANCH  78  79
ENDBRANCH  77  78
ENDBRANCH   1  77
TORSDOF 24
