REMARK SMILES O=C(OCCOCCOCCOCCOC(=O)c1ccc(-c2c3nc(c(-c4c(F)cc(S(=O)(=O)[O-])cc4F)c4ccc([nH]4)c(-c4c(F)cc(S(=O)(=O)[O-])cc4F)c4nc(c(-c5c(F)cc(S(=O)(=O)[O-])cc5F)c5ccc2[nH]5)C=C4)C=C3)cc1)C1=Cc2cc(Cl)cc(Cl)c2O[C@@H]1C(F)(F)F
REMARK SMILES IDX 10 1 9 2 8 3 7 4 6 5 5 6 4 7 3 8 2 9 1 10 84 11 85 12 95 13
REMARK SMILES IDX 86 14 94 15 87 16 93 17 88 18 91 19 89 20 90 21 92 22 96 23
REMARK SMILES IDX 97 24 98 25 99 26 11 27 12 28 13 29 14 30 15 31 16 32 17 33
REMARK SMILES IDX 18 34 19 35 83 36 20 37 82 38 21 39 22 40 23 41 76 42 24 43
REMARK SMILES IDX 81 44 75 45 77 46 25 47 80 48 74 49 73 50 26 52 60 53 39 54
REMARK SMILES IDX 59 55 40 56 43 57 58 58 78 59 41 60 42 61 57 63 79 64 44 65
REMARK SMILES IDX 27 66 28 67 37 68 29 69 30 70 36 71 38 72 31 73 32 74 33 75
REMARK SMILES IDX 34 76 35 77 61 78 62 79 71 80 63 81 64 82 70 83 72 84 65 85
REMARK SMILES IDX 66 86 67 87 68 88 69 89 45 90 46 91 55 92 47 93 48 94 54 95
REMARK SMILES IDX 56 96 49 97 50 98 51 99 52 100 53 101
REMARK H PARENT 77 51 43 62
REMARK Flexibility Score: inf
ROOT
ATOM      1  C   UNL     1       4.197   2.474   2.667  1.00  0.00     0.188 C 
ENDROOT
BRANCH   1   2
ATOM      2  O   UNL     1       2.858   2.587   3.090  1.00  0.00    -0.377 OA
BRANCH   2   3
ATOM      3  C   UNL     1       1.976   1.865   2.265  1.00  0.00     0.188 C 
BRANCH   3   4
ATOM      4  C   UNL     1       2.235   0.354   2.228  1.00  0.00     0.188 C 
BRANCH   4   5
ATOM      5  O   UNL     1       3.532  -0.255   1.913  1.00  0.00    -0.376 OA
BRANCH   5   6
ATOM      6  C   UNL     1       4.287  -0.650   0.506  1.00  0.00     0.202 C 
BRANCH   6   7
ATOM      7  C   UNL     1       3.551  -0.379  -1.532  1.00  0.00     0.261 C 
BRANCH   7   8
ATOM      8  O   UNL     1       2.670  -1.340  -2.308  1.00  0.00    -0.460 OA
BRANCH   8   9
ATOM      9  C   UNL     1       2.900  -2.618  -1.986  1.00  0.00     0.338 C 
ATOM     10  O   UNL     1       2.272  -3.596  -2.304  1.00  0.00    -0.246 OA
BRANCH   9  11
ATOM     11  C   UNL     1       3.748  -2.356  -0.835  1.00  0.00     0.087 C 
ATOM     12  C   UNL     1       5.124  -1.962  -1.184  1.00  0.00     0.027 C 
ATOM     13  C   UNL     1       2.455  -1.202   0.001  1.00  0.00     0.316 C 
ATOM     14  C   UNL     1       5.747  -0.269  -1.094  1.00  0.00     0.020 A 
ATOM     15  O   UNL     1       3.052   0.651  -0.011  1.00  0.00    -0.474 OA
ATOM     16  C   UNL     1       7.024  -0.002  -1.506  1.00  0.00     0.032 A 
ATOM     17  C   UNL     1       4.734   1.060  -0.629  1.00  0.00     0.146 A 
ATOM     18  C   UNL     1       7.388   1.359  -1.494  1.00  0.00     0.043 A 
ATOM     19  C   UNL     1       5.170   2.361  -0.713  1.00  0.00     0.085 A 
ATOM     20  Cl  UNL     1       9.010   1.728  -1.994  1.00  0.00    -0.084 Cl
ATOM     21  C   UNL     1       6.521   2.470  -1.129  1.00  0.00     0.045 A 
ATOM     22  Cl  UNL     1       4.223   3.751  -0.463  1.00  0.00    -0.080 Cl
BRANCH  13  23
ATOM     23  C   UNL     1       2.147  -2.266   1.234  1.00  0.00     0.430 C 
ATOM     24  F   UNL     1       1.252  -1.911   2.172  1.00  0.00    -0.167 F 
ATOM     25  F   UNL     1       1.593  -3.378   0.656  1.00  0.00    -0.167 F 
ATOM     26  F   UNL     1       3.248  -2.742   1.869  1.00  0.00    -0.167 F 
ENDBRANCH  13  23
ENDBRANCH   9  11
ENDBRANCH   8   9
ENDBRANCH   7   8
ENDBRANCH   6   7
ENDBRANCH   5   6
ENDBRANCH   4   5
ENDBRANCH   3   4
ENDBRANCH   2   3
ENDBRANCH   1   2
BRANCH   1  27
ATOM     27  C   UNL     1       5.159   1.778   3.634  1.00  0.00     0.188 C 
BRANCH  27  28
ATOM     28  O   UNL     1       4.714   0.963   4.705  1.00  0.00    -0.376 OA
BRANCH  28  29
ATOM     29  C   UNL     1       3.503   1.236   5.386  1.00  0.00     0.202 C 
BRANCH  29  30
ATOM     30  C   UNL     1       3.252   2.573   6.102  1.00  0.00     0.261 C 
BRANCH  30  31
ATOM     31  O   UNL     1       3.490   3.763   5.341  1.00  0.00    -0.460 OA
BRANCH  31  32
ATOM     32  C   UNL     1       4.738   4.274   5.428  1.00  0.00     0.338 C 
ATOM     33  O   UNL     1       5.645   3.871   6.136  1.00  0.00    -0.246 OA
BRANCH  32  34
ATOM     34  C   UNL     1       4.921   5.311   4.386  1.00  0.00     0.060 A 
ATOM     35  C   UNL     1       6.077   5.265   3.588  1.00  0.00     0.016 A 
ATOM     36  C   UNL     1       3.987   6.333   4.214  1.00  0.00     0.016 A 
ATOM     37  C   UNL     1       6.332   6.265   2.654  1.00  0.00     0.010 A 
ATOM     38  C   UNL     1       4.266   7.362   3.313  1.00  0.00     0.010 A 
ATOM     39  C   UNL     1       5.464   7.356   2.573  1.00  0.00    -0.014 A 
BRANCH  39  40
ATOM     40  C   UNL     1       5.934   8.624   1.970  1.00  0.00     0.031 A 
ATOM     41  C   UNL     1       6.473   9.671   2.907  1.00  0.00     0.074 A 
ATOM     42  C   UNL     1       5.865   8.856   0.650  1.00  0.00     0.049 A 
ATOM     43  N   UNL     1       6.784  10.917   2.673  1.00  0.00    -0.248 NA
ATOM     44  C   UNL     1       6.665   9.253   4.307  1.00  0.00     0.031 C 
ATOM     45  C   UNL     1       5.424   7.894  -0.355  1.00  0.00     0.029 A 
ATOM     46  N   UNL     1       6.140   9.995  -0.064  1.00  0.00    -0.354 N 
ATOM     47  C   UNL     1       7.175  11.441   3.900  1.00  0.00     0.074 A 
ATOM     48  C   UNL     1       7.038  10.386   4.878  1.00  0.00     0.031 C 
ATOM     49  C   UNL     1       5.422   8.495  -1.558  1.00  0.00     0.029 A 
ATOM     50  C   UNL     1       5.814   9.896  -1.395  1.00  0.00     0.049 A 
ATOM     51  H   UNL     1       6.532  10.804   0.338  1.00  0.00     0.167 HD
ATOM     52  C   UNL     1       7.606  12.692   4.184  1.00  0.00     0.037 A 
ATOM     53  C   UNL     1       5.790  10.842  -2.356  1.00  0.00     0.037 A 
ATOM     54  C   UNL     1       7.721  13.732   3.196  1.00  0.00     0.049 A 
ATOM     55  C   UNL     1       6.196  12.253  -2.010  1.00  0.00     0.074 A 
ATOM     56  C   UNL     1       8.160  15.032   3.365  1.00  0.00     0.029 A 
ATOM     57  N   UNL     1       7.374  13.596   1.859  1.00  0.00    -0.354 N 
ATOM     58  N   UNL     1       6.572  12.744  -0.851  1.00  0.00    -0.248 NA
ATOM     59  C   UNL     1       6.178  13.239  -3.099  1.00  0.00     0.031 C 
ATOM     60  C   UNL     1       8.006  15.703   2.149  1.00  0.00     0.029 A 
ATOM     61  C   UNL     1       7.560  14.798   1.198  1.00  0.00     0.049 A 
ATOM     62  H   UNL     1       7.045  12.767   1.442  1.00  0.00     0.167 HD
ATOM     63  C   UNL     1       6.877  14.083  -1.082  1.00  0.00     0.074 A 
ATOM     64  C   UNL     1       6.635  14.326  -2.489  1.00  0.00     0.031 C 
ATOM     65  C   UNL     1       7.329  15.020  -0.211  1.00  0.00     0.037 A 
BRANCH  52  66
ATOM     66  C   UNL     1       7.924  13.011   5.620  1.00  0.00     0.058 A 
ATOM     67  C   UNL     1       8.997  12.412   6.303  1.00  0.00     0.135 A 
ATOM     68  C   UNL     1       7.137  13.933   6.330  1.00  0.00     0.135 A 
ATOM     69  F   UNL     1       9.774  11.509   5.683  1.00  0.00    -0.206 F 
ATOM     70  C   UNL     1       9.248  12.681   7.644  1.00  0.00     0.059 A 
ATOM     71  C   UNL     1       7.396  14.249   7.660  1.00  0.00     0.059 A 
ATOM     72  F   UNL     1       6.096  14.535   5.732  1.00  0.00    -0.206 F 
ATOM     73  C   UNL     1       8.441  13.602   8.314  1.00  0.00     0.060 A 
BRANCH  73  74
ATOM     74  S   UNL     1       8.774  13.931  10.057  1.00  0.00     0.124 S 
ATOM     75  O   UNL     1       8.373  12.670  10.674  1.00  0.00    -0.237 OA
ATOM     76  O   UNL     1      10.207  14.206  10.052  1.00  0.00    -0.237 OA
ATOM     77  O   UNL     1       7.919  15.075  10.358  1.00  0.00    -0.744 OA
ENDBRANCH  73  74
ENDBRANCH  52  66
BRANCH  53  78
ATOM     78  C   UNL     1       5.354  10.481  -3.731  1.00  0.00     0.058 A 
ATOM     79  C   UNL     1       6.263  10.464  -4.799  1.00  0.00     0.135 A 
ATOM     80  C   UNL     1       4.026  10.110  -3.999  1.00  0.00     0.135 A 
ATOM     81  F   UNL     1       7.539  10.826  -4.598  1.00  0.00    -0.206 F 
ATOM     82  C   UNL     1       5.875  10.089  -6.081  1.00  0.00     0.059 A 
ATOM     83  C   UNL     1       3.620   9.702  -5.266  1.00  0.00     0.059 A 
ATOM     84  F   UNL     1       3.116  10.103  -3.012  1.00  0.00    -0.206 F 
ATOM     85  C   UNL     1       4.554   9.696  -6.302  1.00  0.00     0.060 A 
BRANCH  85  86
ATOM     86  S   UNL     1       4.089   9.123  -7.950  1.00  0.00     0.124 S 
ATOM     87  O   UNL     1       4.184  10.352  -8.729  1.00  0.00    -0.237 OA
ATOM     88  O   UNL     1       5.111   8.115  -8.217  1.00  0.00    -0.237 OA
ATOM     89  O   UNL     1       2.739   8.600  -7.757  1.00  0.00    -0.744 OA
ENDBRANCH  85  86
ENDBRANCH  53  78
BRANCH  65  90
ATOM     90  C   UNL     1       7.671  16.384  -0.752  1.00  0.00     0.058 A 
ATOM     91  C   UNL     1       6.691  17.294  -1.177  1.00  0.00     0.135 A 
ATOM     92  C   UNL     1       9.009  16.818  -0.754  1.00  0.00     0.135 A 
ATOM     93  F   UNL     1       5.398  16.933  -1.203  1.00  0.00    -0.206 F 
ATOM     94  C   UNL     1       7.025  18.579  -1.596  1.00  0.00     0.059 A 
ATOM     95  C   UNL     1       9.362  18.108  -1.133  1.00  0.00     0.059 A 
ATOM     96  F   UNL     1       9.988  15.992  -0.349  1.00  0.00    -0.206 F 
ATOM     97  C   UNL     1       8.363  18.980  -1.559  1.00  0.00     0.060 A 
BRANCH  97  98
ATOM     98  S   UNL     1       8.774  20.669  -2.047  1.00  0.00     0.124 S 
ATOM     99  O   UNL     1       8.517  20.632  -3.483  1.00  0.00    -0.237 OA
ATOM    100  O   UNL     1       7.836  21.457  -1.255  1.00  0.00    -0.237 OA
ATOM    101  O   UNL     1      10.177  20.803  -1.665  1.00  0.00    -0.744 OA
ENDBRANCH  97  98
ENDBRANCH  65  90
ENDBRANCH  39  40
ENDBRANCH  32  34
ENDBRANCH  31  32
ENDBRANCH  30  31
ENDBRANCH  29  30
ENDBRANCH  28  29
ENDBRANCH  27  28
ENDBRANCH   1  27
TORSDOF 24
