REMARK SMILES O=C(OCCOCCOCCOCCOC(=O)c1ccccc1-c1ccc(/C=C2/SC(=S)N(Cc3ccccc3)C2=O)o1)c1ccc(-c2c3nc(c(-c4c(F)cc(S(=O)(=O)[O-])cc4F)c4ccc([nH]4)c(-c4c(F)cc(S(=O)(=O)[O-])cc4F)c4nc(c(-c5c(F)cc(S(=O)(=O)[O-])cc5F)c5ccc2[nH]5)C=C4)C=C3)cc1
REMARK SMILES IDX 10 1 9 2 8 3 7 4 6 5 5 6 4 7 3 8 2 9 1 10 44 11 45 12 109 13
REMARK SMILES IDX 46 14 108 15 47 16 48 17 49 18 102 19 50 20 107 21 101 22
REMARK SMILES IDX 103 23 51 24 106 25 100 26 99 27 52 29 86 30 65 31 85 32
REMARK SMILES IDX 66 33 69 34 84 35 104 36 67 37 68 38 83 40 105 41 70 42
REMARK SMILES IDX 53 43 54 44 63 45 55 46 56 47 62 48 64 49 57 50 58 51 59 52
REMARK SMILES IDX 60 53 61 54 87 55 88 56 97 57 89 58 90 59 96 60 98 61 91 62
REMARK SMILES IDX 92 63 93 64 94 65 95 66 71 67 72 68 81 69 73 70 74 71 80 72
REMARK SMILES IDX 82 73 75 74 76 75 77 76 78 77 79 78 11 79 12 80 13 81 14 82
REMARK SMILES IDX 15 83 16 84 17 85 18 86 19 87 23 88 20 89 22 90 21 91 24 92
REMARK SMILES IDX 25 93 43 94 26 95 27 96 28 97 29 98 30 99 41 100 31 101
REMARK SMILES IDX 33 102 42 103 32 104 34 105 35 106 36 107 40 108 37 109
REMARK SMILES IDX 39 110 38 111
REMARK H PARENT 103 28 69 39
REMARK Flexibility Score: inf
ROOT
ATOM      1  C   UNL     1       3.982  -3.391   1.704  1.00  0.00     0.188 C 
ENDROOT
BRANCH   1   2
ATOM      2  O   UNL     1       2.565  -3.517   1.735  1.00  0.00    -0.377 OA
BRANCH   2   3
ATOM      3  C   UNL     1       1.819  -2.599   0.940  1.00  0.00     0.188 C 
BRANCH   3   4
ATOM      4  C   UNL     1       2.186  -1.129   1.142  1.00  0.00     0.188 C 
BRANCH   4   5
ATOM      5  O   UNL     1       3.512  -0.881   0.672  1.00  0.00    -0.376 OA
BRANCH   5   6
ATOM      6  C   UNL     1       4.292   0.014   1.462  1.00  0.00     0.202 C 
BRANCH   6   7
ATOM      7  C   UNL     1       4.106   1.483   1.085  1.00  0.00     0.261 C 
BRANCH   7   8
ATOM      8  O   UNL     1       2.746   1.777   0.741  1.00  0.00    -0.460 OA
BRANCH   8   9
ATOM      9  C   UNL     1       2.177   1.727  -0.491  1.00  0.00     0.338 C 
ATOM     10  O   UNL     1       0.985   2.019  -0.584  1.00  0.00    -0.246 OA
BRANCH   9  11
ATOM     11  C   UNL     1       2.906   1.362  -1.750  1.00  0.00     0.060 A 
ATOM     12  C   UNL     1       4.047   0.560  -1.839  1.00  0.00     0.016 A 
ATOM     13  C   UNL     1       2.346   1.829  -2.953  1.00  0.00     0.016 A 
ATOM     14  C   UNL     1       4.658   0.285  -3.054  1.00  0.00     0.010 A 
ATOM     15  C   UNL     1       2.943   1.546  -4.186  1.00  0.00     0.010 A 
ATOM     16  C   UNL     1       4.125   0.799  -4.229  1.00  0.00    -0.014 A 
BRANCH  16  17
ATOM     17  C   UNL     1       4.948   0.716  -5.447  1.00  0.00     0.031 A 
ATOM     18  C   UNL     1       5.717   1.941  -5.842  1.00  0.00     0.074 A 
ATOM     19  C   UNL     1       5.106  -0.459  -6.080  1.00  0.00     0.049 A 
ATOM     20  N   UNL     1       6.463   2.151  -6.889  1.00  0.00    -0.248 NA
ATOM     21  C   UNL     1       5.645   3.086  -4.914  1.00  0.00     0.031 C 
ATOM     22  C   UNL     1       4.502  -1.728  -5.666  1.00  0.00     0.029 A 
ATOM     23  N   UNL     1       5.839  -0.783  -7.189  1.00  0.00    -0.354 N 
ATOM     24  C   UNL     1       6.918   3.459  -6.766  1.00  0.00     0.074 A 
ATOM     25  C   UNL     1       6.369   3.996  -5.544  1.00  0.00     0.031 C 
ATOM     26  C   UNL     1       4.895  -2.695  -6.513  1.00  0.00     0.029 A 
ATOM     27  C   UNL     1       5.721  -2.102  -7.559  1.00  0.00     0.049 A 
ATOM     28  H   UNL     1       6.398  -0.135  -7.675  1.00  0.00     0.167 HD
ATOM     29  C   UNL     1       7.717   4.145  -7.614  1.00  0.00     0.037 A 
ATOM     30  C   UNL     1       6.197  -2.735  -8.649  1.00  0.00     0.037 A 
ATOM     31  C   UNL     1       8.243   3.571  -8.822  1.00  0.00     0.049 A 
ATOM     32  C   UNL     1       7.008  -1.926  -9.628  1.00  0.00     0.074 A 
ATOM     33  C   UNL     1       9.006   4.168  -9.805  1.00  0.00     0.029 A 
ATOM     34  N   UNL     1       8.051   2.248  -9.204  1.00  0.00    -0.354 N 
ATOM     35  N   UNL     1       7.371  -0.665  -9.552  1.00  0.00    -0.248 NA
ATOM     36  C   UNL     1       7.459  -2.610 -10.845  1.00  0.00     0.031 C 
ATOM     37  C   UNL     1       9.239   3.216 -10.805  1.00  0.00     0.029 A 
ATOM     38  C   UNL     1       8.666   2.012 -10.418  1.00  0.00     0.049 A 
ATOM     39  H   UNL     1       7.550   1.578  -8.685  1.00  0.00     0.167 HD
ATOM     40  C   UNL     1       8.104  -0.407 -10.703  1.00  0.00     0.074 A 
ATOM     41  C   UNL     1       8.147  -1.650 -11.449  1.00  0.00     0.031 C 
ATOM     42  C   UNL     1       8.685   0.748 -11.115  1.00  0.00     0.037 A 
BRANCH  29  43
ATOM     43  C   UNL     1       7.979   5.589  -7.292  1.00  0.00     0.058 A 
ATOM     44  C   UNL     1       8.802   5.982  -6.224  1.00  0.00     0.135 A 
ATOM     45  C   UNL     1       7.346   6.599  -8.034  1.00  0.00     0.135 A 
ATOM     46  F   UNL     1       9.403   5.058  -5.458  1.00  0.00    -0.206 F 
ATOM     47  C   UNL     1       8.961   7.323  -5.884  1.00  0.00     0.059 A 
ATOM     48  C   UNL     1       7.510   7.947  -7.728  1.00  0.00     0.059 A 
ATOM     49  F   UNL     1       6.534   6.280  -9.055  1.00  0.00    -0.206 F 
ATOM     50  C   UNL     1       8.305   8.298  -6.638  1.00  0.00     0.060 A 
BRANCH  50  51
ATOM     51  S   UNL     1       8.495  10.031  -6.167  1.00  0.00     0.124 S 
ATOM     52  O   UNL     1       7.684  10.093  -4.954  1.00  0.00    -0.237 OA
ATOM     53  O   UNL     1       9.936  10.145  -5.971  1.00  0.00    -0.237 OA
ATOM     54  O   UNL     1       7.961  10.756  -7.315  1.00  0.00    -0.744 OA
ENDBRANCH  50  51
ENDBRANCH  29  43
BRANCH  30  55
ATOM     55  C   UNL     1       5.866  -4.167  -8.893  1.00  0.00     0.058 A 
ATOM     56  C   UNL     1       6.854  -5.162  -8.889  1.00  0.00     0.135 A 
ATOM     57  C   UNL     1       4.541  -4.571  -9.131  1.00  0.00     0.135 A 
ATOM     58  F   UNL     1       8.137  -4.833  -8.677  1.00  0.00    -0.206 F 
ATOM     59  C   UNL     1       6.545  -6.502  -9.120  1.00  0.00     0.059 A 
ATOM     60  C   UNL     1       4.203  -5.905  -9.336  1.00  0.00     0.059 A 
ATOM     61  F   UNL     1       3.552  -3.664  -9.142  1.00  0.00    -0.206 F 
ATOM     62  C   UNL     1       5.214  -6.864  -9.340  1.00  0.00     0.060 A 
BRANCH  62  63
ATOM     63  S   UNL     1       4.814  -8.607  -9.597  1.00  0.00     0.124 S 
ATOM     64  O   UNL     1       5.325  -8.830 -10.945  1.00  0.00    -0.237 OA
ATOM     65  O   UNL     1       5.553  -9.255  -8.518  1.00  0.00    -0.237 OA
ATOM     66  O   UNL     1       3.361  -8.642  -9.459  1.00  0.00    -0.744 OA
ENDBRANCH  62  63
ENDBRANCH  30  55
BRANCH  42  67
ATOM     67  C   UNL     1       9.439   0.704 -12.412  1.00  0.00     0.058 A 
ATOM     68  C   UNL     1       8.774   0.669 -13.646  1.00  0.00     0.135 A 
ATOM     69  C   UNL     1      10.841   0.776 -12.415  1.00  0.00     0.135 A 
ATOM     70  F   UNL     1       7.434   0.595 -13.691  1.00  0.00    -0.206 F 
ATOM     71  C   UNL     1       9.476   0.690 -14.844  1.00  0.00     0.059 A 
ATOM     72  C   UNL     1      11.561   0.826 -13.601  1.00  0.00     0.059 A 
ATOM     73  F   UNL     1      11.518   0.824 -11.257  1.00  0.00    -0.206 F 
ATOM     74  C   UNL     1      10.870   0.773 -14.810  1.00  0.00     0.060 A 
BRANCH  74  75
ATOM     75  S   UNL     1      11.769   0.851 -16.373  1.00  0.00     0.124 S 
ATOM     76  O   UNL     1      11.683  -0.532 -16.829  1.00  0.00    -0.237 OA
ATOM     77  O   UNL     1      10.988   1.820 -17.135  1.00  0.00    -0.237 OA
ATOM     78  O   UNL     1      13.100   1.301 -15.976  1.00  0.00    -0.744 OA
ENDBRANCH  74  75
ENDBRANCH  42  67
ENDBRANCH  16  17
ENDBRANCH   9  11
ENDBRANCH   8   9
ENDBRANCH   7   8
ENDBRANCH   6   7
ENDBRANCH   5   6
ENDBRANCH   4   5
ENDBRANCH   3   4
ENDBRANCH   2   3
ENDBRANCH   1   2
BRANCH   1  79
ATOM     79  C   UNL     1       4.731  -3.489   0.351  1.00  0.00     0.188 C 
BRANCH  79  80
ATOM     80  O   UNL     1       3.908  -3.671  -0.795  1.00  0.00    -0.376 OA
BRANCH  80  81
ATOM     81  C   UNL     1       3.959  -4.975  -1.376  1.00  0.00     0.202 C 
BRANCH  81  82
ATOM     82  C   UNL     1       3.243  -6.037  -0.549  1.00  0.00     0.261 C 
BRANCH  82  83
ATOM     83  O   UNL     1       3.765  -6.149   0.781  1.00  0.00    -0.460 OA
BRANCH  83  84
ATOM     84  C   UNL     1       4.965  -6.727   1.001  1.00  0.00     0.338 C 
ATOM     85  O   UNL     1       5.744  -7.157   0.172  1.00  0.00    -0.246 OA
BRANCH  84  86
ATOM     86  C   UNL     1       5.229  -6.609   2.460  1.00  0.00     0.071 A 
ATOM     87  C   UNL     1       6.402  -5.942   2.845  1.00  0.00     0.016 A 
ATOM     88  C   UNL     1       4.256  -6.974   3.416  1.00  0.00     0.032 A 
ATOM     89  C   UNL     1       6.591  -5.589   4.181  1.00  0.00     0.001 A 
ATOM     90  C   UNL     1       4.473  -6.621   4.756  1.00  0.00     0.013 A 
ATOM     91  C   UNL     1       5.627  -5.924   5.132  1.00  0.00     0.001 A 
BRANCH  88  92
ATOM     92  C   UNL     1       3.042  -7.674   3.012  1.00  0.00     0.135 A 
ATOM     93  C   UNL     1       2.787  -8.579   2.004  1.00  0.00     0.051 A 
ATOM     94  O   UNL     1       1.880  -7.340   3.646  1.00  0.00    -0.457 OA
ATOM     95  C   UNL     1       1.391  -8.689   1.925  1.00  0.00     0.051 A 
ATOM     96  C   UNL     1       0.859  -8.005   3.012  1.00  0.00     0.128 A 
BRANCH  96  97
ATOM     97  C   UNL     1      -0.489  -8.065   3.453  1.00  0.00     0.068 C 
ATOM     98  C   UNL     1      -0.951  -9.248   3.881  1.00  0.00     0.084 C 
ATOM     99  S   UNL     1      -2.599  -9.727   3.915  1.00  0.00    -0.054 SA
ATOM    100  C   UNL     1      -0.098 -10.437   4.155  1.00  0.00     0.266 C 
ATOM    101  C   UNL     1      -2.160 -11.440   3.744  1.00  0.00     0.148 C 
ATOM    102  N   UNL     1      -0.797 -11.588   3.869  1.00  0.00    -0.288 N 
ATOM    103  O   UNL     1       1.028 -10.388   4.629  1.00  0.00    -0.268 OA
ATOM    104  S   UNL     1      -3.308 -12.624   3.497  1.00  0.00    -0.052 S 
BRANCH 102 105
ATOM    105  C   UNL     1      -0.051 -12.845   3.826  1.00  0.00     0.163 C 
BRANCH 105 106
ATOM    106  C   UNL     1       0.584 -13.116   2.473  1.00  0.00    -0.028 A 
ATOM    107  C   UNL     1       0.144 -14.185   1.681  1.00  0.00     0.005 A 
ATOM    108  C   UNL     1       1.658 -12.340   2.005  1.00  0.00     0.005 A 
ATOM    109  C   UNL     1       0.762 -14.470   0.459  1.00  0.00     0.000 A 
ATOM    110  C   UNL     1       2.261 -12.611   0.774  1.00  0.00     0.000 A 
ATOM    111  C   UNL     1       1.816 -13.681   0.004  1.00  0.00     0.000 A 
ENDBRANCH 105 106
ENDBRANCH 102 105
ENDBRANCH  96  97
ENDBRANCH  88  92
ENDBRANCH  84  86
ENDBRANCH  83  84
ENDBRANCH  82  83
ENDBRANCH  81  82
ENDBRANCH  80  81
ENDBRANCH  79  80
ENDBRANCH   1  79
TORSDOF 27
