REMARK SMILES Cc1cccc(-n2c(C)cc(/C=N\c3ccc(O)c(C(=O)OCCOCCOCCOCCOC(=O)c4ccc(-c5c6nc(c(-c7c(F)cc(S(=O)(=O)[O-])cc7F)c7ccc([nH]7)c(-c7c(F)cc(S(=O)(=O)[O-])cc7F)c7nc(c(-c8c(F)cc(S(=O)(=O)[O-])cc8F)c8ccc5[nH]8)C=C7)C=C6)cc4)c3)c2C)c1
REMARK SMILES IDX 28 1 27 2 26 3 25 4 24 5 23 6 22 7 20 8 21 9 19 10 14 11
REMARK SMILES IDX 15 12 103 13 16 14 17 15 13 16 12 17 11 18 7 19 8 20 104 21
REMARK SMILES IDX 9 22 10 23 105 24 6 25 1 26 2 27 3 28 106 29 4 30 5 31 18 32
REMARK SMILES IDX 29 34 30 35 31 36 32 37 33 38 34 39 35 40 36 41 37 42 38 43
REMARK SMILES IDX 102 44 39 45 101 46 40 47 41 48 42 49 95 50 43 51 100 52
REMARK SMILES IDX 94 53 96 54 44 55 99 56 93 57 92 58 45 60 79 61 58 62 78 63
REMARK SMILES IDX 59 64 62 65 77 66 97 67 60 68 61 69 76 71 98 72 63 73 46 74
REMARK SMILES IDX 47 75 56 76 48 77 49 78 55 79 57 80 50 81 51 82 52 83 53 84
REMARK SMILES IDX 54 85 80 86 81 87 90 88 82 89 83 90 89 91 91 92 84 93 85 94
REMARK SMILES IDX 86 95 87 96 88 97 64 98 65 99 74 100 66 101 67 102 73 103
REMARK SMILES IDX 75 104 68 105 69 106 70 107 71 108 72 109
REMARK H PARENT 18 33 96 59 62 70
REMARK Flexibility Score: inf
ROOT
ATOM      1  O   UNL     1      -5.396   1.237   7.039  1.00  0.00    -0.377 OA
ENDROOT
BRANCH   1   2
ATOM      2  C   UNL     1      -5.515   2.599   6.687  1.00  0.00     0.188 C 
BRANCH   2   3
ATOM      3  C   UNL     1      -6.737   2.977   5.813  1.00  0.00     0.188 C 
BRANCH   3   4
ATOM      4  O   UNL     1      -7.827   2.095   5.559  1.00  0.00    -0.376 OA
BRANCH   4   5
ATOM      5  C   UNL     1      -7.601   0.732   5.244  1.00  0.00     0.202 C 
BRANCH   5   6
ATOM      6  C   UNL     1      -7.611   0.440   3.766  1.00  0.00     0.261 C 
BRANCH   6   7
ATOM      7  O   UNL     1      -6.239   0.431   3.381  1.00  0.00    -0.460 OA
BRANCH   7   8
ATOM      8  C   UNL     1      -5.981   1.478   2.599  1.00  0.00     0.342 C 
ATOM      9  O   UNL     1      -6.635   1.840   1.645  1.00  0.00    -0.246 OA
BRANCH   8  10
ATOM     10  C   UNL     1      -4.881   2.246   3.214  1.00  0.00     0.103 A 
ATOM     11  C   UNL     1      -3.707   4.307   2.932  1.00  0.00     0.064 A 
ATOM     12  C   UNL     1      -2.717   3.907   3.826  1.00  0.00     0.032 A 
ATOM     13  C   UNL     1      -4.848   3.549   2.753  1.00  0.00     0.048 A 
ATOM     14  C   UNL     1      -2.789   2.632   4.392  1.00  0.00     0.049 A 
ATOM     15  C   UNL     1      -3.841   1.780   4.031  1.00  0.00     0.130 A 
BRANCH  11  16
ATOM     16  N   UNL     1      -3.611   5.415   2.119  1.00  0.00    -0.256 NA
ATOM     17  C   UNL     1      -3.271   5.284   0.868  1.00  0.00     0.121 C 
BRANCH  17  18
ATOM     18  C   UNL     1      -2.661   4.212   0.055  1.00  0.00     0.014 A 
ATOM     19  N   UNL     1      -1.565   2.448  -0.890  1.00  0.00    -0.318 N 
ATOM     20  C   UNL     1      -1.357   3.536  -1.703  1.00  0.00     0.021 A 
ATOM     21  C   UNL     1      -2.389   2.839   0.162  1.00  0.00     0.029 A 
ATOM     22  C   UNL     1      -0.495   3.507  -2.903  1.00  0.00     0.065 C 
ATOM     23  C   UNL     1      -2.097   4.581  -1.205  1.00  0.00     0.033 A 
ATOM     24  C   UNL     1      -2.719   1.817   1.173  1.00  0.00     0.065 C 
BRANCH  19  25
ATOM     25  C   UNL     1      -0.863   1.207  -0.937  1.00  0.00     0.046 A 
ATOM     26  C   UNL     1       2.620  -0.004  -0.006  1.00  0.00     0.044 C 
ATOM     27  C   UNL     1       1.161   0.009  -0.350  1.00  0.00    -0.049 A 
ATOM     28  C   UNL     1       0.437  -1.191  -0.363  1.00  0.00     0.003 A 
ATOM     29  C   UNL     1       0.504   1.214  -0.636  1.00  0.00     0.030 A 
ATOM     30  C   UNL     1      -0.921  -1.198  -0.686  1.00  0.00     0.002 A 
ATOM     31  C   UNL     1      -1.571  -0.003  -0.996  1.00  0.00     0.026 A 
ENDBRANCH  19  25
ENDBRANCH  17  18
ENDBRANCH  11  16
BRANCH  15  32
ATOM     32  O   UNL     1      -3.724   0.494   4.457  1.00  0.00    -0.507 OA
ATOM     33  H   UNL     1      -3.005   0.245   5.003  1.00  0.00     0.293 HD
ENDBRANCH  15  32
ENDBRANCH   8  10
ENDBRANCH   7   8
ENDBRANCH   6   7
ENDBRANCH   5   6
ENDBRANCH   4   5
ENDBRANCH   3   4
ENDBRANCH   2   3
ENDBRANCH   1   2
BRANCH   1  34
ATOM     34  C   UNL     1      -6.123   0.867   8.203  1.00  0.00     0.188 C 
BRANCH  34  35
ATOM     35  C   UNL     1      -7.394   1.641   8.513  1.00  0.00     0.188 C 
BRANCH  35  36
ATOM     36  O   UNL     1      -7.199   2.956   8.972  1.00  0.00    -0.376 OA
BRANCH  36  37
ATOM     37  C   UNL     1      -6.773   3.095  10.328  1.00  0.00     0.202 C 
BRANCH  37  38
ATOM     38  C   UNL     1      -6.539   1.862  11.254  1.00  0.00     0.261 C 
BRANCH  38  39
ATOM     39  O   UNL     1      -7.748   1.069  11.392  1.00  0.00    -0.460 OA
BRANCH  39  40
ATOM     40  C   UNL     1      -7.611  -0.228  11.813  1.00  0.00     0.338 C 
ATOM     41  O   UNL     1      -7.215  -0.572  12.910  1.00  0.00    -0.246 OA
BRANCH  40  42
ATOM     42  C   UNL     1      -8.085  -1.164  10.739  1.00  0.00     0.060 A 
ATOM     43  C   UNL     1      -7.412  -2.359  10.464  1.00  0.00     0.016 A 
ATOM     44  C   UNL     1      -9.063  -0.733   9.850  1.00  0.00     0.016 A 
ATOM     45  C   UNL     1      -7.514  -2.945   9.187  1.00  0.00     0.010 A 
ATOM     46  C   UNL     1      -9.052  -1.224   8.551  1.00  0.00     0.010 A 
ATOM     47  C   UNL     1      -8.219  -2.285   8.178  1.00  0.00    -0.014 A 
BRANCH  47  48
ATOM     48  C   UNL     1      -7.980  -2.475   6.726  1.00  0.00     0.031 A 
ATOM     49  C   UNL     1      -9.145  -2.502   5.769  1.00  0.00     0.074 A 
ATOM     50  C   UNL     1      -6.716  -2.293   6.239  1.00  0.00     0.049 A 
ATOM     51  N   UNL     1      -9.027  -2.561   4.491  1.00  0.00    -0.248 NA
ATOM     52  C   UNL     1     -10.551  -2.361   6.144  1.00  0.00     0.031 C 
ATOM     53  C   UNL     1      -6.298  -2.168   4.847  1.00  0.00     0.029 A 
ATOM     54  N   UNL     1      -5.489  -2.199   6.910  1.00  0.00    -0.354 N 
ATOM     55  C   UNL     1     -10.204  -2.189   3.873  1.00  0.00     0.074 A 
ATOM     56  C   UNL     1     -11.140  -2.111   4.964  1.00  0.00     0.031 C 
ATOM     57  C   UNL     1      -4.967  -2.200   4.719  1.00  0.00     0.029 A 
ATOM     58  C   UNL     1      -4.462  -2.551   6.014  1.00  0.00     0.049 A 
ATOM     59  H   UNL     1      -5.366  -1.931   7.849  1.00  0.00     0.167 HD
ATOM     60  C   UNL     1     -10.171  -1.927   2.524  1.00  0.00     0.037 A 
ATOM     61  C   UNL     1      -3.789  -3.707   6.237  1.00  0.00     0.037 A 
ATOM     62  C   UNL     1      -8.873  -2.396   1.957  1.00  0.00     0.049 A 
ATOM     63  C   UNL     1      -4.289  -4.734   5.194  1.00  0.00     0.074 A 
ATOM     64  C   UNL     1      -7.831  -1.832   1.240  1.00  0.00     0.029 A 
ATOM     65  N   UNL     1      -8.401  -3.663   2.340  1.00  0.00    -0.354 N 
ATOM     66  N   UNL     1      -5.514  -4.736   4.682  1.00  0.00    -0.248 NA
ATOM     67  C   UNL     1      -3.377  -5.528   4.371  1.00  0.00     0.031 C 
ATOM     68  C   UNL     1      -6.688  -2.697   1.363  1.00  0.00     0.029 A 
ATOM     69  C   UNL     1      -7.041  -3.818   2.114  1.00  0.00     0.049 A 
ATOM     70  H   UNL     1      -8.973  -4.366   2.725  1.00  0.00     0.167 HD
ATOM     71  C   UNL     1      -5.503  -5.297   3.416  1.00  0.00     0.074 A 
ATOM     72  C   UNL     1      -4.149  -5.838   3.310  1.00  0.00     0.031 C 
ATOM     73  C   UNL     1      -6.392  -5.111   2.370  1.00  0.00     0.037 A 
BRANCH  60  74
ATOM     74  C   UNL     1     -11.242  -1.168   1.706  1.00  0.00     0.058 A 
ATOM     75  C   UNL     1     -11.106  -0.985   0.306  1.00  0.00     0.135 A 
ATOM     76  C   UNL     1     -12.397  -0.539   2.235  1.00  0.00     0.135 A 
ATOM     77  F   UNL     1     -10.054  -1.481  -0.358  1.00  0.00    -0.206 F 
ATOM     78  C   UNL     1     -12.033  -0.282  -0.488  1.00  0.00     0.059 A 
ATOM     79  C   UNL     1     -13.358   0.134   1.456  1.00  0.00     0.059 A 
ATOM     80  F   UNL     1     -12.645  -0.505   3.547  1.00  0.00    -0.206 F 
ATOM     81  C   UNL     1     -13.171   0.260   0.090  1.00  0.00     0.060 A 
BRANCH  81  82
ATOM     82  S   UNL     1     -14.393   1.096  -0.951  1.00  0.00     0.124 S 
ATOM     83  O   UNL     1     -13.649   2.253  -1.438  1.00  0.00    -0.237 OA
ATOM     84  O   UNL     1     -14.703   0.076  -1.947  1.00  0.00    -0.237 OA
ATOM     85  O   UNL     1     -15.480   1.404  -0.025  1.00  0.00    -0.744 OA
ENDBRANCH  81  82
ENDBRANCH  60  74
BRANCH  61  86
ATOM     86  C   UNL     1      -3.201  -3.621   7.631  1.00  0.00     0.058 A 
ATOM     87  C   UNL     1      -2.201  -2.612   7.772  1.00  0.00     0.135 A 
ATOM     88  C   UNL     1      -3.951  -3.863   8.798  1.00  0.00     0.135 A 
ATOM     89  F   UNL     1      -1.417  -2.317   6.722  1.00  0.00    -0.206 F 
ATOM     90  C   UNL     1      -2.100  -1.770   8.891  1.00  0.00     0.059 A 
ATOM     91  C   UNL     1      -3.853  -3.035   9.944  1.00  0.00     0.059 A 
ATOM     92  F   UNL     1      -4.897  -4.814   8.796  1.00  0.00    -0.206 F 
ATOM     93  C   UNL     1      -2.970  -1.953   9.956  1.00  0.00     0.060 A 
BRANCH  93  94
ATOM     94  S   UNL     1      -3.016  -0.694  11.270  1.00  0.00     0.124 S 
ATOM     95  O   UNL     1      -1.764  -0.940  11.976  1.00  0.00    -0.237 OA
ATOM     96  O   UNL     1      -3.085   0.558  10.520  1.00  0.00    -0.237 OA
ATOM     97  O   UNL     1      -4.233  -1.024  12.000  1.00  0.00    -0.744 OA
ENDBRANCH  93  94
ENDBRANCH  61  86
BRANCH  73  98
ATOM     98  C   UNL     1      -6.789  -6.249   1.425  1.00  0.00     0.058 A 
ATOM     99  C   UNL     1      -6.399  -7.583   1.614  1.00  0.00     0.135 A 
ATOM    100  C   UNL     1      -7.766  -6.050   0.404  1.00  0.00     0.135 A 
ATOM    101  F   UNL     1      -5.528  -7.936   2.568  1.00  0.00    -0.206 F 
ATOM    102  C   UNL     1      -6.915  -8.627   0.846  1.00  0.00     0.059 A 
ATOM    103  C   UNL     1      -8.345  -7.085  -0.320  1.00  0.00     0.059 A 
ATOM    104  F   UNL     1      -8.229  -4.838   0.070  1.00  0.00    -0.206 F 
ATOM    105  C   UNL     1      -7.895  -8.371  -0.106  1.00  0.00     0.060 A 
BRANCH 105 106
ATOM    106  S   UNL     1      -8.585  -9.735  -1.048  1.00  0.00     0.124 S 
ATOM    107  O   UNL     1      -7.522  -9.978  -2.017  1.00  0.00    -0.237 OA
ATOM    108  O   UNL     1      -8.757 -10.763  -0.025  1.00  0.00    -0.237 OA
ATOM    109  O   UNL     1      -9.823  -9.187  -1.591  1.00  0.00    -0.744 OA
ENDBRANCH 105 106
ENDBRANCH  73  98
ENDBRANCH  47  48
ENDBRANCH  40  42
ENDBRANCH  39  40
ENDBRANCH  38  39
ENDBRANCH  37  38
ENDBRANCH  36  37
ENDBRANCH  35  36
ENDBRANCH  34  35
ENDBRANCH   1  34
TORSDOF 27
