REMARK SMILES Cc1ccc(C(=O)NC2(CC(=O)OCCOCCOCCOCCOC(=O)c3ccc(-c4c5nc(c(-c6c(F)cc(S(=O)(=O)[O-])cc6F)c6ccc([nH]6)c(-c6c(F)cc(S(=O)(=O)[O-])cc6F)c6nc(c(-c7c(F)cc(S(=O)(=O)[O-])cc7F)c7ccc4[nH]7)C=C6)C=C5)cc3)CCC2)cc1
REMARK SMILES IDX 19 1 18 2 17 3 16 4 15 5 14 6 13 7 11 8 12 9 10 10 9 11
REMARK SMILES IDX 94 12 96 13 95 14 8 15 6 16 7 17 5 19 1 20 2 21 3 22 98 23
REMARK SMILES IDX 4 24 97 25 20 26 21 27 22 28 23 29 24 30 25 31 26 32 27 33
REMARK SMILES IDX 28 34 29 35 93 36 30 37 92 38 31 39 32 40 33 41 86 42 34 43
REMARK SMILES IDX 91 44 85 45 87 46 35 47 90 48 84 49 83 50 36 52 70 53 49 54
REMARK SMILES IDX 69 55 50 56 53 57 68 58 88 59 51 60 52 61 67 63 89 64 54 65
REMARK SMILES IDX 37 66 38 67 47 68 39 69 40 70 46 71 48 72 41 73 42 74 43 75
REMARK SMILES IDX 44 76 45 77 71 78 72 79 81 80 73 81 74 82 80 83 82 84 75 85
REMARK SMILES IDX 76 86 77 87 78 88 79 89 55 90 56 91 65 92 57 93 58 94 64 95
REMARK SMILES IDX 66 96 59 97 60 98 61 99 62 100 63 101
REMARK H PARENT 8 18 87 51 53 62
REMARK Flexibility Score: inf
ROOT
ATOM      1  O   UNL     1      -5.063   0.262   3.346  1.00  0.00    -0.377 OA
ENDROOT
BRANCH   1   2
ATOM      2  C   UNL     1      -4.924  -0.350   2.107  1.00  0.00     0.188 C 
BRANCH   2   3
ATOM      3  C   UNL     1      -3.797  -1.447   1.837  1.00  0.00     0.188 C 
BRANCH   3   4
ATOM      4  O   UNL     1      -2.139  -1.571   2.335  1.00  0.00    -0.376 OA
BRANCH   4   5
ATOM      5  C   UNL     1      -0.537  -1.416   1.451  1.00  0.00     0.202 C 
BRANCH   5   6
ATOM      6  C   UNL     1       0.034  -0.805  -0.282  1.00  0.00     0.261 C 
BRANCH   6   7
ATOM      7  O   UNL     1       0.578   0.798  -1.464  1.00  0.00    -0.463 OA
BRANCH   7   8
ATOM      8  C   UNL     1      -0.122   2.138  -2.304  1.00  0.00     0.308 C 
ATOM      9  O   UNL     1      -0.482   2.015  -3.494  1.00  0.00    -0.252 OA
BRANCH   8  10
ATOM     10  C   UNL     1      -0.978   3.389  -1.688  1.00  0.00     0.151 C 
BRANCH  10  11
ATOM     11  C   UNL     1      -2.539   3.394  -1.802  1.00  0.00     0.051 C 
ATOM     12  C   UNL     1      -3.143   4.649  -2.581  1.00  0.00     0.029 C 
ATOM     13  C   UNL     1      -3.476   3.982  -0.634  1.00  0.00     0.029 C 
ATOM     14  C   UNL     1      -3.324   5.360  -1.231  1.00  0.00     0.005 C 
BRANCH  11  15
ATOM     15  N   UNL     1      -3.096   2.137  -2.319  1.00  0.00    -0.346 N 
ATOM     16  C   UNL     1      -2.625   0.851  -2.246  1.00  0.00     0.251 C 
ATOM     17  O   UNL     1      -3.334  -0.041  -2.716  1.00  0.00    -0.269 OA
ATOM     18  H   UNL     1      -3.951   2.234  -2.799  1.00  0.00     0.164 HD
BRANCH  16  19
ATOM     19  C   UNL     1      -1.338   0.473  -1.543  1.00  0.00     0.039 A 
ATOM     20  C   UNL     1       3.584  -0.683  -0.488  1.00  0.00     0.044 C 
ATOM     21  C   UNL     1       2.185  -0.245  -0.758  1.00  0.00    -0.051 A 
ATOM     22  C   UNL     1       1.305  -0.937  -2.066  1.00  0.00     0.004 A 
ATOM     23  C   UNL     1       1.257   0.724   0.339  1.00  0.00     0.004 A 
ATOM     24  C   UNL     1      -0.393  -0.463  -2.490  1.00  0.00     0.014 A 
ATOM     25  C   UNL     1      -0.483   1.157  -0.105  1.00  0.00     0.014 A 
ENDBRANCH  16  19
ENDBRANCH  11  15
ENDBRANCH  10  11
ENDBRANCH   8  10
ENDBRANCH   7   8
ENDBRANCH   6   7
ENDBRANCH   5   6
ENDBRANCH   4   5
ENDBRANCH   3   4
ENDBRANCH   2   3
ENDBRANCH   1   2
BRANCH   1  26
ATOM     26  C   UNL     1      -4.737  -0.569   4.428  1.00  0.00     0.188 C 
BRANCH  26  27
ATOM     27  C   UNL     1      -4.974  -2.054   4.298  1.00  0.00     0.188 C 
BRANCH  27  28
ATOM     28  O   UNL     1      -6.042  -2.384   3.402  1.00  0.00    -0.376 OA
BRANCH  28  29
ATOM     29  C   UNL     1      -7.202  -2.912   4.008  1.00  0.00     0.202 C 
BRANCH  29  30
ATOM     30  C   UNL     1      -6.832  -4.176   4.783  1.00  0.00     0.261 C 
BRANCH  30  31
ATOM     31  O   UNL     1      -6.050  -5.013   3.871  1.00  0.00    -0.460 OA
BRANCH  31  32
ATOM     32  C   UNL     1      -4.711  -5.136   4.119  1.00  0.00     0.338 C 
ATOM     33  O   UNL     1      -4.225  -5.179   5.241  1.00  0.00    -0.246 OA
BRANCH  32  34
ATOM     34  C   UNL     1      -3.884  -4.971   2.845  1.00  0.00     0.060 A 
ATOM     35  C   UNL     1      -2.546  -4.632   2.958  1.00  0.00     0.016 A 
ATOM     36  C   UNL     1      -4.423  -4.864   1.555  1.00  0.00     0.016 A 
ATOM     37  C   UNL     1      -1.863  -3.987   1.871  1.00  0.00     0.010 A 
ATOM     38  C   UNL     1      -3.747  -4.156   0.485  1.00  0.00     0.010 A 
ATOM     39  C   UNL     1      -2.509  -3.494   0.667  1.00  0.00    -0.014 A 
BRANCH  39  40
ATOM     40  C   UNL     1      -2.335  -1.930  -0.227  1.00  0.00     0.031 A 
ATOM     41  C   UNL     1      -1.824  -2.541  -1.875  1.00  0.00     0.074 A 
ATOM     42  C   UNL     1      -2.346  -0.383   0.414  1.00  0.00     0.049 A 
ATOM     43  N   UNL     1      -0.586  -2.756  -2.388  1.00  0.00    -0.248 NA
ATOM     44  C   UNL     1      -2.771  -2.965  -2.903  1.00  0.00     0.031 C 
ATOM     45  C   UNL     1      -3.201   0.891   0.313  1.00  0.00     0.029 A 
ATOM     46  N   UNL     1      -1.623   0.370   1.749  1.00  0.00    -0.354 N 
ATOM     47  C   UNL     1      -0.579  -2.680  -3.834  1.00  0.00     0.074 A 
ATOM     48  C   UNL     1      -2.008  -3.096  -4.019  1.00  0.00     0.031 C 
ATOM     49  C   UNL     1      -2.834   1.912   1.189  1.00  0.00     0.029 A 
ATOM     50  C   UNL     1      -1.587   1.775   1.972  1.00  0.00     0.049 A 
ATOM     51  H   UNL     1      -1.195  -0.209   2.421  1.00  0.00     0.167 HD
ATOM     52  C   UNL     1       0.248  -1.953  -4.852  1.00  0.00     0.037 A 
ATOM     53  C   UNL     1      -0.350   2.631   2.036  1.00  0.00     0.037 A 
ATOM     54  C   UNL     1       1.063  -0.438  -4.745  1.00  0.00     0.049 A 
ATOM     55  C   UNL     1       1.078   3.128   0.901  1.00  0.00     0.074 A 
ATOM     56  C   UNL     1       0.792   0.813  -5.348  1.00  0.00     0.029 A 
ATOM     57  N   UNL     1       2.253   0.066  -3.995  1.00  0.00    -0.354 N 
ATOM     58  N   UNL     1       1.190   3.138  -0.472  1.00  0.00    -0.248 NA
ATOM     59  C   UNL     1       2.485   3.296   1.357  1.00  0.00     0.031 C 
ATOM     60  C   UNL     1       1.562   1.946  -4.761  1.00  0.00     0.029 A 
ATOM     61  C   UNL     1       2.164   1.528  -3.563  1.00  0.00     0.049 A 
ATOM     62  H   UNL     1       3.033  -0.500  -3.794  1.00  0.00     0.167 HD
ATOM     63  C   UNL     1       2.530   2.875  -1.044  1.00  0.00     0.074 A 
ATOM     64  C   UNL     1       3.261   3.145   0.237  1.00  0.00     0.031 C 
ATOM     65  C   UNL     1       3.028   2.282  -2.348  1.00  0.00     0.037 A 
BRANCH  52  66
ATOM     66  C   UNL     1      -0.121  -2.444  -6.291  1.00  0.00     0.058 A 
ATOM     67  C   UNL     1      -0.197  -1.633  -7.437  1.00  0.00     0.135 A 
ATOM     68  C   UNL     1      -0.441  -3.805  -6.535  1.00  0.00     0.135 A 
ATOM     69  F   UNL     1       0.297  -0.397  -7.483  1.00  0.00    -0.206 F 
ATOM     70  C   UNL     1      -0.747  -2.063  -8.646  1.00  0.00     0.059 A 
ATOM     71  C   UNL     1      -1.008  -4.262  -7.732  1.00  0.00     0.059 A 
ATOM     72  F   UNL     1      -0.252  -4.733  -5.581  1.00  0.00    -0.206 F 
ATOM     73  C   UNL     1      -1.190  -3.368  -8.776  1.00  0.00     0.060 A 
BRANCH  73  74
ATOM     74  S   UNL     1      -1.944  -3.864 -10.334  1.00  0.00     0.124 S 
ATOM     75  O   UNL     1      -3.076  -2.948 -10.434  1.00  0.00    -0.237 OA
ATOM     76  O   UNL     1      -0.859  -3.636 -11.283  1.00  0.00    -0.237 OA
ATOM     77  O   UNL     1      -2.296  -5.264 -10.112  1.00  0.00    -0.744 OA
ENDBRANCH  73  74
ENDBRANCH  52  66
BRANCH  53  78
ATOM     78  C   UNL     1      -0.196   2.660   3.577  1.00  0.00     0.058 A 
ATOM     79  C   UNL     1      -1.196   3.448   4.196  1.00  0.00     0.135 A 
ATOM     80  C   UNL     1       0.163   1.477   4.273  1.00  0.00     0.135 A 
ATOM     81  F   UNL     1      -1.585   4.589   3.602  1.00  0.00    -0.206 F 
ATOM     82  C   UNL     1      -1.988   2.959   5.244  1.00  0.00     0.059 A 
ATOM     83  C   UNL     1      -0.605   0.981   5.348  1.00  0.00     0.059 A 
ATOM     84  F   UNL     1       1.153   0.703   3.803  1.00  0.00    -0.206 F 
ATOM     85  C   UNL     1      -1.716   1.705   5.790  1.00  0.00     0.060 A 
BRANCH  85  86
ATOM     86  S   UNL     1      -2.930   0.962   6.933  1.00  0.00     0.124 S 
ATOM     87  O   UNL     1      -2.474   1.440   8.231  1.00  0.00    -0.237 OA
ATOM     88  O   UNL     1      -4.194   1.531   6.475  1.00  0.00    -0.237 OA
ATOM     89  O   UNL     1      -2.777  -0.473   6.707  1.00  0.00    -0.744 OA
ENDBRANCH  85  86
ENDBRANCH  53  78
BRANCH  65  90
ATOM     90  C   UNL     1       4.569   2.138  -2.729  1.00  0.00     0.058 A 
ATOM     91  C   UNL     1       5.685   2.554  -1.994  1.00  0.00     0.135 A 
ATOM     92  C   UNL     1       4.952   1.502  -3.951  1.00  0.00     0.135 A 
ATOM     93  F   UNL     1       5.597   3.523  -1.078  1.00  0.00    -0.206 F 
ATOM     94  C   UNL     1       6.992   2.100  -2.265  1.00  0.00     0.059 A 
ATOM     95  C   UNL     1       6.218   1.004  -4.232  1.00  0.00     0.059 A 
ATOM     96  F   UNL     1       4.138   1.421  -5.011  1.00  0.00    -0.206 F 
ATOM     97  C   UNL     1       7.236   1.267  -3.352  1.00  0.00     0.060 A 
BRANCH  97  98
ATOM     98  S   UNL     1       8.892   0.661  -3.697  1.00  0.00     0.124 S 
ATOM     99  O   UNL     1       9.639   1.905  -3.851  1.00  0.00    -0.237 OA
ATOM    100  O   UNL     1       9.183  -0.112  -2.494  1.00  0.00    -0.237 OA
ATOM    101  O   UNL     1       8.727  -0.123  -4.917  1.00  0.00    -0.744 OA
ENDBRANCH  97  98
ENDBRANCH  65  90
ENDBRANCH  39  40
ENDBRANCH  32  34
ENDBRANCH  31  32
ENDBRANCH  30  31
ENDBRANCH  29  30
ENDBRANCH  28  29
ENDBRANCH  27  28
ENDBRANCH  26  27
ENDBRANCH   1  26
TORSDOF 26
