REMARK SMILES CCn1nc(-c2cccnc2)c2cc(C(=O)OCCOCCOCCOCCOC(=O)c3ccc(-c4c5nc(c(-c6c(F)cc(S(=O)(=O)[O-])cc6F)c6ccc([nH]6)c(-c6c(F)cc(S(=O)(=O)[O-])cc6F)c6nc(c(-c7c(F)cc(S(=O)(=O)[O-])cc7F)c7ccc4[nH]7)C=C6)C=C5)cc3)sc21
REMARK SMILES IDX 24 1 23 2 22 3 21 4 20 5 19 6 18 7 17 8 15 9 16 10 14 11
REMARK SMILES IDX 3 12 4 13 99 14 5 15 12 16 98 17 13 18 2 19 1 20 6 21 7 22
REMARK SMILES IDX 11 23 8 24 10 25 9 26 25 27 26 28 27 29 28 30 29 31 30 32
REMARK SMILES IDX 31 33 32 34 33 35 97 36 34 37 96 38 35 39 36 40 37 41 90 42
REMARK SMILES IDX 38 43 95 44 89 45 91 46 39 47 94 48 88 49 87 50 40 52 74 53
REMARK SMILES IDX 53 54 73 55 54 56 57 57 72 58 92 59 55 60 56 61 71 63 93 64
REMARK SMILES IDX 58 65 41 66 42 67 51 68 43 69 44 70 50 71 52 72 45 73 46 74
REMARK SMILES IDX 47 75 48 76 49 77 75 78 76 79 85 80 77 81 78 82 84 83 86 84
REMARK SMILES IDX 79 85 80 86 81 87 82 88 83 89 59 90 60 91 69 92 61 93 62 94
REMARK SMILES IDX 68 95 70 96 63 97 64 98 65 99 66 100 67 101
REMARK H PARENT 91 51 57 62
REMARK Flexibility Score: inf
ROOT
ATOM      1  C   UNL     1      -5.905  -4.600  -0.976  1.00  0.00     0.188 C 
ENDROOT
BRANCH   1   2
ATOM      2  O   UNL     1      -4.586  -4.364  -0.487  1.00  0.00    -0.377 OA
BRANCH   2   3
ATOM      3  C   UNL     1      -3.543  -4.921  -1.268  1.00  0.00     0.188 C 
BRANCH   3   4
ATOM      4  C   UNL     1      -3.031  -6.285  -0.751  1.00  0.00     0.188 C 
BRANCH   4   5
ATOM      5  O   UNL     1      -3.632  -6.968   0.346  1.00  0.00    -0.376 OA
BRANCH   5   6
ATOM      6  C   UNL     1      -4.232  -6.289   1.437  1.00  0.00     0.202 C 
BRANCH   6   7
ATOM      7  C   UNL     1      -3.474  -5.216   2.227  1.00  0.00     0.261 C 
BRANCH   7   8
ATOM      8  O   UNL     1      -2.476  -4.498   1.512  1.00  0.00    -0.459 OA
BRANCH   8   9
ATOM      9  C   UNL     1      -1.232  -5.046   1.474  1.00  0.00     0.348 C 
ATOM     10  O   UNL     1      -0.894  -6.068   2.058  1.00  0.00    -0.245 OA
BRANCH   9  11
ATOM     11  C   UNL     1      -0.417  -4.313   0.523  1.00  0.00     0.115 A 
ATOM     12  N   UNL     1       1.143  -1.651  -1.591  1.00  0.00    -0.254 N 
ATOM     13  N   UNL     1       2.088  -2.225  -2.389  1.00  0.00    -0.171 NA
ATOM     14  C   UNL     1       0.517  -2.567  -0.828  1.00  0.00     0.122 A 
ATOM     15  C   UNL     1       2.016  -3.552  -2.109  1.00  0.00     0.103 A 
ATOM     16  C   UNL     1       1.054  -3.753  -1.117  1.00  0.00     0.040 A 
ATOM     17  S   UNL     1      -0.640  -2.588   0.352  1.00  0.00    -0.109 S 
ATOM     18  C   UNL     1       0.558  -4.809  -0.355  1.00  0.00     0.040 A 
BRANCH  12  19
ATOM     19  C   UNL     1       0.954  -0.215  -1.572  1.00  0.00     0.142 C 
ATOM     20  C   UNL     1       1.406   0.406  -0.259  1.00  0.00     0.029 C 
ENDBRANCH  12  19
BRANCH  15  21
ATOM     21  C   UNL     1       2.908  -4.487  -2.763  1.00  0.00     0.021 A 
ATOM     22  C   UNL     1       4.272  -4.484  -2.465  1.00  0.00     0.013 A 
ATOM     23  C   UNL     1       2.462  -5.361  -3.746  1.00  0.00     0.121 A 
ATOM     24  C   UNL     1       5.128  -5.342  -3.150  1.00  0.00     0.021 A 
ATOM     25  N   UNL     1       3.271  -6.217  -4.421  1.00  0.00    -0.264 NA
ATOM     26  C   UNL     1       4.587  -6.178  -4.114  1.00  0.00     0.111 A 
ENDBRANCH  15  21
ENDBRANCH   9  11
ENDBRANCH   8   9
ENDBRANCH   7   8
ENDBRANCH   6   7
ENDBRANCH   5   6
ENDBRANCH   4   5
ENDBRANCH   3   4
ENDBRANCH   2   3
ENDBRANCH   1   2
BRANCH   1  27
ATOM     27  C   UNL     1      -6.285  -6.040  -1.415  1.00  0.00     0.188 C 
BRANCH  27  28
ATOM     28  O   UNL     1      -5.274  -6.705  -2.166  1.00  0.00    -0.376 OA
BRANCH  28  29
ATOM     29  C   UNL     1      -5.487  -7.074  -3.519  1.00  0.00     0.202 C 
BRANCH  29  30
ATOM     30  C   UNL     1      -5.298  -5.942  -4.528  1.00  0.00     0.261 C 
BRANCH  30  31
ATOM     31  O   UNL     1      -5.947  -4.750  -4.127  1.00  0.00    -0.460 OA
BRANCH  31  32
ATOM     32  C   UNL     1      -7.286  -4.846  -4.045  1.00  0.00     0.338 C 
ATOM     33  O   UNL     1      -7.967  -5.844  -4.240  1.00  0.00    -0.246 OA
BRANCH  32  34
ATOM     34  C   UNL     1      -7.826  -3.522  -3.737  1.00  0.00     0.060 A 
ATOM     35  C   UNL     1      -9.216  -3.449  -3.716  1.00  0.00     0.016 A 
ATOM     36  C   UNL     1      -7.000  -2.399  -3.921  1.00  0.00     0.016 A 
ATOM     37  C   UNL     1      -9.774  -2.341  -4.290  1.00  0.00     0.010 A 
ATOM     38  C   UNL     1      -7.559  -1.292  -4.492  1.00  0.00     0.010 A 
ATOM     39  C   UNL     1      -8.910  -1.365  -4.800  1.00  0.00    -0.014 A 
BRANCH  39  40
ATOM     40  C   UNL     1      -9.454  -0.485  -5.798  1.00  0.00     0.031 A 
ATOM     41  C   UNL     1     -10.272   0.590  -5.229  1.00  0.00     0.074 A 
ATOM     42  C   UNL     1      -9.204  -0.677  -7.104  1.00  0.00     0.049 A 
ATOM     43  N   UNL     1     -11.556   0.684  -5.238  1.00  0.00    -0.248 NA
ATOM     44  C   UNL     1      -9.589   1.552  -4.355  1.00  0.00     0.031 C 
ATOM     45  C   UNL     1      -8.210  -1.541  -7.749  1.00  0.00     0.029 A 
ATOM     46  N   UNL     1      -9.773  -0.033  -8.149  1.00  0.00    -0.354 N 
ATOM     47  C   UNL     1     -11.842   1.843  -4.532  1.00  0.00     0.074 A 
ATOM     48  C   UNL     1     -10.629   2.213  -3.849  1.00  0.00     0.031 C 
ATOM     49  C   UNL     1      -8.094  -1.182  -9.050  1.00  0.00     0.029 A 
ATOM     50  C   UNL     1      -9.093  -0.171  -9.348  1.00  0.00     0.049 A 
ATOM     51  H   UNL     1     -10.602   0.491  -8.064  1.00  0.00     0.167 HD
ATOM     52  C   UNL     1     -12.996   2.531  -4.732  1.00  0.00     0.037 A 
ATOM     53  C   UNL     1      -9.295   0.615 -10.434  1.00  0.00     0.037 A 
ATOM     54  C   UNL     1     -13.961   1.742  -5.455  1.00  0.00     0.049 A 
ATOM     55  C   UNL     1     -10.654   1.220 -10.279  1.00  0.00     0.074 A 
ATOM     56  C   UNL     1     -14.644   0.574  -5.178  1.00  0.00     0.029 A 
ATOM     57  N   UNL     1     -14.045   1.917  -6.817  1.00  0.00    -0.354 N 
ATOM     58  N   UNL     1     -11.762   0.522 -10.307  1.00  0.00    -0.248 NA
ATOM     59  C   UNL     1     -10.756   2.503  -9.592  1.00  0.00     0.031 C 
ATOM     60  C   UNL     1     -14.703  -0.127  -6.417  1.00  0.00     0.029 A 
ATOM     61  C   UNL     1     -14.098   0.670  -7.391  1.00  0.00     0.049 A 
ATOM     62  H   UNL     1     -14.065   2.779  -7.293  1.00  0.00     0.167 HD
ATOM     63  C   UNL     1     -12.574   1.078  -9.324  1.00  0.00     0.074 A 
ATOM     64  C   UNL     1     -11.926   2.337  -8.965  1.00  0.00     0.031 C 
ATOM     65  C   UNL     1     -13.534   0.343  -8.685  1.00  0.00     0.037 A 
BRANCH  52  66
ATOM     66  C   UNL     1     -13.123   4.015  -4.549  1.00  0.00     0.058 A 
ATOM     67  C   UNL     1     -14.400   4.604  -4.538  1.00  0.00     0.135 A 
ATOM     68  C   UNL     1     -12.033   4.911  -4.636  1.00  0.00     0.135 A 
ATOM     69  F   UNL     1     -15.504   3.842  -4.465  1.00  0.00    -0.206 F 
ATOM     70  C   UNL     1     -14.583   5.979  -4.673  1.00  0.00     0.059 A 
ATOM     71  C   UNL     1     -12.190   6.287  -4.707  1.00  0.00     0.059 A 
ATOM     72  F   UNL     1     -10.767   4.493  -4.763  1.00  0.00    -0.206 F 
ATOM     73  C   UNL     1     -13.470   6.809  -4.774  1.00  0.00     0.060 A 
BRANCH  73  74
ATOM     74  S   UNL     1     -13.699   8.566  -5.086  1.00  0.00     0.124 S 
ATOM     75  O   UNL     1     -14.200   8.552  -6.456  1.00  0.00    -0.237 OA
ATOM     76  O   UNL     1     -14.662   8.934  -4.054  1.00  0.00    -0.237 OA
ATOM     77  O   UNL     1     -12.358   9.116  -4.910  1.00  0.00    -0.744 OA
ENDBRANCH  73  74
ENDBRANCH  52  66
BRANCH  53  78
ATOM     78  C   UNL     1      -8.233   1.186 -11.305  1.00  0.00     0.058 A 
ATOM     79  C   UNL     1      -8.540   1.788 -12.536  1.00  0.00     0.135 A 
ATOM     80  C   UNL     1      -6.916   1.380 -10.832  1.00  0.00     0.135 A 
ATOM     81  F   UNL     1      -9.776   1.682 -13.046  1.00  0.00    -0.206 F 
ATOM     82  C   UNL     1      -7.609   2.562 -13.241  1.00  0.00     0.059 A 
ATOM     83  C   UNL     1      -5.969   2.134 -11.521  1.00  0.00     0.059 A 
ATOM     84  F   UNL     1      -6.531   0.916  -9.635  1.00  0.00    -0.206 F 
ATOM     85  C   UNL     1      -6.329   2.742 -12.716  1.00  0.00     0.060 A 
BRANCH  85  86
ATOM     86  S   UNL     1      -5.174   3.869 -13.533  1.00  0.00     0.124 S 
ATOM     87  O   UNL     1      -4.855   3.139 -14.755  1.00  0.00    -0.237 OA
ATOM     88  O   UNL     1      -5.984   5.071 -13.700  1.00  0.00    -0.237 OA
ATOM     89  O   UNL     1      -4.080   3.988 -12.573  1.00  0.00    -0.744 OA
ENDBRANCH  85  86
ENDBRANCH  53  78
BRANCH  65  90
ATOM     90  C   UNL     1     -13.858  -1.030  -9.224  1.00  0.00     0.058 A 
ATOM     91  C   UNL     1     -12.958  -2.111  -9.203  1.00  0.00     0.135 A 
ATOM     92  C   UNL     1     -15.183  -1.310  -9.589  1.00  0.00     0.135 A 
ATOM     93  F   UNL     1     -11.703  -1.949  -8.762  1.00  0.00    -0.206 F 
ATOM     94  C   UNL     1     -13.348  -3.403  -9.559  1.00  0.00     0.059 A 
ATOM     95  C   UNL     1     -15.602  -2.597  -9.919  1.00  0.00     0.059 A 
ATOM     96  F   UNL     1     -16.107  -0.335  -9.564  1.00  0.00    -0.206 F 
ATOM     97  C   UNL     1     -14.677  -3.638  -9.911  1.00  0.00     0.060 A 
BRANCH  97  98
ATOM     98  S   UNL     1     -15.206  -5.328 -10.271  1.00  0.00     0.124 S 
ATOM     99  O   UNL     1     -14.611  -5.562 -11.582  1.00  0.00    -0.237 OA
ATOM    100  O   UNL     1     -14.625  -6.087  -9.166  1.00  0.00    -0.237 OA
ATOM    101  O   UNL     1     -16.664  -5.240 -10.253  1.00  0.00    -0.744 OA
ENDBRANCH  97  98
ENDBRANCH  65  90
ENDBRANCH  39  40
ENDBRANCH  32  34
ENDBRANCH  31  32
ENDBRANCH  30  31
ENDBRANCH  29  30
ENDBRANCH  28  29
ENDBRANCH  27  28
ENDBRANCH   1  27
TORSDOF 25
