REMARK SMILES O=C(OCCOCCOCCOCCOC(=O)c1ccc(-c2c3nc(c(-c4c(F)cc(S(=O)(=O)[O-])cc4F)c4ccc([nH]4)c(-c4c(F)cc(S(=O)(=O)[O-])cc4F)c4nc(c(-c5c(F)cc(S(=O)(=O)[O-])cc5F)c5ccc2[nH]5)C=C4)C=C3)cc1)C(=O)N1CC[N@@H+]2CCC[C@H]2C1
REMARK SMILES IDX 10 1 9 2 8 3 7 4 6 5 5 6 4 7 3 8 2 9 1 10 84 11 85 12 86 13
REMARK SMILES IDX 87 14 94 15 88 16 93 17 89 18 92 19 90 20 91 22 11 23 12 24
REMARK SMILES IDX 13 25 14 26 15 27 16 28 17 29 18 30 19 31 83 32 20 33 82 34
REMARK SMILES IDX 21 35 22 36 23 37 76 38 24 39 81 40 75 41 77 42 25 43 80 44
REMARK SMILES IDX 74 45 73 46 26 48 60 49 39 50 59 51 40 52 43 53 58 54 78 55
REMARK SMILES IDX 41 56 42 57 57 59 79 60 44 61 27 62 28 63 37 64 29 65 30 66
REMARK SMILES IDX 36 67 38 68 31 69 32 70 33 71 34 72 35 73 61 74 62 75 71 76
REMARK SMILES IDX 63 77 64 78 70 79 72 80 65 81 66 82 67 83 68 84 69 85 45 86
REMARK SMILES IDX 46 87 55 88 47 89 48 90 54 91 56 92 49 93 50 94 51 95 52 96
REMARK SMILES IDX 53 97
REMARK H PARENT 89 21 77 47 43 58
REMARK Flexibility Score: inf
ROOT
ATOM      1  C   UNL     1       3.209  -1.926  -3.725  1.00  0.00     0.188 C 
ENDROOT
BRANCH   1   2
ATOM      2  O   UNL     1       1.920  -1.338  -3.676  1.00  0.00    -0.377 OA
BRANCH   2   3
ATOM      3  C   UNL     1       1.382  -1.187  -2.376  1.00  0.00     0.188 C 
BRANCH   3   4
ATOM      4  C   UNL     1       2.158  -0.193  -1.532  1.00  0.00     0.188 C 
BRANCH   4   5
ATOM      5  O   UNL     1       3.449  -0.612  -1.104  1.00  0.00    -0.376 OA
BRANCH   5   6
ATOM      6  C   UNL     1       3.562  -1.733  -0.240  1.00  0.00     0.202 C 
BRANCH   6   7
ATOM      7  C   UNL     1       4.058  -1.331   1.152  1.00  0.00     0.262 C 
BRANCH   7   8
ATOM      8  O   UNL     1       3.153  -0.563   1.952  1.00  0.00    -0.456 OA
BRANCH   8   9
ATOM      9  C   UNL     1       2.593   0.560   1.473  1.00  0.00     0.397 C 
ATOM     10  O   UNL     1       1.373   0.653   1.369  1.00  0.00    -0.240 OA
BRANCH   9  11
ATOM     11  C   UNL     1       3.428   1.865   1.532  1.00  0.00     0.332 C 
ATOM     12  O   UNL     1       2.851   2.846   2.011  1.00  0.00    -0.261 OA
BRANCH  11  13
ATOM     13  N   UNL     1       4.789   1.924   1.246  1.00  0.00    -0.321 N 
ATOM     14  C   UNL     1       5.522   1.477   0.044  1.00  0.00     0.181 C 
ATOM     15  C   UNL     1       5.575   2.834   2.070  1.00  0.00     0.185 C 
ATOM     16  C   UNL     1       6.935   0.896   0.368  1.00  0.00     0.284 C 
ATOM     17  C   UNL     1       6.812   2.063   2.500  1.00  0.00     0.204 C 
ATOM     18  N   UNL     1       7.658   1.719   1.344  1.00  0.00    -0.330 N 
ATOM     19  C   UNL     1       7.799   2.805   3.370  1.00  0.00     0.073 C 
ATOM     20  C   UNL     1       8.825   1.095   1.957  1.00  0.00     0.262 C 
ATOM     21  H   UNL     1       7.939   2.516   0.773  1.00  0.00     0.348 HD
ATOM     22  C   UNL     1       9.111   2.052   3.121  1.00  0.00     0.068 C 
ENDBRANCH  11  13
ENDBRANCH   9  11
ENDBRANCH   8   9
ENDBRANCH   7   8
ENDBRANCH   6   7
ENDBRANCH   5   6
ENDBRANCH   4   5
ENDBRANCH   3   4
ENDBRANCH   2   3
ENDBRANCH   1   2
BRANCH   1  23
ATOM     23  C   UNL     1       4.378  -0.942  -3.951  1.00  0.00     0.188 C 
BRANCH  23  24
ATOM     24  O   UNL     1       4.245   0.251  -4.719  1.00  0.00    -0.376 OA
BRANCH  24  25
ATOM     25  C   UNL     1       3.130   0.433  -5.573  1.00  0.00     0.202 C 
BRANCH  25  26
ATOM     26  C   UNL     1       3.076  -0.411  -6.854  1.00  0.00     0.261 C 
BRANCH  26  27
ATOM     27  O   UNL     1       3.394  -1.798  -6.668  1.00  0.00    -0.460 OA
BRANCH  27  28
ATOM     28  C   UNL     1       4.680  -2.147  -6.942  1.00  0.00     0.338 C 
ATOM     29  O   UNL     1       5.531  -1.447  -7.445  1.00  0.00    -0.246 OA
BRANCH  28  30
ATOM     30  C   UNL     1       4.968  -3.476  -6.334  1.00  0.00     0.060 A 
ATOM     31  C   UNL     1       6.187  -3.628  -5.657  1.00  0.00     0.016 A 
ATOM     32  C   UNL     1       4.059  -4.538  -6.377  1.00  0.00     0.016 A 
ATOM     33  C   UNL     1       6.519  -4.844  -5.058  1.00  0.00     0.010 A 
ATOM     34  C   UNL     1       4.401  -5.766  -5.794  1.00  0.00     0.010 A 
ATOM     35  C   UNL     1       5.650  -5.936  -5.168  1.00  0.00    -0.014 A 
BRANCH  35  36
ATOM     36  C   UNL     1       6.170  -7.303  -4.909  1.00  0.00     0.031 A 
ATOM     37  C   UNL     1       6.731  -8.059  -6.086  1.00  0.00     0.074 A 
ATOM     38  C   UNL     1       6.184  -7.859  -3.683  1.00  0.00     0.049 A 
ATOM     39  N   UNL     1       7.199  -9.278  -6.148  1.00  0.00    -0.248 NA
ATOM     40  C   UNL     1       6.766  -7.335  -7.368  1.00  0.00     0.031 C 
ATOM     41  C   UNL     1       5.724  -7.221  -2.452  1.00  0.00     0.029 A 
ATOM     42  N   UNL     1       6.602  -9.105  -3.280  1.00  0.00    -0.354 N 
ATOM     43  C   UNL     1       7.573  -9.468  -7.473  1.00  0.00     0.074 A 
ATOM     44  C   UNL     1       7.254  -8.252  -8.187  1.00  0.00     0.031 C 
ATOM     45  C   UNL     1       5.869  -8.088  -1.432  1.00  0.00     0.029 A 
ATOM     46  C   UNL     1       6.406  -9.351  -1.941  1.00  0.00     0.049 A 
ATOM     47  H   UNL     1       7.006  -9.761  -3.893  1.00  0.00     0.167 HD
ATOM     48  C   UNL     1       8.139 -10.553  -8.048  1.00  0.00     0.037 A 
ATOM     49  C   UNL     1       6.614 -10.473  -1.220  1.00  0.00     0.037 A 
ATOM     50  C   UNL     1       8.456 -11.765  -7.345  1.00  0.00     0.049 A 
ATOM     51  C   UNL     1       7.177 -11.701  -1.897  1.00  0.00     0.074 A 
ATOM     52  C   UNL     1       9.034 -12.920  -7.840  1.00  0.00     0.029 A 
ATOM     53  N   UNL     1       8.214 -11.982  -5.997  1.00  0.00    -0.354 N 
ATOM     54  N   UNL     1       7.538 -11.863  -3.148  1.00  0.00    -0.248 NA
ATOM     55  C   UNL     1       7.361 -12.899  -1.063  1.00  0.00     0.031 C 
ATOM     56  C   UNL     1       9.100 -13.853  -6.801  1.00  0.00     0.029 A 
ATOM     57  C   UNL     1       8.612 -13.261  -5.647  1.00  0.00     0.049 A 
ATOM     58  H   UNL     1       7.817 -11.325  -5.381  1.00  0.00     0.167 HD
ATOM     59  C   UNL     1       8.019 -13.167  -3.242  1.00  0.00     0.074 A 
ATOM     60  C   UNL     1       7.909 -13.748  -1.921  1.00  0.00     0.031 C 
ATOM     61  C   UNL     1       8.511 -13.822  -4.323  1.00  0.00     0.037 A 
BRANCH  48  62
ATOM     62  C   UNL     1       8.420 -10.483  -9.522  1.00  0.00     0.058 A 
ATOM     63  C   UNL     1       9.453  -9.686 -10.040  1.00  0.00     0.135 A 
ATOM     64  C   UNL     1       7.649 -11.229 -10.426  1.00  0.00     0.135 A 
ATOM     65  F   UNL     1      10.201  -8.931  -9.220  1.00  0.00    -0.206 F 
ATOM     66  C   UNL     1       9.695  -9.612 -11.407  1.00  0.00     0.059 A 
ATOM     67  C   UNL     1       7.891 -11.192 -11.795  1.00  0.00     0.059 A 
ATOM     68  F   UNL     1       6.643 -11.999  -9.982  1.00  0.00    -0.206 F 
ATOM     69  C   UNL     1       8.908 -10.369 -12.277  1.00  0.00     0.060 A 
BRANCH  69  70
ATOM     70  S   UNL     1       9.237 -10.266 -14.048  1.00  0.00     0.124 S 
ATOM     71  O   UNL     1       8.707  -8.943 -14.365  1.00  0.00    -0.237 OA
ATOM     72  O   UNL     1      10.689 -10.397 -14.104  1.00  0.00    -0.237 OA
ATOM     73  O   UNL     1       8.487 -11.390 -14.599  1.00  0.00    -0.744 OA
ENDBRANCH  69  70
ENDBRANCH  48  62
BRANCH  49  74
ATOM     74  C   UNL     1       6.274 -10.506   0.230  1.00  0.00     0.058 A 
ATOM     75  C   UNL     1       7.274 -10.596   1.210  1.00  0.00     0.135 A 
ATOM     76  C   UNL     1       4.939 -10.472   0.663  1.00  0.00     0.135 A 
ATOM     77  F   UNL     1       8.564 -10.650   0.849  1.00  0.00    -0.206 F 
ATOM     78  C   UNL     1       6.964 -10.659   2.566  1.00  0.00     0.059 A 
ATOM     79  C   UNL     1       4.605 -10.509   2.013  1.00  0.00     0.059 A 
ATOM     80  F   UNL     1       3.944 -10.383  -0.233  1.00  0.00    -0.206 F 
ATOM     81  C   UNL     1       5.625 -10.611   2.958  1.00  0.00     0.060 A 
BRANCH  81  82
ATOM     82  S   UNL     1       5.236 -10.631   4.722  1.00  0.00     0.124 S 
ATOM     83  O   UNL     1       5.505 -12.021   5.068  1.00  0.00    -0.237 OA
ATOM     84  O   UNL     1       6.175  -9.646   5.252  1.00  0.00    -0.237 OA
ATOM     85  O   UNL     1       3.833 -10.229   4.759  1.00  0.00    -0.744 OA
ENDBRANCH  81  82
ENDBRANCH  49  74
BRANCH  61  86
ATOM     86  C   UNL     1       9.015 -15.226  -4.127  1.00  0.00     0.058 A 
ATOM     87  C   UNL     1       8.140 -16.308  -3.942  1.00  0.00     0.135 A 
ATOM     88  C   UNL     1      10.390 -15.501  -4.204  1.00  0.00     0.135 A 
ATOM     89  F   UNL     1       6.817 -16.100  -3.860  1.00  0.00    -0.206 F 
ATOM     90  C   UNL     1       8.613 -17.611  -3.821  1.00  0.00     0.059 A 
ATOM     91  C   UNL     1      10.883 -16.799  -4.111  1.00  0.00     0.059 A 
ATOM     92  F   UNL     1      11.270 -14.504  -4.394  1.00  0.00    -0.206 F 
ATOM     93  C   UNL     1       9.987 -17.847  -3.909  1.00  0.00     0.060 A 
BRANCH  93  94
ATOM     94  S   UNL     1      10.585 -19.547  -3.791  1.00  0.00     0.124 S 
ATOM     95  O   UNL     1      10.435 -19.812  -2.364  1.00  0.00    -0.237 OA
ATOM     96  O   UNL     1       9.666 -20.264  -4.669  1.00  0.00    -0.237 OA
ATOM     97  O   UNL     1      11.960 -19.457  -4.272  1.00  0.00    -0.744 OA
ENDBRANCH  93  94
ENDBRANCH  61  86
ENDBRANCH  35  36
ENDBRANCH  28  30
ENDBRANCH  27  28
ENDBRANCH  26  27
ENDBRANCH  25  26
ENDBRANCH  24  25
ENDBRANCH  23  24
ENDBRANCH   1  23
TORSDOF 24
