REMARK SMILES CC(C)Cc1ccc([C@@H](C)C(=O)OCCOCCOCCOCCOC(=O)c2ccc(-c3c4nc(c(-c5c(F)cc(S(=O)(=O)[O-])cc5F)c5ccc([nH]5)c(-c5c(F)cc(S(=O)(=O)[O-])cc5F)c5nc(c(-c6c(F)cc(S(=O)(=O)[O-])cc6F)c6ccc3[nH]6)C=C5)C=C4)cc2)cc1
REMARK SMILES IDX 19 1 18 2 17 3 16 4 15 5 14 6 13 7 11 8 12 9 9 10 10 11 8 12
REMARK SMILES IDX 5 13 6 14 95 15 7 16 94 17 4 18 2 19 1 20 3 21 20 22 21 23
REMARK SMILES IDX 22 24 23 25 24 26 25 27 26 28 27 29 28 30 29 31 93 32 30 33
REMARK SMILES IDX 92 34 31 35 32 36 33 37 86 38 34 39 91 40 85 41 87 42 35 43
REMARK SMILES IDX 90 44 84 45 83 46 36 48 70 49 49 50 69 51 50 52 53 53 68 54
REMARK SMILES IDX 88 55 51 56 52 57 67 59 89 60 54 61 37 62 38 63 47 64 39 65
REMARK SMILES IDX 40 66 46 67 48 68 41 69 42 70 43 71 44 72 45 73 71 74 72 75
REMARK SMILES IDX 81 76 73 77 74 78 80 79 82 80 75 81 76 82 77 83 78 84 79 85
REMARK SMILES IDX 55 86 56 87 65 88 57 89 58 90 64 91 66 92 59 93 60 94 61 95
REMARK SMILES IDX 62 96 63 97
REMARK H PARENT 87 47 53 58
REMARK Flexibility Score: inf
ROOT
ATOM      1  O   UNL     1      -5.115   3.190   2.520  1.00  0.00    -0.377 OA
ENDROOT
BRANCH   1   2
ATOM      2  C   UNL     1      -5.128   1.826   2.881  1.00  0.00     0.188 C 
BRANCH   2   3
ATOM      3  C   UNL     1      -5.961   1.488   4.126  1.00  0.00     0.188 C 
BRANCH   3   4
ATOM      4  O   UNL     1      -6.788   2.461   4.748  1.00  0.00    -0.376 OA
BRANCH   4   5
ATOM      5  C   UNL     1      -6.389   3.824   4.799  1.00  0.00     0.202 C 
BRANCH   5   6
ATOM      6  C   UNL     1      -5.014   4.229   5.366  1.00  0.00     0.261 C 
BRANCH   6   7
ATOM      7  O   UNL     1      -3.863   3.520   4.864  1.00  0.00    -0.463 OA
BRANCH   7   8
ATOM      8  C   UNL     1      -3.311   2.604   5.692  1.00  0.00     0.313 C 
ATOM      9  O   UNL     1      -3.735   2.371   6.824  1.00  0.00    -0.252 OA
BRANCH   8  10
ATOM     10  C   UNL     1      -2.088   1.864   5.154  1.00  0.00     0.126 C 
ATOM     11  C   UNL     1      -0.849   2.362   5.887  1.00  0.00     0.025 C 
BRANCH  10  12
ATOM     12  C   UNL     1      -1.828   1.749   3.654  1.00  0.00    -0.034 A 
ATOM     13  C   UNL     1      -1.342   1.402   0.872  1.00  0.00    -0.048 A 
ATOM     14  C   UNL     1      -1.381   2.681   1.443  1.00  0.00     0.004 A 
ATOM     15  C   UNL     1      -1.567   0.297   1.697  1.00  0.00     0.004 A 
ATOM     16  C   UNL     1      -1.621   2.854   2.817  1.00  0.00     0.005 A 
ATOM     17  C   UNL     1      -1.785   0.466   3.067  1.00  0.00     0.005 A 
BRANCH  13  18
ATOM     18  C   UNL     1      -0.996   1.207  -0.589  1.00  0.00     0.038 C 
BRANCH  18  19
ATOM     19  C   UNL     1       0.526   1.162  -0.844  1.00  0.00    -0.013 C 
ATOM     20  C   UNL     1       1.199  -0.039  -0.171  1.00  0.00     0.008 C 
ATOM     21  C   UNL     1       0.818   1.122  -2.347  1.00  0.00     0.008 C 
ENDBRANCH  18  19
ENDBRANCH  13  18
ENDBRANCH  10  12
ENDBRANCH   8  10
ENDBRANCH   7   8
ENDBRANCH   6   7
ENDBRANCH   5   6
ENDBRANCH   4   5
ENDBRANCH   3   4
ENDBRANCH   2   3
ENDBRANCH   1   2
BRANCH   1  22
ATOM     22  C   UNL     1      -5.908   3.555   1.405  1.00  0.00     0.188 C 
BRANCH  22  23
ATOM     23  C   UNL     1      -7.308   2.920   1.315  1.00  0.00     0.188 C 
BRANCH  23  24
ATOM     24  O   UNL     1      -7.300   1.499   1.383  1.00  0.00    -0.376 OA
BRANCH  24  25
ATOM     25  C   UNL     1      -7.304   0.754   0.174  1.00  0.00     0.202 C 
BRANCH  25  26
ATOM     26  C   UNL     1      -6.091   0.854  -0.769  1.00  0.00     0.261 C 
BRANCH  26  27
ATOM     27  O   UNL     1      -5.725   2.157  -1.245  1.00  0.00    -0.460 OA
BRANCH  27  28
ATOM     28  C   UNL     1      -6.655   2.900  -1.877  1.00  0.00     0.338 C 
ATOM     29  O   UNL     1      -7.794   2.567  -2.157  1.00  0.00    -0.246 OA
BRANCH  28  30
ATOM     30  C   UNL     1      -6.118   4.273  -2.001  1.00  0.00     0.060 A 
ATOM     31  C   UNL     1      -6.822   5.341  -1.423  1.00  0.00     0.016 A 
ATOM     32  C   UNL     1      -4.919   4.503  -2.678  1.00  0.00     0.016 A 
ATOM     33  C   UNL     1      -6.351   6.649  -1.562  1.00  0.00     0.010 A 
ATOM     34  C   UNL     1      -4.464   5.813  -2.840  1.00  0.00     0.010 A 
ATOM     35  C   UNL     1      -5.199   6.894  -2.318  1.00  0.00    -0.014 A 
BRANCH  35  36
ATOM     36  C   UNL     1      -4.889   8.265  -2.793  1.00  0.00     0.031 A 
ATOM     37  C   UNL     1      -5.328   8.630  -4.186  1.00  0.00     0.074 A 
ATOM     38  C   UNL     1      -4.216   9.150  -2.037  1.00  0.00     0.049 A 
ATOM     39  N   UNL     1      -5.037   9.683  -4.901  1.00  0.00    -0.248 NA
ATOM     40  C   UNL     1      -6.206   7.662  -4.869  1.00  0.00     0.031 C 
ATOM     41  C   UNL     1      -3.791   8.935  -0.655  1.00  0.00     0.029 A 
ATOM     42  N   UNL     1      -3.747  10.405  -2.343  1.00  0.00    -0.354 N 
ATOM     43  C   UNL     1      -5.673   9.494  -6.123  1.00  0.00     0.074 A 
ATOM     44  C   UNL     1      -6.350   8.219  -6.061  1.00  0.00     0.031 C 
ATOM     45  C   UNL     1      -3.095  10.011  -0.242  1.00  0.00     0.029 A 
ATOM     46  C   UNL     1      -2.986  10.966  -1.344  1.00  0.00     0.049 A 
ATOM     47  H   UNL     1      -3.937  10.858  -3.195  1.00  0.00     0.167 HD
ATOM     48  C   UNL     1      -5.688  10.312  -7.201  1.00  0.00     0.037 A 
ATOM     49  C   UNL     1      -2.252  12.100  -1.341  1.00  0.00     0.037 A 
ATOM     50  C   UNL     1      -5.013  11.581  -7.249  1.00  0.00     0.049 A 
ATOM     51  C   UNL     1      -2.223  12.963  -2.580  1.00  0.00     0.074 A 
ATOM     52  C   UNL     1      -4.975  12.493  -8.288  1.00  0.00     0.029 A 
ATOM     53  N   UNL     1      -4.255  12.113  -6.218  1.00  0.00    -0.354 N 
ATOM     54  N   UNL     1      -2.829  12.779  -3.730  1.00  0.00    -0.248 NA
ATOM     55  C   UNL     1      -1.409  14.188  -2.527  1.00  0.00     0.031 C 
ATOM     56  C   UNL     1      -4.144  13.549  -7.908  1.00  0.00     0.029 A 
ATOM     57  C   UNL     1      -3.727  13.332  -6.604  1.00  0.00     0.049 A 
ATOM     58  H   UNL     1      -4.113  11.688  -5.341  1.00  0.00     0.167 HD
ATOM     59  C   UNL     1      -2.512  13.886  -4.513  1.00  0.00     0.074 A 
ATOM     60  C   UNL     1      -1.653  14.731  -3.712  1.00  0.00     0.031 C 
ATOM     61  C   UNL     1      -2.905  14.181  -5.777  1.00  0.00     0.037 A 
BRANCH  48  62
ATOM     62  C   UNL     1      -6.425   9.849  -8.426  1.00  0.00     0.058 A 
ATOM     63  C   UNL     1      -7.826   9.778  -8.469  1.00  0.00     0.135 A 
ATOM     64  C   UNL     1      -5.716   9.521  -9.594  1.00  0.00     0.135 A 
ATOM     65  F   UNL     1      -8.552  10.056  -7.375  1.00  0.00    -0.206 F 
ATOM     66  C   UNL     1      -8.498   9.384  -9.621  1.00  0.00     0.059 A 
ATOM     67  C   UNL     1      -6.369   9.155 -10.767  1.00  0.00     0.059 A 
ATOM     68  F   UNL     1      -4.375   9.564  -9.605  1.00  0.00    -0.206 F 
ATOM     69  C   UNL     1      -7.760   9.081 -10.768  1.00  0.00     0.060 A 
BRANCH  69  70
ATOM     70  S   UNL     1      -8.650   8.600 -12.262  1.00  0.00     0.124 S 
ATOM     71  O   UNL     1      -9.150   7.280 -11.892  1.00  0.00    -0.237 OA
ATOM     72  O   UNL     1      -9.657   9.651 -12.374  1.00  0.00    -0.237 OA
ATOM     73  O   UNL     1      -7.617   8.612 -13.293  1.00  0.00    -0.744 OA
ENDBRANCH  69  70
ENDBRANCH  48  62
BRANCH  49  74
ATOM     74  C   UNL     1      -1.458  12.478  -0.138  1.00  0.00     0.058 A 
ATOM     75  C   UNL     1      -1.775  13.620   0.613  1.00  0.00     0.135 A 
ATOM     76  C   UNL     1      -0.350  11.718   0.271  1.00  0.00     0.135 A 
ATOM     77  F   UNL     1      -2.816  14.389   0.257  1.00  0.00    -0.206 F 
ATOM     78  C   UNL     1      -1.010  14.010   1.708  1.00  0.00     0.059 A 
ATOM     79  C   UNL     1       0.411  12.070   1.382  1.00  0.00     0.059 A 
ATOM     80  F   UNL     1      -0.006  10.611  -0.405  1.00  0.00    -0.206 F 
ATOM     81  C   UNL     1       0.081  13.227   2.086  1.00  0.00     0.060 A 
BRANCH  81  82
ATOM     82  S   UNL     1       1.049  13.727   3.526  1.00  0.00     0.124 S 
ATOM     83  O   UNL     1       1.736  14.911   3.022  1.00  0.00    -0.237 OA
ATOM     84  O   UNL     1       0.010  13.967   4.523  1.00  0.00    -0.237 OA
ATOM     85  O   UNL     1       1.897  12.566   3.781  1.00  0.00    -0.744 OA
ENDBRANCH  81  82
ENDBRANCH  49  74
BRANCH  61  86
ATOM     86  C   UNL     1      -2.496  15.506  -6.361  1.00  0.00     0.058 A 
ATOM     87  C   UNL     1      -1.186  15.762  -6.791  1.00  0.00     0.135 A 
ATOM     88  C   UNL     1      -3.469  16.492  -6.598  1.00  0.00     0.135 A 
ATOM     89  F   UNL     1      -0.217  14.857  -6.584  1.00  0.00    -0.206 F 
ATOM     90  C   UNL     1      -0.854  16.951  -7.435  1.00  0.00     0.059 A 
ATOM     91  C   UNL     1      -3.167  17.674  -7.267  1.00  0.00     0.059 A 
ATOM     92  F   UNL     1      -4.741  16.293  -6.216  1.00  0.00    -0.206 F 
ATOM     93  C   UNL     1      -1.855  17.895  -7.680  1.00  0.00     0.060 A 
BRANCH  93  94
ATOM     94  S   UNL     1      -1.427  19.396  -8.588  1.00  0.00     0.124 S 
ATOM     95  O   UNL     1      -0.631  20.120  -7.603  1.00  0.00    -0.237 OA
ATOM     96  O   UNL     1      -0.691  18.867  -9.732  1.00  0.00    -0.237 OA
ATOM     97  O   UNL     1      -2.724  19.986  -8.903  1.00  0.00    -0.744 OA
ENDBRANCH  93  94
ENDBRANCH  61  86
ENDBRANCH  35  36
ENDBRANCH  28  30
ENDBRANCH  27  28
ENDBRANCH  26  27
ENDBRANCH  25  26
ENDBRANCH  24  25
ENDBRANCH  23  24
ENDBRANCH  22  23
ENDBRANCH   1  22
TORSDOF 26
