REMARK SMILES Cc1ccc(Nc2c(Cl)cc(Cl)cc2Cl)c(CC(=O)OCCOCCOCCOCCOC(=O)c2ccc(-c3c4nc(c(-c5c(F)cc(S(=O)(=O)[O-])cc5F)c5ccc([nH]5)c(-c5c(F)cc(S(=O)(=O)[O-])cc5F)c5nc(c(-c6c(F)cc(S(=O)(=O)[O-])cc6F)c6ccc3[nH]6)C=C5)C=C4)cc2)c1
REMARK SMILES IDX 26 1 25 2 24 3 23 4 22 5 21 6 20 7 18 8 19 9 17 10 16 11
REMARK SMILES IDX 1 12 2 13 3 14 101 15 4 16 5 17 6 18 7 20 8 21 14 22 9 23
REMARK SMILES IDX 10 24 13 25 15 26 11 27 12 28 27 29 28 30 29 31 30 32 31 33
REMARK SMILES IDX 32 34 33 35 34 36 35 37 36 38 100 39 37 40 99 41 38 42 39 43
REMARK SMILES IDX 40 44 93 45 41 46 98 47 92 48 94 49 42 50 97 51 91 52 90 53
REMARK SMILES IDX 43 55 77 56 56 57 76 58 57 59 60 60 75 61 95 62 58 63 59 64
REMARK SMILES IDX 74 66 96 67 61 68 44 69 45 70 54 71 46 72 47 73 53 74 55 75
REMARK SMILES IDX 48 76 49 77 50 78 51 79 52 80 78 81 79 82 88 83 80 84 81 85
REMARK SMILES IDX 87 86 89 87 82 88 83 89 84 90 85 91 86 92 62 93 63 94 72 95
REMARK SMILES IDX 64 96 65 97 71 98 73 99 66 100 67 101 68 102 69 103 70 104
REMARK H PARENT 6 19 94 54 60 65
REMARK Flexibility Score: inf
ROOT
ATOM      1  O   UNL     1      -2.453   0.430  -2.740  1.00  0.00    -0.377 OA
ENDROOT
BRANCH   1   2
ATOM      2  C   UNL     1      -2.424   0.389  -1.330  1.00  0.00     0.188 C 
BRANCH   2   3
ATOM      3  C   UNL     1      -3.848   0.439  -0.766  1.00  0.00     0.188 C 
BRANCH   3   4
ATOM      4  O   UNL     1      -4.348   1.632  -0.171  1.00  0.00    -0.376 OA
BRANCH   4   5
ATOM      5  C   UNL     1      -4.239   2.806  -0.948  1.00  0.00     0.202 C 
BRANCH   5   6
ATOM      6  C   UNL     1      -3.365   3.839  -0.241  1.00  0.00     0.261 C 
BRANCH   6   7
ATOM      7  O   UNL     1      -2.306   3.225   0.497  1.00  0.00    -0.463 OA
BRANCH   7   8
ATOM      8  C   UNL     1      -2.672   2.870   1.756  1.00  0.00     0.310 C 
ATOM      9  O   UNL     1      -3.742   3.114   2.300  1.00  0.00    -0.252 OA
BRANCH   8  10
ATOM     10  C   UNL     1      -1.552   2.186   2.473  1.00  0.00     0.160 C 
BRANCH  10  11
ATOM     11  C   UNL     1      -1.053   0.907   1.840  1.00  0.00    -0.013 A 
ATOM     12  C   UNL     1       2.193  -0.019  -0.008  1.00  0.00     0.044 C 
ATOM     13  C   UNL     1       0.833  -0.114   0.618  1.00  0.00    -0.051 A 
ATOM     14  C   UNL     1       0.149  -1.322   0.642  1.00  0.00     0.005 A 
ATOM     15  C   UNL     1       0.224   0.990   1.215  1.00  0.00     0.009 A 
ATOM     16  C   UNL     1      -1.132  -1.406   1.214  1.00  0.00     0.026 A 
ATOM     17  C   UNL     1      -1.781  -0.312   1.824  1.00  0.00     0.042 A 
BRANCH  17  18
ATOM     18  N   UNL     1      -3.109  -0.427   2.366  1.00  0.00    -0.353 N 
ATOM     19  H   UNL     1      -3.425   0.357   2.870  1.00  0.00     0.167 HD
BRANCH  18  20
ATOM     20  C   UNL     1      -4.046  -1.521   2.280  1.00  0.00     0.076 A 
ATOM     21  C   UNL     1      -3.699  -2.861   2.525  1.00  0.00     0.067 A 
ATOM     22  C   UNL     1      -5.350  -1.317   1.750  1.00  0.00     0.067 A 
ATOM     23  Cl  UNL     1      -2.371  -3.285   3.557  1.00  0.00    -0.082 Cl
ATOM     24  C   UNL     1      -4.479  -3.924   2.044  1.00  0.00     0.043 A 
ATOM     25  C   UNL     1      -6.120  -2.370   1.232  1.00  0.00     0.043 A 
ATOM     26  Cl  UNL     1      -6.111   0.235   1.777  1.00  0.00    -0.082 Cl
ATOM     27  C   UNL     1      -5.659  -3.671   1.355  1.00  0.00     0.044 A 
ATOM     28  Cl  UNL     1      -6.549  -4.976   0.671  1.00  0.00    -0.084 Cl
ENDBRANCH  18  20
ENDBRANCH  17  18
ENDBRANCH  10  11
ENDBRANCH   8  10
ENDBRANCH   7   8
ENDBRANCH   6   7
ENDBRANCH   5   6
ENDBRANCH   4   5
ENDBRANCH   3   4
ENDBRANCH   2   3
ENDBRANCH   1   2
BRANCH   1  29
ATOM     29  C   UNL     1      -1.953  -0.677  -3.486  1.00  0.00     0.188 C 
BRANCH  29  30
ATOM     30  C   UNL     1      -2.264  -2.090  -3.039  1.00  0.00     0.188 C 
BRANCH  30  31
ATOM     31  O   UNL     1      -3.412  -2.082  -2.209  1.00  0.00    -0.376 OA
BRANCH  31  32
ATOM     32  C   UNL     1      -3.728  -3.340  -1.659  1.00  0.00     0.202 C 
BRANCH  32  33
ATOM     33  C   UNL     1      -4.354  -4.277  -2.687  1.00  0.00     0.261 C 
BRANCH  33  34
ATOM     34  O   UNL     1      -5.543  -3.647  -3.207  1.00  0.00    -0.460 OA
BRANCH  34  35
ATOM     35  C   UNL     1      -5.492  -3.343  -4.531  1.00  0.00     0.338 C 
ATOM     36  O   UNL     1      -5.423  -4.193  -5.422  1.00  0.00    -0.246 OA
BRANCH  35  37
ATOM     37  C   UNL     1      -5.471  -1.869  -4.741  1.00  0.00     0.060 A 
ATOM     38  C   UNL     1      -4.972  -1.302  -5.926  1.00  0.00     0.016 A 
ATOM     39  C   UNL     1      -5.803  -1.026  -3.691  1.00  0.00     0.016 A 
ATOM     40  C   UNL     1      -4.656   0.077  -6.006  1.00  0.00     0.010 A 
ATOM     41  C   UNL     1      -5.478   0.320  -3.775  1.00  0.00     0.010 A 
ATOM     42  C   UNL     1      -4.850   0.893  -4.898  1.00  0.00    -0.014 A 
BRANCH  42  43
ATOM     43  C   UNL     1      -4.393   2.297  -4.689  1.00  0.00     0.031 A 
ATOM     44  C   UNL     1      -5.410   3.259  -4.132  1.00  0.00     0.074 A 
ATOM     45  C   UNL     1      -3.060   2.549  -4.553  1.00  0.00     0.049 A 
ATOM     46  N   UNL     1      -5.152   4.407  -3.607  1.00  0.00    -0.248 NA
ATOM     47  C   UNL     1      -6.850   2.973  -4.111  1.00  0.00     0.031 C 
ATOM     48  C   UNL     1      -2.409   3.401  -3.546  1.00  0.00     0.029 A 
ATOM     49  N   UNL     1      -1.961   1.972  -5.169  1.00  0.00    -0.354 N 
ATOM     50  C   UNL     1      -6.275   4.849  -2.923  1.00  0.00     0.074 A 
ATOM     51  C   UNL     1      -7.330   3.970  -3.357  1.00  0.00     0.031 C 
ATOM     52  C   UNL     1      -1.073   3.271  -3.584  1.00  0.00     0.029 A 
ATOM     53  C   UNL     1      -0.786   2.682  -4.861  1.00  0.00     0.049 A 
ATOM     54  H   UNL     1      -1.998   1.173  -5.744  1.00  0.00     0.167 HD
ATOM     55  C   UNL     1      -6.139   5.819  -1.964  1.00  0.00     0.037 A 
ATOM     56  C   UNL     1      -0.198   3.392  -5.872  1.00  0.00     0.037 A 
ATOM     57  C   UNL     1      -4.784   6.433  -1.981  1.00  0.00     0.049 A 
ATOM     58  C   UNL     1      -0.548   4.893  -5.811  1.00  0.00     0.074 A 
ATOM     59  C   UNL     1      -3.890   6.917  -1.041  1.00  0.00     0.029 A 
ATOM     60  N   UNL     1      -4.114   6.571  -3.197  1.00  0.00    -0.354 N 
ATOM     61  N   UNL     1      -1.246   5.456  -4.846  1.00  0.00    -0.248 NA
ATOM     62  C   UNL     1      -0.146   5.890  -6.800  1.00  0.00     0.031 C 
ATOM     63  C   UNL     1      -2.681   7.298  -1.709  1.00  0.00     0.029 A 
ATOM     64  C   UNL     1      -2.856   7.109  -3.069  1.00  0.00     0.049 A 
ATOM     65  H   UNL     1      -4.504   6.309  -4.063  1.00  0.00     0.167 HD
ATOM     66  C   UNL     1      -1.458   6.782  -5.082  1.00  0.00     0.074 A 
ATOM     67  C   UNL     1      -0.740   7.006  -6.330  1.00  0.00     0.031 C 
ATOM     68  C   UNL     1      -2.200   7.605  -4.272  1.00  0.00     0.037 A 
BRANCH  55  69
ATOM     69  C   UNL     1      -7.172   6.151  -0.861  1.00  0.00     0.058 A 
ATOM     70  C   UNL     1      -7.031   7.331  -0.091  1.00  0.00     0.135 A 
ATOM     71  C   UNL     1      -8.225   5.313  -0.417  1.00  0.00     0.135 A 
ATOM     72  F   UNL     1      -6.143   8.274  -0.431  1.00  0.00    -0.206 F 
ATOM     73  C   UNL     1      -7.788   7.613   1.057  1.00  0.00     0.059 A 
ATOM     74  C   UNL     1      -9.046   5.610   0.692  1.00  0.00     0.059 A 
ATOM     75  F   UNL     1      -8.494   4.144  -1.011  1.00  0.00    -0.206 F 
ATOM     76  C   UNL     1      -8.796   6.745   1.449  1.00  0.00     0.060 A 
BRANCH  76  77
ATOM     77  S   UNL     1      -9.786   7.153   2.909  1.00  0.00     0.124 S 
ATOM     78  O   UNL     1      -8.869   6.847   4.001  1.00  0.00    -0.237 OA
ATOM     79  O   UNL     1     -10.077   8.570   2.708  1.00  0.00    -0.237 OA
ATOM     80  O   UNL     1     -10.942   6.267   2.796  1.00  0.00    -0.744 OA
ENDBRANCH  76  77
ENDBRANCH  55  69
BRANCH  56  81
ATOM     81  C   UNL     1       0.045   2.426  -7.015  1.00  0.00     0.058 A 
ATOM     82  C   UNL     1       0.979   1.404  -6.692  1.00  0.00     0.135 A 
ATOM     83  C   UNL     1      -1.034   2.044  -7.837  1.00  0.00     0.135 A 
ATOM     84  F   UNL     1       2.046   1.696  -5.929  1.00  0.00    -0.206 F 
ATOM     85  C   UNL     1       0.700   0.051  -6.907  1.00  0.00     0.059 A 
ATOM     86  C   UNL     1      -1.326   0.687  -8.067  1.00  0.00     0.059 A 
ATOM     87  F   UNL     1      -1.953   2.954  -8.196  1.00  0.00    -0.206 F 
ATOM     88  C   UNL     1      -0.492  -0.300  -7.532  1.00  0.00     0.060 A 
BRANCH  88  89
ATOM     89  S   UNL     1      -1.043  -2.028  -7.404  1.00  0.00     0.124 S 
ATOM     90  O   UNL     1      -0.182  -2.695  -8.371  1.00  0.00    -0.237 OA
ATOM     91  O   UNL     1      -0.777  -2.332  -5.998  1.00  0.00    -0.237 OA
ATOM     92  O   UNL     1      -2.455  -1.953  -7.757  1.00  0.00    -0.744 OA
ENDBRANCH  88  89
ENDBRANCH  56  81
BRANCH  68  93
ATOM     93  C   UNL     1      -2.480   9.044  -4.605  1.00  0.00     0.058 A 
ATOM     94  C   UNL     1      -1.490   9.918  -5.058  1.00  0.00     0.135 A 
ATOM     95  C   UNL     1      -3.768   9.601  -4.400  1.00  0.00     0.135 A 
ATOM     96  F   UNL     1      -0.209   9.525  -5.134  1.00  0.00    -0.206 F 
ATOM     97  C   UNL     1      -1.792  11.219  -5.446  1.00  0.00     0.059 A 
ATOM     98  C   UNL     1      -4.074  10.915  -4.714  1.00  0.00     0.059 A 
ATOM     99  F   UNL     1      -4.790   8.881  -3.920  1.00  0.00    -0.206 F 
ATOM    100  C   UNL     1      -3.094  11.697  -5.298  1.00  0.00     0.060 A 
BRANCH 100 101
ATOM    101  S   UNL     1      -3.506  13.337  -5.902  1.00  0.00     0.124 S 
ATOM    102  O   UNL     1      -2.339  14.119  -5.509  1.00  0.00    -0.237 OA
ATOM    103  O   UNL     1      -3.646  13.085  -7.334  1.00  0.00    -0.237 OA
ATOM    104  O   UNL     1      -4.741  13.663  -5.197  1.00  0.00    -0.744 OA
ENDBRANCH 100 101
ENDBRANCH  68  93
ENDBRANCH  42  43
ENDBRANCH  35  37
ENDBRANCH  34  35
ENDBRANCH  33  34
ENDBRANCH  32  33
ENDBRANCH  31  32
ENDBRANCH  30  31
ENDBRANCH  29  30
ENDBRANCH   1  29
TORSDOF 26
