REMARK SMILES O=C(Cn1nc(C(=O)OCCOCCOCCOCCOC(=O)c2ccc(-c3c4nc(c(-c5c(F)cc(S(=O)(=O)[O-])cc5F)c5ccc([nH]5)c(-c5c(F)cc(S(=O)(=O)[O-])cc5F)c5nc(c(-c6c(F)cc(S(=O)(=O)[O-])cc6F)c6ccc3[nH]6)C=C5)C=C4)cc2)c2ccccc2c1=O)Nc1ccc2c(c1)C(=O)c1ccccc1C2=O
REMARK SMILES IDX 15 1 14 2 13 3 12 4 11 5 10 6 9 7 7 8 8 9 6 10 4 11 5 12
REMARK SMILES IDX 96 13 95 14 97 15 90 16 94 17 91 18 93 19 92 20 3 21 2 22
REMARK SMILES IDX 1 23 98 24 99 26 100 27 104 28 101 29 103 30 102 31 105 32
REMARK SMILES IDX 113 33 106 34 107 35 112 36 114 37 108 38 111 39 109 40
REMARK SMILES IDX 110 41 16 42 17 43 18 44 19 45 20 46 21 47 22 48 23 49 24 50
REMARK SMILES IDX 25 51 89 52 26 53 88 54 27 55 28 56 29 57 82 58 30 59 87 60
REMARK SMILES IDX 81 61 83 62 31 63 86 64 80 65 79 66 32 68 66 69 45 70 65 71
REMARK SMILES IDX 46 72 49 73 64 74 84 75 47 76 48 77 63 79 85 80 50 81 33 82
REMARK SMILES IDX 34 83 43 84 35 85 36 86 42 87 44 88 37 89 38 90 39 91 40 92
REMARK SMILES IDX 41 93 67 94 68 95 77 96 69 97 70 98 76 99 78 100 71 101
REMARK SMILES IDX 72 102 73 103 74 104 75 105 51 106 52 107 61 108 53 109
REMARK SMILES IDX 54 110 60 111 62 112 55 113 56 114 57 115 58 116 59 117
REMARK H PARENT 98 25 83 67 49 78
REMARK Flexibility Score: inf
ROOT
ATOM      1  O   UNL     1       1.395  -5.783  -1.893  1.00  0.00    -0.377 OA
ENDROOT
BRANCH   1   2
ATOM      2  C   UNL     1       2.610  -5.457  -2.538  1.00  0.00     0.188 C 
BRANCH   2   3
ATOM      3  C   UNL     1       3.672  -6.547  -2.751  1.00  0.00     0.188 C 
BRANCH   3   4
ATOM      4  O   UNL     1       3.549  -7.697  -1.919  1.00  0.00    -0.376 OA
BRANCH   4   5
ATOM      5  C   UNL     1       4.485  -7.793  -0.849  1.00  0.00     0.202 C 
BRANCH   5   6
ATOM      6  C   UNL     1       4.071  -6.982   0.378  1.00  0.00     0.261 C 
BRANCH   6   7
ATOM      7  O   UNL     1       4.104  -5.571   0.132  1.00  0.00    -0.458 OA
BRANCH   7   8
ATOM      8  C   UNL     1       5.314  -4.989   0.059  1.00  0.00     0.359 C 
ATOM      9  O   UNL     1       6.408  -5.511   0.155  1.00  0.00    -0.244 OA
BRANCH   8  10
ATOM     10  C   UNL     1       5.120  -3.529  -0.316  1.00  0.00     0.176 A 
ATOM     11  N   UNL     1       4.128  -1.502   0.149  1.00  0.00    -0.219 N 
ATOM     12  N   UNL     1       4.367  -2.816   0.468  1.00  0.00    -0.161 NA
ATOM     13  C   UNL     1       4.778  -0.824  -0.877  1.00  0.00     0.275 A 
ATOM     14  C   UNL     1       5.556  -1.656  -1.817  1.00  0.00     0.051 A 
ATOM     15  O   UNL     1       4.710   0.390  -1.056  1.00  0.00    -0.267 OA
ATOM     16  C   UNL     1       5.738  -3.008  -1.549  1.00  0.00     0.022 A 
ATOM     17  C   UNL     1       6.071  -1.093  -2.994  1.00  0.00     0.014 A 
ATOM     18  C   UNL     1       6.452  -3.803  -2.456  1.00  0.00     0.011 A 
ATOM     19  C   UNL     1       6.764  -1.890  -3.904  1.00  0.00     0.001 A 
ATOM     20  C   UNL     1       6.955  -3.244  -3.634  1.00  0.00     0.001 A 
BRANCH  11  21
ATOM     21  C   UNL     1       3.177  -0.785   1.002  1.00  0.00     0.248 C 
BRANCH  21  22
ATOM     22  C   UNL     1       1.994  -0.332   0.134  1.00  0.00     0.246 C 
ATOM     23  O   UNL     1       1.338  -1.125  -0.538  1.00  0.00    -0.273 OA
ATOM     24  N   UNL     1       1.859   1.053   0.086  1.00  0.00    -0.324 N 
ATOM     25  H   UNL     1       2.024   1.554   0.918  1.00  0.00     0.169 HD
BRANCH  24  26
ATOM     26  C   UNL     1       1.503   1.796  -1.062  1.00  0.00     0.042 A 
ATOM     27  C   UNL     1       1.683   3.189  -1.002  1.00  0.00     0.027 A 
ATOM     28  C   UNL     1       1.228   1.190  -2.289  1.00  0.00     0.039 A 
ATOM     29  C   UNL     1       1.767   3.947  -2.174  1.00  0.00     0.015 A 
ATOM     30  C   UNL     1       1.379   1.935  -3.455  1.00  0.00     0.036 A 
ATOM     31  C   UNL     1       1.707   3.289  -3.400  1.00  0.00     0.034 A 
ATOM     32  C   UNL     1       1.497   1.220  -4.739  1.00  0.00     0.194 C 
ATOM     33  C   UNL     1       2.269   3.934  -4.607  1.00  0.00     0.194 C 
ATOM     34  O   UNL     1       0.826   0.239  -5.017  1.00  0.00    -0.289 OA
ATOM     35  C   UNL     1       2.580   1.691  -5.617  1.00  0.00     0.034 A 
ATOM     36  C   UNL     1       2.970   3.029  -5.547  1.00  0.00     0.034 A 
ATOM     37  O   UNL     1       2.282   5.148  -4.751  1.00  0.00    -0.289 OA
ATOM     38  C   UNL     1       3.305   0.772  -6.376  1.00  0.00     0.013 A 
ATOM     39  C   UNL     1       4.103   3.462  -6.236  1.00  0.00     0.013 A 
ATOM     40  C   UNL     1       4.458   1.196  -7.034  1.00  0.00     0.001 A 
ATOM     41  C   UNL     1       4.857   2.536  -6.962  1.00  0.00     0.001 A 
ENDBRANCH  24  26
ENDBRANCH  21  22
ENDBRANCH  11  21
ENDBRANCH   8  10
ENDBRANCH   7   8
ENDBRANCH   6   7
ENDBRANCH   5   6
ENDBRANCH   4   5
ENDBRANCH   3   4
ENDBRANCH   2   3
ENDBRANCH   1   2
BRANCH   1  42
ATOM     42  C   UNL     1       0.779  -7.039  -2.117  1.00  0.00     0.188 C 
BRANCH  42  43
ATOM     43  C   UNL     1       0.849  -7.693  -3.506  1.00  0.00     0.188 C 
BRANCH  43  44
ATOM     44  O   UNL     1       1.170  -6.802  -4.572  1.00  0.00    -0.376 OA
BRANCH  44  45
ATOM     45  C   UNL     1       0.107  -6.535  -5.481  1.00  0.00     0.202 C 
BRANCH  45  46
ATOM     46  C   UNL     1      -0.808  -5.402  -5.007  1.00  0.00     0.261 C 
BRANCH  46  47
ATOM     47  O   UNL     1      -1.547  -5.704  -3.817  1.00  0.00    -0.460 OA
BRANCH  47  48
ATOM     48  C   UNL     1      -2.428  -6.726  -3.881  1.00  0.00     0.338 C 
ATOM     49  O   UNL     1      -2.681  -7.423  -4.847  1.00  0.00    -0.246 OA
BRANCH  48  50
ATOM     50  C   UNL     1      -2.922  -6.973  -2.512  1.00  0.00     0.060 A 
ATOM     51  C   UNL     1      -3.352  -5.911  -1.710  1.00  0.00     0.016 A 
ATOM     52  C   UNL     1      -2.921  -8.284  -2.023  1.00  0.00     0.016 A 
ATOM     53  C   UNL     1      -3.820  -6.169  -0.423  1.00  0.00     0.010 A 
ATOM     54  C   UNL     1      -3.377  -8.538  -0.729  1.00  0.00     0.010 A 
ATOM     55  C   UNL     1      -3.854  -7.484   0.066  1.00  0.00    -0.014 A 
BRANCH  55  56
ATOM     56  C   UNL     1      -4.578  -7.768   1.324  1.00  0.00     0.031 A 
ATOM     57  C   UNL     1      -3.882  -7.825   2.646  1.00  0.00     0.074 A 
ATOM     58  C   UNL     1      -5.909  -7.953   1.239  1.00  0.00     0.049 A 
ATOM     59  N   UNL     1      -4.405  -7.959   3.837  1.00  0.00    -0.248 NA
ATOM     60  C   UNL     1      -2.416  -7.723   2.635  1.00  0.00     0.031 C 
ATOM     61  C   UNL     1      -6.679  -7.928  -0.008  1.00  0.00     0.029 A 
ATOM     62  N   UNL     1      -6.847  -8.184   2.208  1.00  0.00    -0.354 N 
ATOM     63  C   UNL     1      -3.340  -7.931   4.726  1.00  0.00     0.074 A 
ATOM     64  C   UNL     1      -2.134  -7.810   3.931  1.00  0.00     0.031 C 
ATOM     65  C   UNL     1      -7.975  -8.122   0.274  1.00  0.00     0.029 A 
ATOM     66  C   UNL     1      -8.125  -8.289   1.716  1.00  0.00     0.049 A 
ATOM     67  H   UNL     1      -6.627  -8.268   3.164  1.00  0.00     0.167 HD
ATOM     68  C   UNL     1      -3.376  -7.982   6.080  1.00  0.00     0.037 A 
ATOM     69  C   UNL     1      -9.292  -8.484   2.356  1.00  0.00     0.037 A 
ATOM     70  C   UNL     1      -4.585  -8.117   6.856  1.00  0.00     0.049 A 
ATOM     71  C   UNL     1      -9.298  -8.575   3.852  1.00  0.00     0.074 A 
ATOM     72  C   UNL     1      -4.726  -8.136   8.233  1.00  0.00     0.029 A 
ATOM     73  N   UNL     1      -5.858  -8.267   6.324  1.00  0.00    -0.354 N 
ATOM     74  N   UNL     1      -8.289  -8.482   4.684  1.00  0.00    -0.248 NA
ATOM     75  C   UNL     1     -10.599  -8.790   4.498  1.00  0.00     0.031 C 
ATOM     76  C   UNL     1      -6.079  -8.335   8.533  1.00  0.00     0.029 A 
ATOM     77  C   UNL     1      -6.786  -8.406   7.344  1.00  0.00     0.049 A 
ATOM     78  H   UNL     1      -6.071  -8.273   5.363  1.00  0.00     0.167 HD
ATOM     79  C   UNL     1      -8.833  -8.613   5.954  1.00  0.00     0.074 A 
ATOM     80  C   UNL     1     -10.263  -8.782   5.781  1.00  0.00     0.031 C 
ATOM     81  C   UNL     1      -8.204  -8.591   7.155  1.00  0.00     0.037 A 
BRANCH  68  82
ATOM     82  C   UNL     1      -2.072  -7.880   6.819  1.00  0.00     0.058 A 
ATOM     83  C   UNL     1      -1.409  -6.651   6.955  1.00  0.00     0.135 A 
ATOM     84  C   UNL     1      -1.516  -8.999   7.459  1.00  0.00     0.135 A 
ATOM     85  F   UNL     1      -1.895  -5.551   6.357  1.00  0.00    -0.206 F 
ATOM     86  C   UNL     1      -0.232  -6.536   7.689  1.00  0.00     0.059 A 
ATOM     87  C   UNL     1      -0.349  -8.905   8.212  1.00  0.00     0.059 A 
ATOM     88  F   UNL     1      -2.112 -10.198   7.362  1.00  0.00    -0.206 F 
ATOM     89  C   UNL     1       0.291  -7.670   8.314  1.00  0.00     0.060 A 
BRANCH  89  90
ATOM     90  S   UNL     1       1.810  -7.501   9.276  1.00  0.00     0.124 S 
ATOM     91  O   UNL     1       2.810  -7.370   8.220  1.00  0.00    -0.237 OA
ATOM     92  O   UNL     1       1.554  -6.295  10.058  1.00  0.00    -0.237 OA
ATOM     93  O   UNL     1       1.866  -8.741  10.043  1.00  0.00    -0.744 OA
ENDBRANCH  89  90
ENDBRANCH  68  82
BRANCH  69  94
ATOM     94  C   UNL     1     -10.545  -8.556   1.569  1.00  0.00     0.058 A 
ATOM     95  C   UNL     1     -11.431  -7.471   1.531  1.00  0.00     0.135 A 
ATOM     96  C   UNL     1     -10.846  -9.682   0.788  1.00  0.00     0.135 A 
ATOM     97  F   UNL     1     -11.179  -6.374   2.261  1.00  0.00    -0.206 F 
ATOM     98  C   UNL     1     -12.576  -7.497   0.744  1.00  0.00     0.059 A 
ATOM     99  C   UNL     1     -11.977  -9.726  -0.019  1.00  0.00     0.059 A 
ATOM    100  F   UNL     1     -10.015 -10.736   0.780  1.00  0.00    -0.206 F 
ATOM    101  C   UNL     1     -12.838  -8.629  -0.032  1.00  0.00     0.060 A 
BRANCH 101 102
ATOM    102  S   UNL     1     -14.290  -8.625  -1.105  1.00  0.00     0.124 S 
ATOM    103  O   UNL     1     -15.366  -8.831  -0.143  1.00  0.00    -0.237 OA
ATOM    104  O   UNL     1     -14.221  -7.300  -1.713  1.00  0.00    -0.237 OA
ATOM    105  O   UNL     1     -14.036  -9.737  -2.016  1.00  0.00    -0.744 OA
ENDBRANCH 101 102
ENDBRANCH  69  94
BRANCH  81 106
ATOM    106  C   UNL     1      -9.059  -8.763   8.376  1.00  0.00     0.058 A 
ATOM    107  C   UNL     1      -9.550 -10.023   8.749  1.00  0.00     0.135 A 
ATOM    108  C   UNL     1      -9.355  -7.669   9.204  1.00  0.00     0.135 A 
ATOM    109  F   UNL     1      -9.303 -11.098   7.983  1.00  0.00    -0.206 F 
ATOM    110  C   UNL     1     -10.317 -10.192   9.897  1.00  0.00     0.059 A 
ATOM    111  C   UNL     1     -10.104  -7.818  10.367  1.00  0.00     0.059 A 
ATOM    112  F   UNL     1      -8.904  -6.443   8.892  1.00  0.00    -0.206 F 
ATOM    113  C   UNL     1     -10.588  -9.083  10.700  1.00  0.00     0.060 A 
BRANCH 113 114
ATOM    114  S   UNL     1     -11.552  -9.321  12.208  1.00  0.00     0.124 S 
ATOM    115  O   UNL     1     -12.902  -9.465  11.675  1.00  0.00    -0.237 OA
ATOM    116  O   UNL     1     -10.961 -10.531  12.771  1.00  0.00    -0.237 OA
ATOM    117  O   UNL     1     -11.303  -8.099  12.967  1.00  0.00    -0.744 OA
ENDBRANCH 113 114
ENDBRANCH  81 106
ENDBRANCH  55  56
ENDBRANCH  48  50
ENDBRANCH  47  48
ENDBRANCH  46  47
ENDBRANCH  45  46
ENDBRANCH  44  45
ENDBRANCH  43  44
ENDBRANCH  42  43
ENDBRANCH   1  42
TORSDOF 26
