REMARK SMILES CC[C@](O)(C(=O)OCCOCCOCCOCCOC(=O)c1ccc(-c2c3nc(c(-c4c(F)cc(S(=O)(=O)[O-])cc4F)c4ccc([nH]4)c(-c4c(F)cc(S(=O)(=O)[O-])cc4F)c4nc(c(-c5c(F)cc(S(=O)(=O)[O-])cc5F)c5ccc2[nH]5)C=C4)C=C3)cc1)[C@@H](C)c1ccc(C)s1
REMARK SMILES IDX 14 1 13 2 12 3 11 4 10 5 9 6 8 7 7 8 5 9 6 10 3 11 2 12 1 13
REMARK SMILES IDX 88 14 89 15 90 16 91 17 95 18 92 19 93 20 94 21 4 22 15 24
REMARK SMILES IDX 16 25 17 26 18 27 19 28 20 29 21 30 22 31 23 32 87 33 24 34
REMARK SMILES IDX 86 35 25 36 26 37 27 38 80 39 28 40 85 41 79 42 81 43 29 44
REMARK SMILES IDX 84 45 78 46 77 47 30 49 64 50 43 51 63 52 44 53 47 54 62 55
REMARK SMILES IDX 82 56 45 57 46 58 61 60 83 61 48 62 31 63 32 64 41 65 33 66
REMARK SMILES IDX 34 67 40 68 42 69 35 70 36 71 37 72 38 73 39 74 65 75 66 76
REMARK SMILES IDX 75 77 67 78 68 79 74 80 76 81 69 82 70 83 71 84 72 85 73 86
REMARK SMILES IDX 49 87 50 88 59 89 51 90 52 91 58 92 60 93 53 94 54 95 55 96
REMARK SMILES IDX 56 97 57 98
REMARK H PARENT 4 23 81 48 47 59
REMARK Flexibility Score: inf
ROOT
ATOM      1  C   UNL     1      -1.637  -4.900  -2.483  1.00  0.00     0.188 C 
ENDROOT
BRANCH   1   2
ATOM      2  O   UNL     1      -1.113  -4.288  -1.315  1.00  0.00    -0.377 OA
BRANCH   2   3
ATOM      3  C   UNL     1       0.268  -4.008  -1.345  1.00  0.00     0.188 C 
BRANCH   3   4
ATOM      4  C   UNL     1       1.143  -5.110  -0.720  1.00  0.00     0.188 C 
BRANCH   4   5
ATOM      5  O   UNL     1       0.566  -6.338  -0.313  1.00  0.00    -0.376 OA
BRANCH   5   6
ATOM      6  C   UNL     1      -0.610  -6.319   0.486  1.00  0.00     0.202 C 
BRANCH   6   7
ATOM      7  C   UNL     1      -0.845  -5.287   1.613  1.00  0.00     0.261 C 
BRANCH   7   8
ATOM      8  O   UNL     1      -0.428  -3.928   1.387  1.00  0.00    -0.461 OA
BRANCH   8   9
ATOM      9  C   UNL     1       0.696  -3.503   2.029  1.00  0.00     0.338 C 
ATOM     10  O   UNL     1       1.390  -4.220   2.744  1.00  0.00    -0.249 OA
BRANCH   9  11
ATOM     11  C   UNL     1       1.001  -1.984   1.774  1.00  0.00     0.168 C 
BRANCH  11  12
ATOM     12  C   UNL     1       0.497  -1.318   3.082  1.00  0.00     0.044 C 
ATOM     13  C   UNL     1       0.220   0.181   3.026  1.00  0.00     0.007 C 
ENDBRANCH  11  12
BRANCH  11  14
ATOM     14  C   UNL     1       2.557  -1.862   1.532  1.00  0.00     0.070 C 
ATOM     15  C   UNL     1       3.106  -2.511   0.237  1.00  0.00     0.017 C 
BRANCH  14  16
ATOM     16  C   UNL     1       3.098  -0.450   1.524  1.00  0.00     0.011 A 
ATOM     17  C   UNL     1       2.698   0.656   0.799  1.00  0.00     0.016 A 
ATOM     18  S   UNL     1       4.529  -0.129   2.415  1.00  0.00    -0.145 S 
ATOM     19  C   UNL     1       3.587   1.756   0.965  1.00  0.00     0.015 A 
ATOM     20  C   UNL     1       4.658   1.443   1.774  1.00  0.00     0.002 A 
ATOM     21  C   UNL     1       5.829   2.285   2.130  1.00  0.00     0.056 C 
ENDBRANCH  14  16
ENDBRANCH  11  14
BRANCH  11  22
ATOM     22  O   UNL     1       0.251  -1.380   0.719  1.00  0.00    -0.378 OA
ATOM     23  H   UNL     1       0.525  -1.760  -0.131  1.00  0.00     0.212 HD
ENDBRANCH  11  22
ENDBRANCH   9  11
ENDBRANCH   8   9
ENDBRANCH   7   8
ENDBRANCH   6   7
ENDBRANCH   5   6
ENDBRANCH   4   5
ENDBRANCH   3   4
ENDBRANCH   2   3
ENDBRANCH   1   2
BRANCH   1  24
ATOM     24  C   UNL     1      -0.750  -5.934  -3.211  1.00  0.00     0.188 C 
BRANCH  24  25
ATOM     25  O   UNL     1       0.571  -5.479  -3.490  1.00  0.00    -0.376 OA
BRANCH  25  26
ATOM     26  C   UNL     1       0.888  -4.986  -4.781  1.00  0.00     0.202 C 
BRANCH  26  27
ATOM     27  C   UNL     1       0.232  -3.673  -5.241  1.00  0.00     0.261 C 
BRANCH  27  28
ATOM     28  O   UNL     1      -1.199  -3.620  -5.195  1.00  0.00    -0.460 OA
BRANCH  28  29
ATOM     29  C   UNL     1      -1.882  -4.535  -5.923  1.00  0.00     0.338 C 
ATOM     30  O   UNL     1      -1.417  -5.369  -6.666  1.00  0.00    -0.246 OA
BRANCH  29  31
ATOM     31  C   UNL     1      -3.294  -4.482  -5.475  1.00  0.00     0.060 A 
ATOM     32  C   UNL     1      -3.878  -5.643  -4.949  1.00  0.00     0.016 A 
ATOM     33  C   UNL     1      -4.019  -3.290  -5.536  1.00  0.00     0.016 A 
ATOM     34  C   UNL     1      -5.200  -5.622  -4.509  1.00  0.00     0.010 A 
ATOM     35  C   UNL     1      -5.355  -3.279  -5.128  1.00  0.00     0.010 A 
ATOM     36  C   UNL     1      -5.959  -4.454  -4.646  1.00  0.00    -0.014 A 
BRANCH  36  37
ATOM     37  C   UNL     1      -7.433  -4.526  -4.512  1.00  0.00     0.031 A 
ATOM     38  C   UNL     1      -8.242  -4.692  -5.770  1.00  0.00     0.074 A 
ATOM     39  C   UNL     1      -8.037  -4.473  -3.312  1.00  0.00     0.049 A 
ATOM     40  N   UNL     1      -9.538  -4.727  -5.927  1.00  0.00    -0.248 NA
ATOM     41  C   UNL     1      -7.480  -4.836  -7.024  1.00  0.00     0.031 C 
ATOM     42  C   UNL     1      -7.355  -4.365  -2.024  1.00  0.00     0.029 A 
ATOM     43  N   UNL     1      -9.371  -4.495  -2.988  1.00  0.00    -0.354 N 
ATOM     44  C   UNL     1      -9.748  -4.885  -7.292  1.00  0.00     0.074 A 
ATOM     45  C   UNL     1      -8.448  -4.911  -7.923  1.00  0.00     0.031 C 
ATOM     46  C   UNL     1      -8.278  -4.314  -1.047  1.00  0.00     0.029 A 
ATOM     47  C   UNL     1      -9.613  -4.350  -1.643  1.00  0.00     0.049 A 
ATOM     48  H   UNL     1     -10.086  -4.605  -3.655  1.00  0.00     0.167 HD
ATOM     49  C   UNL     1     -10.920  -5.005  -7.957  1.00  0.00     0.037 A 
ATOM     50  C   UNL     1     -10.781  -4.232  -0.978  1.00  0.00     0.037 A 
ATOM     51  C   UNL     1     -12.209  -4.975  -7.319  1.00  0.00     0.049 A 
ATOM     52  C   UNL     1     -12.076  -4.289  -1.751  1.00  0.00     0.074 A 
ATOM     53  C   UNL     1     -13.458  -5.103  -7.899  1.00  0.00     0.029 A 
ATOM     54  N   UNL     1     -12.416  -4.796  -5.958  1.00  0.00    -0.354 N 
ATOM     55  N   UNL     1     -12.264  -4.461  -3.039  1.00  0.00    -0.248 NA
ATOM     56  C   UNL     1     -13.319  -4.139  -0.980  1.00  0.00     0.031 C 
ATOM     57  C   UNL     1     -14.422  -4.939  -6.900  1.00  0.00     0.029 A 
ATOM     58  C   UNL     1     -13.773  -4.779  -5.685  1.00  0.00     0.049 A 
ATOM     59  H   UNL     1     -11.703  -4.695  -5.287  1.00  0.00     0.167 HD
ATOM     60  C   UNL     1     -13.644  -4.475  -3.226  1.00  0.00     0.074 A 
ATOM     61  C   UNL     1     -14.242  -4.303  -1.918  1.00  0.00     0.031 C 
ATOM     62  C   UNL     1     -14.353  -4.620  -4.374  1.00  0.00     0.037 A 
BRANCH  49  63
ATOM     63  C   UNL     1     -10.864  -5.141  -9.453  1.00  0.00     0.058 A 
ATOM     64  C   UNL     1     -10.386  -6.306 -10.077  1.00  0.00     0.135 A 
ATOM     65  C   UNL     1     -11.329  -4.103 -10.276  1.00  0.00     0.135 A 
ATOM     66  F   UNL     1      -9.906  -7.320  -9.339  1.00  0.00    -0.206 F 
ATOM     67  C   UNL     1     -10.354  -6.427 -11.462  1.00  0.00     0.059 A 
ATOM     68  C   UNL     1     -11.336  -4.215 -11.663  1.00  0.00     0.059 A 
ATOM     69  F   UNL     1     -11.788  -2.964  -9.733  1.00  0.00    -0.206 F 
ATOM     70  C   UNL     1     -10.836  -5.378 -12.247  1.00  0.00     0.060 A 
BRANCH  70  71
ATOM     71  S   UNL     1     -10.805  -5.560 -14.042  1.00  0.00     0.124 S 
ATOM     72  O   UNL     1      -9.374  -5.483 -14.319  1.00  0.00    -0.237 OA
ATOM     73  O   UNL     1     -11.417  -6.872 -14.231  1.00  0.00    -0.237 OA
ATOM     74  O   UNL     1     -11.596  -4.428 -14.514  1.00  0.00    -0.744 OA
ENDBRANCH  70  71
ENDBRANCH  49  63
BRANCH  50  75
ATOM     75  C   UNL     1     -10.787  -4.031   0.498  1.00  0.00     0.058 A 
ATOM     76  C   UNL     1     -11.296  -5.011   1.363  1.00  0.00     0.135 A 
ATOM     77  C   UNL     1     -10.300  -2.846   1.072  1.00  0.00     0.135 A 
ATOM     78  F   UNL     1     -11.786  -6.157   0.865  1.00  0.00    -0.206 F 
ATOM     79  C   UNL     1     -11.340  -4.817   2.741  1.00  0.00     0.059 A 
ATOM     80  C   UNL     1     -10.306  -2.641   2.448  1.00  0.00     0.059 A 
ATOM     81  F   UNL     1      -9.797  -1.877   0.291  1.00  0.00    -0.206 F 
ATOM     82  C   UNL     1     -10.839  -3.629   3.274  1.00  0.00     0.060 A 
BRANCH  82  83
ATOM     83  S   UNL     1     -10.867  -3.405   5.066  1.00  0.00     0.124 S 
ATOM     84  O   UNL     1     -12.293  -3.229   5.319  1.00  0.00    -0.237 OA
ATOM     85  O   UNL     1     -10.284  -4.658   5.538  1.00  0.00    -0.237 OA
ATOM     86  O   UNL     1     -10.039  -2.221   5.270  1.00  0.00    -0.744 OA
ENDBRANCH  82  83
ENDBRANCH  50  75
BRANCH  62  87
ATOM     87  C   UNL     1     -15.855  -4.650  -4.271  1.00  0.00     0.058 A 
ATOM     88  C   UNL     1     -16.604  -3.503  -3.966  1.00  0.00     0.135 A 
ATOM     89  C   UNL     1     -16.558  -5.836  -4.544  1.00  0.00     0.135 A 
ATOM     90  F   UNL     1     -15.983  -2.344  -3.693  1.00  0.00    -0.206 F 
ATOM     91  C   UNL     1     -17.994  -3.535  -3.911  1.00  0.00     0.059 A 
ATOM     92  C   UNL     1     -17.949  -5.883  -4.527  1.00  0.00     0.059 A 
ATOM     93  F   UNL     1     -15.894  -6.960  -4.855  1.00  0.00    -0.206 F 
ATOM     94  C   UNL     1     -18.658  -4.730  -4.197  1.00  0.00     0.060 A 
BRANCH  94  95
ATOM     95  S   UNL     1     -20.462  -4.748  -4.155  1.00  0.00     0.124 S 
ATOM     96  O   UNL     1     -20.724  -4.655  -2.723  1.00  0.00    -0.237 OA
ATOM     97  O   UNL     1     -20.804  -3.567  -4.941  1.00  0.00    -0.237 OA
ATOM     98  O   UNL     1     -20.805  -6.026  -4.773  1.00  0.00    -0.744 OA
ENDBRANCH  94  95
ENDBRANCH  62  87
ENDBRANCH  36  37
ENDBRANCH  29  31
ENDBRANCH  28  29
ENDBRANCH  27  28
ENDBRANCH  26  27
ENDBRANCH  25  26
ENDBRANCH  24  25
ENDBRANCH   1  24
TORSDOF 27
