REMARK SMILES CC1(C)CSC[C@H]([NH2+][C@H](C(=O)OCCOCCOCCOCCOC(=O)c2ccc(-c3c4nc(c(-c5c(F)cc(S(=O)(=O)[O-])cc5F)c5ccc([nH]5)c(-c5c(F)cc(S(=O)(=O)[O-])cc5F)c5nc(c(-c6c(F)cc(S(=O)(=O)[O-])cc6F)c6ccc3[nH]6)C=C5)C=C4)cc2)c2ccccc2)C1
REMARK SMILES IDX 19 1 18 2 17 3 16 4 15 5 14 6 13 7 12 8 10 9 11 10 9 11 8 12
REMARK SMILES IDX 7 15 1 16 2 17 3 18 4 19 99 20 5 21 6 22 93 23 94 24 98 25
REMARK SMILES IDX 95 26 97 27 96 28 20 29 21 30 22 31 23 32 24 33 25 34 26 35
REMARK SMILES IDX 27 36 28 37 92 38 29 39 91 40 30 41 31 42 32 43 85 44 33 45
REMARK SMILES IDX 90 46 84 47 86 48 34 49 89 50 83 51 82 52 35 54 69 55 48 56
REMARK SMILES IDX 68 57 49 58 52 59 67 60 87 61 50 62 51 63 66 65 88 66 53 67
REMARK SMILES IDX 36 68 37 69 46 70 38 71 39 72 45 73 47 74 40 75 41 76 42 77
REMARK SMILES IDX 43 78 44 79 70 80 71 81 80 82 72 83 73 84 79 85 81 86 74 87
REMARK SMILES IDX 75 88 76 89 77 90 78 91 54 92 55 93 64 94 56 95 57 96 63 97
REMARK SMILES IDX 65 98 58 99 59 100 60 101 61 102 62 103
REMARK H PARENT 8 13 8 14 86 53 52 64
REMARK Flexibility Score: inf
ROOT
ATOM      1  C   UNL     1       1.549   1.833   0.106  1.00  0.00     0.188 C 
ENDROOT
BRANCH   1   2
ATOM      2  O   UNL     1       2.712   1.887  -0.706  1.00  0.00    -0.377 OA
BRANCH   2   3
ATOM      3  C   UNL     1       3.497   3.058  -0.798  1.00  0.00     0.188 C 
BRANCH   3   4
ATOM      4  C   UNL     1       3.231   3.894  -2.046  1.00  0.00     0.188 C 
BRANCH   4   5
ATOM      5  O   UNL     1       1.883   4.244  -2.284  1.00  0.00    -0.376 OA
BRANCH   5   6
ATOM      6  C   UNL     1       1.022   3.244  -2.824  1.00  0.00     0.202 C 
BRANCH   6   7
ATOM      7  C   UNL     1       1.551   2.096  -3.717  1.00  0.00     0.261 C 
BRANCH   7   8
ATOM      8  O   UNL     1       2.537   1.171  -3.155  1.00  0.00    -0.459 OA
BRANCH   8   9
ATOM      9  C   UNL     1       3.627   0.965  -3.946  1.00  0.00     0.369 C 
ATOM     10  O   UNL     1       3.726   1.563  -5.026  1.00  0.00    -0.245 OA
BRANCH   9  11
ATOM     11  C   UNL     1       4.695  -0.128  -3.558  1.00  0.00     0.325 C 
BRANCH  11  12
ATOM     12  N   UNL     1       5.872   0.150  -4.460  1.00  0.00    -0.328 N 
ATOM     13  H   UNL     1       6.378  -0.727  -4.576  1.00  0.00     0.347 HD
ATOM     14  H   UNL     1       5.455   0.539  -5.306  1.00  0.00     0.347 HD
BRANCH  12  15
ATOM     15  C   UNL     1       6.857   1.174  -4.030  1.00  0.00     0.193 C 
ATOM     16  C   UNL     1       7.834   3.425  -1.904  1.00  0.00     0.012 C 
ATOM     17  C   UNL     1       7.295   3.680  -3.333  1.00  0.00    -0.021 C 
ATOM     18  C   UNL     1       6.573   5.049  -3.319  1.00  0.00     0.012 C 
ATOM     19  C   UNL     1       8.432   3.792  -4.366  1.00  0.00     0.076 C 
ATOM     20  C   UNL     1       6.277   2.579  -3.745  1.00  0.00     0.073 C 
ATOM     21  S   UNL     1       9.352   2.254  -4.622  1.00  0.00    -0.155 SA
ATOM     22  C   UNL     1       7.948   1.215  -5.112  1.00  0.00     0.134 C 
ENDBRANCH  12  15
ENDBRANCH  11  12
BRANCH  11  23
ATOM     23  C   UNL     1       5.185  -0.531  -2.148  1.00  0.00     0.021 A 
ATOM     24  C   UNL     1       4.442  -0.450  -0.977  1.00  0.00     0.010 A 
ATOM     25  C   UNL     1       6.458  -1.150  -1.998  1.00  0.00     0.010 A 
ATOM     26  C   UNL     1       5.022  -0.719   0.282  1.00  0.00     0.001 A 
ATOM     27  C   UNL     1       7.054  -1.397  -0.758  1.00  0.00     0.001 A 
ATOM     28  C   UNL     1       6.345  -1.134   0.396  1.00  0.00     0.000 A 
ENDBRANCH  11  23
ENDBRANCH   9  11
ENDBRANCH   8   9
ENDBRANCH   7   8
ENDBRANCH   6   7
ENDBRANCH   5   6
ENDBRANCH   4   5
ENDBRANCH   3   4
ENDBRANCH   2   3
ENDBRANCH   1   2
BRANCH   1  29
ATOM     29  C   UNL     1       1.375   2.943   1.136  1.00  0.00     0.188 C 
BRANCH  29  30
ATOM     30  O   UNL     1       2.392   3.070   2.135  1.00  0.00    -0.376 OA
BRANCH  30  31
ATOM     31  C   UNL     1       3.181   1.926   2.452  1.00  0.00     0.202 C 
BRANCH  31  32
ATOM     32  C   UNL     1       2.569   0.976   3.481  1.00  0.00     0.261 C 
BRANCH  32  33
ATOM     33  O   UNL     1       1.433   0.269   2.960  1.00  0.00    -0.460 OA
BRANCH  33  34
ATOM     34  C   UNL     1       0.230   0.817   3.261  1.00  0.00     0.338 C 
ATOM     35  O   UNL     1       0.017   1.800   3.942  1.00  0.00    -0.246 OA
BRANCH  34  36
ATOM     36  C   UNL     1      -0.820   0.121   2.494  1.00  0.00     0.060 A 
ATOM     37  C   UNL     1      -1.749   0.894   1.783  1.00  0.00     0.016 A 
ATOM     38  C   UNL     1      -0.931  -1.270   2.536  1.00  0.00     0.016 A 
ATOM     39  C   UNL     1      -2.825   0.279   1.150  1.00  0.00     0.010 A 
ATOM     40  C   UNL     1      -2.018  -1.883   1.915  1.00  0.00     0.010 A 
ATOM     41  C   UNL     1      -2.988  -1.106   1.258  1.00  0.00    -0.014 A 
BRANCH  41  42
ATOM     42  C   UNL     1      -4.267  -1.730   0.856  1.00  0.00     0.031 A 
ATOM     43  C   UNL     1      -5.271  -2.042   1.929  1.00  0.00     0.074 A 
ATOM     44  C   UNL     1      -4.516  -2.013  -0.433  1.00  0.00     0.049 A 
ATOM     45  N   UNL     1      -6.405  -2.685   1.842  1.00  0.00    -0.248 NA
ATOM     46  C   UNL     1      -4.947  -1.573   3.288  1.00  0.00     0.031 C 
ATOM     47  C   UNL     1      -3.627  -1.706  -1.552  1.00  0.00     0.029 A 
ATOM     48  N   UNL     1      -5.586  -2.643  -1.013  1.00  0.00    -0.354 N 
ATOM     49  C   UNL     1      -6.921  -2.713   3.132  1.00  0.00     0.074 A 
ATOM     50  C   UNL     1      -5.965  -2.047   3.989  1.00  0.00     0.031 C 
ATOM     51  C   UNL     1      -4.179  -2.171  -2.686  1.00  0.00     0.029 A 
ATOM     52  C   UNL     1      -5.436  -2.844  -2.364  1.00  0.00     0.049 A 
ATOM     53  H   UNL     1      -6.384  -2.925  -0.511  1.00  0.00     0.167 HD
ATOM     54  C   UNL     1      -8.090  -3.245   3.558  1.00  0.00     0.037 A 
ATOM     55  C   UNL     1      -6.211  -3.526  -3.229  1.00  0.00     0.037 A 
ATOM     56  C   UNL     1      -9.025  -3.906   2.687  1.00  0.00     0.049 A 
ATOM     57  C   UNL     1      -7.472  -4.175  -2.720  1.00  0.00     0.074 A 
ATOM     58  C   UNL     1     -10.249  -4.466   3.004  1.00  0.00     0.029 A 
ATOM     59  N   UNL     1      -8.834  -4.105   1.326  1.00  0.00    -0.354 N 
ATOM     60  N   UNL     1      -7.963  -4.181  -1.502  1.00  0.00    -0.248 NA
ATOM     61  C   UNL     1      -8.285  -4.910  -3.698  1.00  0.00     0.031 C 
ATOM     62  C   UNL     1     -10.769  -5.057   1.848  1.00  0.00     0.029 A 
ATOM     63  C   UNL     1      -9.902  -4.807   0.795  1.00  0.00     0.049 A 
ATOM     64  H   UNL     1      -8.053  -3.792   0.815  1.00  0.00     0.167 HD
ATOM     65  C   UNL     1      -9.157  -4.892  -1.575  1.00  0.00     0.074 A 
ATOM     66  C   UNL     1      -9.317  -5.292  -2.958  1.00  0.00     0.031 C 
ATOM     67  C   UNL     1     -10.042  -5.186  -0.590  1.00  0.00     0.037 A 
BRANCH  54  68
ATOM     68  C   UNL     1      -8.403  -3.165   5.028  1.00  0.00     0.058 A 
ATOM     69  C   UNL     1      -8.708  -1.949   5.660  1.00  0.00     0.135 A 
ATOM     70  C   UNL     1      -8.427  -4.331   5.811  1.00  0.00     0.135 A 
ATOM     71  F   UNL     1      -8.679  -0.800   4.966  1.00  0.00    -0.206 F 
ATOM     72  C   UNL     1      -9.000  -1.888   7.019  1.00  0.00     0.059 A 
ATOM     73  C   UNL     1      -8.747  -4.298   7.165  1.00  0.00     0.059 A 
ATOM     74  F   UNL     1      -8.137  -5.521   5.262  1.00  0.00    -0.206 F 
ATOM     75  C   UNL     1      -9.020  -3.069   7.763  1.00  0.00     0.060 A 
BRANCH  75  76
ATOM     76  S   UNL     1      -9.413  -2.972   9.522  1.00  0.00     0.124 S 
ATOM     77  O   UNL     1      -8.215  -2.328  10.053  1.00  0.00    -0.237 OA
ATOM     78  O   UNL     1     -10.624  -2.159   9.526  1.00  0.00    -0.237 OA
ATOM     79  O   UNL     1      -9.596  -4.368   9.908  1.00  0.00    -0.744 OA
ENDBRANCH  75  76
ENDBRANCH  54  68
BRANCH  55  80
ATOM     80  C   UNL     1      -5.806  -3.644  -4.656  1.00  0.00     0.058 A 
ATOM     81  C   UNL     1      -6.540  -3.015  -5.672  1.00  0.00     0.135 A 
ATOM     82  C   UNL     1      -4.670  -4.379  -5.031  1.00  0.00     0.135 A 
ATOM     83  F   UNL     1      -7.639  -2.309  -5.366  1.00  0.00    -0.206 F 
ATOM     84  C   UNL     1      -6.171  -3.120  -7.009  1.00  0.00     0.059 A 
ATOM     85  C   UNL     1      -4.264  -4.474  -6.359  1.00  0.00     0.059 A 
ATOM     86  F   UNL     1      -3.925  -4.991  -4.098  1.00  0.00    -0.206 F 
ATOM     87  C   UNL     1      -5.028  -3.848  -7.342  1.00  0.00     0.060 A 
BRANCH  87  88
ATOM     88  S   UNL     1      -4.531  -3.932  -9.076  1.00  0.00     0.124 S 
ATOM     89  O   UNL     1      -5.568  -4.790  -9.637  1.00  0.00    -0.237 OA
ATOM     90  O   UNL     1      -4.577  -2.528  -9.473  1.00  0.00    -0.237 OA
ATOM     91  O   UNL     1      -3.194  -4.515  -9.014  1.00  0.00    -0.744 OA
ENDBRANCH  87  88
ENDBRANCH  55  80
BRANCH  67  92
ATOM     92  C   UNL     1     -11.285  -5.944  -0.974  1.00  0.00     0.058 A 
ATOM     93  C   UNL     1     -11.247  -7.304  -1.317  1.00  0.00     0.135 A 
ATOM     94  C   UNL     1     -12.539  -5.313  -0.928  1.00  0.00     0.135 A 
ATOM     95  F   UNL     1     -10.073  -7.952  -1.383  1.00  0.00    -0.206 F 
ATOM     96  C   UNL     1     -12.408  -8.008  -1.618  1.00  0.00     0.059 A 
ATOM     97  C   UNL     1     -13.716  -6.006  -1.193  1.00  0.00     0.059 A 
ATOM     98  F   UNL     1     -12.633  -4.016  -0.595  1.00  0.00    -0.206 F 
ATOM     99  C   UNL     1     -13.639  -7.352  -1.547  1.00  0.00     0.060 A 
BRANCH  99 100
ATOM    100  S   UNL     1     -15.140  -8.291  -1.894  1.00  0.00     0.124 S 
ATOM    101  O   UNL     1     -15.039  -8.486  -3.336  1.00  0.00    -0.237 OA
ATOM    102  O   UNL     1     -14.953  -9.487  -1.077  1.00  0.00    -0.237 OA
ATOM    103  O   UNL     1     -16.209  -7.400  -1.454  1.00  0.00    -0.744 OA
ENDBRANCH  99 100
ENDBRANCH  67  92
ENDBRANCH  41  42
ENDBRANCH  34  36
ENDBRANCH  33  34
ENDBRANCH  32  33
ENDBRANCH  31  32
ENDBRANCH  30  31
ENDBRANCH  29  30
ENDBRANCH   1  29
TORSDOF 26
