REMARK SMILES C[C@H]1OCC[C@H]1c1nnnn1CCC(=O)OCCOCCOCCOCCOC(=O)c1ccc(-c2c3nc(c(-c4c(F)cc(S(=O)(=O)[O-])cc4F)c4ccc([nH]4)c(-c4c(F)cc(S(=O)(=O)[O-])cc4F)c4nc(c(-c5c(F)cc(S(=O)(=O)[O-])cc5F)c5ccc2[nH]5)C=C4)C=C3)cc1
REMARK SMILES IDX 22 1 21 2 20 3 19 4 18 5 17 6 16 7 14 8 15 9 13 10 12 11
REMARK SMILES IDX 11 12 7 13 8 14 9 15 10 16 6 17 1 18 2 19 3 20 4 21 5 22
REMARK SMILES IDX 23 23 24 24 25 25 26 26 27 27 28 28 29 29 30 30 31 31 32 32
REMARK SMILES IDX 96 33 33 34 95 35 34 36 35 37 36 38 89 39 37 40 94 41 88 42
REMARK SMILES IDX 90 43 38 44 93 45 87 46 86 47 39 49 73 50 52 51 72 52 53 53
REMARK SMILES IDX 56 54 71 55 91 56 54 57 55 58 70 60 92 61 57 62 40 63 41 64
REMARK SMILES IDX 50 65 42 66 43 67 49 68 51 69 44 70 45 71 46 72 47 73 48 74
REMARK SMILES IDX 74 75 75 76 84 77 76 78 77 79 83 80 85 81 78 82 79 83 80 84
REMARK SMILES IDX 81 85 82 86 58 87 59 88 68 89 60 90 61 91 67 92 69 93 62 94
REMARK SMILES IDX 63 95 64 96 65 97 66 98
REMARK H PARENT 90 48 56 59
REMARK Flexibility Score: inf
ROOT
ATOM      1  O   UNL     1       3.586  -3.305  -3.903  1.00  0.00    -0.377 OA
ENDROOT
BRANCH   1   2
ATOM      2  C   UNL     1       4.516  -3.128  -2.854  1.00  0.00     0.188 C 
BRANCH   2   3
ATOM      3  C   UNL     1       5.250  -4.413  -2.427  1.00  0.00     0.188 C 
BRANCH   3   4
ATOM      4  O   UNL     1       5.373  -5.505  -3.334  1.00  0.00    -0.376 OA
BRANCH   4   5
ATOM      5  C   UNL     1       4.204  -5.992  -3.985  1.00  0.00     0.202 C 
BRANCH   5   6
ATOM      6  C   UNL     1       3.017  -6.431  -3.122  1.00  0.00     0.261 C 
BRANCH   6   7
ATOM      7  O   UNL     1       2.599  -5.468  -2.135  1.00  0.00    -0.463 OA
BRANCH   7   8
ATOM      8  C   UNL     1       2.365  -5.952  -0.899  1.00  0.00     0.307 C 
ATOM      9  O   UNL     1       2.598  -7.105  -0.544  1.00  0.00    -0.252 OA
BRANCH   8  10
ATOM     10  C   UNL     1       1.768  -4.966   0.079  1.00  0.00     0.146 C 
BRANCH  10  11
ATOM     11  C   UNL     1       1.701  -3.487  -0.264  1.00  0.00     0.160 C 
BRANCH  11  12
ATOM     12  N   UNL     1       0.653  -3.047  -1.150  1.00  0.00    -0.229 N 
ATOM     13  C   UNL     1      -0.180  -1.955  -1.046  1.00  0.00     0.157 A 
ATOM     14  N   UNL     1      -0.837  -1.852  -2.185  1.00  0.00    -0.113 NA
ATOM     15  N   UNL     1      -0.430  -2.898  -2.968  1.00  0.00    -0.024 NA
ATOM     16  N   UNL     1       0.457  -3.645  -2.332  1.00  0.00    -0.045 NA
BRANCH  13  17
ATOM     17  C   UNL     1      -0.376  -1.118   0.180  1.00  0.00     0.090 C 
ATOM     18  C   UNL     1       1.852   0.130  -0.445  1.00  0.00     0.039 C 
ATOM     19  C   UNL     1       0.559   0.091   0.352  1.00  0.00     0.126 C 
ATOM     20  O   UNL     1      -0.189   1.283   0.047  1.00  0.00    -0.378 OA
ATOM     21  C   UNL     1      -1.483   0.898  -0.422  1.00  0.00     0.161 C 
ATOM     22  C   UNL     1      -1.750  -0.457   0.194  1.00  0.00     0.043 C 
ENDBRANCH  13  17
ENDBRANCH  11  12
ENDBRANCH  10  11
ENDBRANCH   8  10
ENDBRANCH   7   8
ENDBRANCH   6   7
ENDBRANCH   5   6
ENDBRANCH   4   5
ENDBRANCH   3   4
ENDBRANCH   2   3
ENDBRANCH   1   2
BRANCH   1  23
ATOM     23  C   UNL     1       3.956  -2.689  -5.137  1.00  0.00     0.188 C 
BRANCH  23  24
ATOM     24  C   UNL     1       5.357  -3.037  -5.694  1.00  0.00     0.188 C 
BRANCH  24  25
ATOM     25  O   UNL     1       6.431  -2.836  -4.769  1.00  0.00    -0.376 OA
BRANCH  25  26
ATOM     26  C   UNL     1       7.261  -1.697  -4.973  1.00  0.00     0.202 C 
BRANCH  26  27
ATOM     27  C   UNL     1       6.685  -0.389  -4.421  1.00  0.00     0.261 C 
BRANCH  27  28
ATOM     28  O   UNL     1       5.432  -0.002  -4.980  1.00  0.00    -0.460 OA
BRANCH  28  29
ATOM     29  C   UNL     1       5.413   0.162  -6.319  1.00  0.00     0.338 C 
ATOM     30  O   UNL     1       6.319  -0.079  -7.096  1.00  0.00    -0.246 OA
BRANCH  29  31
ATOM     31  C   UNL     1       4.134   0.758  -6.726  1.00  0.00     0.060 A 
ATOM     32  C   UNL     1       3.970   0.964  -8.096  1.00  0.00     0.016 A 
ATOM     33  C   UNL     1       3.255   1.312  -5.783  1.00  0.00     0.016 A 
ATOM     34  C   UNL     1       3.073   1.920  -8.508  1.00  0.00     0.010 A 
ATOM     35  C   UNL     1       2.350   2.267  -6.199  1.00  0.00     0.010 A 
ATOM     36  C   UNL     1       2.352   2.631  -7.543  1.00  0.00    -0.014 A 
BRANCH  36  37
ATOM     37  C   UNL     1       1.693   3.838  -8.001  1.00  0.00     0.031 A 
ATOM     38  C   UNL     1       0.458   3.625  -8.769  1.00  0.00     0.074 A 
ATOM     39  C   UNL     1       2.202   5.060  -7.751  1.00  0.00     0.049 A 
ATOM     40  N   UNL     1       0.257   3.857 -10.022  1.00  0.00    -0.248 NA
ATOM     41  C   UNL     1      -0.663   2.980  -8.073  1.00  0.00     0.031 C 
ATOM     42  C   UNL     1       3.240   5.391  -6.768  1.00  0.00     0.029 A 
ATOM     43  N   UNL     1       1.837   6.277  -8.251  1.00  0.00    -0.354 N 
ATOM     44  C   UNL     1      -1.095   3.614 -10.218  1.00  0.00     0.074 A 
ATOM     45  C   UNL     1      -1.571   2.921  -9.047  1.00  0.00     0.031 C 
ATOM     46  C   UNL     1       3.273   6.729  -6.596  1.00  0.00     0.029 A 
ATOM     47  C   UNL     1       2.368   7.349  -7.551  1.00  0.00     0.049 A 
ATOM     48  H   UNL     1       1.252   6.383  -9.035  1.00  0.00     0.167 HD
ATOM     49  C   UNL     1      -1.788   4.256 -11.193  1.00  0.00     0.037 A 
ATOM     50  C   UNL     1       2.056   8.657  -7.695  1.00  0.00     0.037 A 
ATOM     51  C   UNL     1      -0.933   4.873 -12.170  1.00  0.00     0.049 A 
ATOM     52  C   UNL     1       1.495   8.871  -9.050  1.00  0.00     0.074 A 
ATOM     53  C   UNL     1      -0.254   4.477 -13.299  1.00  0.00     0.029 A 
ATOM     54  N   UNL     1      -0.460   6.109 -11.821  1.00  0.00    -0.354 N 
ATOM     55  N   UNL     1       2.178   8.725 -10.153  1.00  0.00    -0.248 NA
ATOM     56  C   UNL     1       0.049   8.982  -9.226  1.00  0.00     0.031 C 
ATOM     57  C   UNL     1       0.738   5.471 -13.550  1.00  0.00     0.029 A 
ATOM     58  C   UNL     1       0.646   6.446 -12.561  1.00  0.00     0.049 A 
ATOM     59  H   UNL     1      -0.861   6.683 -11.129  1.00  0.00     0.167 HD
ATOM     60  C   UNL     1       1.244   8.331 -11.090  1.00  0.00     0.074 A 
ATOM     61  C   UNL     1      -0.051   8.668 -10.520  1.00  0.00     0.031 C 
ATOM     62  C   UNL     1       1.564   7.461 -12.087  1.00  0.00     0.037 A 
BRANCH  49  63
ATOM     63  C   UNL     1      -3.214   4.702 -11.017  1.00  0.00     0.058 A 
ATOM     64  C   UNL     1      -3.980   5.054 -12.143  1.00  0.00     0.135 A 
ATOM     65  C   UNL     1      -3.749   5.073  -9.762  1.00  0.00     0.135 A 
ATOM     66  F   UNL     1      -3.542   4.770 -13.380  1.00  0.00    -0.206 F 
ATOM     67  C   UNL     1      -5.176   5.762 -12.031  1.00  0.00     0.059 A 
ATOM     68  C   UNL     1      -4.965   5.726  -9.624  1.00  0.00     0.059 A 
ATOM     69  F   UNL     1      -3.061   4.908  -8.623  1.00  0.00    -0.206 F 
ATOM     70  C   UNL     1      -5.652   6.105 -10.767  1.00  0.00     0.060 A 
BRANCH  70  71
ATOM     71  S   UNL     1      -7.139   7.109 -10.614  1.00  0.00     0.124 S 
ATOM     72  O   UNL     1      -6.630   8.432 -10.954  1.00  0.00    -0.237 OA
ATOM     73  O   UNL     1      -8.030   6.494 -11.594  1.00  0.00    -0.237 OA
ATOM     74  O   UNL     1      -7.528   6.918  -9.220  1.00  0.00    -0.744 OA
ENDBRANCH  70  71
ENDBRANCH  49  63
BRANCH  50  75
ATOM     75  C   UNL     1       2.010   9.688  -6.631  1.00  0.00     0.058 A 
ATOM     76  C   UNL     1       2.008  11.057  -6.939  1.00  0.00     0.135 A 
ATOM     77  C   UNL     1       1.709   9.345  -5.296  1.00  0.00     0.135 A 
ATOM     78  F   UNL     1       2.256  11.468  -8.192  1.00  0.00    -0.206 F 
ATOM     79  C   UNL     1       1.688  12.030  -5.989  1.00  0.00     0.059 A 
ATOM     80  C   UNL     1       1.405  10.297  -4.328  1.00  0.00     0.059 A 
ATOM     81  F   UNL     1       1.615   8.062  -4.913  1.00  0.00    -0.206 F 
ATOM     82  C   UNL     1       1.370  11.637  -4.689  1.00  0.00     0.060 A 
BRANCH  82  83
ATOM     83  S   UNL     1       0.793  12.874  -3.507  1.00  0.00     0.124 S 
ATOM     84  O   UNL     1       2.005  13.650  -3.268  1.00  0.00    -0.237 OA
ATOM     85  O   UNL     1      -0.259  13.550  -4.260  1.00  0.00    -0.237 OA
ATOM     86  O   UNL     1       0.330  12.074  -2.376  1.00  0.00    -0.744 OA
ENDBRANCH  82  83
ENDBRANCH  50  75
BRANCH  62  87
ATOM     87  C   UNL     1       2.983   7.440 -12.566  1.00  0.00     0.058 A 
ATOM     88  C   UNL     1       4.069   6.970 -11.811  1.00  0.00     0.135 A 
ATOM     89  C   UNL     1       3.243   7.867 -13.878  1.00  0.00     0.135 A 
ATOM     90  F   UNL     1       3.886   6.476 -10.578  1.00  0.00    -0.206 F 
ATOM     91  C   UNL     1       5.366   6.960 -12.329  1.00  0.00     0.059 A 
ATOM     92  C   UNL     1       4.523   7.840 -14.423  1.00  0.00     0.059 A 
ATOM     93  F   UNL     1       2.236   8.286 -14.662  1.00  0.00    -0.206 F 
ATOM     94  C   UNL     1       5.584   7.399 -13.636  1.00  0.00     0.060 A 
BRANCH  94  95
ATOM     95  S   UNL     1       7.249   7.319 -14.332  1.00  0.00     0.124 S 
ATOM     96  O   UNL     1       7.902   8.459 -13.697  1.00  0.00    -0.237 OA
ATOM     97  O   UNL     1       7.713   6.003 -13.902  1.00  0.00    -0.237 OA
ATOM     98  O   UNL     1       7.024   7.450 -15.770  1.00  0.00    -0.744 OA
ENDBRANCH  94  95
ENDBRANCH  62  87
ENDBRANCH  36  37
ENDBRANCH  29  31
ENDBRANCH  28  29
ENDBRANCH  27  28
ENDBRANCH  26  27
ENDBRANCH  25  26
ENDBRANCH  24  25
ENDBRANCH  23  24
ENDBRANCH   1  23
TORSDOF 26
