REMARK SMILES CC[NH2+][C@]1(C(=O)OCCOCCOCCOCCOC(=O)c2ccc(-c3c4nc(c(-c5c(F)cc(S(=O)(=O)[O-])cc5F)c5ccc([nH]5)c(-c5c(F)cc(S(=O)(=O)[O-])cc5F)c5nc(c(-c6c(F)cc(S(=O)(=O)[O-])cc6F)c6ccc3[nH]6)C=C5)C=C4)cc2)CCC[C@H]1CC[N@H+]1CCC[C@@H](CC)C1
REMARK SMILES IDX 12 1 11 2 10 3 9 4 8 5 7 6 5 7 6 8 4 9 88 10 91 11 89 12
REMARK SMILES IDX 90 13 3 14 2 17 1 18 92 19 93 20 94 21 95 22 101 23 96 25
REMARK SMILES IDX 98 26 97 27 99 28 100 29 13 30 14 31 15 32 16 33 17 34 18 35
REMARK SMILES IDX 19 36 20 37 21 38 22 39 23 40 87 41 24 42 86 43 25 44 26 45
REMARK SMILES IDX 27 46 80 47 28 48 85 49 79 50 81 51 29 52 84 53 78 54 77 55
REMARK SMILES IDX 30 57 64 58 43 59 63 60 44 61 47 62 62 63 82 64 45 65 46 66
REMARK SMILES IDX 61 68 83 69 48 70 31 71 32 72 41 73 33 74 34 75 40 76 42 77
REMARK SMILES IDX 35 78 36 79 37 80 38 81 39 82 65 83 66 84 75 85 67 86 68 87
REMARK SMILES IDX 74 88 76 89 69 90 70 91 71 92 72 93 73 94 49 95 50 96 59 97
REMARK SMILES IDX 51 98 52 99 58 100 60 101 53 102 54 103 55 104 56 105 57 106
REMARK H PARENT 3 15 3 16 94 24 81 56 47 67
REMARK Flexibility Score: inf
ROOT
ATOM      1  C   UNL     1       3.407   1.349   1.701  1.00  0.00     0.188 C 
ENDROOT
BRANCH   1   2
ATOM      2  C   UNL     1       2.490   0.392   0.909  1.00  0.00     0.188 C 
BRANCH   2   3
ATOM      3  O   UNL     1       2.824   0.281  -0.473  1.00  0.00    -0.376 OA
BRANCH   3   4
ATOM      4  C   UNL     1       2.081   1.095  -1.371  1.00  0.00     0.202 C 
BRANCH   4   5
ATOM      5  C   UNL     1       2.164   2.615  -1.125  1.00  0.00     0.261 C 
BRANCH   5   6
ATOM      6  O   UNL     1       1.638   3.079   0.141  1.00  0.00    -0.459 OA
BRANCH   6   7
ATOM      7  C   UNL     1       0.351   2.741   0.413  1.00  0.00     0.368 C 
ATOM      8  O   UNL     1      -0.322   2.160  -0.420  1.00  0.00    -0.245 OA
BRANCH   7   9
ATOM      9  C   UNL     1      -0.135   3.198   1.813  1.00  0.00     0.197 C 
ATOM     10  C   UNL     1       0.193   4.715   1.854  1.00  0.00     0.081 C 
ATOM     11  C   UNL     1      -1.684   3.189   2.036  1.00  0.00     0.068 C 
ATOM     12  C   UNL     1      -0.695   5.297   2.930  1.00  0.00     0.008 C 
ATOM     13  C   UNL     1      -1.964   4.458   2.889  1.00  0.00     0.011 C 
BRANCH   9  14
ATOM     14  N   UNL     1       0.634   2.566   2.949  1.00  0.00    -0.332 N 
ATOM     15  H   UNL     1       1.589   2.412   2.624  1.00  0.00     0.347 HD
ATOM     16  H   UNL     1       0.539   3.220   3.725  1.00  0.00     0.347 HD
BRANCH  14  17
ATOM     17  C   UNL     1       0.134   1.288   3.470  1.00  0.00     0.257 C 
ATOM     18  C   UNL     1       0.967   0.807   4.659  1.00  0.00     0.071 C 
ENDBRANCH  14  17
ENDBRANCH   9  14
BRANCH  11  19
ATOM     19  C   UNL     1      -2.633   3.136   0.809  1.00  0.00     0.072 C 
BRANCH  19  20
ATOM     20  C   UNL     1      -2.904   1.761   0.126  1.00  0.00     0.262 C 
BRANCH  20  21
ATOM     21  N   UNL     1      -2.805   0.579   1.011  1.00  0.00    -0.335 N 
ATOM     22  C   UNL     1      -4.156   0.088   1.312  1.00  0.00     0.262 C 
ATOM     23  C   UNL     1      -1.974  -0.495   0.409  1.00  0.00     0.265 C 
ATOM     24  H   UNL     1      -2.343   0.860   1.876  1.00  0.00     0.348 HD
ATOM     25  C   UNL     1      -4.130  -1.122   2.237  1.00  0.00     0.062 C 
ATOM     26  C   UNL     1      -1.887  -1.748   1.316  1.00  0.00     0.044 C 
ATOM     27  C   UNL     1      -3.300  -2.248   1.638  1.00  0.00     0.015 C 
BRANCH  26  28
ATOM     28  C   UNL     1      -1.069  -2.899   0.690  1.00  0.00     0.006 C 
ATOM     29  C   UNL     1       0.431  -2.752   0.894  1.00  0.00     0.004 C 
ENDBRANCH  26  28
ENDBRANCH  20  21
ENDBRANCH  19  20
ENDBRANCH  11  19
ENDBRANCH   7   9
ENDBRANCH   6   7
ENDBRANCH   5   6
ENDBRANCH   4   5
ENDBRANCH   3   4
ENDBRANCH   2   3
ENDBRANCH   1   2
BRANCH   1  30
ATOM     30  O   UNL     1       4.818   1.169   1.687  1.00  0.00    -0.377 OA
BRANCH  30  31
ATOM     31  C   UNL     1       5.358   0.493   0.569  1.00  0.00     0.188 C 
BRANCH  31  32
ATOM     32  C   UNL     1       5.318  -1.037   0.729  1.00  0.00     0.188 C 
BRANCH  32  33
ATOM     33  O   UNL     1       4.478  -1.486   1.794  1.00  0.00    -0.376 OA
BRANCH  33  34
ATOM     34  C   UNL     1       5.106  -1.860   3.014  1.00  0.00     0.202 C 
BRANCH  34  35
ATOM     35  C   UNL     1       5.718  -0.740   3.873  1.00  0.00     0.261 C 
BRANCH  35  36
ATOM     36  O   UNL     1       6.769   0.023   3.264  1.00  0.00    -0.460 OA
BRANCH  36  37
ATOM     37  C   UNL     1       7.846  -0.639   2.796  1.00  0.00     0.338 C 
ATOM     38  O   UNL     1       8.107  -1.819   2.952  1.00  0.00    -0.246 OA
BRANCH  37  39
ATOM     39  C   UNL     1       8.530   0.263   1.842  1.00  0.00     0.060 A 
ATOM     40  C   UNL     1       8.843  -0.243   0.572  1.00  0.00     0.016 A 
ATOM     41  C   UNL     1       8.759   1.611   2.143  1.00  0.00     0.016 A 
ATOM     42  C   UNL     1       9.401   0.595  -0.390  1.00  0.00     0.010 A 
ATOM     43  C   UNL     1       9.359   2.441   1.192  1.00  0.00     0.010 A 
ATOM     44  C   UNL     1       9.712   1.923  -0.064  1.00  0.00    -0.014 A 
BRANCH  44  45
ATOM     45  C   UNL     1      10.679   2.633  -0.930  1.00  0.00     0.031 A 
ATOM     46  C   UNL     1      12.137   2.353  -0.680  1.00  0.00     0.074 A 
ATOM     47  C   UNL     1      10.292   3.424  -1.945  1.00  0.00     0.049 A 
ATOM     48  N   UNL     1      13.184   2.715  -1.370  1.00  0.00    -0.248 NA
ATOM     49  C   UNL     1      12.449   1.533   0.505  1.00  0.00     0.031 C 
ATOM     50  C   UNL     1       8.910   3.752  -2.291  1.00  0.00     0.029 A 
ATOM     51  N   UNL     1      11.041   4.088  -2.884  1.00  0.00    -0.354 N 
ATOM     52  C   UNL     1      14.272   2.140  -0.723  1.00  0.00     0.074 A 
ATOM     53  C   UNL     1      13.767   1.442   0.436  1.00  0.00     0.031 C 
ATOM     54  C   UNL     1       8.911   4.559  -3.368  1.00  0.00     0.029 A 
ATOM     55  C   UNL     1      10.292   4.805  -3.785  1.00  0.00     0.049 A 
ATOM     56  H   UNL     1      12.025   4.053  -2.910  1.00  0.00     0.167 HD
ATOM     57  C   UNL     1      15.578   2.180  -1.070  1.00  0.00     0.037 A 
ATOM     58  C   UNL     1      10.685   5.566  -4.827  1.00  0.00     0.037 A 
ATOM     59  C   UNL     1      16.080   2.913  -2.197  1.00  0.00     0.049 A 
ATOM     60  C   UNL     1      12.155   5.652  -5.157  1.00  0.00     0.074 A 
ATOM     61  C   UNL     1      17.387   3.041  -2.631  1.00  0.00     0.029 A 
ATOM     62  N   UNL     1      15.293   3.662  -3.061  1.00  0.00    -0.354 N 
ATOM     63  N   UNL     1      13.171   5.069  -4.564  1.00  0.00    -0.248 NA
ATOM     64  C   UNL     1      12.531   6.488  -6.305  1.00  0.00     0.031 C 
ATOM     65  C   UNL     1      17.395   3.902  -3.733  1.00  0.00     0.029 A 
ATOM     66  C   UNL     1      16.088   4.271  -4.015  1.00  0.00     0.049 A 
ATOM     67  H   UNL     1      14.314   3.747  -3.003  1.00  0.00     0.167 HD
ATOM     68  C   UNL     1      14.302   5.444  -5.284  1.00  0.00     0.074 A 
ATOM     69  C   UNL     1      13.842   6.296  -6.362  1.00  0.00     0.031 C 
ATOM     70  C   UNL     1      15.602   5.113  -5.079  1.00  0.00     0.037 A 
BRANCH  57  71
ATOM     71  C   UNL     1      16.539   1.431  -0.194  1.00  0.00     0.058 A 
ATOM     72  C   UNL     1      16.597   0.028  -0.200  1.00  0.00     0.135 A 
ATOM     73  C   UNL     1      17.401   2.122   0.671  1.00  0.00     0.135 A 
ATOM     74  F   UNL     1      15.771  -0.681  -0.986  1.00  0.00    -0.206 F 
ATOM     75  C   UNL     1      17.464  -0.666   0.638  1.00  0.00     0.059 A 
ATOM     76  C   UNL     1      18.291   1.448   1.501  1.00  0.00     0.059 A 
ATOM     77  F   UNL     1      17.371   3.462   0.726  1.00  0.00    -0.206 F 
ATOM     78  C   UNL     1      18.306   0.054   1.487  1.00  0.00     0.060 A 
BRANCH  78  79
ATOM     79  S   UNL     1      19.427  -0.858   2.568  1.00  0.00     0.124 S 
ATOM     80  O   UNL     1      18.507  -1.365   3.581  1.00  0.00    -0.237 OA
ATOM     81  O   UNL     1      19.990  -1.857   1.665  1.00  0.00    -0.237 OA
ATOM     82  O   UNL     1      20.363   0.165   3.027  1.00  0.00    -0.744 OA
ENDBRANCH  78  79
ENDBRANCH  57  71
BRANCH  58  83
ATOM     83  C   UNL     1       9.678   6.300  -5.642  1.00  0.00     0.058 A 
ATOM     84  C   UNL     1       9.399   5.933  -6.966  1.00  0.00     0.135 A 
ATOM     85  C   UNL     1       8.983   7.398  -5.111  1.00  0.00     0.135 A 
ATOM     86  F   UNL     1      10.046   4.899  -7.526  1.00  0.00    -0.206 F 
ATOM     87  C   UNL     1       8.479   6.634  -7.741  1.00  0.00     0.059 A 
ATOM     88  C   UNL     1       8.043   8.102  -5.857  1.00  0.00     0.059 A 
ATOM     89  F   UNL     1       9.209   7.789  -3.847  1.00  0.00    -0.206 F 
ATOM     90  C   UNL     1       7.804   7.718  -7.176  1.00  0.00     0.060 A 
BRANCH  90  91
ATOM     91  S   UNL     1       6.574   8.593  -8.170  1.00  0.00     0.124 S 
ATOM     92  O   UNL     1       7.420   9.361  -9.075  1.00  0.00    -0.237 OA
ATOM     93  O   UNL     1       5.827   7.493  -8.773  1.00  0.00    -0.237 OA
ATOM     94  O   UNL     1       5.836   9.371  -7.180  1.00  0.00    -0.744 OA
ENDBRANCH  90  91
ENDBRANCH  58  83
BRANCH  70  95
ATOM     95  C   UNL     1      16.612   5.647  -6.056  1.00  0.00     0.058 A 
ATOM     96  C   UNL     1      16.991   6.998  -6.061  1.00  0.00     0.135 A 
ATOM     97  C   UNL     1      17.238   4.785  -6.970  1.00  0.00     0.135 A 
ATOM     98  F   UNL     1      16.422   7.863  -5.206  1.00  0.00    -0.206 F 
ATOM     99  C   UNL     1      17.930   7.484  -6.965  1.00  0.00     0.059 A 
ATOM    100  C   UNL     1      18.200   5.243  -7.864  1.00  0.00     0.059 A 
ATOM    101  F   UNL     1      16.924   3.480  -6.993  1.00  0.00    -0.206 F 
ATOM    102  C   UNL     1      18.526   6.599  -7.865  1.00  0.00     0.060 A 
BRANCH 102 103
ATOM    103  S   UNL     1      19.749   7.236  -9.030  1.00  0.00     0.124 S 
ATOM    104  O   UNL     1      18.898   7.890 -10.018  1.00  0.00    -0.237 OA
ATOM    105  O   UNL     1      20.548   8.126  -8.193  1.00  0.00    -0.237 OA
ATOM    106  O   UNL     1      20.438   6.034  -9.489  1.00  0.00    -0.744 OA
ENDBRANCH 102 103
ENDBRANCH  70  95
ENDBRANCH  44  45
ENDBRANCH  37  39
ENDBRANCH  36  37
ENDBRANCH  35  36
ENDBRANCH  34  35
ENDBRANCH  33  34
ENDBRANCH  32  33
ENDBRANCH  31  32
ENDBRANCH  30  31
ENDBRANCH   1  30
TORSDOF 29
