REMARK SMILES CCOc1cccc(OCC)c1-c1ccc([C@@H](C)C(=O)OCCOCCOCCOCCOC(=O)c2ccc(-c3c4nc(c(-c5c(F)cc(S(=O)(=O)[O-])cc5F)c5ccc([nH]5)c(-c5c(F)cc(S(=O)(=O)[O-])cc5F)c5nc(c(-c6c(F)cc(S(=O)(=O)[O-])cc6F)c6ccc3[nH]6)C=C5)C=C4)cc2)cc1F
REMARK SMILES IDX 26 1 25 2 24 3 23 4 22 5 21 6 19 7 20 8 17 9 18 10 16 11
REMARK SMILES IDX 13 12 14 13 103 14 15 15 102 16 104 17 12 18 4 19 5 20 6 21
REMARK SMILES IDX 8 22 7 23 3 24 2 25 1 26 9 27 10 28 11 29 27 30 28 31 29 32
REMARK SMILES IDX 30 33 31 34 32 35 33 36 34 37 35 38 36 39 37 40 101 41 38 42
REMARK SMILES IDX 100 43 39 44 40 45 41 46 94 47 42 48 99 49 93 50 95 51 43 52
REMARK SMILES IDX 98 53 92 54 91 55 44 57 78 58 57 59 77 60 58 61 61 62 76 63
REMARK SMILES IDX 96 64 59 65 60 66 75 68 97 69 62 70 45 71 46 72 55 73 47 74
REMARK SMILES IDX 48 75 54 76 56 77 49 78 50 79 51 80 52 81 53 82 79 83 80 84
REMARK SMILES IDX 89 85 81 86 82 87 88 88 90 89 83 90 84 91 85 92 86 93 87 94
REMARK SMILES IDX 63 95 64 96 73 97 65 98 66 99 72 100 74 101 67 102 68 103
REMARK SMILES IDX 69 104 70 105 71 106
REMARK H PARENT 95 56 61 67
REMARK Flexibility Score: inf
ROOT
ATOM      1  C   UNL     1      -0.170   2.513  -1.511  1.00  0.00     0.188 C 
ENDROOT
BRANCH   1   2
ATOM      2  C   UNL     1      -1.319   3.513  -1.616  1.00  0.00     0.188 C 
BRANCH   2   3
ATOM      3  O   UNL     1      -1.291   4.498  -2.640  1.00  0.00    -0.376 OA
BRANCH   3   4
ATOM      4  C   UNL     1      -0.075   5.072  -3.094  1.00  0.00     0.202 C 
BRANCH   4   5
ATOM      5  C   UNL     1       0.897   5.766  -2.126  1.00  0.00     0.261 C 
BRANCH   5   6
ATOM      6  O   UNL     1       1.460   4.930  -1.091  1.00  0.00    -0.463 OA
BRANCH   6   7
ATOM      7  C   UNL     1       0.942   5.089   0.153  1.00  0.00     0.313 C 
ATOM      8  O   UNL     1       0.040   5.884   0.408  1.00  0.00    -0.252 OA
BRANCH   7   9
ATOM      9  C   UNL     1       1.611   4.281   1.259  1.00  0.00     0.126 C 
ATOM     10  C   UNL     1       2.772   5.099   1.815  1.00  0.00     0.025 C 
BRANCH   9  11
ATOM     11  C   UNL     1       2.011   2.815   1.079  1.00  0.00    -0.031 A 
ATOM     12  C   UNL     1       2.925   0.075   1.023  1.00  0.00     0.025 A 
ATOM     13  C   UNL     1       3.127   0.959  -0.056  1.00  0.00     0.012 A 
ATOM     14  C   UNL     1       2.184   0.576   2.095  1.00  0.00     0.131 A 
ATOM     15  C   UNL     1       2.741   2.316  -0.004  1.00  0.00     0.005 A 
ATOM     16  C   UNL     1       1.724   1.904   2.118  1.00  0.00     0.044 A 
ATOM     17  F   UNL     1       1.911  -0.200   3.156  1.00  0.00    -0.206 F 
BRANCH  12  18
ATOM     18  C   UNL     1       3.485  -1.302   0.986  1.00  0.00     0.069 A 
ATOM     19  C   UNL     1       2.605  -2.408   0.827  1.00  0.00     0.130 A 
ATOM     20  C   UNL     1       3.051  -3.716   0.588  1.00  0.00     0.047 A 
ATOM     21  C   UNL     1       4.407  -3.974   0.530  1.00  0.00     0.008 A 
ATOM     22  C   UNL     1       4.864  -1.614   1.034  1.00  0.00     0.130 A 
ATOM     23  C   UNL     1       5.295  -2.938   0.789  1.00  0.00     0.047 A 
BRANCH  19  24
ATOM     24  O   UNL     1       1.265  -2.256   1.083  1.00  0.00    -0.493 OA
BRANCH  24  25
ATOM     25  C   UNL     1       0.456  -2.331  -0.086  1.00  0.00     0.226 C 
ATOM     26  C   UNL     1      -0.145  -0.961  -0.276  1.00  0.00     0.049 C 
ENDBRANCH  24  25
ENDBRANCH  19  24
BRANCH  22  27
ATOM     27  O   UNL     1       5.950  -0.851   1.367  1.00  0.00    -0.493 OA
BRANCH  27  28
ATOM     28  C   UNL     1       5.948   0.563   1.422  1.00  0.00     0.226 C 
ATOM     29  C   UNL     1       6.346   1.119   0.067  1.00  0.00     0.049 C 
ENDBRANCH  27  28
ENDBRANCH  22  27
ENDBRANCH  12  18
ENDBRANCH   9  11
ENDBRANCH   7   9
ENDBRANCH   6   7
ENDBRANCH   5   6
ENDBRANCH   4   5
ENDBRANCH   3   4
ENDBRANCH   2   3
ENDBRANCH   1   2
BRANCH   1  30
ATOM     30  O   UNL     1      -0.245   1.375  -2.335  1.00  0.00    -0.377 OA
BRANCH  30  31
ATOM     31  C   UNL     1       0.036   1.583  -3.698  1.00  0.00     0.188 C 
BRANCH  31  32
ATOM     32  C   UNL     1      -1.218   1.550  -4.577  1.00  0.00     0.188 C 
BRANCH  32  33
ATOM     33  O   UNL     1      -2.452   1.073  -4.045  1.00  0.00    -0.376 OA
BRANCH  33  34
ATOM     34  C   UNL     1      -2.455  -0.036  -3.152  1.00  0.00     0.202 C 
BRANCH  34  35
ATOM     35  C   UNL     1      -1.823  -1.349  -3.635  1.00  0.00     0.261 C 
BRANCH  35  36
ATOM     36  O   UNL     1      -0.429  -1.235  -3.982  1.00  0.00    -0.460 OA
BRANCH  36  37
ATOM     37  C   UNL     1      -0.091  -1.739  -5.184  1.00  0.00     0.338 C 
ATOM     38  O   UNL     1      -0.819  -2.401  -5.934  1.00  0.00    -0.246 OA
BRANCH  37  39
ATOM     39  C   UNL     1       1.230  -1.265  -5.626  1.00  0.00     0.060 A 
ATOM     40  C   UNL     1       1.264  -0.346  -6.684  1.00  0.00     0.016 A 
ATOM     41  C   UNL     1       2.417  -1.811  -5.131  1.00  0.00     0.016 A 
ATOM     42  C   UNL     1       2.473  -0.022  -7.297  1.00  0.00     0.010 A 
ATOM     43  C   UNL     1       3.632  -1.501  -5.764  1.00  0.00     0.010 A 
ATOM     44  C   UNL     1       3.656  -0.648  -6.884  1.00  0.00    -0.014 A 
BRANCH  44  45
ATOM     45  C   UNL     1       4.840  -0.578  -7.782  1.00  0.00     0.031 A 
ATOM     46  C   UNL     1       5.063  -1.702  -8.764  1.00  0.00     0.074 A 
ATOM     47  C   UNL     1       5.652   0.495  -7.794  1.00  0.00     0.049 A 
ATOM     48  N   UNL     1       6.001  -1.843  -9.665  1.00  0.00    -0.248 NA
ATOM     49  C   UNL     1       4.094  -2.810  -8.730  1.00  0.00     0.031 C 
ATOM     50  C   UNL     1       5.515   1.669  -6.934  1.00  0.00     0.029 A 
ATOM     51  N   UNL     1       6.758   0.769  -8.562  1.00  0.00    -0.354 N 
ATOM     52  C   UNL     1       5.744  -3.057 -10.294  1.00  0.00     0.074 A 
ATOM     53  C   UNL     1       4.571  -3.621  -9.664  1.00  0.00     0.031 C 
ATOM     54  C   UNL     1       6.511   2.530  -7.210  1.00  0.00     0.029 A 
ATOM     55  C   UNL     1       7.370   1.960  -8.248  1.00  0.00     0.049 A 
ATOM     56  H   UNL     1       7.082   0.169  -9.272  1.00  0.00     0.167 HD
ATOM     57  C   UNL     1       6.420  -3.646 -11.308  1.00  0.00     0.037 A 
ATOM     58  C   UNL     1       8.504   2.513  -8.725  1.00  0.00     0.037 A 
ATOM     59  C   UNL     1       7.576  -3.076 -11.949  1.00  0.00     0.049 A 
ATOM     60  C   UNL     1       9.271   1.808  -9.818  1.00  0.00     0.074 A 
ATOM     61  C   UNL     1       8.302  -3.581 -13.014  1.00  0.00     0.029 A 
ATOM     62  N   UNL     1       8.181  -1.886 -11.580  1.00  0.00    -0.354 N 
ATOM     63  N   UNL     1       8.989   0.683 -10.431  1.00  0.00    -0.248 NA
ATOM     64  C   UNL     1      10.509   2.450 -10.287  1.00  0.00     0.031 C 
ATOM     65  C   UNL     1       9.382  -2.724 -13.251  1.00  0.00     0.029 A 
ATOM     66  C   UNL     1       9.294  -1.657 -12.373  1.00  0.00     0.049 A 
ATOM     67  H   UNL     1       7.867  -1.291 -10.861  1.00  0.00     0.167 HD
ATOM     68  C   UNL     1       9.995   0.500 -11.376  1.00  0.00     0.074 A 
ATOM     69  C   UNL     1      10.886   1.635 -11.262  1.00  0.00     0.031 C 
ATOM     70  C   UNL     1      10.166  -0.515 -12.259  1.00  0.00     0.037 A 
BRANCH  57  71
ATOM     71  C   UNL     1       5.956  -4.998 -11.774  1.00  0.00     0.058 A 
ATOM     72  C   UNL     1       4.793  -5.163 -12.542  1.00  0.00     0.135 A 
ATOM     73  C   UNL     1       6.731  -6.138 -11.504  1.00  0.00     0.135 A 
ATOM     74  F   UNL     1       4.006  -4.110 -12.812  1.00  0.00    -0.206 F 
ATOM     75  C   UNL     1       4.410  -6.413 -13.019  1.00  0.00     0.059 A 
ATOM     76  C   UNL     1       6.381  -7.393 -11.992  1.00  0.00     0.059 A 
ATOM     77  F   UNL     1       7.850  -6.035 -10.770  1.00  0.00    -0.206 F 
ATOM     78  C   UNL     1       5.215  -7.521 -12.744  1.00  0.00     0.060 A 
BRANCH  78  79
ATOM     79  S   UNL     1       4.725  -9.130 -13.402  1.00  0.00     0.124 S 
ATOM     80  O   UNL     1       3.574  -9.450 -12.563  1.00  0.00    -0.237 OA
ATOM     81  O   UNL     1       4.427  -8.818 -14.796  1.00  0.00    -0.237 OA
ATOM     82  O   UNL     1       5.907  -9.960 -13.187  1.00  0.00    -0.744 OA
ENDBRANCH  78  79
ENDBRANCH  57  71
BRANCH  58  83
ATOM     83  C   UNL     1       9.017   3.787  -8.149  1.00  0.00     0.058 A 
ATOM     84  C   UNL     1       9.068   4.967  -8.906  1.00  0.00     0.135 A 
ATOM     85  C   UNL     1       9.505   3.835  -6.833  1.00  0.00     0.135 A 
ATOM     86  F   UNL     1       8.626   4.971 -10.173  1.00  0.00    -0.206 F 
ATOM     87  C   UNL     1       9.607   6.142  -8.390  1.00  0.00     0.059 A 
ATOM     88  C   UNL     1      10.022   5.004  -6.286  1.00  0.00     0.059 A 
ATOM     89  F   UNL     1       9.470   2.738  -6.062  1.00  0.00    -0.206 F 
ATOM     90  C   UNL     1      10.083   6.150  -7.077  1.00  0.00     0.060 A 
BRANCH  90  91
ATOM     91  S   UNL     1      10.756   7.684  -6.403  1.00  0.00     0.124 S 
ATOM     92  O   UNL     1      12.046   7.760  -7.078  1.00  0.00    -0.237 OA
ATOM     93  O   UNL     1       9.758   8.665  -6.818  1.00  0.00    -0.237 OA
ATOM     94  O   UNL     1      10.807   7.423  -4.968  1.00  0.00    -0.744 OA
ENDBRANCH  90  91
ENDBRANCH  58  83
BRANCH  70  95
ATOM     95  C   UNL     1      11.335  -0.434 -13.204  1.00  0.00     0.058 A 
ATOM     96  C   UNL     1      12.654  -0.632 -12.769  1.00  0.00     0.135 A 
ATOM     97  C   UNL     1      11.124  -0.215 -14.576  1.00  0.00     0.135 A 
ATOM     98  F   UNL     1      12.912  -0.841 -11.468  1.00  0.00    -0.206 F 
ATOM     99  C   UNL     1      13.726  -0.593 -13.655  1.00  0.00     0.059 A 
ATOM    100  C   UNL     1      12.178  -0.201 -15.485  1.00  0.00     0.059 A 
ATOM    101  F   UNL     1       9.881  -0.032 -15.048  1.00  0.00    -0.206 F 
ATOM    102  C   UNL     1      13.477  -0.378 -15.013  1.00  0.00     0.060 A 
BRANCH 102 103
ATOM    103  S   UNL     1      14.873  -0.362 -16.158  1.00  0.00     0.124 S 
ATOM    104  O   UNL     1      15.484   0.929 -15.858  1.00  0.00    -0.237 OA
ATOM    105  O   UNL     1      15.634  -1.536 -15.741  1.00  0.00    -0.237 OA
ATOM    106  O   UNL     1      14.239  -0.467 -17.469  1.00  0.00    -0.744 OA
ENDBRANCH 102 103
ENDBRANCH  70  95
ENDBRANCH  44  45
ENDBRANCH  37  39
ENDBRANCH  36  37
ENDBRANCH  35  36
ENDBRANCH  34  35
ENDBRANCH  33  34
ENDBRANCH  32  33
ENDBRANCH  31  32
ENDBRANCH  30  31
ENDBRANCH   1  30
TORSDOF 29
