REMARK SMILES Cc1ncc(CO)c([C@H]2[NH2+][C@@H](C(=O)OCCOCCOCCOCCOC(=O)c3ccc(-c4c5nc(c(-c6c(F)cc(S(=O)(=O)[O-])cc6F)c6ccc([nH]6)c(-c6c(F)cc(S(=O)(=O)[O-])cc6F)c6nc(c(-c7c(F)cc(S(=O)(=O)[O-])cc7F)c7ccc4[nH]7)C=C6)C=C5)cc3)Cc3[nH]cnc32)c1O
REMARK SMILES IDX 20 1 19 2 18 3 17 4 16 5 15 6 14 7 12 8 13 9 11 10 9 11
REMARK SMILES IDX 10 12 100 13 96 16 99 17 95 18 97 19 98 20 8 22 1 23 2 24
REMARK SMILES IDX 3 25 101 26 4 27 5 28 102 29 6 31 7 32 21 34 22 35 23 36
REMARK SMILES IDX 24 37 25 38 26 39 27 40 28 41 29 42 30 43 94 44 31 45 93 46
REMARK SMILES IDX 32 47 33 48 34 49 87 50 35 51 92 52 86 53 88 54 36 55 91 56
REMARK SMILES IDX 85 57 84 58 37 60 71 61 50 62 70 63 51 64 54 65 69 66 89 67
REMARK SMILES IDX 52 68 53 69 68 71 90 72 55 73 38 74 39 75 48 76 40 77 41 78
REMARK SMILES IDX 47 79 49 80 42 81 43 82 44 83 45 84 46 85 72 86 73 87 82 88
REMARK SMILES IDX 74 89 75 90 81 91 83 92 76 93 77 94 78 95 79 96 80 97 56 98
REMARK SMILES IDX 57 99 66 100 58 101 59 102 65 103 67 104 60 105 61 106
REMARK SMILES IDX 62 107 63 108 64 109
REMARK H PARENT 10 14 10 15 97 21 102 30 7 33 88 59 54 70
REMARK Flexibility Score: inf
ROOT
ATOM      1  O   UNL     1      -4.647   1.367   2.507  1.00  0.00    -0.377 OA
ENDROOT
BRANCH   1   2
ATOM      2  C   UNL     1      -3.230   1.369   2.425  1.00  0.00     0.188 C 
BRANCH   2   3
ATOM      3  C   UNL     1      -2.488   1.928   3.676  1.00  0.00     0.188 C 
BRANCH   3   4
ATOM      4  O   UNL     1      -3.195   2.458   4.790  1.00  0.00    -0.376 OA
BRANCH   4   5
ATOM      5  C   UNL     1      -4.438   3.103   4.588  1.00  0.00     0.202 C 
BRANCH   5   6
ATOM      6  C   UNL     1      -4.527   4.277   3.602  1.00  0.00     0.261 C 
BRANCH   6   7
ATOM      7  O   UNL     1      -3.703   4.190   2.429  1.00  0.00    -0.459 OA
BRANCH   7   8
ATOM      8  C   UNL     1      -2.497   4.832   2.465  1.00  0.00     0.365 C 
ATOM      9  O   UNL     1      -2.085   5.492   3.409  1.00  0.00    -0.245 OA
BRANCH   8  10
ATOM     10  C   UNL     1      -1.748   4.602   1.141  1.00  0.00     0.300 C 
ATOM     11  C   UNL     1      -0.272   3.183  -0.168  1.00  0.00     0.270 C 
ATOM     12  N   UNL     1      -0.736   3.482   1.212  1.00  0.00    -0.323 N 
ATOM     13  C   UNL     1       0.443   4.399  -0.665  1.00  0.00     0.124 A 
ATOM     14  H   UNL     1       0.056   3.769   1.787  1.00  0.00     0.347 HD
ATOM     15  H   UNL     1      -1.159   2.652   1.627  1.00  0.00     0.347 HD
ATOM     16  C   UNL     1      -0.007   5.656  -0.289  1.00  0.00     0.051 A 
ATOM     17  N   UNL     1       1.411   4.518  -1.625  1.00  0.00    -0.235 NA
ATOM     18  C   UNL     1      -1.088   5.937   0.700  1.00  0.00     0.133 C 
ATOM     19  N   UNL     1       0.727   6.552  -0.998  1.00  0.00    -0.348 N 
ATOM     20  C   UNL     1       1.574   5.818  -1.786  1.00  0.00     0.197 A 
ATOM     21  H   UNL     1       0.663   7.534  -0.954  1.00  0.00     0.167 HD
BRANCH  11  22
ATOM     22  C   UNL     1       0.365   1.808  -0.287  1.00  0.00     0.066 A 
ATOM     23  C   UNL     1      -1.034  -1.751  -0.826  1.00  0.00     0.071 C 
ATOM     24  C   UNL     1      -0.103  -0.611  -0.526  1.00  0.00     0.079 A 
ATOM     25  N   UNL     1       1.188  -0.934  -0.338  1.00  0.00    -0.257 NA
ATOM     26  C   UNL     1      -0.535   0.720  -0.508  1.00  0.00     0.146 A 
ATOM     27  C   UNL     1       2.045   0.086  -0.117  1.00  0.00     0.118 A 
ATOM     28  C   UNL     1       1.708   1.452  -0.059  1.00  0.00     0.009 A 
BRANCH  26  29
ATOM     29  O   UNL     1      -1.889   0.935  -0.623  1.00  0.00    -0.505 OA
ATOM     30  H   UNL     1      -2.467   0.212  -0.767  1.00  0.00     0.293 HD
ENDBRANCH  26  29
BRANCH  28  31
ATOM     31  C   UNL     1       2.842   2.398   0.216  1.00  0.00     0.194 C 
BRANCH  31  32
ATOM     32  O   UNL     1       3.600   1.949   1.343  1.00  0.00    -0.392 OA
ATOM     33  H   UNL     1       3.027   1.914   2.125  1.00  0.00     0.211 HD
ENDBRANCH  31  32
ENDBRANCH  28  31
ENDBRANCH  11  22
ENDBRANCH   8  10
ENDBRANCH   7   8
ENDBRANCH   6   7
ENDBRANCH   5   6
ENDBRANCH   4   5
ENDBRANCH   3   4
ENDBRANCH   2   3
ENDBRANCH   1   2
BRANCH   1  34
ATOM     34  C   UNL     1      -5.220   0.110   2.854  1.00  0.00     0.188 C 
BRANCH  34  35
ATOM     35  C   UNL     1      -4.702  -0.537   4.158  1.00  0.00     0.188 C 
BRANCH  35  36
ATOM     36  O   UNL     1      -3.284  -0.529   4.283  1.00  0.00    -0.376 OA
BRANCH  36  37
ATOM     37  C   UNL     1      -2.519  -1.718   4.178  1.00  0.00     0.202 C 
BRANCH  37  38
ATOM     38  C   UNL     1      -2.299  -2.253   2.766  1.00  0.00     0.261 C 
BRANCH  38  39
ATOM     39  O   UNL     1      -3.473  -2.260   1.976  1.00  0.00    -0.460 OA
BRANCH  39  40
ATOM     40  C   UNL     1      -4.440  -3.078   2.415  1.00  0.00     0.338 C 
ATOM     41  O   UNL     1      -4.475  -3.681   3.486  1.00  0.00    -0.246 OA
BRANCH  40  42
ATOM     42  C   UNL     1      -5.430  -3.237   1.358  1.00  0.00     0.060 A 
ATOM     43  C   UNL     1      -6.546  -4.004   1.684  1.00  0.00     0.016 A 
ATOM     44  C   UNL     1      -5.045  -2.971   0.035  1.00  0.00     0.016 A 
ATOM     45  C   UNL     1      -7.091  -4.768   0.688  1.00  0.00     0.010 A 
ATOM     46  C   UNL     1      -5.576  -3.750  -0.955  1.00  0.00     0.010 A 
ATOM     47  C   UNL     1      -6.509  -4.710  -0.584  1.00  0.00    -0.014 A 
BRANCH  47  48
ATOM     48  C   UNL     1      -6.952  -5.677  -1.554  1.00  0.00     0.031 A 
ATOM     49  C   UNL     1      -8.284  -5.342  -2.085  1.00  0.00     0.074 A 
ATOM     50  C   UNL     1      -6.171  -6.703  -1.934  1.00  0.00     0.049 A 
ATOM     51  N   UNL     1      -9.401  -5.934  -1.835  1.00  0.00    -0.248 NA
ATOM     52  C   UNL     1      -8.425  -4.050  -2.778  1.00  0.00     0.031 C 
ATOM     53  C   UNL     1      -4.751  -6.921  -1.645  1.00  0.00     0.029 A 
ATOM     54  N   UNL     1      -6.473  -7.731  -2.764  1.00  0.00    -0.354 N 
ATOM     55  C   UNL     1     -10.348  -5.232  -2.566  1.00  0.00     0.074 A 
ATOM     56  C   UNL     1      -9.749  -3.969  -2.902  1.00  0.00     0.031 C 
ATOM     57  C   UNL     1      -4.270  -7.872  -2.480  1.00  0.00     0.029 A 
ATOM     58  C   UNL     1      -5.370  -8.408  -3.265  1.00  0.00     0.049 A 
ATOM     59  H   UNL     1      -7.399  -7.978  -2.993  1.00  0.00     0.167 HD
ATOM     60  C   UNL     1     -11.423  -5.870  -3.100  1.00  0.00     0.037 A 
ATOM     61  C   UNL     1      -5.380  -9.260  -4.322  1.00  0.00     0.037 A 
ATOM     62  C   UNL     1     -11.648  -7.137  -2.450  1.00  0.00     0.049 A 
ATOM     63  C   UNL     1      -6.793  -9.694  -4.516  1.00  0.00     0.074 A 
ATOM     64  C   UNL     1     -11.905  -7.520  -1.148  1.00  0.00     0.029 A 
ATOM     65  N   UNL     1     -11.225  -8.271  -3.104  1.00  0.00    -0.354 N 
ATOM     66  N   UNL     1      -7.452 -10.428  -3.658  1.00  0.00    -0.248 NA
ATOM     67  C   UNL     1      -7.625  -8.910  -5.420  1.00  0.00     0.031 C 
ATOM     68  C   UNL     1     -11.197  -8.744  -0.972  1.00  0.00     0.029 A 
ATOM     69  C   UNL     1     -10.600  -9.079  -2.188  1.00  0.00     0.049 A 
ATOM     70  H   UNL     1     -11.350  -8.469  -4.060  1.00  0.00     0.167 HD
ATOM     71  C   UNL     1      -8.732  -9.890  -3.628  1.00  0.00     0.074 A 
ATOM     72  C   UNL     1      -8.800  -9.010  -4.792  1.00  0.00     0.031 C 
ATOM     73  C   UNL     1      -9.513  -9.981  -2.510  1.00  0.00     0.037 A 
BRANCH  60  74
ATOM     74  C   UNL     1     -11.991  -5.533  -4.457  1.00  0.00     0.058 A 
ATOM     75  C   UNL     1     -13.183  -6.159  -4.869  1.00  0.00     0.135 A 
ATOM     76  C   UNL     1     -11.282  -4.847  -5.472  1.00  0.00     0.135 A 
ATOM     77  F   UNL     1     -13.933  -6.844  -3.991  1.00  0.00    -0.206 F 
ATOM     78  C   UNL     1     -13.597  -6.170  -6.200  1.00  0.00     0.059 A 
ATOM     79  C   UNL     1     -11.708  -4.795  -6.791  1.00  0.00     0.059 A 
ATOM     80  F   UNL     1     -10.091  -4.275  -5.269  1.00  0.00    -0.206 F 
ATOM     81  C   UNL     1     -12.842  -5.496  -7.155  1.00  0.00     0.060 A 
BRANCH  81  82
ATOM     82  S   UNL     1     -13.309  -5.593  -8.889  1.00  0.00     0.124 S 
ATOM     83  O   UNL     1     -13.014  -6.989  -9.189  1.00  0.00    -0.237 OA
ATOM     84  O   UNL     1     -14.720  -5.229  -8.840  1.00  0.00    -0.237 OA
ATOM     85  O   UNL     1     -12.436  -4.611  -9.526  1.00  0.00    -0.744 OA
ENDBRANCH  81  82
ENDBRANCH  60  74
BRANCH  61  86
ATOM     86  C   UNL     1      -4.339  -9.385  -5.379  1.00  0.00     0.058 A 
ATOM     87  C   UNL     1      -4.332 -10.465  -6.279  1.00  0.00     0.135 A 
ATOM     88  C   UNL     1      -3.479  -8.312  -5.696  1.00  0.00     0.135 A 
ATOM     89  F   UNL     1      -5.143 -11.515  -6.077  1.00  0.00    -0.206 F 
ATOM     90  C   UNL     1      -3.542 -10.469  -7.437  1.00  0.00     0.059 A 
ATOM     91  C   UNL     1      -2.675  -8.299  -6.834  1.00  0.00     0.059 A 
ATOM     92  F   UNL     1      -3.459  -7.196  -4.953  1.00  0.00    -0.206 F 
ATOM     93  C   UNL     1      -2.726  -9.372  -7.713  1.00  0.00     0.060 A 
BRANCH  93  94
ATOM     94  S   UNL     1      -1.818  -9.301  -9.276  1.00  0.00     0.124 S 
ATOM     95  O   UNL     1      -0.823 -10.352  -9.095  1.00  0.00    -0.237 OA
ATOM     96  O   UNL     1      -2.865  -9.574 -10.254  1.00  0.00    -0.237 OA
ATOM     97  O   UNL     1      -1.288  -7.939  -9.299  1.00  0.00    -0.744 OA
ENDBRANCH  93  94
ENDBRANCH  61  86
BRANCH  73  98
ATOM     98  C   UNL     1      -9.098 -10.940  -1.423  1.00  0.00     0.058 A 
ATOM     99  C   UNL     1      -7.928 -10.818  -0.651  1.00  0.00     0.135 A 
ATOM    100  C   UNL     1     -10.018 -11.927  -1.037  1.00  0.00     0.135 A 
ATOM    101  F   UNL     1      -7.046  -9.836  -0.888  1.00  0.00    -0.206 F 
ATOM    102  C   UNL     1      -7.671 -11.663   0.432  1.00  0.00     0.059 A 
ATOM    103  C   UNL     1      -9.799 -12.758   0.057  1.00  0.00     0.059 A 
ATOM    104  F   UNL     1     -11.183 -12.053  -1.695  1.00  0.00    -0.206 F 
ATOM    105  C   UNL     1      -8.616 -12.628   0.781  1.00  0.00     0.060 A 
BRANCH 105 106
ATOM    106  S   UNL     1      -8.328 -13.665   2.232  1.00  0.00     0.124 S 
ATOM    107  O   UNL     1      -7.255 -14.541   1.775  1.00  0.00    -0.237 OA
ATOM    108  O   UNL     1      -7.959 -12.688   3.252  1.00  0.00    -0.237 OA
ATOM    109  O   UNL     1      -9.618 -14.318   2.447  1.00  0.00    -0.744 OA
ENDBRANCH 105 106
ENDBRANCH  73  98
ENDBRANCH  47  48
ENDBRANCH  40  42
ENDBRANCH  39  40
ENDBRANCH  38  39
ENDBRANCH  37  38
ENDBRANCH  36  37
ENDBRANCH  35  36
ENDBRANCH  34  35
ENDBRANCH   1  34
TORSDOF 27
