REMARK SMILES Cc1ccc(-c2cc(C(=O)OCCOCCOCCOCCOC(=O)c3ccc(-c4c5nc(c(-c6c(F)cc(S(=O)(=O)[O-])cc6F)c6ccc([nH]6)c(-c6c(F)cc(S(=O)(=O)[O-])cc6F)c6nc(c(-c7c(F)cc(S(=O)(=O)[O-])cc7F)c7ccc4[nH]7)C=C6)C=C5)cc3)c3c(-c4cccc([N+](=O)[O-])c4)[nH]nc3n2)cc1
REMARK SMILES IDX 18 1 17 2 16 3 15 4 14 5 13 6 12 7 11 8 9 9 10 10 8 11 6 12
REMARK SMILES IDX 7 13 106 14 105 15 92 16 104 17 93 18 103 19 5 21 1 22 2 23
REMARK SMILES IDX 3 24 108 25 4 26 107 27 94 28 95 29 102 30 96 31 98 32 97 33
REMARK SMILES IDX 99 34 100 35 101 36 19 37 20 38 21 39 22 40 23 41 24 42
REMARK SMILES IDX 25 43 26 44 27 45 91 46 28 47 90 48 29 49 30 50 31 51 84 52
REMARK SMILES IDX 32 53 89 54 83 55 85 56 33 57 88 58 82 59 81 60 34 62 68 63
REMARK SMILES IDX 47 64 67 65 48 66 51 67 66 68 86 69 49 70 50 71 65 73 87 74
REMARK SMILES IDX 52 75 35 76 36 77 45 78 37 79 38 80 44 81 46 82 39 83 40 84
REMARK SMILES IDX 41 85 42 86 43 87 69 88 70 89 79 90 71 91 72 92 78 93 80 94
REMARK SMILES IDX 73 95 74 96 75 97 76 98 77 99 53 100 54 101 63 102 55 103
REMARK SMILES IDX 56 104 62 105 64 106 57 107 58 108 59 109 60 110 61 111
REMARK H PARENT 103 20 85 61 51 72
REMARK Flexibility Score: inf
ROOT
ATOM      1  C   UNL     1      -4.824  -1.857  -4.618  1.00  0.00     0.188 C 
ENDROOT
BRANCH   1   2
ATOM      2  O   UNL     1      -5.600  -1.282  -3.579  1.00  0.00    -0.377 OA
BRANCH   2   3
ATOM      3  C   UNL     1      -7.015  -1.373  -3.439  1.00  0.00     0.188 C 
BRANCH   3   4
ATOM      4  C   UNL     1      -8.329  -0.562  -4.127  1.00  0.00     0.188 C 
BRANCH   4   5
ATOM      5  O   UNL     1      -8.725   1.023  -4.939  1.00  0.00    -0.376 OA
BRANCH   5   6
ATOM      6  C   UNL     1      -8.054   2.659  -4.926  1.00  0.00     0.202 C 
BRANCH   6   7
ATOM      7  C   UNL     1      -6.966   3.453  -3.610  1.00  0.00     0.261 C 
BRANCH   7   8
ATOM      8  O   UNL     1      -6.578   2.705  -1.990  1.00  0.00    -0.460 OA
BRANCH   8   9
ATOM      9  C   UNL     1      -6.988   1.817  -0.870  1.00  0.00     0.339 C 
ATOM     10  O   UNL     1      -8.131   1.755  -0.417  1.00  0.00    -0.246 OA
BRANCH   9  11
ATOM     11  C   UNL     1      -6.139   0.748  -0.086  1.00  0.00     0.075 A 
ATOM     12  C   UNL     1      -3.994  -0.320   0.856  1.00  0.00     0.074 A 
ATOM     13  C   UNL     1      -4.734   0.562   0.019  1.00  0.00     0.045 A 
ATOM     14  N   UNL     1      -4.551  -1.137   1.761  1.00  0.00    -0.226 NA
ATOM     15  C   UNL     1      -5.905  -1.085   1.719  1.00  0.00     0.182 A 
ATOM     16  C   UNL     1      -6.680  -0.232   0.812  1.00  0.00     0.061 A 
ATOM     17  N   UNL     1      -6.675  -1.846   2.494  1.00  0.00    -0.154 NA
ATOM     18  C   UNL     1      -7.977  -0.716   0.990  1.00  0.00     0.076 A 
ATOM     19  N   UNL     1      -7.905  -1.565   2.068  1.00  0.00    -0.275 N 
ATOM     20  H   UNL     1      -8.708  -1.939   2.497  1.00  0.00     0.190 HD
BRANCH  12  21
ATOM     21  C   UNL     1      -2.513  -0.329   0.733  1.00  0.00     0.000 A 
ATOM     22  C   UNL     1       1.780  -0.214   0.034  1.00  0.00     0.044 C 
ATOM     23  C   UNL     1       0.296  -0.248   0.263  1.00  0.00    -0.051 A 
ATOM     24  C   UNL     1      -0.414  -1.452   0.171  1.00  0.00     0.004 A 
ATOM     25  C   UNL     1      -0.400   0.914   0.600  1.00  0.00     0.004 A 
ATOM     26  C   UNL     1      -1.800  -1.491   0.402  1.00  0.00     0.010 A 
ATOM     27  C   UNL     1      -1.780   0.871   0.829  1.00  0.00     0.010 A 
ENDBRANCH  12  21
BRANCH  18  28
ATOM     28  C   UNL     1      -9.265  -0.622   0.310  1.00  0.00     0.007 A 
ATOM     29  C   UNL     1     -10.254   0.253   0.774  1.00  0.00     0.011 A 
ATOM     30  C   UNL     1      -9.560  -1.480  -0.757  1.00  0.00     0.096 A 
ATOM     31  C   UNL     1     -11.501   0.319   0.146  1.00  0.00     0.008 A 
ATOM     32  C   UNL     1     -10.808  -1.392  -1.396  1.00  0.00     0.270 A 
ATOM     33  C   UNL     1     -11.780  -0.492  -0.953  1.00  0.00     0.085 A 
BRANCH  32  34
ATOM     34  N   UNL     1     -11.046  -2.170  -2.617  1.00  0.00     0.062 N 
ATOM     35  O   UNL     1     -11.925  -1.778  -3.397  1.00  0.00    -0.258 OA
ATOM     36  O   UNL     1     -10.318  -3.154  -2.823  1.00  0.00    -0.258 OA
ENDBRANCH  32  34
ENDBRANCH  18  28
ENDBRANCH   9  11
ENDBRANCH   8   9
ENDBRANCH   7   8
ENDBRANCH   6   7
ENDBRANCH   5   6
ENDBRANCH   4   5
ENDBRANCH   3   4
ENDBRANCH   2   3
ENDBRANCH   1   2
BRANCH   1  37
ATOM     37  C   UNL     1      -5.272  -3.148  -5.261  1.00  0.00     0.188 C 
BRANCH  37  38
ATOM     38  O   UNL     1      -6.653  -3.057  -5.569  1.00  0.00    -0.376 OA
BRANCH  38  39
ATOM     39  C   UNL     1      -7.219  -4.240  -6.098  1.00  0.00     0.202 C 
BRANCH  39  40
ATOM     40  C   UNL     1      -6.752  -4.529  -7.530  1.00  0.00     0.261 C 
BRANCH  40  41
ATOM     41  O   UNL     1      -7.273  -3.579  -8.490  1.00  0.00    -0.460 OA
BRANCH  41  42
ATOM     42  C   UNL     1      -6.412  -2.617  -8.955  1.00  0.00     0.338 C 
ATOM     43  O   UNL     1      -5.772  -2.746  -9.996  1.00  0.00    -0.246 OA
BRANCH  42  44
ATOM     44  C   UNL     1      -6.529  -1.377  -8.152  1.00  0.00     0.060 A 
ATOM     45  C   UNL     1      -5.568  -0.401  -7.888  1.00  0.00     0.016 A 
ATOM     46  C   UNL     1      -7.731  -1.156  -7.577  1.00  0.00     0.016 A 
ATOM     47  C   UNL     1      -5.668   0.517  -6.761  1.00  0.00     0.010 A 
ATOM     48  C   UNL     1      -7.781  -0.260  -6.519  1.00  0.00     0.010 A 
ATOM     49  C   UNL     1      -6.703   0.457  -5.816  1.00  0.00    -0.014 A 
BRANCH  49  50
ATOM     50  C   UNL     1      -6.680   1.106  -4.053  1.00  0.00     0.031 A 
ATOM     51  C   UNL     1      -8.348   1.579  -3.016  1.00  0.00     0.074 A 
ATOM     52  C   UNL     1      -5.302   1.358  -3.735  1.00  0.00     0.049 A 
ATOM     53  N   UNL     1      -8.654   2.813  -2.502  1.00  0.00    -0.248 NA
ATOM     54  C   UNL     1      -9.948   1.171  -3.115  1.00  0.00     0.031 C 
ATOM     55  C   UNL     1      -4.575   1.769  -2.522  1.00  0.00     0.029 A 
ATOM     56  N   UNL     1      -4.181   1.478  -4.603  1.00  0.00    -0.354 N 
ATOM     57  C   UNL     1      -9.896   3.116  -2.025  1.00  0.00     0.074 A 
ATOM     58  C   UNL     1     -10.716   2.129  -2.599  1.00  0.00     0.031 C 
ATOM     59  C   UNL     1      -3.286   2.063  -2.636  1.00  0.00     0.029 A 
ATOM     60  C   UNL     1      -3.147   2.244  -4.013  1.00  0.00     0.049 A 
ATOM     61  H   UNL     1      -4.130   1.078  -5.502  1.00  0.00     0.167 HD
ATOM     62  C   UNL     1     -10.114   4.133  -1.132  1.00  0.00     0.037 A 
ATOM     63  C   UNL     1      -2.788   3.487  -4.418  1.00  0.00     0.037 A 
ATOM     64  C   UNL     1      -8.855   4.714  -0.624  1.00  0.00     0.049 A 
ATOM     65  C   UNL     1      -3.286   4.668  -3.532  1.00  0.00     0.074 A 
ATOM     66  C   UNL     1      -8.099   4.388   0.493  1.00  0.00     0.029 A 
ATOM     67  N   UNL     1      -8.015   5.517  -1.405  1.00  0.00    -0.354 N 
ATOM     68  N   UNL     1      -4.448   4.731  -2.892  1.00  0.00    -0.248 NA
ATOM     69  C   UNL     1      -2.427   5.791  -3.157  1.00  0.00     0.031 C 
ATOM     70  C   UNL     1      -6.750   4.784   0.262  1.00  0.00     0.029 A 
ATOM     71  C   UNL     1      -6.690   5.491  -0.933  1.00  0.00     0.049 A 
ATOM     72  H   UNL     1      -8.315   6.035  -2.186  1.00  0.00     0.167 HD
ATOM     73  C   UNL     1      -4.545   5.905  -2.147  1.00  0.00     0.074 A 
ATOM     74  C   UNL     1      -3.214   6.483  -2.311  1.00  0.00     0.031 C 
ATOM     75  C   UNL     1      -5.636   6.390  -1.436  1.00  0.00     0.037 A 
BRANCH  62  76
ATOM     76  C   UNL     1     -11.480   4.186  -0.449  1.00  0.00     0.058 A 
ATOM     77  C   UNL     1     -11.613   4.277   0.949  1.00  0.00     0.135 A 
ATOM     78  C   UNL     1     -12.695   3.987  -1.144  1.00  0.00     0.135 A 
ATOM     79  F   UNL     1     -10.575   4.600   1.730  1.00  0.00    -0.206 F 
ATOM     80  C   UNL     1     -12.816   4.000   1.613  1.00  0.00     0.059 A 
ATOM     81  C   UNL     1     -13.896   3.645  -0.504  1.00  0.00     0.059 A 
ATOM     82  F   UNL     1     -12.738   4.076  -2.484  1.00  0.00    -0.206 F 
ATOM     83  C   UNL     1     -13.937   3.621   0.883  1.00  0.00     0.060 A 
BRANCH  83  84
ATOM     84  S   UNL     1     -15.397   3.027   1.767  1.00  0.00     0.124 S 
ATOM     85  O   UNL     1     -14.828   2.008   2.645  1.00  0.00    -0.237 OA
ATOM     86  O   UNL     1     -15.874   4.239   2.424  1.00  0.00    -0.237 OA
ATOM     87  O   UNL     1     -16.253   2.509   0.703  1.00  0.00    -0.744 OA
ENDBRANCH  83  84
ENDBRANCH  62  76
BRANCH  63  88
ATOM     88  C   UNL     1      -2.097   3.300  -5.727  1.00  0.00     0.058 A 
ATOM     89  C   UNL     1      -1.022   2.360  -5.695  1.00  0.00     0.135 A 
ATOM     90  C   UNL     1      -2.871   3.328  -6.894  1.00  0.00     0.135 A 
ATOM     91  F   UNL     1      -0.258   2.260  -4.592  1.00  0.00    -0.206 F 
ATOM     92  C   UNL     1      -0.915   1.331  -6.629  1.00  0.00     0.059 A 
ATOM     93  C   UNL     1      -2.737   2.334  -7.876  1.00  0.00     0.059 A 
ATOM     94  F   UNL     1      -3.907   4.175  -6.981  1.00  0.00    -0.206 F 
ATOM     95  C   UNL     1      -1.822   1.293  -7.682  1.00  0.00     0.060 A 
BRANCH  95  96
ATOM     96  S   UNL     1      -1.886  -0.232  -8.662  1.00  0.00     0.124 S 
ATOM     97  O   UNL     1      -0.499  -0.484  -8.966  1.00  0.00    -0.237 OA
ATOM     98  O   UNL     1      -2.509  -1.154  -7.705  1.00  0.00    -0.237 OA
ATOM     99  O   UNL     1      -2.728   0.157  -9.800  1.00  0.00    -0.744 OA
ENDBRANCH  95  96
ENDBRANCH  63  88
BRANCH  75 100
ATOM    100  C   UNL     1      -5.808   7.858  -0.993  1.00  0.00     0.058 A 
ATOM    101  C   UNL     1      -5.233   8.945  -1.670  1.00  0.00     0.135 A 
ATOM    102  C   UNL     1      -6.760   8.223   0.005  1.00  0.00     0.135 A 
ATOM    103  F   UNL     1      -4.382   8.766  -2.689  1.00  0.00    -0.206 F 
ATOM    104  C   UNL     1      -5.550  10.274  -1.372  1.00  0.00     0.059 A 
ATOM    105  C   UNL     1      -7.148   9.535   0.261  1.00  0.00     0.059 A 
ATOM    106  F   UNL     1      -7.386   7.319   0.768  1.00  0.00    -0.206 F 
ATOM    107  C   UNL     1      -6.525  10.560  -0.423  1.00  0.00     0.060 A 
BRANCH 107 108
ATOM    108  S   UNL     1      -7.044  12.259  -0.137  1.00  0.00     0.124 S 
ATOM    109  O   UNL     1      -6.151  12.656   0.946  1.00  0.00    -0.237 OA
ATOM    110  O   UNL     1      -6.793  12.893  -1.428  1.00  0.00    -0.237 OA
ATOM    111  O   UNL     1      -8.453  12.122   0.219  1.00  0.00    -0.744 OA
ENDBRANCH 107 108
ENDBRANCH  75 100
ENDBRANCH  49  50
ENDBRANCH  42  44
ENDBRANCH  41  42
ENDBRANCH  40  41
ENDBRANCH  39  40
ENDBRANCH  38  39
ENDBRANCH  37  38
ENDBRANCH   1  37
TORSDOF 26
