REMARK SMILES CN(Cc1ccncc1)C(=O)c1cccn1CC(=O)OCCOCCOCCOCCOC(=O)c1ccc(-c2c3nc(c(-c4c(F)cc(S(=O)(=O)[O-])cc4F)c4ccc([nH]4)c(-c4c(F)cc(S(=O)(=O)[O-])cc4F)c4nc(c(-c5c(F)cc(S(=O)(=O)[O-])cc5F)c5ccc2[nH]5)C=C4)C=C3)cc1
REMARK SMILES IDX 25 1 24 2 23 3 22 4 21 5 20 6 18 7 19 8 17 9 16 10 12 11
REMARK SMILES IDX 13 12 14 13 15 14 10 15 11 16 2 17 1 18 3 19 4 20 5 21 9 22
REMARK SMILES IDX 6 23 8 24 7 25 26 26 27 27 28 28 29 29 30 30 31 31 32 32
REMARK SMILES IDX 33 33 34 34 35 35 36 36 100 37 37 38 99 39 38 40 39 41 40 42
REMARK SMILES IDX 93 43 41 44 98 45 92 46 94 47 42 48 97 49 91 50 90 51 43 53
REMARK SMILES IDX 77 54 56 55 76 56 57 57 60 58 75 59 95 60 58 61 59 62 74 64
REMARK SMILES IDX 96 65 61 66 44 67 45 68 54 69 46 70 47 71 53 72 55 73 48 74
REMARK SMILES IDX 49 75 50 76 51 77 52 78 78 79 79 80 88 81 80 82 81 83 87 84
REMARK SMILES IDX 89 85 82 86 83 87 84 88 85 89 86 90 62 91 63 92 72 93 64 94
REMARK SMILES IDX 65 95 71 96 73 97 66 98 67 99 68 100 69 101 70 102
REMARK H PARENT 94 52 60 63
REMARK Flexibility Score: inf
ROOT
ATOM      1  C   UNL     1       1.794  -3.521   6.400  1.00  0.00     0.188 C 
ENDROOT
BRANCH   1   2
ATOM      2  C   UNL     1       2.828  -4.674   6.332  1.00  0.00     0.188 C 
BRANCH   2   3
ATOM      3  O   UNL     1       4.219  -4.451   6.556  1.00  0.00    -0.376 OA
BRANCH   3   4
ATOM      4  C   UNL     1       4.684  -3.118   6.625  1.00  0.00     0.202 C 
BRANCH   4   5
ATOM      5  C   UNL     1       4.686  -2.343   5.297  1.00  0.00     0.261 C 
BRANCH   5   6
ATOM      6  O   UNL     1       3.650  -2.718   4.362  1.00  0.00    -0.462 OA
BRANCH   6   7
ATOM      7  C   UNL     1       3.977  -3.607   3.390  1.00  0.00     0.326 C 
ATOM      8  O   UNL     1       5.124  -4.007   3.194  1.00  0.00    -0.250 OA
BRANCH   7   9
ATOM      9  C   UNL     1       2.810  -4.146   2.578  1.00  0.00     0.244 C 
BRANCH   9  10
ATOM     10  N   UNL     1       1.450  -3.745   2.958  1.00  0.00    -0.332 N 
ATOM     11  C   UNL     1       0.809  -2.524   2.720  1.00  0.00     0.107 A 
ATOM     12  C   UNL     1      -0.289  -2.558   3.575  1.00  0.00     0.033 A 
ATOM     13  C   UNL     1      -0.529  -3.898   3.956  1.00  0.00     0.020 A 
ATOM     14  C   UNL     1       0.541  -4.628   3.509  1.00  0.00     0.087 A 
BRANCH  11  15
ATOM     15  C   UNL     1       1.280  -1.548   1.732  1.00  0.00     0.270 C 
ATOM     16  O   UNL     1       2.363  -1.736   1.170  1.00  0.00    -0.267 OA
BRANCH  15  17
ATOM     17  N   UNL     1       0.475  -0.481   1.295  1.00  0.00    -0.336 N 
ATOM     18  C   UNL     1       0.829   0.134   0.021  1.00  0.00     0.147 C 
BRANCH  17  19
ATOM     19  C   UNL     1      -0.634   0.141   2.016  1.00  0.00     0.155 C 
BRANCH  19  20
ATOM     20  C   UNL     1      -2.022  -0.439   1.846  1.00  0.00    -0.026 A 
ATOM     21  C   UNL     1      -3.099   0.257   2.418  1.00  0.00     0.025 A 
ATOM     22  C   UNL     1      -2.281  -1.702   1.306  1.00  0.00     0.025 A 
ATOM     23  C   UNL     1      -4.345  -0.349   2.476  1.00  0.00     0.111 A 
ATOM     24  C   UNL     1      -3.555  -2.238   1.440  1.00  0.00     0.111 A 
ATOM     25  N   UNL     1      -4.590  -1.589   2.011  1.00  0.00    -0.265 NA
ENDBRANCH  19  20
ENDBRANCH  17  19
ENDBRANCH  15  17
ENDBRANCH  11  15
ENDBRANCH   9  10
ENDBRANCH   7   9
ENDBRANCH   6   7
ENDBRANCH   5   6
ENDBRANCH   4   5
ENDBRANCH   3   4
ENDBRANCH   2   3
ENDBRANCH   1   2
BRANCH   1  26
ATOM     26  O   UNL     1       2.082  -2.461   7.301  1.00  0.00    -0.377 OA
BRANCH  26  27
ATOM     27  C   UNL     1       1.273  -2.437   8.468  1.00  0.00     0.188 C 
BRANCH  27  28
ATOM     28  C   UNL     1       1.497  -3.661   9.363  1.00  0.00     0.188 C 
BRANCH  28  29
ATOM     29  O   UNL     1       1.306  -4.898   8.684  1.00  0.00    -0.376 OA
BRANCH  29  30
ATOM     30  C   UNL     1       0.107  -5.638   8.834  1.00  0.00     0.202 C 
BRANCH  30  31
ATOM     31  C   UNL     1      -1.136  -5.084   8.127  1.00  0.00     0.261 C 
BRANCH  31  32
ATOM     32  O   UNL     1      -1.513  -3.757   8.479  1.00  0.00    -0.460 OA
BRANCH  32  33
ATOM     33  C   UNL     1      -1.654  -3.570   9.803  1.00  0.00     0.338 C 
ATOM     34  O   UNL     1      -1.315  -4.294  10.716  1.00  0.00    -0.246 OA
BRANCH  33  35
ATOM     35  C   UNL     1      -2.438  -2.383  10.059  1.00  0.00     0.060 A 
ATOM     36  C   UNL     1      -2.131  -1.701  11.238  1.00  0.00     0.016 A 
ATOM     37  C   UNL     1      -3.682  -2.324   9.423  1.00  0.00     0.016 A 
ATOM     38  C   UNL     1      -3.156  -1.068  11.892  1.00  0.00     0.010 A 
ATOM     39  C   UNL     1      -4.716  -1.730  10.103  1.00  0.00     0.010 A 
ATOM     40  C   UNL     1      -4.445  -1.138  11.344  1.00  0.00    -0.014 A 
BRANCH  40  41
ATOM     41  C   UNL     1      -5.485  -0.363  12.011  1.00  0.00     0.031 A 
ATOM     42  C   UNL     1      -5.437   1.084  11.476  1.00  0.00     0.074 A 
ATOM     43  C   UNL     1      -6.192  -1.034  12.977  1.00  0.00     0.049 A 
ATOM     44  N   UNL     1      -5.792   2.186  12.051  1.00  0.00    -0.248 NA
ATOM     45  C   UNL     1      -4.811   1.376  10.146  1.00  0.00     0.031 C 
ATOM     46  C   UNL     1      -6.061  -2.481  13.295  1.00  0.00     0.029 A 
ATOM     47  N   UNL     1      -7.154  -0.659  13.890  1.00  0.00    -0.354 N 
ATOM     48  C   UNL     1      -5.682   3.222  11.097  1.00  0.00     0.074 A 
ATOM     49  C   UNL     1      -4.945   2.694   9.998  1.00  0.00     0.031 C 
ATOM     50  C   UNL     1      -6.823  -2.821  14.362  1.00  0.00     0.029 A 
ATOM     51  C   UNL     1      -7.553  -1.657  14.828  1.00  0.00     0.049 A 
ATOM     52  H   UNL     1      -7.542   0.246  13.895  1.00  0.00     0.167 HD
ATOM     53  C   UNL     1      -6.345   4.406  11.229  1.00  0.00     0.037 A 
ATOM     54  C   UNL     1      -8.381  -1.526  15.917  1.00  0.00     0.037 A 
ATOM     55  C   UNL     1      -7.055   4.400  12.463  1.00  0.00     0.049 A 
ATOM     56  C   UNL     1      -8.938  -0.176  15.772  1.00  0.00     0.074 A 
ATOM     57  C   UNL     1      -6.609   4.478  13.755  1.00  0.00     0.029 A 
ATOM     58  N   UNL     1      -8.325   3.872  12.438  1.00  0.00    -0.354 N 
ATOM     59  N   UNL     1      -9.841   0.166  14.902  1.00  0.00    -0.248 NA
ATOM     60  C   UNL     1      -8.363   0.904  16.586  1.00  0.00     0.031 C 
ATOM     61  C   UNL     1      -7.419   3.541  14.419  1.00  0.00     0.029 A 
ATOM     62  C   UNL     1      -8.487   3.158  13.597  1.00  0.00     0.049 A 
ATOM     63  H   UNL     1      -8.991   3.985  11.722  1.00  0.00     0.167 HD
ATOM     64  C   UNL     1      -9.679   1.526  14.845  1.00  0.00     0.074 A 
ATOM     65  C   UNL     1      -9.062   1.922  16.094  1.00  0.00     0.031 C 
ATOM     66  C   UNL     1      -9.501   2.131  13.642  1.00  0.00     0.037 A 
BRANCH  53  67
ATOM     67  C   UNL     1      -6.655   5.521  10.276  1.00  0.00     0.058 A 
ATOM     68  C   UNL     1      -7.107   6.741  10.839  1.00  0.00     0.135 A 
ATOM     69  C   UNL     1      -6.896   5.340   8.908  1.00  0.00     0.135 A 
ATOM     70  F   UNL     1      -6.843   7.047  12.121  1.00  0.00    -0.206 F 
ATOM     71  C   UNL     1      -7.913   7.629  10.144  1.00  0.00     0.059 A 
ATOM     72  C   UNL     1      -7.661   6.250   8.174  1.00  0.00     0.059 A 
ATOM     73  F   UNL     1      -6.469   4.243   8.268  1.00  0.00    -0.206 F 
ATOM     74  C   UNL     1      -8.220   7.353   8.820  1.00  0.00     0.060 A 
BRANCH  74  75
ATOM     75  S   UNL     1      -9.386   8.441   7.979  1.00  0.00     0.124 S 
ATOM     76  O   UNL     1     -10.653   8.036   8.578  1.00  0.00    -0.237 OA
ATOM     77  O   UNL     1      -8.902   9.765   8.359  1.00  0.00    -0.237 OA
ATOM     78  O   UNL     1      -9.207   8.097   6.572  1.00  0.00    -0.744 OA
ENDBRANCH  74  75
ENDBRANCH  53  67
BRANCH  54  79
ATOM     79  C   UNL     1      -8.791  -2.268  17.183  1.00  0.00     0.058 A 
ATOM     80  C   UNL     1      -8.532  -3.607  17.502  1.00  0.00     0.135 A 
ATOM     81  C   UNL     1      -9.425  -1.545  18.243  1.00  0.00     0.135 A 
ATOM     82  F   UNL     1      -8.079  -4.457  16.571  1.00  0.00    -0.206 F 
ATOM     83  C   UNL     1      -8.731  -4.128  18.805  1.00  0.00     0.059 A 
ATOM     84  C   UNL     1      -9.575  -2.013  19.543  1.00  0.00     0.059 A 
ATOM     85  F   UNL     1      -9.917  -0.312  18.072  1.00  0.00    -0.206 F 
ATOM     86  C   UNL     1      -9.194  -3.304  19.832  1.00  0.00     0.060 A 
BRANCH  86  87
ATOM     87  S   UNL     1      -9.186  -3.833  21.562  1.00  0.00     0.124 S 
ATOM     88  O   UNL     1     -10.458  -4.536  21.675  1.00  0.00    -0.237 OA
ATOM     89  O   UNL     1      -7.988  -4.663  21.631  1.00  0.00    -0.237 OA
ATOM     90  O   UNL     1      -9.098  -2.571  22.296  1.00  0.00    -0.744 OA
ENDBRANCH  86  87
ENDBRANCH  54  79
BRANCH  66  91
ATOM     91  C   UNL     1     -10.133   1.421  12.458  1.00  0.00     0.058 A 
ATOM     92  C   UNL     1     -11.529   1.271  12.411  1.00  0.00     0.135 A 
ATOM     93  C   UNL     1      -9.419   0.819  11.406  1.00  0.00     0.135 A 
ATOM     94  F   UNL     1     -12.290   1.820  13.371  1.00  0.00    -0.206 F 
ATOM     95  C   UNL     1     -12.176   0.577  11.385  1.00  0.00     0.059 A 
ATOM     96  C   UNL     1     -10.039   0.116  10.365  1.00  0.00     0.059 A 
ATOM     97  F   UNL     1      -8.089   0.900  11.356  1.00  0.00    -0.206 F 
ATOM     98  C   UNL     1     -11.424   0.004  10.360  1.00  0.00     0.060 A 
BRANCH  98  99
ATOM     99  S   UNL     1     -12.285  -0.852   9.019  1.00  0.00     0.124 S 
ATOM    100  O   UNL     1     -13.017  -1.895   9.730  1.00  0.00    -0.237 OA
ATOM    101  O   UNL     1     -13.101   0.217   8.453  1.00  0.00    -0.237 OA
ATOM    102  O   UNL     1     -11.203  -1.329   8.162  1.00  0.00    -0.744 OA
ENDBRANCH  98  99
ENDBRANCH  66  91
ENDBRANCH  40  41
ENDBRANCH  33  35
ENDBRANCH  32  33
ENDBRANCH  31  32
ENDBRANCH  30  31
ENDBRANCH  29  30
ENDBRANCH  28  29
ENDBRANCH  27  28
ENDBRANCH  26  27
ENDBRANCH   1  26
TORSDOF 28
