REMARK SMILES O=C(OCCOCCOCCOCCOC(=O)[C@@]1(Cc2cn3ccccc3n2)CCC[NH2+]C1)c1ccc(-c2c3nc(c(-c4c(F)cc(S(=O)(=O)[O-])cc4F)c4ccc([nH]4)c(-c4c(F)cc(S(=O)(=O)[O-])cc4F)c4nc(c(-c5c(F)cc(S(=O)(=O)[O-])cc5F)c5ccc2[nH]5)C=C4)C=C3)cc1
REMARK SMILES IDX 8 1 7 2 6 3 5 4 4 5 3 6 2 7 1 8 34 9 35 10 99 11 36 12 98 13
REMARK SMILES IDX 37 14 38 15 39 16 92 17 40 18 97 19 91 20 93 21 41 22 96 23
REMARK SMILES IDX 90 24 89 25 42 27 76 28 55 29 75 30 56 31 59 32 74 33 94 34
REMARK SMILES IDX 57 35 58 36 73 38 95 39 60 40 43 41 44 42 53 43 45 44 46 45
REMARK SMILES IDX 52 46 54 47 47 48 48 49 49 50 50 51 51 52 77 53 78 54 87 55
REMARK SMILES IDX 79 56 80 57 86 58 88 59 81 60 82 61 83 62 84 63 85 64 61 65
REMARK SMILES IDX 62 66 71 67 63 68 64 69 70 70 72 71 65 72 66 73 67 74 68 75
REMARK SMILES IDX 69 76 9 77 10 78 11 79 12 80 13 81 14 82 15 83 16 84 17 85
REMARK SMILES IDX 18 86 29 87 33 88 30 89 32 90 31 91 19 94 20 95 21 96 28 97
REMARK SMILES IDX 22 98 27 99 23 100 26 101 24 102 25 103
REMARK H PARENT 93 26 59 37 32 92 32 93
REMARK Flexibility Score: inf
ROOT
ATOM      1  C   UNL     1       5.380  -1.801   1.292  1.00  0.00     0.188 C 
ENDROOT
BRANCH   1   2
ATOM      2  C   UNL     1       4.620  -2.279   2.525  1.00  0.00     0.188 C 
BRANCH   2   3
ATOM      3  O   UNL     1       5.005  -3.594   2.916  1.00  0.00    -0.376 OA
BRANCH   3   4
ATOM      4  C   UNL     1       3.984  -4.514   3.303  1.00  0.00     0.202 C 
BRANCH   4   5
ATOM      5  C   UNL     1       3.190  -4.173   4.560  1.00  0.00     0.261 C 
BRANCH   5   6
ATOM      6  O   UNL     1       3.228  -2.797   4.955  1.00  0.00    -0.460 OA
BRANCH   6   7
ATOM      7  C   UNL     1       4.206  -2.081   5.556  1.00  0.00     0.338 C 
ATOM      8  O   UNL     1       3.993  -0.881   5.740  1.00  0.00    -0.246 OA
BRANCH   7   9
ATOM      9  C   UNL     1       5.551  -2.607   5.945  1.00  0.00     0.060 A 
ATOM     10  C   UNL     1       6.150  -3.769   5.459  1.00  0.00     0.016 A 
ATOM     11  C   UNL     1       6.306  -1.806   6.818  1.00  0.00     0.016 A 
ATOM     12  C   UNL     1       7.445  -4.126   5.774  1.00  0.00     0.010 A 
ATOM     13  C   UNL     1       7.588  -2.188   7.212  1.00  0.00     0.010 A 
ATOM     14  C   UNL     1       8.138  -3.366   6.698  1.00  0.00    -0.014 A 
BRANCH  14  15
ATOM     15  C   UNL     1       9.264  -4.033   7.347  1.00  0.00     0.031 A 
ATOM     16  C   UNL     1       8.963  -4.707   8.646  1.00  0.00     0.074 A 
ATOM     17  C   UNL     1      10.431  -4.170   6.702  1.00  0.00     0.049 A 
ATOM     18  N   UNL     1       9.775  -5.197   9.533  1.00  0.00    -0.248 NA
ATOM     19  C   UNL     1       7.534  -4.852   8.989  1.00  0.00     0.031 C 
ATOM     20  C   UNL     1      10.690  -3.742   5.326  1.00  0.00     0.029 A 
ATOM     21  N   UNL     1      11.609  -4.716   7.117  1.00  0.00    -0.354 N 
ATOM     22  C   UNL     1       8.962  -5.636  10.570  1.00  0.00     0.074 A 
ATOM     23  C   UNL     1       7.593  -5.389  10.194  1.00  0.00     0.031 C 
ATOM     24  C   UNL     1      11.971  -4.007   5.024  1.00  0.00     0.029 A 
ATOM     25  C   UNL     1      12.628  -4.530   6.216  1.00  0.00     0.049 A 
ATOM     26  H   UNL     1      11.718  -5.192   7.972  1.00  0.00     0.167 HD
ATOM     27  C   UNL     1       9.359  -6.160  11.750  1.00  0.00     0.037 A 
ATOM     28  C   UNL     1      13.951  -4.685   6.395  1.00  0.00     0.037 A 
ATOM     29  C   UNL     1      10.750  -6.358  12.046  1.00  0.00     0.049 A 
ATOM     30  C   UNL     1      14.399  -5.155   7.752  1.00  0.00     0.074 A 
ATOM     31  C   UNL     1      11.341  -6.792  13.213  1.00  0.00     0.029 A 
ATOM     32  N   UNL     1      11.775  -6.115  11.133  1.00  0.00    -0.354 N 
ATOM     33  N   UNL     1      13.660  -5.452   8.800  1.00  0.00    -0.248 NA
ATOM     34  C   UNL     1      15.840  -5.296   7.970  1.00  0.00     0.031 C 
ATOM     35  C   UNL     1      12.727  -6.756  13.022  1.00  0.00     0.029 A 
ATOM     36  C   UNL     1      12.999  -6.371  11.713  1.00  0.00     0.049 A 
ATOM     37  H   UNL     1      11.644  -5.805  10.208  1.00  0.00     0.167 HD
ATOM     38  C   UNL     1      14.541  -5.846   9.795  1.00  0.00     0.074 A 
ATOM     39  C   UNL     1      15.873  -5.740   9.221  1.00  0.00     0.031 C 
ATOM     40  C   UNL     1      14.286  -6.264  11.061  1.00  0.00     0.037 A 
BRANCH  27  41
ATOM     41  C   UNL     1       8.295  -6.389  12.786  1.00  0.00     0.058 A 
ATOM     42  C   UNL     1       7.293  -7.363  12.642  1.00  0.00     0.135 A 
ATOM     43  C   UNL     1       8.212  -5.532  13.896  1.00  0.00     0.135 A 
ATOM     44  F   UNL     1       7.293  -8.183  11.578  1.00  0.00    -0.206 F 
ATOM     45  C   UNL     1       6.222  -7.445  13.529  1.00  0.00     0.059 A 
ATOM     46  C   UNL     1       7.168  -5.615  14.812  1.00  0.00     0.059 A 
ATOM     47  F   UNL     1       9.127  -4.566  14.074  1.00  0.00    -0.206 F 
ATOM     48  C   UNL     1       6.164  -6.558  14.606  1.00  0.00     0.060 A 
BRANCH  48  49
ATOM     49  S   UNL     1       4.741  -6.639  15.715  1.00  0.00     0.124 S 
ATOM     50  O   UNL     1       3.689  -6.066  14.884  1.00  0.00    -0.237 OA
ATOM     51  O   UNL     1       4.634  -8.066  15.984  1.00  0.00    -0.237 OA
ATOM     52  O   UNL     1       5.155  -5.818  16.857  1.00  0.00    -0.744 OA
ENDBRANCH  48  49
ENDBRANCH  27  41
BRANCH  28  53
ATOM     53  C   UNL     1      14.890  -4.309   5.306  1.00  0.00     0.058 A 
ATOM     54  C   UNL     1      15.634  -5.275   4.616  1.00  0.00     0.135 A 
ATOM     55  C   UNL     1      14.999  -2.974   4.873  1.00  0.00     0.135 A 
ATOM     56  F   UNL     1      15.570  -6.562   4.988  1.00  0.00    -0.206 F 
ATOM     57  C   UNL     1      16.444  -4.936   3.534  1.00  0.00     0.059 A 
ATOM     58  C   UNL     1      15.781  -2.615   3.779  1.00  0.00     0.059 A 
ATOM     59  F   UNL     1      14.299  -2.008   5.488  1.00  0.00    -0.206 F 
ATOM     60  C   UNL     1      16.502  -3.604   3.116  1.00  0.00     0.060 A 
BRANCH  60  61
ATOM     61  S   UNL     1      17.497  -3.192   1.665  1.00  0.00     0.124 S 
ATOM     62  O   UNL     1      18.850  -3.389   2.170  1.00  0.00    -0.237 OA
ATOM     63  O   UNL     1      17.030  -4.170   0.688  1.00  0.00    -0.237 OA
ATOM     64  O   UNL     1      17.125  -1.808   1.383  1.00  0.00    -0.744 OA
ENDBRANCH  60  61
ENDBRANCH  28  53
BRANCH  40  65
ATOM     65  C   UNL     1      15.459  -6.707  11.879  1.00  0.00     0.058 A 
ATOM     66  C   UNL     1      16.330  -5.787  12.477  1.00  0.00     0.135 A 
ATOM     67  C   UNL     1      15.612  -8.070  12.180  1.00  0.00     0.135 A 
ATOM     68  F   UNL     1      16.222  -4.476  12.208  1.00  0.00    -0.206 F 
ATOM     69  C   UNL     1      17.316  -6.207  13.360  1.00  0.00     0.059 A 
ATOM     70  C   UNL     1      16.569  -8.507  13.083  1.00  0.00     0.059 A 
ATOM     71  F   UNL     1      14.787  -8.979  11.636  1.00  0.00    -0.206 F 
ATOM     72  C   UNL     1      17.415  -7.566  13.669  1.00  0.00     0.060 A 
BRANCH  72  73
ATOM     73  S   UNL     1      18.628  -8.083  14.898  1.00  0.00     0.124 S 
ATOM     74  O   UNL     1      19.877  -7.927  14.161  1.00  0.00    -0.237 OA
ATOM     75  O   UNL     1      18.402  -7.126  15.977  1.00  0.00    -0.237 OA
ATOM     76  O   UNL     1      18.242  -9.459  15.198  1.00  0.00    -0.744 OA
ENDBRANCH  72  73
ENDBRANCH  40  65
ENDBRANCH  14  15
ENDBRANCH   7   9
ENDBRANCH   6   7
ENDBRANCH   5   6
ENDBRANCH   4   5
ENDBRANCH   3   4
ENDBRANCH   2   3
ENDBRANCH   1   2
BRANCH   1  77
ATOM     77  O   UNL     1       5.176  -2.533   0.102  1.00  0.00    -0.377 OA
BRANCH  77  78
ATOM     78  C   UNL     1       4.946  -3.918   0.248  1.00  0.00     0.188 C 
BRANCH  78  79
ATOM     79  C   UNL     1       6.084  -4.876   0.673  1.00  0.00     0.188 C 
BRANCH  79  80
ATOM     80  O   UNL     1       7.310  -4.296   1.024  1.00  0.00    -0.376 OA
BRANCH  80  81
ATOM     81  C   UNL     1       8.068  -3.633   0.030  1.00  0.00     0.202 C 
BRANCH  81  82
ATOM     82  C   UNL     1       7.737  -3.593  -1.486  1.00  0.00     0.261 C 
BRANCH  82  83
ATOM     83  O   UNL     1       6.480  -4.105  -1.972  1.00  0.00    -0.463 OA
BRANCH  83  84
ATOM     84  C   UNL     1       6.433  -5.380  -2.446  1.00  0.00     0.318 C 
ATOM     85  O   UNL     1       7.418  -6.108  -2.447  1.00  0.00    -0.251 OA
BRANCH  84  86
ATOM     86  C   UNL     1       5.000  -5.823  -2.920  1.00  0.00     0.122 C 
ATOM     87  C   UNL     1       5.255  -7.045  -3.852  1.00  0.00     0.031 C 
ATOM     88  C   UNL     1       4.098  -6.301  -1.730  1.00  0.00     0.279 C 
ATOM     89  C   UNL     1       4.106  -8.040  -3.998  1.00  0.00     0.063 C 
ATOM     90  N   UNL     1       3.009  -7.251  -1.992  1.00  0.00    -0.345 N 
ATOM     91  C   UNL     1       3.513  -8.436  -2.656  1.00  0.00     0.260 C 
ATOM     92  H   UNL     1       2.579  -7.520  -1.107  1.00  0.00     0.346 HD
ATOM     93  H   UNL     1       2.322  -6.803  -2.598  1.00  0.00     0.346 HD
BRANCH  86  94
ATOM     94  C   UNL     1       4.382  -4.587  -3.651  1.00  0.00     0.082 C 
BRANCH  94  95
ATOM     95  C   UNL     1       3.043  -4.813  -4.248  1.00  0.00     0.061 A 
ATOM     96  C   UNL     1       1.814  -4.866  -3.618  1.00  0.00     0.116 A 
ATOM     97  N   UNL     1       2.918  -5.096  -5.586  1.00  0.00    -0.234 NA
ATOM     98  N   UNL     1       0.997  -5.495  -4.517  1.00  0.00    -0.307 N 
ATOM     99  C   UNL     1       1.684  -5.527  -5.724  1.00  0.00     0.136 A 
ATOM    100  C   UNL     1      -0.240  -6.100  -4.317  1.00  0.00     0.093 A 
ATOM    101  C   UNL     1       1.020  -6.116  -6.833  1.00  0.00     0.048 A 
ATOM    102  C   UNL     1      -0.828  -6.733  -5.348  1.00  0.00     0.018 A 
ATOM    103  C   UNL     1      -0.176  -6.709  -6.651  1.00  0.00     0.005 A 
ENDBRANCH  94  95
ENDBRANCH  86  94
ENDBRANCH  84  86
ENDBRANCH  83  84
ENDBRANCH  82  83
ENDBRANCH  81  82
ENDBRANCH  80  81
ENDBRANCH  79  80
ENDBRANCH  78  79
ENDBRANCH  77  78
ENDBRANCH   1  77
TORSDOF 25
