REMARK SMILES O=C(OCCOCCOCCOCCOC(=O)c1ccc(-c2c3nc(c(-c4c(F)cc(S(=O)(=O)[O-])cc4F)c4ccc([nH]4)c(-c4c(F)cc(S(=O)(=O)[O-])cc4F)c4nc(c(-c5c(F)cc(S(=O)(=O)[O-])cc5F)c5ccc2[nH]5)C=C4)C=C3)cc1)c1ccc(NS(=O)(=O)C2=Cc3ccccc3CC2)cc1
REMARK SMILES IDX 9 1 8 2 7 3 6 4 5 5 4 6 3 7 2 8 1 9 84 10 85 11 103 12 86 13
REMARK SMILES IDX 102 14 87 15 88 16 89 18 90 19 91 20 92 21 93 22 101 23
REMARK SMILES IDX 94 24 100 25 95 26 99 27 96 28 98 29 97 30 10 31 11 32 12 33
REMARK SMILES IDX 13 34 14 35 15 36 16 37 17 38 18 39 19 40 83 41 20 42 82 43
REMARK SMILES IDX 21 44 22 45 23 46 76 47 24 48 81 49 75 50 77 51 25 52 80 53
REMARK SMILES IDX 74 54 73 55 26 57 60 58 39 59 59 60 40 61 43 62 58 63 78 64
REMARK SMILES IDX 41 65 42 66 57 68 79 69 44 70 27 71 28 72 37 73 29 74 30 75
REMARK SMILES IDX 36 76 38 77 31 78 32 79 33 80 34 81 35 82 61 83 62 84 71 85
REMARK SMILES IDX 63 86 64 87 70 88 72 89 65 90 66 91 67 92 68 93 69 94 45 95
REMARK SMILES IDX 46 96 55 97 47 98 48 99 54 100 56 101 49 102 50 103 51 104
REMARK SMILES IDX 52 105 53 106
REMARK H PARENT 88 17 77 56 43 67
REMARK Flexibility Score: inf
ROOT
ATOM      1  O   UNL     1       2.569   0.898   3.445  1.00  0.00    -0.377 OA
ENDROOT
BRANCH   1   2
ATOM      2  C   UNL     1       1.965   0.126   2.412  1.00  0.00     0.188 C 
BRANCH   2   3
ATOM      3  C   UNL     1       2.416   0.434   0.982  1.00  0.00     0.188 C 
BRANCH   3   4
ATOM      4  O   UNL     1       3.675  -0.164   0.663  1.00  0.00    -0.376 OA
BRANCH   4   5
ATOM      5  C   UNL     1       4.635   0.716   0.097  1.00  0.00     0.202 C 
BRANCH   5   6
ATOM      6  C   UNL     1       4.323   1.322  -1.272  1.00  0.00     0.261 C 
BRANCH   6   7
ATOM      7  O   UNL     1       3.051   1.020  -1.873  1.00  0.00    -0.460 OA
BRANCH   7   8
ATOM      8  C   UNL     1       2.523  -0.137  -2.327  1.00  0.00     0.338 C 
ATOM      9  O   UNL     1       1.389  -0.128  -2.803  1.00  0.00    -0.246 OA
BRANCH   8  10
ATOM     10  C   UNL     1       3.199  -1.452  -2.175  1.00  0.00     0.060 A 
ATOM     11  C   UNL     1       4.575  -1.647  -2.178  1.00  0.00     0.018 A 
ATOM     12  C   UNL     1       2.373  -2.581  -2.042  1.00  0.00     0.018 A 
ATOM     13  C   UNL     1       5.104  -2.905  -1.872  1.00  0.00     0.027 A 
ATOM     14  C   UNL     1       2.909  -3.832  -1.723  1.00  0.00     0.027 A 
ATOM     15  C   UNL     1       4.283  -3.978  -1.547  1.00  0.00     0.049 A 
BRANCH  15  16
ATOM     16  N   UNL     1       4.730  -5.160  -0.894  1.00  0.00    -0.280 N 
ATOM     17  H   UNL     1       4.045  -5.815  -0.629  1.00  0.00     0.180 HD
BRANCH  16  18
ATOM     18  S   UNL     1       6.329  -5.534  -0.537  1.00  0.00     0.258 S 
ATOM     19  O   UNL     1       6.231  -6.865   0.034  1.00  0.00    -0.202 OA
ATOM     20  O   UNL     1       7.072  -5.349  -1.768  1.00  0.00    -0.202 OA
BRANCH  18  21
ATOM     21  C   UNL     1       6.901  -4.382   0.712  1.00  0.00     0.066 C 
ATOM     22  C   UNL     1       7.290  -4.950   1.880  1.00  0.00     0.026 C 
ATOM     23  C   UNL     1       7.893  -3.328   0.245  1.00  0.00     0.055 C 
ATOM     24  C   UNL     1       8.675  -5.517   1.828  1.00  0.00    -0.021 A 
ATOM     25  C   UNL     1       9.226  -3.987  -0.132  1.00  0.00     0.041 C 
ATOM     26  C   UNL     1       9.079  -6.456   2.777  1.00  0.00     0.008 A 
ATOM     27  C   UNL     1       9.579  -5.112   0.817  1.00  0.00    -0.040 A 
ATOM     28  C   UNL     1      10.334  -7.058   2.669  1.00  0.00     0.001 A 
ATOM     29  C   UNL     1      10.809  -5.763   0.685  1.00  0.00     0.004 A 
ATOM     30  C   UNL     1      11.180  -6.740   1.606  1.00  0.00     0.000 A 
ENDBRANCH  18  21
ENDBRANCH  16  18
ENDBRANCH  15  16
ENDBRANCH   8  10
ENDBRANCH   7   8
ENDBRANCH   6   7
ENDBRANCH   5   6
ENDBRANCH   4   5
ENDBRANCH   3   4
ENDBRANCH   2   3
ENDBRANCH   1   2
BRANCH   1  31
ATOM     31  C   UNL     1       3.985   0.962   3.486  1.00  0.00     0.188 C 
BRANCH  31  32
ATOM     32  C   UNL     1       4.793  -0.350   3.541  1.00  0.00     0.188 C 
BRANCH  32  33
ATOM     33  O   UNL     1       4.017  -1.540   3.592  1.00  0.00    -0.376 OA
BRANCH  33  34
ATOM     34  C   UNL     1       3.909  -2.157   4.872  1.00  0.00     0.202 C 
BRANCH  34  35
ATOM     35  C   UNL     1       3.015  -1.419   5.879  1.00  0.00     0.261 C 
BRANCH  35  36
ATOM     36  O   UNL     1       3.479  -0.114   6.261  1.00  0.00    -0.460 OA
BRANCH  36  37
ATOM     37  C   UNL     1       4.693  -0.022   6.846  1.00  0.00     0.338 C 
ATOM     38  O   UNL     1       5.423  -0.945   7.170  1.00  0.00    -0.246 OA
BRANCH  37  39
ATOM     39  C   UNL     1       5.098   1.401   6.804  1.00  0.00     0.060 A 
ATOM     40  C   UNL     1       6.377   1.717   6.324  1.00  0.00     0.016 A 
ATOM     41  C   UNL     1       4.202   2.419   7.151  1.00  0.00     0.016 A 
ATOM     42  C   UNL     1       6.777   3.051   6.232  1.00  0.00     0.010 A 
ATOM     43  C   UNL     1       4.607   3.753   7.071  1.00  0.00     0.010 A 
ATOM     44  C   UNL     1       5.911   4.071   6.653  1.00  0.00    -0.014 A 
BRANCH  44  45
ATOM     45  C   UNL     1       6.465   5.416   6.946  1.00  0.00     0.031 A 
ATOM     46  C   UNL     1       6.946   5.666   8.351  1.00  0.00     0.074 A 
ATOM     47  C   UNL     1       6.563   6.379   6.013  1.00  0.00     0.049 A 
ATOM     48  N   UNL     1       7.482   6.738   8.871  1.00  0.00    -0.248 NA
ATOM     49  C   UNL     1       6.795   4.547   9.298  1.00  0.00     0.031 C 
ATOM     50  C   UNL     1       6.158   6.256   4.615  1.00  0.00     0.029 A 
ATOM     51  N   UNL     1       7.041   7.663   6.114  1.00  0.00    -0.354 N 
ATOM     52  C   UNL     1       7.732   6.423  10.201  1.00  0.00     0.074 A 
ATOM     53  C   UNL     1       7.253   5.077  10.419  1.00  0.00     0.031 C 
ATOM     54  C   UNL     1       6.404   7.421   3.987  1.00  0.00     0.029 A 
ATOM     55  C   UNL     1       6.964   8.377   4.943  1.00  0.00     0.049 A 
ATOM     56  H   UNL     1       7.404   8.037   6.949  1.00  0.00     0.167 HD
ATOM     57  C   UNL     1       8.317   7.180  11.158  1.00  0.00     0.037 A 
ATOM     58  C   UNL     1       7.304   9.656   4.680  1.00  0.00     0.037 A 
ATOM     59  C   UNL     1       8.774   8.525  10.948  1.00  0.00     0.049 A 
ATOM     60  C   UNL     1       7.897  10.507   5.777  1.00  0.00     0.074 A 
ATOM     61  C   UNL     1       9.387   9.377  11.849  1.00  0.00     0.029 A 
ATOM     62  N   UNL     1       8.652   9.222   9.755  1.00  0.00    -0.354 N 
ATOM     63  N   UNL     1       8.164  10.185   7.021  1.00  0.00    -0.248 NA
ATOM     64  C   UNL     1       8.241  11.894   5.431  1.00  0.00     0.031 C 
ATOM     65  C   UNL     1       9.593  10.606  11.214  1.00  0.00     0.029 A 
ATOM     66  C   UNL     1       9.159  10.501   9.901  1.00  0.00     0.049 A 
ATOM     67  H   UNL     1       8.262   8.860   8.927  1.00  0.00     0.167 HD
ATOM     68  C   UNL     1       8.742  11.316   7.594  1.00  0.00     0.074 A 
ATOM     69  C   UNL     1       8.784  12.329   6.560  1.00  0.00     0.031 C 
ATOM     70  C   UNL     1       9.205  11.495   8.857  1.00  0.00     0.037 A 
BRANCH  57  71
ATOM     71  C   UNL     1       8.449   6.566  12.523  1.00  0.00     0.058 A 
ATOM     72  C   UNL     1       9.341   5.510  12.775  1.00  0.00     0.135 A 
ATOM     73  C   UNL     1       7.648   7.015  13.584  1.00  0.00     0.135 A 
ATOM     74  F   UNL     1      10.111   5.024  11.788  1.00  0.00    -0.206 F 
ATOM     75  C   UNL     1       9.400   4.891  14.019  1.00  0.00     0.059 A 
ATOM     76  C   UNL     1       7.712   6.431  14.844  1.00  0.00     0.059 A 
ATOM     77  F   UNL     1       6.774   8.017  13.394  1.00  0.00    -0.206 F 
ATOM     78  C   UNL     1       8.575   5.354  15.045  1.00  0.00     0.060 A 
BRANCH  78  79
ATOM     79  S   UNL     1       8.636   4.521  16.645  1.00  0.00     0.124 S 
ATOM     80  O   UNL     1       7.916   3.284  16.355  1.00  0.00    -0.237 OA
ATOM     81  O   UNL     1      10.071   4.380  16.870  1.00  0.00    -0.237 OA
ATOM     82  O   UNL     1       7.952   5.451  17.538  1.00  0.00    -0.744 OA
ENDBRANCH  78  79
ENDBRANCH  57  71
BRANCH  58  83
ATOM     83  C   UNL     1       7.117  10.210   3.311  1.00  0.00     0.058 A 
ATOM     84  C   UNL     1       8.218  10.491   2.489  1.00  0.00     0.135 A 
ATOM     85  C   UNL     1       5.837  10.465   2.796  1.00  0.00     0.135 A 
ATOM     86  F   UNL     1       9.464  10.280   2.942  1.00  0.00    -0.206 F 
ATOM     87  C   UNL     1       8.059  11.004   1.205  1.00  0.00     0.059 A 
ATOM     88  C   UNL     1       5.651  10.957   1.507  1.00  0.00     0.059 A 
ATOM     89  F   UNL     1       4.750  10.211   3.541  1.00  0.00    -0.206 F 
ATOM     90  C   UNL     1       6.769  11.227   0.720  1.00  0.00     0.060 A 
BRANCH  90  91
ATOM     91  S   UNL     1       6.574  11.817  -0.976  1.00  0.00     0.124 S 
ATOM     92  O   UNL     1       7.022  13.200  -0.861  1.00  0.00    -0.237 OA
ATOM     93  O   UNL     1       7.457  10.918  -1.714  1.00  0.00    -0.237 OA
ATOM     94  O   UNL     1       5.149  11.633  -1.233  1.00  0.00    -0.744 OA
ENDBRANCH  90  91
ENDBRANCH  58  83
BRANCH  70  95
ATOM     95  C   UNL     1       9.849  12.815   9.186  1.00  0.00     0.058 A 
ATOM     96  C   UNL     1       9.099  13.992   9.340  1.00  0.00     0.135 A 
ATOM     97  C   UNL     1      11.234  12.887   9.411  1.00  0.00     0.135 A 
ATOM     98  F   UNL     1       7.773  13.979   9.135  1.00  0.00    -0.206 F 
ATOM     99  C   UNL     1       9.704  15.198   9.680  1.00  0.00     0.059 A 
ATOM    100  C   UNL     1      11.855  14.076   9.779  1.00  0.00     0.059 A 
ATOM    101  F   UNL     1      11.996  11.788   9.292  1.00  0.00    -0.206 F 
ATOM    102  C   UNL     1      11.083  15.230   9.897  1.00  0.00     0.060 A 
BRANCH 102 103
ATOM    103  S   UNL     1      11.853  16.795  10.364  1.00  0.00     0.124 S 
ATOM    104  O   UNL     1      11.854  17.512   9.093  1.00  0.00    -0.237 OA
ATOM    105  O   UNL     1      10.937  17.306  11.379  1.00  0.00    -0.237 OA
ATOM    106  O   UNL     1      13.166  16.393  10.860  1.00  0.00    -0.744 OA
ENDBRANCH 102 103
ENDBRANCH  70  95
ENDBRANCH  44  45
ENDBRANCH  37  39
ENDBRANCH  36  37
ENDBRANCH  35  36
ENDBRANCH  34  35
ENDBRANCH  33  34
ENDBRANCH  32  33
ENDBRANCH  31  32
ENDBRANCH   1  31
TORSDOF 26
