REMARK SMILES O=C(C[C@@H](c1ccccc1)[NH+]1CCCCC1)OCCOCCOCCOCCOC(=O)c1ccc(-c2c3nc(c(-c4c(F)cc(S(=O)(=O)[O-])cc4F)c4ccc([nH]4)c(-c4c(F)cc(S(=O)(=O)[O-])cc4F)c4nc(c(-c5c(F)cc(S(=O)(=O)[O-])cc5F)c5ccc2[nH]5)C=C4)C=C3)cc1
REMARK SMILES IDX 24 1 23 2 22 3 21 4 20 5 19 6 18 7 17 8 2 9 1 10 3 11 4 12
REMARK SMILES IDX 5 13 6 14 10 15 7 16 9 17 8 18 11 19 12 20 16 21 13 23 15 24
REMARK SMILES IDX 14 25 25 26 26 27 27 28 28 29 29 30 30 31 31 32 32 33 33 34
REMARK SMILES IDX 97 35 34 36 96 37 35 38 36 39 37 40 90 41 38 42 95 43 89 44
REMARK SMILES IDX 91 45 39 46 94 47 88 48 87 49 40 51 74 52 53 53 73 54 54 55
REMARK SMILES IDX 57 56 72 57 92 58 55 59 56 60 71 62 93 63 58 64 41 65 42 66
REMARK SMILES IDX 51 67 43 68 44 69 50 70 52 71 45 72 46 73 47 74 48 75 49 76
REMARK SMILES IDX 75 77 76 78 85 79 77 80 78 81 84 82 86 83 79 84 80 85 81 86
REMARK SMILES IDX 82 87 83 88 59 89 60 90 69 91 61 92 62 93 68 94 70 95 63 96
REMARK SMILES IDX 64 97 65 98 66 99 67 100
REMARK H PARENT 11 22 91 50 57 61
REMARK Flexibility Score: inf
ROOT
ATOM      1  C   UNL     1       3.248   4.085   1.410  1.00  0.00     0.188 C 
ENDROOT
BRANCH   1   2
ATOM      2  O   UNL     1       2.009   3.503   1.786  1.00  0.00    -0.377 OA
BRANCH   2   3
ATOM      3  C   UNL     1       1.608   2.354   1.056  1.00  0.00     0.188 C 
BRANCH   3   4
ATOM      4  C   UNL     1       2.370   1.105   1.473  1.00  0.00     0.188 C 
BRANCH   4   5
ATOM      5  O   UNL     1       3.701   0.979   0.980  1.00  0.00    -0.376 OA
BRANCH   5   6
ATOM      6  C   UNL     1       4.001   1.335  -0.361  1.00  0.00     0.202 C 
BRANCH   6   7
ATOM      7  C   UNL     1       3.301   0.598  -1.498  1.00  0.00     0.261 C 
BRANCH   7   8
ATOM      8  O   UNL     1       2.252  -0.276  -1.089  1.00  0.00    -0.463 OA
BRANCH   8   9
ATOM      9  C   UNL     1       2.571  -1.595  -1.066  1.00  0.00     0.312 C 
ATOM     10  O   UNL     1       2.008  -2.403  -1.796  1.00  0.00    -0.252 OA
BRANCH   9  11
ATOM     11  C   UNL     1       3.453  -2.003   0.085  1.00  0.00     0.192 C 
BRANCH  11  12
ATOM     12  C   UNL     1       4.574  -2.957  -0.327  1.00  0.00     0.226 C 
BRANCH  12  13
ATOM     13  C   UNL     1       5.661  -2.320  -1.202  1.00  0.00     0.010 A 
ATOM     14  C   UNL     1       6.078  -2.951  -2.383  1.00  0.00     0.010 A 
ATOM     15  C   UNL     1       6.296  -1.114  -0.857  1.00  0.00     0.010 A 
ATOM     16  C   UNL     1       7.069  -2.381  -3.191  1.00  0.00     0.001 A 
ATOM     17  C   UNL     1       7.277  -0.535  -1.666  1.00  0.00     0.001 A 
ATOM     18  C   UNL     1       7.661  -1.169  -2.839  1.00  0.00     0.000 A 
ENDBRANCH  12  13
BRANCH  12  19
ATOM     19  N   UNL     1       5.049  -3.583   0.940  1.00  0.00    -0.328 N 
ATOM     20  C   UNL     1       5.074  -5.040   0.850  1.00  0.00     0.262 C 
ATOM     21  C   UNL     1       6.252  -2.998   1.539  1.00  0.00     0.262 C 
ATOM     22  H   UNL     1       4.338  -3.338   1.629  1.00  0.00     0.348 HD
ATOM     23  C   UNL     1       5.417  -5.680   2.195  1.00  0.00     0.062 C 
ATOM     24  C   UNL     1       6.656  -3.641   2.863  1.00  0.00     0.062 C 
ATOM     25  C   UNL     1       6.742  -5.151   2.721  1.00  0.00     0.012 C 
ENDBRANCH  12  19
ENDBRANCH  11  12
ENDBRANCH   9  11
ENDBRANCH   8   9
ENDBRANCH   7   8
ENDBRANCH   6   7
ENDBRANCH   5   6
ENDBRANCH   4   5
ENDBRANCH   3   4
ENDBRANCH   2   3
ENDBRANCH   1   2
BRANCH   1  26
ATOM     26  C   UNL     1       4.496   3.612   2.194  1.00  0.00     0.188 C 
BRANCH  26  27
ATOM     27  O   UNL     1       4.492   3.482   3.613  1.00  0.00    -0.376 OA
BRANCH  27  28
ATOM     28  C   UNL     1       3.377   3.947   4.349  1.00  0.00     0.202 C 
BRANCH  28  29
ATOM     29  C   UNL     1       3.303   5.465   4.570  1.00  0.00     0.261 C 
BRANCH  29  30
ATOM     30  O   UNL     1       3.560   6.258   3.399  1.00  0.00    -0.460 OA
BRANCH  30  31
ATOM     31  C   UNL     1       4.853   6.609   3.180  1.00  0.00     0.338 C 
ATOM     32  O   UNL     1       5.788   6.459   3.951  1.00  0.00    -0.246 OA
BRANCH  31  33
ATOM     33  C   UNL     1       5.021   7.026   1.758  1.00  0.00     0.060 A 
ATOM     34  C   UNL     1       6.179   6.616   1.075  1.00  0.00     0.016 A 
ATOM     35  C   UNL     1       4.042   7.758   1.079  1.00  0.00     0.016 A 
ATOM     36  C   UNL     1       6.381   6.965  -0.264  1.00  0.00     0.010 A 
ATOM     37  C   UNL     1       4.254   8.131  -0.254  1.00  0.00     0.010 A 
ATOM     38  C   UNL     1       5.443   7.774  -0.917  1.00  0.00    -0.014 A 
BRANCH  38  39
ATOM     39  C   UNL     1       5.823   8.523  -2.143  1.00  0.00     0.031 A 
ATOM     40  C   UNL     1       6.389   9.903  -1.945  1.00  0.00     0.074 A 
ATOM     41  C   UNL     1       5.629   8.047  -3.386  1.00  0.00     0.049 A 
ATOM     42  N   UNL     1       6.625  10.844  -2.820  1.00  0.00    -0.248 NA
ATOM     43  C   UNL     1       6.713  10.274  -0.556  1.00  0.00     0.031 C 
ATOM     44  C   UNL     1       5.137   6.714  -3.719  1.00  0.00     0.029 A 
ATOM     45  N   UNL     1       5.796   8.662  -4.604  1.00  0.00    -0.354 N 
ATOM     46  C   UNL     1       7.090  11.928  -2.084  1.00  0.00     0.074 A 
ATOM     47  C   UNL     1       7.093  11.532  -0.694  1.00  0.00     0.031 C 
ATOM     48  C   UNL     1       5.000   6.624  -5.055  1.00  0.00     0.029 A 
ATOM     49  C   UNL     1       5.354   7.908  -5.665  1.00  0.00     0.049 A 
ATOM     50  H   UNL     1       6.194   9.556  -4.707  1.00  0.00     0.167 HD
ATOM     51  C   UNL     1       7.471  13.150  -2.522  1.00  0.00     0.037 A 
ATOM     52  C   UNL     1       5.207   8.232  -6.968  1.00  0.00     0.037 A 
ATOM     53  C   UNL     1       7.457  13.545  -3.903  1.00  0.00     0.049 A 
ATOM     54  C   UNL     1       5.588   9.615  -7.440  1.00  0.00     0.074 A 
ATOM     55  C   UNL     1       7.841  14.752  -4.456  1.00  0.00     0.029 A 
ATOM     56  N   UNL     1       7.017  12.744  -4.947  1.00  0.00    -0.354 N 
ATOM     57  N   UNL     1       6.045  10.628  -6.742  1.00  0.00    -0.248 NA
ATOM     58  C   UNL     1       5.431   9.901  -8.874  1.00  0.00     0.031 C 
ATOM     59  C   UNL     1       7.586  14.700  -5.830  1.00  0.00     0.029 A 
ATOM     60  C   UNL     1       7.097  13.439  -6.140  1.00  0.00     0.049 A 
ATOM     61  H   UNL     1       6.695  11.819  -4.853  1.00  0.00     0.167 HD
ATOM     62  C   UNL     1       6.255  11.660  -7.653  1.00  0.00     0.074 A 
ATOM     63  C   UNL     1       5.874  11.150  -8.954  1.00  0.00     0.031 C 
ATOM     64  C   UNL     1       6.727  12.912  -7.432  1.00  0.00     0.037 A 
BRANCH  51  65
ATOM     65  C   UNL     1       7.871  14.153  -1.477  1.00  0.00     0.058 A 
ATOM     66  C   UNL     1       9.054  14.021  -0.732  1.00  0.00     0.135 A 
ATOM     67  C   UNL     1       7.031  15.240  -1.188  1.00  0.00     0.135 A 
ATOM     68  F   UNL     1       9.880  12.985  -0.952  1.00  0.00    -0.206 F 
ATOM     69  C   UNL     1       9.363  14.901   0.300  1.00  0.00     0.059 A 
ATOM     70  C   UNL     1       7.336  16.150  -0.182  1.00  0.00     0.059 A 
ATOM     71  F   UNL     1       5.886  15.410  -1.867  1.00  0.00    -0.206 F 
ATOM     72  C   UNL     1       8.492  15.957   0.574  1.00  0.00     0.060 A 
BRANCH  72  73
ATOM     73  S   UNL     1       8.879  17.065   1.944  1.00  0.00     0.124 S 
ATOM     74  O   UNL     1       8.538  16.232   3.094  1.00  0.00    -0.237 OA
ATOM     75  O   UNL     1      10.303  17.321   1.748  1.00  0.00    -0.237 OA
ATOM     76  O   UNL     1       8.002  18.208   1.715  1.00  0.00    -0.744 OA
ENDBRANCH  72  73
ENDBRANCH  51  65
BRANCH  52  77
ATOM     77  C   UNL     1       4.641   7.231  -7.912  1.00  0.00     0.058 A 
ATOM     78  C   UNL     1       5.445   6.597  -8.870  1.00  0.00     0.135 A 
ATOM     79  C   UNL     1       3.289   6.857  -7.843  1.00  0.00     0.135 A 
ATOM     80  F   UNL     1       6.738   6.934  -8.990  1.00  0.00    -0.206 F 
ATOM     81  C   UNL     1       4.935   5.615  -9.715  1.00  0.00     0.059 A 
ATOM     82  C   UNL     1       2.761   5.863  -8.662  1.00  0.00     0.059 A 
ATOM     83  F   UNL     1       2.477   7.433  -6.943  1.00  0.00    -0.206 F 
ATOM     84  C   UNL     1       3.594   5.245  -9.593  1.00  0.00     0.060 A 
BRANCH  84  85
ATOM     85  S   UNL     1       2.974   3.890 -10.615  1.00  0.00     0.124 S 
ATOM     86  O   UNL     1       2.914   4.516 -11.931  1.00  0.00    -0.237 OA
ATOM     87  O   UNL     1       4.008   2.876 -10.435  1.00  0.00    -0.237 OA
ATOM     88  O   UNL     1       1.685   3.574 -10.006  1.00  0.00    -0.744 OA
ENDBRANCH  84  85
ENDBRANCH  52  77
BRANCH  64  89
ATOM     89  C   UNL     1       6.914  13.822  -8.617  1.00  0.00     0.058 A 
ATOM     90  C   UNL     1       5.830  14.447  -9.251  1.00  0.00     0.135 A 
ATOM     91  C   UNL     1       8.209  14.158  -9.047  1.00  0.00     0.135 A 
ATOM     92  F   UNL     1       4.572  14.158  -8.881  1.00  0.00    -0.206 F 
ATOM     93  C   UNL     1       6.023  15.373 -10.272  1.00  0.00     0.059 A 
ATOM     94  C   UNL     1       8.425  15.099 -10.049  1.00  0.00     0.059 A 
ATOM     95  F   UNL     1       9.281  13.597  -8.465  1.00  0.00    -0.206 F 
ATOM     96  C   UNL     1       7.325  15.699 -10.658  1.00  0.00     0.060 A 
BRANCH  96  97
ATOM     97  S   UNL     1       7.564  16.955 -11.934  1.00  0.00     0.124 S 
ATOM     98  O   UNL     1       7.170  16.230 -13.137  1.00  0.00    -0.237 OA
ATOM     99  O   UNL     1       6.655  18.013 -11.505  1.00  0.00    -0.237 OA
ATOM    100  O   UNL     1       8.984  17.277 -11.832  1.00  0.00    -0.744 OA
ENDBRANCH  96  97
ENDBRANCH  64  89
ENDBRANCH  38  39
ENDBRANCH  31  33
ENDBRANCH  30  31
ENDBRANCH  29  30
ENDBRANCH  28  29
ENDBRANCH  27  28
ENDBRANCH  26  27
ENDBRANCH   1  26
TORSDOF 26
