REMARK SMILES CC1(C)CC[C@@]2(C(=O)OCCOCCOCCOCCOC(=O)c3ccc(-c4c5nc(c(-c6c(F)cc(S(=O)(=O)[O-])cc6F)c6ccc([nH]6)c(-c6c(F)cc(S(=O)(=O)[O-])cc6F)c6nc(c(-c7c(F)cc(S(=O)(=O)[O-])cc7F)c7ccc4[nH]7)C=C6)C=C5)cc3)CC[C@@]3(C)C(=CC[C@H]4[C@@]5(C)CC[C@H](O)C(C)(C)[C@@H]5CC[C@]43C)[C@@H]2C1
REMARK SMILES IDX 16 1 15 2 14 3 13 4 12 5 11 6 10 7 9 8 7 9 8 10 6 11 1 12
REMARK SMILES IDX 2 13 3 14 4 15 113 16 5 17 112 18 94 19 90 20 92 21 95 22
REMARK SMILES IDX 91 23 93 24 110 25 96 26 97 27 109 28 111 29 98 30 108 31
REMARK SMILES IDX 99 32 100 33 107 34 101 35 104 36 102 37 105 38 106 39
REMARK SMILES IDX 103 40 17 42 18 43 19 44 20 45 21 46 22 47 23 48 24 49 25 50
REMARK SMILES IDX 89 51 26 52 88 53 27 54 28 55 29 56 82 57 30 58 87 59 81 60
REMARK SMILES IDX 83 61 31 62 86 63 80 64 79 65 32 67 66 68 45 69 65 70 46 71
REMARK SMILES IDX 49 72 64 73 84 74 47 75 48 76 63 78 85 79 50 80 33 81 34 82
REMARK SMILES IDX 43 83 35 84 36 85 42 86 44 87 37 88 38 89 39 90 40 91 41 92
REMARK SMILES IDX 67 93 68 94 77 95 69 96 70 97 76 98 78 99 71 100 72 101
REMARK SMILES IDX 73 102 74 103 75 104 51 105 52 106 61 107 53 108 54 109
REMARK SMILES IDX 60 110 62 111 55 112 56 113 57 114 58 115 59 116
REMARK H PARENT 103 41 83 66 49 77
REMARK Flexibility Score: inf
ROOT
ATOM      1  C   UNL     1      -4.966   2.285  -4.606  1.00  0.00     0.188 C 
ENDROOT
BRANCH   1   2
ATOM      2  O   UNL     1      -4.639   0.941  -4.948  1.00  0.00    -0.377 OA
BRANCH   2   3
ATOM      3  C   UNL     1      -4.883  -0.128  -4.036  1.00  0.00     0.188 C 
BRANCH   3   4
ATOM      4  C   UNL     1      -4.447   0.042  -2.580  1.00  0.00     0.188 C 
BRANCH   4   5
ATOM      5  O   UNL     1      -3.324   0.852  -2.437  1.00  0.00    -0.376 OA
BRANCH   5   6
ATOM      6  C   UNL     1      -2.273   0.488  -3.314  1.00  0.00     0.202 C 
BRANCH   6   7
ATOM      7  C   UNL     1      -1.101  -0.127  -2.579  1.00  0.00     0.261 C 
BRANCH   7   8
ATOM      8  O   UNL     1      -1.259   0.210  -1.250  1.00  0.00    -0.463 OA
BRANCH   8   9
ATOM      9  C   UNL     1      -1.050   1.537  -1.216  1.00  0.00     0.312 C 
ATOM     10  O   UNL     1      -0.729   2.159  -2.179  1.00  0.00    -0.252 OA
BRANCH   9  11
ATOM     11  C   UNL     1      -1.212   2.088   0.154  1.00  0.00     0.075 C 
ATOM     12  C   UNL     1       1.685  -0.507   2.025  1.00  0.00     0.011 C 
ATOM     13  C   UNL     1       0.914   0.025   0.791  1.00  0.00    -0.035 C 
ATOM     14  C   UNL     1       1.494  -0.872  -0.367  1.00  0.00     0.011 C 
ATOM     15  C   UNL     1      -0.576  -0.292   1.103  1.00  0.00     0.007 C 
ATOM     16  C   UNL     1       1.264   1.565   0.489  1.00  0.00     0.015 C 
ATOM     17  C   UNL     1      -1.515   0.943   1.177  1.00  0.00     0.020 C 
ATOM     18  C   UNL     1       0.157   2.726   0.341  1.00  0.00     0.033 C 
ATOM     19  C   UNL     1       0.429   3.870  -0.797  1.00  0.00    -0.063 C 
ATOM     20  C   UNL     1      -2.309   3.170   0.059  1.00  0.00     0.020 C 
ATOM     21  C   UNL     1      -0.752   4.551  -1.686  1.00  0.00    -0.006 C 
ATOM     22  C   UNL     1       1.685   3.982  -1.273  1.00  0.00    -0.027 C 
ATOM     23  C   UNL     1      -2.226   4.050  -1.250  1.00  0.00     0.013 C 
ATOM     24  C   UNL     1      -0.812   5.998  -1.036  1.00  0.00     0.017 C 
ATOM     25  C   UNL     1      -0.290   4.579  -3.486  1.00  0.00    -0.020 C 
ATOM     26  C   UNL     1       2.100   3.791  -2.718  1.00  0.00     0.032 C 
ATOM     27  C   UNL     1       1.046   3.725  -3.838  1.00  0.00     0.006 C 
ATOM     28  C   UNL     1      -1.262   4.311  -4.777  1.00  0.00     0.008 C 
ATOM     29  C   UNL     1       0.062   6.125  -3.724  1.00  0.00     0.012 C 
ATOM     30  C   UNL     1       1.135   2.371  -4.896  1.00  0.00    -0.025 C 
ATOM     31  C   UNL     1      -0.880   3.283  -5.998  1.00  0.00     0.005 C 
ATOM     32  C   UNL     1       2.061   2.845  -6.066  1.00  0.00     0.012 C 
ATOM     33  C   UNL     1       1.862   1.139  -4.275  1.00  0.00     0.010 C 
ATOM     34  C   UNL     1      -0.236   1.965  -5.517  1.00  0.00     0.003 C 
ATOM     35  C   UNL     1       1.634  -0.275  -4.845  1.00  0.00     0.033 C 
ATOM     36  C   UNL     1      -0.395   0.446  -6.221  1.00  0.00    -0.006 C 
ATOM     37  C   UNL     1       0.232  -0.636  -5.315  1.00  0.00     0.120 C 
ATOM     38  C   UNL     1       0.355   0.224  -7.492  1.00  0.00     0.014 C 
ATOM     39  C   UNL     1      -1.849  -0.005  -6.595  1.00  0.00     0.014 C 
BRANCH  37  40
ATOM     40  O   UNL     1       0.203  -1.964  -5.868  1.00  0.00    -0.393 OA
ATOM     41  H   UNL     1       0.771  -2.000  -6.653  1.00  0.00     0.210 HD
ENDBRANCH  37  40
ENDBRANCH   9  11
ENDBRANCH   8   9
ENDBRANCH   7   8
ENDBRANCH   6   7
ENDBRANCH   5   6
ENDBRANCH   4   5
ENDBRANCH   3   4
ENDBRANCH   2   3
ENDBRANCH   1   2
BRANCH   1  42
ATOM     42  C   UNL     1      -4.334   3.235  -5.652  1.00  0.00     0.188 C 
BRANCH  42  43
ATOM     43  O   UNL     1      -4.852   3.361  -6.978  1.00  0.00    -0.376 OA
BRANCH  43  44
ATOM     44  C   UNL     1      -4.950   2.165  -7.731  1.00  0.00     0.202 C 
BRANCH  44  45
ATOM     45  C   UNL     1      -3.952   1.827  -8.889  1.00  0.00     0.261 C 
BRANCH  45  46
ATOM     46  O   UNL     1      -2.521   2.102  -8.834  1.00  0.00    -0.460 OA
BRANCH  46  47
ATOM     47  C   UNL     1      -1.906   2.149 -10.075  1.00  0.00     0.338 C 
ATOM     48  O   UNL     1      -2.494   2.355 -11.129  1.00  0.00    -0.246 OA
BRANCH  47  49
ATOM     49  C   UNL     1      -0.470   1.683 -10.108  1.00  0.00     0.060 A 
ATOM     50  C   UNL     1       0.647   2.487  -9.805  1.00  0.00     0.016 A 
ATOM     51  C   UNL     1      -0.219   0.345 -10.447  1.00  0.00     0.016 A 
ATOM     52  C   UNL     1       1.977   1.927  -9.715  1.00  0.00     0.010 A 
ATOM     53  C   UNL     1       1.084  -0.214 -10.294  1.00  0.00     0.010 A 
ATOM     54  C   UNL     1       2.221   0.552  -9.901  1.00  0.00    -0.014 A 
BRANCH  54  55
ATOM     55  C   UNL     1       3.612  -0.107  -9.897  1.00  0.00     0.031 A 
ATOM     56  C   UNL     1       4.018  -0.727 -11.220  1.00  0.00     0.074 A 
ATOM     57  C   UNL     1       4.496  -0.285  -8.870  1.00  0.00     0.049 A 
ATOM     58  N   UNL     1       5.030  -1.501 -11.517  1.00  0.00    -0.248 NA
ATOM     59  C   UNL     1       3.092  -0.499 -12.341  1.00  0.00     0.031 C 
ATOM     60  C   UNL     1       4.338   0.151  -7.488  1.00  0.00     0.029 A 
ATOM     61  N   UNL     1       5.739  -0.923  -8.828  1.00  0.00    -0.354 N 
ATOM     62  C   UNL     1       4.819  -1.870 -12.837  1.00  0.00     0.074 A 
ATOM     63  C   UNL     1       3.504  -1.403 -13.206  1.00  0.00     0.031 C 
ATOM     64  C   UNL     1       5.402  -0.222  -6.744  1.00  0.00     0.029 A 
ATOM     65  C   UNL     1       6.369  -0.921  -7.588  1.00  0.00     0.049 A 
ATOM     66  H   UNL     1       6.141  -1.345  -9.621  1.00  0.00     0.167 HD
ATOM     67  C   UNL     1       5.664  -2.428 -13.731  1.00  0.00     0.037 A 
ATOM     68  C   UNL     1       7.578  -1.393  -7.176  1.00  0.00     0.037 A 
ATOM     69  C   UNL     1       7.014  -2.806 -13.454  1.00  0.00     0.049 A 
ATOM     70  C   UNL     1       8.519  -2.042  -8.182  1.00  0.00     0.074 A 
ATOM     71  C   UNL     1       7.958  -3.301 -14.333  1.00  0.00     0.029 A 
ATOM     72  N   UNL     1       7.619  -2.714 -12.214  1.00  0.00    -0.354 N 
ATOM     73  N   UNL     1       8.336  -2.260  -9.462  1.00  0.00    -0.248 NA
ATOM     74  C   UNL     1       9.841  -2.486  -7.696  1.00  0.00     0.031 C 
ATOM     75  C   UNL     1       9.131  -3.546 -13.614  1.00  0.00     0.029 A 
ATOM     76  C   UNL     1       8.926  -3.157 -12.301  1.00  0.00     0.049 A 
ATOM     77  H   UNL     1       7.185  -2.385 -11.394  1.00  0.00     0.167 HD
ATOM     78  C   UNL     1       9.532  -2.804  -9.937  1.00  0.00     0.074 A 
ATOM     79  C   UNL     1      10.434  -2.888  -8.812  1.00  0.00     0.031 C 
ATOM     80  C   UNL     1       9.848  -3.193 -11.196  1.00  0.00     0.037 A 
BRANCH  67  81
ATOM     81  C   UNL     1       5.137  -2.581 -15.126  1.00  0.00     0.058 A 
ATOM     82  C   UNL     1       4.856  -1.456 -15.923  1.00  0.00     0.135 A 
ATOM     83  C   UNL     1       4.840  -3.849 -15.639  1.00  0.00     0.135 A 
ATOM     84  F   UNL     1       5.091  -0.218 -15.457  1.00  0.00    -0.206 F 
ATOM     85  C   UNL     1       4.233  -1.582 -17.155  1.00  0.00     0.059 A 
ATOM     86  C   UNL     1       4.258  -4.000 -16.892  1.00  0.00     0.059 A 
ATOM     87  F   UNL     1       5.085  -4.950 -14.912  1.00  0.00    -0.206 F 
ATOM     88  C   UNL     1       3.935  -2.860 -17.628  1.00  0.00     0.060 A 
BRANCH  88  89
ATOM     89  S   UNL     1       3.113  -3.006 -19.225  1.00  0.00     0.124 S 
ATOM     90  O   UNL     1       1.757  -2.582 -18.893  1.00  0.00    -0.237 OA
ATOM     91  O   UNL     1       3.881  -2.082 -20.054  1.00  0.00    -0.237 OA
ATOM     92  O   UNL     1       3.268  -4.418 -19.556  1.00  0.00    -0.744 OA
ENDBRANCH  88  89
ENDBRANCH  67  81
BRANCH  68  93
ATOM     93  C   UNL     1       8.071  -1.243  -5.756  1.00  0.00     0.058 A 
ATOM     94  C   UNL     1       9.158  -0.399  -5.450  1.00  0.00     0.135 A 
ATOM     95  C   UNL     1       7.573  -2.030  -4.704  1.00  0.00     0.135 A 
ATOM     96  F   UNL     1       9.713   0.348  -6.417  1.00  0.00    -0.206 F 
ATOM     97  C   UNL     1       9.742  -0.360  -4.181  1.00  0.00     0.059 A 
ATOM     98  C   UNL     1       8.126  -1.991  -3.418  1.00  0.00     0.059 A 
ATOM     99  F   UNL     1       6.551  -2.872  -4.923  1.00  0.00    -0.206 F 
ATOM    100  C   UNL     1       9.219  -1.161  -3.168  1.00  0.00     0.060 A 
BRANCH 100 101
ATOM    101  S   UNL     1       9.968  -1.080  -1.519  1.00  0.00     0.124 S 
ATOM    102  O   UNL     1      11.250  -1.741  -1.738  1.00  0.00    -0.237 OA
ATOM    103  O   UNL     1      10.027   0.359  -1.281  1.00  0.00    -0.237 OA
ATOM    104  O   UNL     1       9.019  -1.808  -0.682  1.00  0.00    -0.744 OA
ENDBRANCH 100 101
ENDBRANCH  68  93
BRANCH  80 105
ATOM    105  C   UNL     1      11.243  -3.682 -11.486  1.00  0.00     0.058 A 
ATOM    106  C   UNL     1      11.694  -4.941 -11.063  1.00  0.00     0.135 A 
ATOM    107  C   UNL     1      12.093  -2.930 -12.316  1.00  0.00     0.135 A 
ATOM    108  F   UNL     1      10.923  -5.704 -10.271  1.00  0.00    -0.206 F 
ATOM    109  C   UNL     1      12.938  -5.435 -11.447  1.00  0.00     0.059 A 
ATOM    110  C   UNL     1      13.327  -3.416 -12.737  1.00  0.00     0.059 A 
ATOM    111  F   UNL     1      11.706  -1.725 -12.766  1.00  0.00    -0.206 F 
ATOM    112  C   UNL     1      13.744  -4.670 -12.293  1.00  0.00     0.060 A 
BRANCH 112 113
ATOM    113  S   UNL     1      15.323  -5.353 -12.842  1.00  0.00     0.124 S 
ATOM    114  O   UNL     1      16.121  -5.266 -11.624  1.00  0.00    -0.237 OA
ATOM    115  O   UNL     1      14.951  -6.701 -13.261  1.00  0.00    -0.237 OA
ATOM    116  O   UNL     1      15.726  -4.458 -13.922  1.00  0.00    -0.744 OA
ENDBRANCH 112 113
ENDBRANCH  80 105
ENDBRANCH  54  55
ENDBRANCH  47  49
ENDBRANCH  46  47
ENDBRANCH  45  46
ENDBRANCH  44  45
ENDBRANCH  43  44
ENDBRANCH  42  43
ENDBRANCH   1  42
TORSDOF 24
