REMARK SMILES CC(C)[C@H](C)CNC(=O)N1CC(n2cc(C(=O)OCCOCCOCCOCCOC(=O)c3ccc(-c4c5nc(c(-c6c(F)cc(S(=O)(=O)[O-])cc6F)c6ccc([nH]6)c(-c6c(F)cc(S(=O)(=O)[O-])cc6F)c6nc(c(-c7c(F)cc(S(=O)(=O)[O-])cc7F)c7ccc4[nH]7)C=C6)C=C5)cc3)nn2)C1
REMARK SMILES IDX 23 1 22 2 21 3 20 4 19 5 18 6 16 7 17 8 15 9 13 10 14 11
REMARK SMILES IDX 100 12 99 13 12 14 7 15 8 16 9 18 10 19 11 20 101 21 6 22
REMARK SMILES IDX 4 23 5 24 2 25 1 26 3 27 24 28 25 29 26 30 27 31 28 32 29 33
REMARK SMILES IDX 30 34 31 35 32 36 33 37 34 38 98 39 35 40 97 41 36 42 37 43
REMARK SMILES IDX 38 44 91 45 39 46 96 47 90 48 92 49 40 50 95 51 89 52 88 53
REMARK SMILES IDX 41 55 75 56 54 57 74 58 55 59 58 60 73 61 93 62 56 63 57 64
REMARK SMILES IDX 72 66 94 67 59 68 42 69 43 70 52 71 44 72 45 73 51 74 53 75
REMARK SMILES IDX 46 76 47 77 48 78 49 79 50 80 76 81 77 82 86 83 78 84 79 85
REMARK SMILES IDX 85 86 87 87 80 88 81 89 82 90 83 91 84 92 60 93 61 94 70 95
REMARK SMILES IDX 62 96 63 97 69 98 71 99 64 100 65 101 66 102 67 103 68 104
REMARK H PARENT 7 17 92 54 58 65
REMARK Flexibility Score: inf
ROOT
ATOM      1  C   UNL     1     -10.738   5.475   2.296  1.00  0.00     0.188 C 
ENDROOT
BRANCH   1   2
ATOM      2  C   UNL     1     -11.506   4.269   1.707  1.00  0.00     0.188 C 
BRANCH   2   3
ATOM      3  O   UNL     1     -12.358   3.437   2.492  1.00  0.00    -0.376 OA
BRANCH   3   4
ATOM      4  C   UNL     1     -12.143   3.214   3.874  1.00  0.00     0.202 C 
BRANCH   4   5
ATOM      5  C   UNL     1     -10.816   2.631   4.378  1.00  0.00     0.261 C 
BRANCH   5   6
ATOM      6  O   UNL     1      -9.652   3.030   3.652  1.00  0.00    -0.458 OA
BRANCH   6   7
ATOM      7  C   UNL     1      -9.302   2.207   2.628  1.00  0.00     0.360 C 
ATOM      8  O   UNL     1      -9.817   1.109   2.411  1.00  0.00    -0.244 OA
BRANCH   7   9
ATOM      9  C   UNL     1      -8.305   2.803   1.757  1.00  0.00     0.190 A 
ATOM     10  N   UNL     1      -6.716   3.966   0.854  1.00  0.00    -0.245 N 
ATOM     11  C   UNL     1      -7.433   3.848   2.012  1.00  0.00     0.147 A 
ATOM     12  N   UNL     1      -7.164   3.118  -0.084  1.00  0.00    -0.066 NA
ATOM     13  N   UNL     1      -8.133   2.397   0.456  1.00  0.00    -0.123 NA
BRANCH  10  14
ATOM     14  C   UNL     1      -5.494   4.703   0.753  1.00  0.00     0.148 C 
ATOM     15  N   UNL     1      -1.371   3.710   0.748  1.00  0.00    -0.338 N 
ATOM     16  C   UNL     1      -2.282   4.305  -0.064  1.00  0.00     0.317 C 
ATOM     17  H   UNL     1      -0.487   4.143   0.768  1.00  0.00     0.165 HD
ATOM     18  O   UNL     1      -1.871   4.992  -0.998  1.00  0.00    -0.249 OA
ATOM     19  N   UNL     1      -3.601   4.131   0.178  1.00  0.00    -0.320 N 
ATOM     20  C   UNL     1      -4.747   4.616  -0.585  1.00  0.00     0.150 C 
ATOM     21  C   UNL     1      -4.363   3.866   1.375  1.00  0.00     0.150 C 
BRANCH  15  22
ATOM     22  C   UNL     1      -1.497   2.531   1.595  1.00  0.00     0.121 C 
BRANCH  22  23
ATOM     23  C   UNL     1      -1.115   1.243   0.831  1.00  0.00     0.008 C 
ATOM     24  C   UNL     1       0.407   1.242   0.596  1.00  0.00     0.010 C 
BRANCH  23  25
ATOM     25  C   UNL     1      -1.545  -0.082   1.537  1.00  0.00    -0.013 C 
ATOM     26  C   UNL     1      -2.929  -0.029   2.191  1.00  0.00     0.008 C 
ATOM     27  C   UNL     1      -1.539  -1.253   0.540  1.00  0.00     0.008 C 
ENDBRANCH  23  25
ENDBRANCH  22  23
ENDBRANCH  15  22
ENDBRANCH  10  14
ENDBRANCH   7   9
ENDBRANCH   6   7
ENDBRANCH   5   6
ENDBRANCH   4   5
ENDBRANCH   3   4
ENDBRANCH   2   3
ENDBRANCH   1   2
BRANCH   1  28
ATOM     28  O   UNL     1     -10.842   5.612   3.703  1.00  0.00    -0.377 OA
BRANCH  28  29
ATOM     29  C   UNL     1     -11.785   6.588   4.148  1.00  0.00     0.188 C 
BRANCH  29  30
ATOM     30  C   UNL     1     -13.210   6.542   3.538  1.00  0.00     0.188 C 
BRANCH  30  31
ATOM     31  O   UNL     1     -13.229   6.375   2.123  1.00  0.00    -0.376 OA
BRANCH  31  32
ATOM     32  C   UNL     1     -13.673   7.432   1.285  1.00  0.00     0.202 C 
BRANCH  32  33
ATOM     33  C   UNL     1     -12.669   8.561   1.071  1.00  0.00     0.261 C 
BRANCH  33  34
ATOM     34  O   UNL     1     -12.069   9.004   2.273  1.00  0.00    -0.460 OA
BRANCH  34  35
ATOM     35  C   UNL     1     -12.900   9.581   3.157  1.00  0.00     0.338 C 
ATOM     36  O   UNL     1     -14.122   9.655   3.084  1.00  0.00    -0.246 OA
BRANCH  35  37
ATOM     37  C   UNL     1     -12.088  10.209   4.197  1.00  0.00     0.060 A 
ATOM     38  C   UNL     1     -12.795  10.956   5.136  1.00  0.00     0.016 A 
ATOM     39  C   UNL     1     -10.711  10.375   3.968  1.00  0.00     0.016 A 
ATOM     40  C   UNL     1     -12.204  12.107   5.582  1.00  0.00     0.010 A 
ATOM     41  C   UNL     1     -10.129  11.531   4.401  1.00  0.00     0.010 A 
ATOM     42  C   UNL     1     -10.935  12.428   5.090  1.00  0.00    -0.014 A 
BRANCH  42  43
ATOM     43  C   UNL     1     -10.469  13.771   5.309  1.00  0.00     0.031 A 
ATOM     44  C   UNL     1     -10.012  13.982   6.691  1.00  0.00     0.074 A 
ATOM     45  C   UNL     1     -10.417  14.667   4.309  1.00  0.00     0.049 A 
ATOM     46  N   UNL     1     -10.586  14.672   7.615  1.00  0.00    -0.248 NA
ATOM     47  C   UNL     1      -8.899  13.139   7.158  1.00  0.00     0.031 C 
ATOM     48  C   UNL     1     -10.583  14.441   2.869  1.00  0.00     0.029 A 
ATOM     49  N   UNL     1     -10.090  15.979   4.374  1.00  0.00    -0.354 N 
ATOM     50  C   UNL     1      -9.751  14.552   8.716  1.00  0.00     0.074 A 
ATOM     51  C   UNL     1      -8.886  13.431   8.457  1.00  0.00     0.031 C 
ATOM     52  C   UNL     1     -10.118  15.520   2.198  1.00  0.00     0.029 A 
ATOM     53  C   UNL     1      -9.742  16.545   3.158  1.00  0.00     0.049 A 
ATOM     54  H   UNL     1     -10.098  16.489   5.216  1.00  0.00     0.167 HD
ATOM     55  C   UNL     1      -9.626  15.565   9.612  1.00  0.00     0.037 A 
ATOM     56  C   UNL     1      -9.083  17.721   3.001  1.00  0.00     0.037 A 
ATOM     57  C   UNL     1     -10.736  16.480   9.534  1.00  0.00     0.049 A 
ATOM     58  C   UNL     1      -9.246  18.484   4.274  1.00  0.00     0.074 A 
ATOM     59  C   UNL     1     -12.106  16.344   9.666  1.00  0.00     0.029 A 
ATOM     60  N   UNL     1     -10.540  17.682   8.895  1.00  0.00    -0.354 N 
ATOM     61  N   UNL     1     -10.391  18.947   4.703  1.00  0.00    -0.248 NA
ATOM     62  C   UNL     1      -8.227  18.316   5.301  1.00  0.00     0.031 C 
ATOM     63  C   UNL     1     -12.665  17.223   8.694  1.00  0.00     0.029 A 
ATOM     64  C   UNL     1     -11.612  17.885   8.060  1.00  0.00     0.049 A 
ATOM     65  H   UNL     1      -9.772  18.286   9.013  1.00  0.00     0.167 HD
ATOM     66  C   UNL     1     -10.375  18.743   6.077  1.00  0.00     0.074 A 
ATOM     67  C   UNL     1      -8.985  18.426   6.396  1.00  0.00     0.031 C 
ATOM     68  C   UNL     1     -11.531  18.565   6.784  1.00  0.00     0.037 A 
BRANCH  55  69
ATOM     69  C   UNL     1      -8.311  15.913  10.256  1.00  0.00     0.058 A 
ATOM     70  C   UNL     1      -8.290  16.816  11.333  1.00  0.00     0.135 A 
ATOM     71  C   UNL     1      -7.051  15.604   9.689  1.00  0.00     0.135 A 
ATOM     72  F   UNL     1      -9.432  17.192  11.929  1.00  0.00    -0.206 F 
ATOM     73  C   UNL     1      -7.111  17.416  11.774  1.00  0.00     0.059 A 
ATOM     74  C   UNL     1      -5.860  16.138  10.154  1.00  0.00     0.059 A 
ATOM     75  F   UNL     1      -6.918  14.852   8.590  1.00  0.00    -0.206 F 
ATOM     76  C   UNL     1      -5.904  17.079  11.166  1.00  0.00     0.060 A 
BRANCH  76  77
ATOM     77  S   UNL     1      -4.396  17.936  11.644  1.00  0.00     0.124 S 
ATOM     78  O   UNL     1      -4.637  19.265  11.095  1.00  0.00    -0.237 OA
ATOM     79  O   UNL     1      -4.435  17.825  13.098  1.00  0.00    -0.237 OA
ATOM     80  O   UNL     1      -3.348  17.160  10.989  1.00  0.00    -0.744 OA
ENDBRANCH  76  77
ENDBRANCH  55  69
BRANCH  56  81
ATOM     81  C   UNL     1      -8.010  18.014   2.012  1.00  0.00     0.058 A 
ATOM     82  C   UNL     1      -7.552  19.326   1.803  1.00  0.00     0.135 A 
ATOM     83  C   UNL     1      -7.227  16.988   1.441  1.00  0.00     0.135 A 
ATOM     84  F   UNL     1      -8.218  20.364   2.332  1.00  0.00    -0.206 F 
ATOM     85  C   UNL     1      -6.368  19.602   1.108  1.00  0.00     0.059 A 
ATOM     86  C   UNL     1      -6.054  17.238   0.733  1.00  0.00     0.059 A 
ATOM     87  F   UNL     1      -7.525  15.694   1.633  1.00  0.00    -0.206 F 
ATOM     88  C   UNL     1      -5.616  18.547   0.590  1.00  0.00     0.060 A 
BRANCH  88  89
ATOM     89  S   UNL     1      -4.006  18.880  -0.162  1.00  0.00     0.124 S 
ATOM     90  O   UNL     1      -4.385  19.558  -1.396  1.00  0.00    -0.237 OA
ATOM     91  O   UNL     1      -3.359  19.709   0.850  1.00  0.00    -0.237 OA
ATOM     92  O   UNL     1      -3.430  17.548  -0.333  1.00  0.00    -0.744 OA
ENDBRANCH  88  89
ENDBRANCH  56  81
BRANCH  68  93
ATOM     93  C   UNL     1     -12.839  18.876   6.100  1.00  0.00     0.058 A 
ATOM     94  C   UNL     1     -13.336  18.174   4.986  1.00  0.00     0.135 A 
ATOM     95  C   UNL     1     -13.695  19.815   6.695  1.00  0.00     0.135 A 
ATOM     96  F   UNL     1     -12.629  17.184   4.426  1.00  0.00    -0.206 F 
ATOM     97  C   UNL     1     -14.606  18.427   4.462  1.00  0.00     0.059 A 
ATOM     98  C   UNL     1     -14.977  20.061   6.209  1.00  0.00     0.059 A 
ATOM     99  F   UNL     1     -13.307  20.471   7.801  1.00  0.00    -0.206 F 
ATOM    100  C   UNL     1     -15.421  19.372   5.083  1.00  0.00     0.060 A 
BRANCH 100 101
ATOM    101  S   UNL     1     -17.094  19.640   4.455  1.00  0.00     0.124 S 
ATOM    102  O   UNL     1     -16.843  20.346   3.203  1.00  0.00    -0.237 OA
ATOM    103  O   UNL     1     -17.606  18.279   4.324  1.00  0.00    -0.237 OA
ATOM    104  O   UNL     1     -17.729  20.436   5.504  1.00  0.00    -0.744 OA
ENDBRANCH 100 101
ENDBRANCH  68  93
ENDBRANCH  42  43
ENDBRANCH  35  37
ENDBRANCH  34  35
ENDBRANCH  33  34
ENDBRANCH  32  33
ENDBRANCH  31  32
ENDBRANCH  30  31
ENDBRANCH  29  30
ENDBRANCH  28  29
ENDBRANCH   1  28
TORSDOF 27
