REMARK SMILES CC(C)C[N@@H+](C)CCC(=O)OCCOCCOCCOCCOC(=O)c1ccc(-c2c3nc(c(-c4c(F)cc(S(=O)(=O)[O-])cc4F)c4ccc([nH]4)c(-c4c(F)cc(S(=O)(=O)[O-])cc4F)c4nc(c(-c5c(F)cc(S(=O)(=O)[O-])cc5F)c5ccc2[nH]5)C=C4)C=C3)cc1
REMARK SMILES IDX 16 1 15 2 14 3 13 4 12 5 11 6 9 7 10 8 8 9 7 10 5 11 6 12
REMARK SMILES IDX 4 14 2 15 1 16 3 17 17 18 18 19 19 20 20 21 21 22 22 23
REMARK SMILES IDX 23 24 24 25 25 26 26 27 27 28 91 29 28 30 90 31 29 32 30 33
REMARK SMILES IDX 31 34 84 35 32 36 89 37 83 38 85 39 33 40 88 41 82 42 81 43
REMARK SMILES IDX 34 45 68 46 47 47 67 48 48 49 51 50 66 51 86 52 49 53 50 54
REMARK SMILES IDX 65 56 87 57 52 58 35 59 36 60 45 61 37 62 38 63 44 64 46 65
REMARK SMILES IDX 39 66 40 67 41 68 42 69 43 70 69 71 70 72 79 73 71 74 72 75
REMARK SMILES IDX 78 76 80 77 73 78 74 79 75 80 76 81 77 82 53 83 54 84 63 85
REMARK SMILES IDX 55 86 56 87 62 88 64 89 57 90 58 91 59 92 60 93 61 94
REMARK H PARENT 5 13 85 44 51 55
REMARK Flexibility Score: inf
ROOT
ATOM      1  C   UNL     1       1.912   2.182  -1.158  1.00  0.00     0.188 C 
ENDROOT
BRANCH   1   2
ATOM      2  C   UNL     1       0.507   2.556  -1.625  1.00  0.00     0.188 C 
BRANCH   2   3
ATOM      3  O   UNL     1       0.056   3.795  -1.075  1.00  0.00    -0.376 OA
BRANCH   3   4
ATOM      4  C   UNL     1      -0.681   3.668   0.148  1.00  0.00     0.202 C 
BRANCH   4   5
ATOM      5  C   UNL     1      -2.167   3.372  -0.079  1.00  0.00     0.261 C 
BRANCH   5   6
ATOM      6  O   UNL     1      -2.403   1.960  -0.257  1.00  0.00    -0.463 OA
BRANCH   6   7
ATOM      7  C   UNL     1      -2.733   1.514  -1.488  1.00  0.00     0.311 C 
ATOM      8  O   UNL     1      -2.837   2.219  -2.484  1.00  0.00    -0.252 OA
BRANCH   7   9
ATOM      9  C   UNL     1      -3.029   0.032  -1.513  1.00  0.00     0.184 C 
BRANCH   9  10
ATOM     10  C   UNL     1      -2.130  -0.883  -0.664  1.00  0.00     0.273 C 
BRANCH  10  11
ATOM     11  N   UNL     1      -2.476  -1.245   0.727  1.00  0.00    -0.337 N 
ATOM     12  C   UNL     1      -3.919  -1.315   0.953  1.00  0.00     0.332 C 
ATOM     13  H   UNL     1      -2.092  -2.184   0.836  1.00  0.00     0.347 HD
BRANCH  11  14
ATOM     14  C   UNL     1      -1.827  -0.415   1.752  1.00  0.00     0.264 C 
BRANCH  14  15
ATOM     15  C   UNL     1      -0.399  -0.827   2.185  1.00  0.00     0.038 C 
ATOM     16  C   UNL     1       0.564  -1.207   1.065  1.00  0.00     0.013 C 
ATOM     17  C   UNL     1       0.203   0.321   3.006  1.00  0.00     0.013 C 
ENDBRANCH  14  15
ENDBRANCH  11  14
ENDBRANCH  10  11
ENDBRANCH   9  10
ENDBRANCH   7   9
ENDBRANCH   6   7
ENDBRANCH   5   6
ENDBRANCH   4   5
ENDBRANCH   3   4
ENDBRANCH   2   3
ENDBRANCH   1   2
BRANCH   1  18
ATOM     18  O   UNL     1       1.928   2.046   0.262  1.00  0.00    -0.377 OA
BRANCH  18  19
ATOM     19  C   UNL     1       2.812   2.961   0.904  1.00  0.00     0.188 C 
BRANCH  19  20
ATOM     20  C   UNL     1       3.998   2.231   1.531  1.00  0.00     0.188 C 
BRANCH  20  21
ATOM     21  O   UNL     1       4.700   1.363   0.641  1.00  0.00    -0.376 OA
BRANCH  21  22
ATOM     22  C   UNL     1       4.204   0.018   0.600  1.00  0.00     0.202 C 
BRANCH  22  23
ATOM     23  C   UNL     1       4.641  -0.871   1.775  1.00  0.00     0.261 C 
BRANCH  23  24
ATOM     24  O   UNL     1       3.814  -0.677   2.942  1.00  0.00    -0.460 OA
BRANCH  24  25
ATOM     25  C   UNL     1       4.399  -0.024   3.975  1.00  0.00     0.338 C 
ATOM     26  O   UNL     1       5.545   0.387   4.029  1.00  0.00    -0.246 OA
BRANCH  25  27
ATOM     27  C   UNL     1       3.393   0.299   5.006  1.00  0.00     0.060 A 
ATOM     28  C   UNL     1       3.178   1.649   5.315  1.00  0.00     0.016 A 
ATOM     29  C   UNL     1       2.753  -0.706   5.734  1.00  0.00     0.016 A 
ATOM     30  C   UNL     1       2.380   1.998   6.403  1.00  0.00     0.010 A 
ATOM     31  C   UNL     1       1.960  -0.353   6.833  1.00  0.00     0.010 A 
ATOM     32  C   UNL     1       1.815   0.997   7.204  1.00  0.00    -0.014 A 
BRANCH  32  33
ATOM     33  C   UNL     1       1.279   1.351   8.542  1.00  0.00     0.031 A 
ATOM     34  C   UNL     1       2.174   1.167   9.742  1.00  0.00     0.074 A 
ATOM     35  C   UNL     1       0.042   1.857   8.695  1.00  0.00     0.049 A 
ATOM     36  N   UNL     1       1.919   1.366  11.009  1.00  0.00    -0.248 NA
ATOM     37  C   UNL     1       3.542   0.693   9.472  1.00  0.00     0.031 C 
ATOM     38  C   UNL     1      -0.902   2.125   7.612  1.00  0.00     0.029 A 
ATOM     39  N   UNL     1      -0.632   2.229   9.831  1.00  0.00    -0.354 N 
ATOM     40  C   UNL     1       3.087   1.034  11.687  1.00  0.00     0.074 A 
ATOM     41  C   UNL     1       4.042   0.593  10.694  1.00  0.00     0.031 C 
ATOM     42  C   UNL     1      -2.042   2.607   8.139  1.00  0.00     0.029 A 
ATOM     43  C   UNL     1      -1.918   2.654   9.596  1.00  0.00     0.049 A 
ATOM     44  H   UNL     1      -0.233   2.195  10.730  1.00  0.00     0.167 HD
ATOM     45  C   UNL     1       3.346   1.098  13.014  1.00  0.00     0.037 A 
ATOM     46  C   UNL     1      -2.887   3.018  10.460  1.00  0.00     0.037 A 
ATOM     47  C   UNL     1       2.395   1.538  14.001  1.00  0.00     0.049 A 
ATOM     48  C   UNL     1      -2.598   3.023  11.940  1.00  0.00     0.074 A 
ATOM     49  C   UNL     1       2.563   1.648  15.371  1.00  0.00     0.029 A 
ATOM     50  N   UNL     1       1.096   1.937  13.725  1.00  0.00    -0.354 N 
ATOM     51  N   UNL     1      -1.486   2.717  12.566  1.00  0.00    -0.248 NA
ATOM     52  C   UNL     1      -3.696   3.427  12.830  1.00  0.00     0.031 C 
ATOM     53  C   UNL     1       1.351   2.072  15.927  1.00  0.00     0.029 A 
ATOM     54  C   UNL     1       0.444   2.274  14.899  1.00  0.00     0.049 A 
ATOM     55  H   UNL     1       0.696   1.974  12.826  1.00  0.00     0.167 HD
ATOM     56  C   UNL     1      -1.742   2.917  13.919  1.00  0.00     0.074 A 
ATOM     57  C   UNL     1      -3.111   3.380  14.020  1.00  0.00     0.031 C 
ATOM     58  C   UNL     1      -0.918   2.739  14.982  1.00  0.00     0.037 A 
BRANCH  45  59
ATOM     59  C   UNL     1       4.707   0.655  13.477  1.00  0.00     0.058 A 
ATOM     60  C   UNL     1       5.857   1.421  13.231  1.00  0.00     0.135 A 
ATOM     61  C   UNL     1       4.859  -0.545  14.191  1.00  0.00     0.135 A 
ATOM     62  F   UNL     1       5.771   2.566  12.536  1.00  0.00    -0.206 F 
ATOM     63  C   UNL     1       7.115   1.000  13.652  1.00  0.00     0.059 A 
ATOM     64  C   UNL     1       6.103  -0.972  14.645  1.00  0.00     0.059 A 
ATOM     65  F   UNL     1       3.792  -1.317  14.450  1.00  0.00    -0.206 F 
ATOM     66  C   UNL     1       7.228  -0.200  14.357  1.00  0.00     0.060 A 
BRANCH  66  67
ATOM     67  S   UNL     1       8.866  -0.735  14.896  1.00  0.00     0.124 S 
ATOM     68  O   UNL     1       9.458  -1.173  13.636  1.00  0.00    -0.237 OA
ATOM     69  O   UNL     1       9.422   0.488  15.467  1.00  0.00    -0.237 OA
ATOM     70  O   UNL     1       8.578  -1.796  15.856  1.00  0.00    -0.744 OA
ENDBRANCH  66  67
ENDBRANCH  45  59
BRANCH  46  71
ATOM     71  C   UNL     1      -4.230   3.402   9.949  1.00  0.00     0.058 A 
ATOM     72  C   UNL     1      -4.680   4.729  10.015  1.00  0.00     0.135 A 
ATOM     73  C   UNL     1      -5.091   2.448   9.385  1.00  0.00     0.135 A 
ATOM     74  F   UNL     1      -3.899   5.675  10.559  1.00  0.00    -0.206 F 
ATOM     75  C   UNL     1      -5.938   5.096   9.549  1.00  0.00     0.059 A 
ATOM     76  C   UNL     1      -6.344   2.795   8.890  1.00  0.00     0.059 A 
ATOM     77  F   UNL     1      -4.705   1.166   9.291  1.00  0.00    -0.206 F 
ATOM     78  C   UNL     1      -6.762   4.121   8.983  1.00  0.00     0.060 A 
BRANCH  78  79
ATOM     79  S   UNL     1      -8.369   4.618   8.325  1.00  0.00     0.124 S 
ATOM     80  O   UNL     1      -9.134   4.833   9.547  1.00  0.00    -0.237 OA
ATOM     81  O   UNL     1      -8.030   5.816   7.563  1.00  0.00    -0.237 OA
ATOM     82  O   UNL     1      -8.770   3.468   7.520  1.00  0.00    -0.744 OA
ENDBRANCH  78  79
ENDBRANCH  46  71
BRANCH  58  83
ATOM     83  C   UNL     1      -1.459   3.080  16.345  1.00  0.00     0.058 A 
ATOM     84  C   UNL     1      -2.406   2.269  16.989  1.00  0.00     0.135 A 
ATOM     85  C   UNL     1      -0.989   4.211  17.032  1.00  0.00     0.135 A 
ATOM     86  F   UNL     1      -2.892   1.178  16.375  1.00  0.00    -0.206 F 
ATOM     87  C   UNL     1      -2.891   2.583  18.255  1.00  0.00     0.059 A 
ATOM     88  C   UNL     1      -1.439   4.529  18.310  1.00  0.00     0.059 A 
ATOM     89  F   UNL     1      -0.072   5.013  16.467  1.00  0.00    -0.206 F 
ATOM     90  C   UNL     1      -2.402   3.717  18.907  1.00  0.00     0.060 A 
BRANCH  90  91
ATOM     91  S   UNL     1      -3.023   4.106  20.558  1.00  0.00     0.124 S 
ATOM     92  O   UNL     1      -4.347   4.638  20.255  1.00  0.00    -0.237 OA
ATOM     93  O   UNL     1      -2.999   2.803  21.217  1.00  0.00    -0.237 OA
ATOM     94  O   UNL     1      -2.056   5.075  21.064  1.00  0.00    -0.744 OA
ENDBRANCH  90  91
ENDBRANCH  58  83
ENDBRANCH  32  33
ENDBRANCH  25  27
ENDBRANCH  24  25
ENDBRANCH  23  24
ENDBRANCH  22  23
ENDBRANCH  21  22
ENDBRANCH  20  21
ENDBRANCH  19  20
ENDBRANCH  18  19
ENDBRANCH   1  18
TORSDOF 27
