REMARK SMILES CC(C)N(CC(=O)OCCOCCOCCOCCOC(=O)c1ccc(-c2c3nc(c(-c4c(F)cc(S(=O)(=O)[O-])cc4F)c4ccc([nH]4)c(-c4c(F)cc(S(=O)(=O)[O-])cc4F)c4nc(c(-c5c(F)cc(S(=O)(=O)[O-])cc5F)c5ccc2[nH]5)C=C4)C=C3)cc1)C(=O)[C@H]1C=C[C@@H]([NH3+])C1
REMARK SMILES IDX 13 1 12 2 11 3 10 4 9 5 8 6 6 7 7 8 5 9 4 10 2 11 1 12 3 13
REMARK SMILES IDX 89 14 90 15 91 16 92 17 96 18 93 19 94 20 95 21 14 25 15 26
REMARK SMILES IDX 16 27 17 28 18 29 19 30 20 31 21 32 22 33 23 34 24 35 88 36
REMARK SMILES IDX 25 37 87 38 26 39 27 40 28 41 81 42 29 43 86 44 80 45 82 46
REMARK SMILES IDX 30 47 85 48 79 49 78 50 31 52 65 53 44 54 64 55 45 56 48 57
REMARK SMILES IDX 63 58 83 59 46 60 47 61 62 63 84 64 49 65 32 66 33 67 42 68
REMARK SMILES IDX 34 69 35 70 41 71 43 72 36 73 37 74 38 75 39 76 40 77 66 78
REMARK SMILES IDX 67 79 76 80 68 81 69 82 75 83 77 84 70 85 71 86 72 87 73 88
REMARK SMILES IDX 74 89 50 90 51 91 60 92 52 93 53 94 59 95 61 96 54 97 55 98
REMARK SMILES IDX 56 99 57 100 58 101
REMARK H PARENT 95 22 95 23 95 24 82 51 48 62
REMARK Flexibility Score: inf
ROOT
ATOM      1  C   UNL     1      -3.826   0.087   3.368  1.00  0.00     0.188 C 
ENDROOT
BRANCH   1   2
ATOM      2  C   UNL     1      -4.711  -1.154   3.519  1.00  0.00     0.188 C 
BRANCH   2   3
ATOM      3  O   UNL     1      -4.869  -1.713   4.809  1.00  0.00    -0.376 OA
BRANCH   3   4
ATOM      4  C   UNL     1      -3.695  -1.871   5.603  1.00  0.00     0.202 C 
BRANCH   4   5
ATOM      5  C   UNL     1      -2.467  -2.556   4.958  1.00  0.00     0.261 C 
BRANCH   5   6
ATOM      6  O   UNL     1      -1.908  -1.927   3.761  1.00  0.00    -0.462 OA
BRANCH   6   7
ATOM      7  C   UNL     1      -1.844  -2.698   2.646  1.00  0.00     0.325 C 
ATOM      8  O   UNL     1      -2.208  -3.874   2.616  1.00  0.00    -0.250 OA
BRANCH   7   9
ATOM      9  C   UNL     1      -1.373  -2.020   1.328  1.00  0.00     0.242 C 
BRANCH   9  10
ATOM     10  N   UNL     1      -0.823  -0.662   1.091  1.00  0.00    -0.329 N 
BRANCH  10  11
ATOM     11  C   UNL     1       0.635  -0.534   1.373  1.00  0.00     0.079 C 
ATOM     12  C   UNL     1       1.466  -0.240   0.111  1.00  0.00     0.031 C 
ATOM     13  C   UNL     1       0.947   0.459   2.493  1.00  0.00     0.031 C 
ENDBRANCH  10  11
BRANCH  10  14
ATOM     14  C   UNL     1      -1.450   0.414   0.440  1.00  0.00     0.230 C 
ATOM     15  O   UNL     1      -0.807   1.448   0.203  1.00  0.00    -0.274 OA
BRANCH  14  16
ATOM     16  C   UNL     1      -2.967   0.467   0.124  1.00  0.00     0.107 C 
ATOM     17  C   UNL     1      -3.362   1.597  -0.809  1.00  0.00    -0.012 C 
ATOM     18  C   UNL     1      -3.734  -0.685  -0.511  1.00  0.00     0.087 C 
ATOM     19  C   UNL     1      -4.519   1.331  -1.428  1.00  0.00     0.033 C 
ATOM     20  C   UNL     1      -5.009  -0.028  -1.066  1.00  0.00     0.205 C 
BRANCH  20  21
ATOM     21  N   UNL     1      -5.550  -0.754  -2.194  1.00  0.00    -0.352 N 
ATOM     22  H   UNL     1      -4.840  -0.829  -2.922  1.00  0.00     0.345 HD
ATOM     23  H   UNL     1      -6.362  -0.257  -2.560  1.00  0.00     0.345 HD
ATOM     24  H   UNL     1      -5.830  -1.688  -1.894  1.00  0.00     0.345 HD
ENDBRANCH  20  21
ENDBRANCH  14  16
ENDBRANCH  10  14
ENDBRANCH   9  10
ENDBRANCH   7   9
ENDBRANCH   6   7
ENDBRANCH   5   6
ENDBRANCH   4   5
ENDBRANCH   3   4
ENDBRANCH   2   3
ENDBRANCH   1   2
BRANCH   1  25
ATOM     25  O   UNL     1      -3.155   0.496   4.535  1.00  0.00    -0.377 OA
BRANCH  25  26
ATOM     26  C   UNL     1      -3.123   1.876   4.847  1.00  0.00     0.188 C 
BRANCH  26  27
ATOM     27  C   UNL     1      -4.490   2.554   4.724  1.00  0.00     0.188 C 
BRANCH  27  28
ATOM     28  O   UNL     1      -4.919   2.973   3.422  1.00  0.00    -0.376 OA
BRANCH  28  29
ATOM     29  C   UNL     1      -3.951   3.381   2.454  1.00  0.00     0.202 C 
BRANCH  29  30
ATOM     30  C   UNL     1      -3.482   4.827   2.565  1.00  0.00     0.261 C 
BRANCH  30  31
ATOM     31  O   UNL     1      -2.558   4.963   3.650  1.00  0.00    -0.460 OA
BRANCH  31  32
ATOM     32  C   UNL     1      -3.087   5.437   4.798  1.00  0.00     0.338 C 
ATOM     33  O   UNL     1      -4.218   5.860   4.976  1.00  0.00    -0.246 OA
BRANCH  32  34
ATOM     34  C   UNL     1      -2.135   5.165   5.888  1.00  0.00     0.060 A 
ATOM     35  C   UNL     1      -2.642   4.655   7.090  1.00  0.00     0.016 A 
ATOM     36  C   UNL     1      -0.770   5.424   5.736  1.00  0.00     0.016 A 
ATOM     37  C   UNL     1      -1.792   4.451   8.167  1.00  0.00     0.010 A 
ATOM     38  C   UNL     1       0.079   5.245   6.824  1.00  0.00     0.010 A 
ATOM     39  C   UNL     1      -0.444   4.806   8.052  1.00  0.00    -0.014 A 
BRANCH  39  40
ATOM     40  C   UNL     1       0.348   4.970   9.284  1.00  0.00     0.031 A 
ATOM     41  C   UNL     1       0.432   6.348   9.877  1.00  0.00     0.074 A 
ATOM     42  C   UNL     1       0.932   3.914   9.870  1.00  0.00     0.049 A 
ATOM     43  N   UNL     1       1.083   6.759  10.930  1.00  0.00    -0.248 NA
ATOM     44  C   UNL     1      -0.321   7.409   9.182  1.00  0.00     0.031 C 
ATOM     45  C   UNL     1       0.862   2.535   9.390  1.00  0.00     0.029 A 
ATOM     46  N   UNL     1       1.706   3.843  10.997  1.00  0.00    -0.354 N 
ATOM     47  C   UNL     1       0.827   8.123  11.019  1.00  0.00     0.074 A 
ATOM     48  C   UNL     1      -0.012   8.478   9.899  1.00  0.00     0.031 C 
ATOM     49  C   UNL     1       1.582   1.753  10.212  1.00  0.00     0.029 A 
ATOM     50  C   UNL     1       2.186   2.583  11.252  1.00  0.00     0.049 A 
ATOM     51  H   UNL     1       1.900   4.621  11.569  1.00  0.00     0.167 HD
ATOM     52  C   UNL     1       1.254   8.996  11.959  1.00  0.00     0.037 A 
ATOM     53  C   UNL     1       3.038   2.163  12.207  1.00  0.00     0.037 A 
ATOM     54  C   UNL     1       2.094   8.617  13.064  1.00  0.00     0.049 A 
ATOM     55  C   UNL     1       3.549   3.165  13.210  1.00  0.00     0.074 A 
ATOM     56  C   UNL     1       2.580   9.409  14.087  1.00  0.00     0.029 A 
ATOM     57  N   UNL     1       2.580   7.335  13.281  1.00  0.00    -0.354 N 
ATOM     58  N   UNL     1       3.288   4.449  13.300  1.00  0.00    -0.248 NA
ATOM     59  C   UNL     1       4.462   2.663  14.244  1.00  0.00     0.031 C 
ATOM     60  C   UNL     1       3.409   8.619  14.889  1.00  0.00     0.029 A 
ATOM     61  C   UNL     1       3.385   7.319  14.407  1.00  0.00     0.049 A 
ATOM     62  H   UNL     1       2.382   6.552  12.718  1.00  0.00     0.167 HD
ATOM     63  C   UNL     1       3.981   4.902  14.418  1.00  0.00     0.074 A 
ATOM     64  C   UNL     1       4.661   3.751  14.976  1.00  0.00     0.031 C 
ATOM     65  C   UNL     1       4.047   6.153  14.941  1.00  0.00     0.037 A 
BRANCH  52  66
ATOM     66  C   UNL     1       0.856  10.437  11.809  1.00  0.00     0.058 A 
ATOM     67  C   UNL     1      -0.468  10.869  11.993  1.00  0.00     0.135 A 
ATOM     68  C   UNL     1       1.820  11.408  11.494  1.00  0.00     0.135 A 
ATOM     69  F   UNL     1      -1.438   9.981  12.268  1.00  0.00    -0.206 F 
ATOM     70  C   UNL     1      -0.824  12.207  11.853  1.00  0.00     0.059 A 
ATOM     71  C   UNL     1       1.493  12.756  11.379  1.00  0.00     0.059 A 
ATOM     72  F   UNL     1       3.099  11.051  11.294  1.00  0.00    -0.206 F 
ATOM     73  C   UNL     1       0.165  13.144  11.550  1.00  0.00     0.060 A 
BRANCH  73  74
ATOM     74  S   UNL     1      -0.309  14.878  11.392  1.00  0.00     0.124 S 
ATOM     75  O   UNL     1      -1.061  14.863  10.141  1.00  0.00    -0.237 OA
ATOM     76  O   UNL     1      -1.095  15.096  12.602  1.00  0.00    -0.237 OA
ATOM     77  O   UNL     1       0.971  15.578  11.344  1.00  0.00    -0.744 OA
ENDBRANCH  73  74
ENDBRANCH  52  66
BRANCH  53  78
ATOM     78  C   UNL     1       3.463   0.739  12.248  1.00  0.00     0.058 A 
ATOM     79  C   UNL     1       3.066  -0.111  13.290  1.00  0.00     0.135 A 
ATOM     80  C   UNL     1       4.265   0.194  11.232  1.00  0.00     0.135 A 
ATOM     81  F   UNL     1       2.305   0.362  14.289  1.00  0.00    -0.206 F 
ATOM     82  C   UNL     1       3.457  -1.446  13.331  1.00  0.00     0.059 A 
ATOM     83  C   UNL     1       4.646  -1.144  11.236  1.00  0.00     0.059 A 
ATOM     84  F   UNL     1       4.662   0.961  10.204  1.00  0.00    -0.206 F 
ATOM     85  C   UNL     1       4.244  -1.954  12.296  1.00  0.00     0.060 A 
BRANCH  85  86
ATOM     86  S   UNL     1       4.699  -3.701  12.332  1.00  0.00     0.124 S 
ATOM     87  O   UNL     1       5.660  -3.732  13.428  1.00  0.00    -0.237 OA
ATOM     88  O   UNL     1       3.415  -4.345  12.588  1.00  0.00    -0.237 OA
ATOM     89  O   UNL     1       5.252  -3.931  11.000  1.00  0.00    -0.744 OA
ENDBRANCH  85  86
ENDBRANCH  53  78
BRANCH  65  90
ATOM     90  C   UNL     1       4.848   6.333  16.201  1.00  0.00     0.058 A 
ATOM     91  C   UNL     1       6.250   6.263  16.206  1.00  0.00     0.135 A 
ATOM     92  C   UNL     1       4.202   6.636  17.411  1.00  0.00     0.135 A 
ATOM     93  F   UNL     1       6.916   5.974  15.077  1.00  0.00    -0.206 F 
ATOM     94  C   UNL     1       6.981   6.454  17.373  1.00  0.00     0.059 A 
ATOM     95  C   UNL     1       4.915   6.865  18.583  1.00  0.00     0.059 A 
ATOM     96  F   UNL     1       2.863   6.731  17.459  1.00  0.00    -0.206 F 
ATOM     97  C   UNL     1       6.304   6.757  18.556  1.00  0.00     0.060 A 
BRANCH  97  98
ATOM     98  S   UNL     1       7.267   7.026  20.058  1.00  0.00     0.124 S 
ATOM     99  O   UNL     1       7.703   5.669  20.374  1.00  0.00    -0.237 OA
ATOM    100  O   UNL     1       8.311   7.937  19.600  1.00  0.00    -0.237 OA
ATOM    101  O   UNL     1       6.300   7.606  20.985  1.00  0.00    -0.744 OA
ENDBRANCH  97  98
ENDBRANCH  65  90
ENDBRANCH  39  40
ENDBRANCH  32  34
ENDBRANCH  31  32
ENDBRANCH  30  31
ENDBRANCH  29  30
ENDBRANCH  28  29
ENDBRANCH  27  28
ENDBRANCH  26  27
ENDBRANCH  25  26
ENDBRANCH   1  25
TORSDOF 28
