REMARK SMILES CCc1cccc(-c2ccc([C@@H](C)C(=O)OCCOCCOCCOCCOC(=O)c3ccc(-c4c5nc(c(-c6c(F)cc(S(=O)(=O)[O-])cc6F)c6ccc([nH]6)c(-c6c(F)cc(S(=O)(=O)[O-])cc6F)c6nc(c(-c7c(F)cc(S(=O)(=O)[O-])cc7F)c7ccc4[nH]7)C=C6)C=C5)cc3)cc2)c1
REMARK SMILES IDX 22 1 21 2 20 3 19 4 18 5 17 6 16 7 14 8 15 9 12 10 13 11
REMARK SMILES IDX 11 12 8 13 9 14 98 15 10 16 97 17 7 18 3 19 4 20 99 21 5 22
REMARK SMILES IDX 6 23 2 24 1 25 23 26 24 27 25 28 26 29 27 30 28 31 29 32
REMARK SMILES IDX 30 33 31 34 32 35 96 36 33 37 95 38 34 39 35 40 36 41 89 42
REMARK SMILES IDX 37 43 94 44 88 45 90 46 38 47 93 48 87 49 86 50 39 52 73 53
REMARK SMILES IDX 52 54 72 55 53 56 56 57 71 58 91 59 54 60 55 61 70 63 92 64
REMARK SMILES IDX 57 65 40 66 41 67 50 68 42 69 43 70 49 71 51 72 44 73 45 74
REMARK SMILES IDX 46 75 47 76 48 77 74 78 75 79 84 80 76 81 77 82 83 83 85 84
REMARK SMILES IDX 78 85 79 86 80 87 81 88 82 89 58 90 59 91 68 92 60 93 61 94
REMARK SMILES IDX 67 95 69 96 62 97 63 98 64 99 65 100 66 101
REMARK H PARENT 90 51 56 62
REMARK Flexibility Score: inf
ROOT
ATOM      1  O   UNL     1       2.872   7.163   0.679  1.00  0.00    -0.377 OA
ENDROOT
BRANCH   1   2
ATOM      2  C   UNL     1       1.508   7.196   0.317  1.00  0.00     0.188 C 
BRANCH   2   3
ATOM      3  C   UNL     1       1.049   8.483  -0.382  1.00  0.00     0.188 C 
BRANCH   3   4
ATOM      4  O   UNL     1       1.982   9.474  -0.792  1.00  0.00    -0.376 OA
BRANCH   4   5
ATOM      5  C   UNL     1       3.131   9.759  -0.005  1.00  0.00     0.202 C 
BRANCH   5   6
ATOM      6  C   UNL     1       3.009  10.084   1.497  1.00  0.00     0.261 C 
BRANCH   6   7
ATOM      7  O   UNL     1       2.230   9.177   2.304  1.00  0.00    -0.463 OA
BRANCH   7   8
ATOM      8  C   UNL     1       1.004   9.607   2.679  1.00  0.00     0.313 C 
ATOM      9  O   UNL     1       0.553  10.712   2.377  1.00  0.00    -0.252 OA
BRANCH   8  10
ATOM     10  C   UNL     1       0.185   8.643   3.537  1.00  0.00     0.126 C 
ATOM     11  C   UNL     1       0.117   9.200   4.954  1.00  0.00     0.025 C 
BRANCH  10  12
ATOM     12  C   UNL     1       0.463   7.138   3.544  1.00  0.00    -0.034 A 
ATOM     13  C   UNL     1       0.864   4.293   3.496  1.00  0.00    -0.018 A 
ATOM     14  C   UNL     1       1.888   5.182   3.875  1.00  0.00     0.009 A 
ATOM     15  C   UNL     1      -0.366   4.857   3.137  1.00  0.00     0.009 A 
ATOM     16  C   UNL     1       1.694   6.578   3.904  1.00  0.00     0.005 A 
ATOM     17  C   UNL     1      -0.567   6.247   3.172  1.00  0.00     0.005 A 
BRANCH  13  18
ATOM     18  C   UNL     1       1.051   2.825   3.545  1.00  0.00    -0.018 A 
ATOM     19  C   UNL     1       0.933   0.585   2.520  1.00  0.00    -0.048 A 
ATOM     20  C   UNL     1       1.342   0.022   3.737  1.00  0.00     0.004 A 
ATOM     21  C   UNL     1       0.782   1.985   2.442  1.00  0.00     0.012 A 
ATOM     22  C   UNL     1       1.611   0.831   4.838  1.00  0.00     0.001 A 
ATOM     23  C   UNL     1       1.469   2.215   4.740  1.00  0.00     0.009 A 
BRANCH  19  24
ATOM     24  C   UNL     1       0.592  -0.343   1.374  1.00  0.00     0.032 C 
ATOM     25  C   UNL     1       1.154   0.059   0.019  1.00  0.00     0.009 C 
ENDBRANCH  19  24
ENDBRANCH  13  18
ENDBRANCH  10  12
ENDBRANCH   8  10
ENDBRANCH   7   8
ENDBRANCH   6   7
ENDBRANCH   5   6
ENDBRANCH   4   5
ENDBRANCH   3   4
ENDBRANCH   2   3
ENDBRANCH   1   2
BRANCH   1  26
ATOM     26  C   UNL     1       3.733   6.396  -0.145  1.00  0.00     0.188 C 
BRANCH  26  27
ATOM     27  C   UNL     1       3.493   6.469  -1.664  1.00  0.00     0.188 C 
BRANCH  27  28
ATOM     28  O   UNL     1       2.155   6.175  -2.053  1.00  0.00    -0.376 OA
BRANCH  28  29
ATOM     29  C   UNL     1       1.836   4.847  -2.443  1.00  0.00     0.202 C 
BRANCH  29  30
ATOM     30  C   UNL     1       1.931   3.725  -1.393  1.00  0.00     0.261 C 
BRANCH  30  31
ATOM     31  O   UNL     1       3.205   3.516  -0.765  1.00  0.00    -0.460 OA
BRANCH  31  32
ATOM     32  C   UNL     1       4.274   3.273  -1.550  1.00  0.00     0.338 C 
ATOM     33  O   UNL     1       4.271   3.133  -2.763  1.00  0.00    -0.246 OA
BRANCH  32  34
ATOM     34  C   UNL     1       5.492   3.414  -0.721  1.00  0.00     0.060 A 
ATOM     35  C   UNL     1       6.452   4.368  -1.087  1.00  0.00     0.016 A 
ATOM     36  C   UNL     1       5.690   2.616   0.409  1.00  0.00     0.016 A 
ATOM     37  C   UNL     1       7.630   4.497  -0.350  1.00  0.00     0.010 A 
ATOM     38  C   UNL     1       6.885   2.728   1.130  1.00  0.00     0.010 A 
ATOM     39  C   UNL     1       7.876   3.643   0.732  1.00  0.00    -0.014 A 
BRANCH  39  40
ATOM     40  C   UNL     1       9.244   3.564   1.307  1.00  0.00     0.031 A 
ATOM     41  C   UNL     1      10.146   2.451   0.840  1.00  0.00     0.074 A 
ATOM     42  C   UNL     1       9.693   4.471   2.194  1.00  0.00     0.049 A 
ATOM     43  N   UNL     1      11.349   2.132   1.240  1.00  0.00    -0.248 NA
ATOM     44  C   UNL     1       9.616   1.581  -0.224  1.00  0.00     0.031 C 
ATOM     45  C   UNL     1       8.935   5.620   2.687  1.00  0.00     0.029 A 
ATOM     46  N   UNL     1      10.899   4.558   2.847  1.00  0.00    -0.354 N 
ATOM     47  C   UNL     1      11.722   1.032   0.476  1.00  0.00     0.074 A 
ATOM     48  C   UNL     1      10.602   0.711  -0.381  1.00  0.00     0.031 C 
ATOM     49  C   UNL     1       9.685   6.282   3.587  1.00  0.00     0.029 A 
ATOM     50  C   UNL     1      10.960   5.587   3.758  1.00  0.00     0.049 A 
ATOM     51  H   UNL     1      11.648   3.942   2.679  1.00  0.00     0.167 HD
ATOM     52  C   UNL     1      12.897   0.359   0.476  1.00  0.00     0.037 A 
ATOM     53  C   UNL     1      11.921   5.907   4.649  1.00  0.00     0.037 A 
ATOM     54  C   UNL     1      14.005   0.675   1.339  1.00  0.00     0.049 A 
ATOM     55  C   UNL     1      13.188   5.085   4.696  1.00  0.00     0.074 A 
ATOM     56  C   UNL     1      15.232   0.042   1.429  1.00  0.00     0.029 A 
ATOM     57  N   UNL     1      14.021   1.711   2.261  1.00  0.00    -0.354 N 
ATOM     58  N   UNL     1      13.530   4.049   3.966  1.00  0.00    -0.248 NA
ATOM     59  C   UNL     1      14.204   5.479   5.684  1.00  0.00     0.031 C 
ATOM     60  C   UNL     1      15.972   0.664   2.438  1.00  0.00     0.029 A 
ATOM     61  C   UNL     1      15.231   1.725   2.935  1.00  0.00     0.049 A 
ATOM     62  H   UNL     1      13.282   2.343   2.413  1.00  0.00     0.167 HD
ATOM     63  C   UNL     1      14.809   3.692   4.383  1.00  0.00     0.074 A 
ATOM     64  C   UNL     1      15.187   4.630   5.419  1.00  0.00     0.031 C 
ATOM     65  C   UNL     1      15.601   2.679   3.951  1.00  0.00     0.037 A 
BRANCH  52  66
ATOM     66  C   UNL     1      13.043  -0.793  -0.480  1.00  0.00     0.058 A 
ATOM     67  C   UNL     1      13.157  -0.589  -1.864  1.00  0.00     0.135 A 
ATOM     68  C   UNL     1      13.124  -2.112  -0.004  1.00  0.00     0.135 A 
ATOM     69  F   UNL     1      13.064   0.649  -2.376  1.00  0.00    -0.206 F 
ATOM     70  C   UNL     1      13.332  -1.652  -2.744  1.00  0.00     0.059 A 
ATOM     71  C   UNL     1      13.328  -3.188  -0.863  1.00  0.00     0.059 A 
ATOM     72  F   UNL     1      13.014  -2.365   1.310  1.00  0.00    -0.206 F 
ATOM     73  C   UNL     1      13.423  -2.948  -2.233  1.00  0.00     0.060 A 
BRANCH  73  74
ATOM     74  S   UNL     1      13.681  -4.311  -3.388  1.00  0.00     0.124 S 
ATOM     75  O   UNL     1      12.395  -4.356  -4.078  1.00  0.00    -0.237 OA
ATOM     76  O   UNL     1      14.809  -3.835  -4.181  1.00  0.00    -0.237 OA
ATOM     77  O   UNL     1      13.964  -5.447  -2.517  1.00  0.00    -0.744 OA
ENDBRANCH  73  74
ENDBRANCH  52  66
BRANCH  53  78
ATOM     78  C   UNL     1      11.717   7.032   5.606  1.00  0.00     0.058 A 
ATOM     79  C   UNL     1      12.516   8.184   5.566  1.00  0.00     0.135 A 
ATOM     80  C   UNL     1      10.740   6.954   6.612  1.00  0.00     0.135 A 
ATOM     81  F   UNL     1      13.473   8.305   4.633  1.00  0.00    -0.206 F 
ATOM     82  C   UNL     1      12.379   9.202   6.506  1.00  0.00     0.059 A 
ATOM     83  C   UNL     1      10.561   7.973   7.543  1.00  0.00     0.059 A 
ATOM     84  F   UNL     1       9.941   5.879   6.693  1.00  0.00    -0.206 F 
ATOM     85  C   UNL     1      11.398   9.086   7.492  1.00  0.00     0.060 A 
BRANCH  85  86
ATOM     86  S   UNL     1      11.217  10.418   8.698  1.00  0.00     0.124 S 
ATOM     87  O   UNL     1      12.411  10.238   9.516  1.00  0.00    -0.237 OA
ATOM     88  O   UNL     1      11.199  11.602   7.845  1.00  0.00    -0.237 OA
ATOM     89  O   UNL     1       9.951  10.106   9.354  1.00  0.00    -0.744 OA
ENDBRANCH  85  86
ENDBRANCH  53  78
BRANCH  65  90
ATOM     90  C   UNL     1      16.977   2.558   4.552  1.00  0.00     0.058 A 
ATOM     91  C   UNL     1      17.177   2.136   5.875  1.00  0.00     0.135 A 
ATOM     92  C   UNL     1      18.116   2.814   3.769  1.00  0.00     0.135 A 
ATOM     93  F   UNL     1      16.125   1.881   6.669  1.00  0.00    -0.206 F 
ATOM     94  C   UNL     1      18.454   2.000   6.411  1.00  0.00     0.059 A 
ATOM     95  C   UNL     1      19.403   2.652   4.273  1.00  0.00     0.059 A 
ATOM     96  F   UNL     1      17.985   3.208   2.492  1.00  0.00    -0.206 F 
ATOM     97  C   UNL     1      19.562   2.257   5.600  1.00  0.00     0.060 A 
BRANCH  97  98
ATOM     98  S   UNL     1      21.213   2.044   6.299  1.00  0.00     0.124 S 
ATOM     99  O   UNL     1      21.298   3.182   7.208  1.00  0.00    -0.237 OA
ATOM    100  O   UNL     1      21.116   0.732   6.932  1.00  0.00    -0.237 OA
ATOM    101  O   UNL     1      22.088   2.107   5.132  1.00  0.00    -0.744 OA
ENDBRANCH  97  98
ENDBRANCH  65  90
ENDBRANCH  39  40
ENDBRANCH  32  34
ENDBRANCH  31  32
ENDBRANCH  30  31
ENDBRANCH  29  30
ENDBRANCH  28  29
ENDBRANCH  27  28
ENDBRANCH  26  27
ENDBRANCH   1  26
TORSDOF 26
