REMARK SMILES Cc1ccccc1SCC(=O)N[C@H]1C=C[C@H](C(=O)OCCOCCOCCOCCOC(=O)c2ccc(-c3c4nc(c(-c5c(F)cc(S(=O)(=O)[O-])cc5F)c5ccc([nH]5)c(-c5c(F)cc(S(=O)(=O)[O-])cc5F)c5nc(c(-c6c(F)cc(S(=O)(=O)[O-])cc6F)c6ccc3[nH]6)C=C5)C=C4)cc2)C1
REMARK SMILES IDX 24 1 23 2 22 3 21 4 20 5 19 6 17 7 18 8 16 9 13 10 14 11
REMARK SMILES IDX 100 12 15 13 12 14 10 15 11 16 9 18 8 19 7 20 1 21 2 22 3 23
REMARK SMILES IDX 4 24 6 25 5 26 25 27 26 28 27 29 28 30 29 31 30 32 31 33
REMARK SMILES IDX 32 34 33 35 34 36 35 37 99 38 36 39 98 40 37 41 38 42 39 43
REMARK SMILES IDX 92 44 40 45 97 46 91 47 93 48 41 49 96 50 90 51 89 52 42 54
REMARK SMILES IDX 76 55 55 56 75 57 56 58 59 59 74 60 94 61 57 62 58 63 73 65
REMARK SMILES IDX 95 66 60 67 43 68 44 69 53 70 45 71 46 72 52 73 54 74 47 75
REMARK SMILES IDX 48 76 49 77 50 78 51 79 77 80 78 81 87 82 79 83 80 84 86 85
REMARK SMILES IDX 88 86 81 87 82 88 83 89 84 90 85 91 61 92 62 93 71 94 63 95
REMARK SMILES IDX 64 96 70 97 72 98 65 99 66 100 67 101 68 102 69 103
REMARK H PARENT 12 17 93 53 59 64
REMARK Flexibility Score: inf
ROOT
ATOM      1  C   UNL     1       3.042   6.567   0.243  1.00  0.00     0.188 C 
ENDROOT
BRANCH   1   2
ATOM      2  C   UNL     1       2.119   5.370  -0.058  1.00  0.00     0.188 C 
BRANCH   2   3
ATOM      3  O   UNL     1       0.754   5.434  -0.407  1.00  0.00    -0.376 OA
BRANCH   3   4
ATOM      4  C   UNL     1      -0.125   5.859   0.617  1.00  0.00     0.202 C 
BRANCH   4   5
ATOM      5  C   UNL     1      -0.173   5.136   1.943  1.00  0.00     0.261 C 
BRANCH   5   6
ATOM      6  O   UNL     1       1.038   5.375   2.648  1.00  0.00    -0.463 OA
BRANCH   6   7
ATOM      7  C   UNL     1       1.377   4.386   3.485  1.00  0.00     0.312 C 
ATOM      8  O   UNL     1       0.686   3.390   3.724  1.00  0.00    -0.252 OA
BRANCH   7   9
ATOM      9  C   UNL     1       2.823   4.572   3.918  1.00  0.00     0.124 C 
ATOM     10  C   UNL     1       3.429   2.393   3.243  1.00  0.00     0.106 C 
ATOM     11  C   UNL     1       3.477   2.482   4.744  1.00  0.00    -0.006 C 
ATOM     12  C   UNL     1       3.734   3.853   2.926  1.00  0.00     0.048 C 
ATOM     13  C   UNL     1       3.100   3.720   5.126  1.00  0.00    -0.014 C 
BRANCH  10  14
ATOM     14  N   UNL     1       4.313   1.457   2.631  1.00  0.00    -0.349 N 
ATOM     15  C   UNL     1       4.265   1.048   1.321  1.00  0.00     0.230 C 
ATOM     16  O   UNL     1       4.993   0.095   1.015  1.00  0.00    -0.274 OA
ATOM     17  H   UNL     1       5.019   1.070   3.197  1.00  0.00     0.164 HD
BRANCH  15  18
ATOM     18  C   UNL     1       3.522   1.813   0.221  1.00  0.00     0.174 C 
BRANCH  18  19
ATOM     19  S   UNL     1       1.734   2.074   0.359  1.00  0.00    -0.116 SA
BRANCH  19  20
ATOM     20  C   UNL     1       0.733   0.642   0.035  1.00  0.00     0.011 A 
ATOM     21  C   UNL     1       2.505  -1.162  -0.365  1.00  0.00     0.045 C 
ATOM     22  C   UNL     1       1.101  -0.690  -0.176  1.00  0.00    -0.038 A 
ATOM     23  C   UNL     1       0.102  -1.689  -0.162  1.00  0.00     0.004 A 
ATOM     24  C   UNL     1      -1.248  -1.375  -0.042  1.00  0.00     0.000 A 
ATOM     25  C   UNL     1      -0.651   0.944   0.085  1.00  0.00     0.015 A 
ATOM     26  C   UNL     1      -1.630  -0.049   0.036  1.00  0.00     0.001 A 
ENDBRANCH  19  20
ENDBRANCH  18  19
ENDBRANCH  15  18
ENDBRANCH  10  14
ENDBRANCH   7   9
ENDBRANCH   6   7
ENDBRANCH   5   6
ENDBRANCH   4   5
ENDBRANCH   3   4
ENDBRANCH   2   3
ENDBRANCH   1   2
BRANCH   1  27
ATOM     27  O   UNL     1       2.523   7.816   0.609  1.00  0.00    -0.377 OA
BRANCH  27  28
ATOM     28  C   UNL     1       2.172   8.716  -0.433  1.00  0.00     0.188 C 
BRANCH  28  29
ATOM     29  C   UNL     1       2.611   8.473  -1.861  1.00  0.00     0.188 C 
BRANCH  29  30
ATOM     30  O   UNL     1       1.897   7.335  -2.334  1.00  0.00    -0.376 OA
BRANCH  30  31
ATOM     31  C   UNL     1       2.216   6.919  -3.647  1.00  0.00     0.202 C 
BRANCH  31  32
ATOM     32  C   UNL     1       2.031   8.011  -4.708  1.00  0.00     0.261 C 
BRANCH  32  33
ATOM     33  O   UNL     1       0.627   8.246  -4.965  1.00  0.00    -0.460 OA
BRANCH  33  34
ATOM     34  C   UNL     1       0.117   9.454  -4.595  1.00  0.00     0.338 C 
ATOM     35  O   UNL     1       0.064  10.423  -5.354  1.00  0.00    -0.246 OA
BRANCH  34  36
ATOM     36  C   UNL     1      -0.562   9.396  -3.273  1.00  0.00     0.060 A 
ATOM     37  C   UNL     1      -0.809  10.531  -2.480  1.00  0.00     0.016 A 
ATOM     38  C   UNL     1      -0.923   8.159  -2.778  1.00  0.00     0.016 A 
ATOM     39  C   UNL     1      -1.256  10.413  -1.140  1.00  0.00     0.010 A 
ATOM     40  C   UNL     1      -1.357   8.055  -1.470  1.00  0.00     0.010 A 
ATOM     41  C   UNL     1      -1.483   9.152  -0.594  1.00  0.00    -0.014 A 
BRANCH  41  42
ATOM     42  C   UNL     1      -1.666   8.805   0.854  1.00  0.00     0.031 A 
ATOM     43  C   UNL     1      -2.701   7.758   1.206  1.00  0.00     0.074 A 
ATOM     44  C   UNL     1      -0.628   9.070   1.701  1.00  0.00     0.049 A 
ATOM     45  N   UNL     1      -2.814   7.134   2.330  1.00  0.00    -0.248 NA
ATOM     46  C   UNL     1      -3.698   7.278   0.243  1.00  0.00     0.031 C 
ATOM     47  C   UNL     1      -0.123   8.250   2.816  1.00  0.00     0.029 A 
ATOM     48  N   UNL     1       0.314  10.086   1.661  1.00  0.00    -0.354 N 
ATOM     49  C   UNL     1      -3.616   6.005   2.155  1.00  0.00     0.074 A 
ATOM     50  C   UNL     1      -4.197   6.195   0.853  1.00  0.00     0.031 C 
ATOM     51  C   UNL     1       0.979   8.789   3.361  1.00  0.00     0.029 A 
ATOM     52  C   UNL     1       1.058  10.127   2.849  1.00  0.00     0.049 A 
ATOM     53  H   UNL     1       0.443  10.697   0.900  1.00  0.00     0.167 HD
ATOM     54  C   UNL     1      -3.576   4.994   3.090  1.00  0.00     0.037 A 
ATOM     55  C   UNL     1       0.903  11.215   3.658  1.00  0.00     0.037 A 
ATOM     56  C   UNL     1      -2.831   5.453   4.290  1.00  0.00     0.049 A 
ATOM     57  C   UNL     1      -0.050  10.860   4.816  1.00  0.00     0.074 A 
ATOM     58  C   UNL     1      -1.757   4.975   5.018  1.00  0.00     0.029 A 
ATOM     59  N   UNL     1      -3.064   6.741   4.793  1.00  0.00    -0.354 N 
ATOM     60  N   UNL     1      -0.944   9.890   4.744  1.00  0.00    -0.248 NA
ATOM     61  C   UNL     1       0.091  11.337   6.195  1.00  0.00     0.031 C 
ATOM     62  C   UNL     1      -1.216   6.062   5.773  1.00  0.00     0.029 A 
ATOM     63  C   UNL     1      -2.029   7.178   5.598  1.00  0.00     0.049 A 
ATOM     64  H   UNL     1      -3.870   7.272   4.596  1.00  0.00     0.167 HD
ATOM     65  C   UNL     1      -1.371   9.530   5.993  1.00  0.00     0.074 A 
ATOM     66  C   UNL     1      -0.733  10.505   6.866  1.00  0.00     0.031 C 
ATOM     67  C   UNL     1      -2.143   8.444   6.319  1.00  0.00     0.037 A 
BRANCH  54  68
ATOM     68  C   UNL     1      -4.024   3.510   2.893  1.00  0.00     0.058 A 
ATOM     69  C   UNL     1      -3.908   2.560   3.944  1.00  0.00     0.135 A 
ATOM     70  C   UNL     1      -4.487   2.924   1.688  1.00  0.00     0.135 A 
ATOM     71  F   UNL     1      -3.529   2.932   5.174  1.00  0.00    -0.206 F 
ATOM     72  C   UNL     1      -4.182   1.181   3.807  1.00  0.00     0.059 A 
ATOM     73  C   UNL     1      -4.824   1.560   1.543  1.00  0.00     0.059 A 
ATOM     74  F   UNL     1      -4.610   3.628   0.559  1.00  0.00    -0.206 F 
ATOM     75  C   UNL     1      -4.649   0.684   2.601  1.00  0.00     0.060 A 
BRANCH  75  76
ATOM     76  S   UNL     1      -5.054  -1.076   2.445  1.00  0.00     0.124 S 
ATOM     77  O   UNL     1      -3.750  -1.717   2.575  1.00  0.00    -0.237 OA
ATOM     78  O   UNL     1      -5.976  -1.286   3.557  1.00  0.00    -0.237 OA
ATOM     79  O   UNL     1      -5.655  -1.170   1.117  1.00  0.00    -0.744 OA
ENDBRANCH  75  76
ENDBRANCH  54  68
BRANCH  55  80
ATOM     80  C   UNL     1       1.284  12.431   2.836  1.00  0.00     0.058 A 
ATOM     81  C   UNL     1       2.667  12.428   2.489  1.00  0.00     0.135 A 
ATOM     82  C   UNL     1       0.417  12.932   1.840  1.00  0.00     0.135 A 
ATOM     83  F   UNL     1       3.567  11.973   3.378  1.00  0.00    -0.206 F 
ATOM     84  C   UNL     1       3.118  12.620   1.176  1.00  0.00     0.059 A 
ATOM     85  C   UNL     1       0.858  13.146   0.514  1.00  0.00     0.059 A 
ATOM     86  F   UNL     1      -0.904  12.984   2.070  1.00  0.00    -0.206 F 
ATOM     87  C   UNL     1       2.197  12.920   0.179  1.00  0.00     0.060 A 
BRANCH  87  88
ATOM     88  S   UNL     1       2.730  12.779  -1.559  1.00  0.00     0.124 S 
ATOM     89  O   UNL     1       3.400  14.053  -1.779  1.00  0.00    -0.237 OA
ATOM     90  O   UNL     1       3.594  11.600  -1.538  1.00  0.00    -0.237 OA
ATOM     91  O   UNL     1       1.475  12.590  -2.273  1.00  0.00    -0.744 OA
ENDBRANCH  87  88
ENDBRANCH  55  80
BRANCH  67  92
ATOM     92  C   UNL     1      -3.163   8.507   7.435  1.00  0.00     0.058 A 
ATOM     93  C   UNL     1      -3.724   9.726   7.852  1.00  0.00     0.135 A 
ATOM     94  C   UNL     1      -3.789   7.338   7.940  1.00  0.00     0.135 A 
ATOM     95  F   UNL     1      -3.306  10.899   7.355  1.00  0.00    -0.206 F 
ATOM     96  C   UNL     1      -4.772   9.789   8.761  1.00  0.00     0.059 A 
ATOM     97  C   UNL     1      -4.883   7.380   8.798  1.00  0.00     0.059 A 
ATOM     98  F   UNL     1      -3.381   6.108   7.597  1.00  0.00    -0.206 F 
ATOM     99  C   UNL     1      -5.343   8.612   9.230  1.00  0.00     0.060 A 
BRANCH  99 100
ATOM    100  S   UNL     1      -6.704   8.716  10.396  1.00  0.00     0.124 S 
ATOM    101  O   UNL     1      -5.985   8.892  11.654  1.00  0.00    -0.237 OA
ATOM    102  O   UNL     1      -7.442   9.884   9.922  1.00  0.00    -0.237 OA
ATOM    103  O   UNL     1      -7.391   7.440  10.232  1.00  0.00    -0.744 OA
ENDBRANCH  99 100
ENDBRANCH  67  92
ENDBRANCH  41  42
ENDBRANCH  34  36
ENDBRANCH  33  34
ENDBRANCH  32  33
ENDBRANCH  31  32
ENDBRANCH  30  31
ENDBRANCH  29  30
ENDBRANCH  28  29
ENDBRANCH  27  28
ENDBRANCH   1  27
TORSDOF 27
