REMARK SMILES NS(=O)(=O)c1ccc(-n2nc(C(=O)OCCOCCOCCOCCOC(=O)c3ccc(-c4c5nc(c(-c6c(F)cc(S(=O)(=O)[O-])cc6F)c6ccc([nH]6)c(-c6c(F)cc(S(=O)(=O)[O-])cc6F)c6nc(c(-c7c(F)cc(S(=O)(=O)[O-])cc7F)c7ccc4[nH]7)C=C6)C=C5)cc3)cc2-c2cc3ccccc3s2)cc1
REMARK SMILES IDX 20 1 19 2 18 3 17 4 16 5 15 6 14 7 12 8 13 9 11 10 9 11
REMARK SMILES IDX 10 12 96 13 95 14 8 15 5 16 6 17 107 18 7 19 106 20 2 21
REMARK SMILES IDX 3 22 4 23 1 24 97 27 98 28 105 29 99 30 104 31 100 32 103 33
REMARK SMILES IDX 101 34 102 35 21 36 22 37 23 38 24 39 25 40 26 41 27 42
REMARK SMILES IDX 28 43 29 44 30 45 94 46 31 47 93 48 32 49 33 50 34 51 87 52
REMARK SMILES IDX 35 53 92 54 86 55 88 56 36 57 91 58 85 59 84 60 37 62 71 63
REMARK SMILES IDX 50 64 70 65 51 66 54 67 69 68 89 69 52 70 53 71 68 73 90 74
REMARK SMILES IDX 55 75 38 76 39 77 48 78 40 79 41 80 47 81 49 82 42 83 43 84
REMARK SMILES IDX 44 85 45 86 46 87 72 88 73 89 82 90 74 91 75 92 81 93 83 94
REMARK SMILES IDX 76 95 77 96 78 97 79 98 80 99 56 100 57 101 66 102 58 103
REMARK SMILES IDX 59 104 65 105 67 106 60 107 61 108 62 109 63 110 64 111
REMARK H PARENT 1 25 1 26 88 61 54 72
REMARK Flexibility Score: inf
ROOT
ATOM      1  O   UNL     1       2.193   6.389  -9.306  1.00  0.00    -0.377 OA
ENDROOT
BRANCH   1   2
ATOM      2  C   UNL     1       2.085   6.050  -7.936  1.00  0.00     0.188 C 
BRANCH   2   3
ATOM      3  C   UNL     1       3.383   6.244  -7.116  1.00  0.00     0.188 C 
BRANCH   3   4
ATOM      4  O   UNL     1       4.537   6.893  -7.642  1.00  0.00    -0.376 OA
BRANCH   4   5
ATOM      5  C   UNL     1       4.931   6.794  -9.000  1.00  0.00     0.202 C 
BRANCH   5   6
ATOM      6  C   UNL     1       5.095   5.437  -9.697  1.00  0.00     0.261 C 
BRANCH   6   7
ATOM      7  O   UNL     1       4.221   4.413  -9.242  1.00  0.00    -0.458 OA
BRANCH   7   8
ATOM      8  C   UNL     1       4.655   3.674  -8.179  1.00  0.00     0.358 C 
ATOM      9  O   UNL     1       5.794   3.699  -7.732  1.00  0.00    -0.244 OA
BRANCH   8  10
ATOM     10  C   UNL     1       3.545   2.886  -7.625  1.00  0.00     0.171 A 
ATOM     11  N   UNL     1       2.414   1.554  -6.406  1.00  0.00    -0.231 N 
ATOM     12  N   UNL     1       3.501   2.370  -6.382  1.00  0.00    -0.160 NA
ATOM     13  C   UNL     1       1.863   1.478  -7.661  1.00  0.00     0.085 A 
ATOM     14  C   UNL     1       2.345   2.597  -8.307  1.00  0.00     0.068 A 
BRANCH  11  15
ATOM     15  C   UNL     1       1.961   0.948  -5.228  1.00  0.00     0.065 A 
ATOM     16  C   UNL     1       1.098  -0.231  -2.885  1.00  0.00     0.082 A 
ATOM     17  C   UNL     1       1.751  -1.005  -3.854  1.00  0.00     0.024 A 
ATOM     18  C   UNL     1       0.876   1.137  -3.080  1.00  0.00     0.024 A 
ATOM     19  C   UNL     1       2.173  -0.416  -5.042  1.00  0.00     0.030 A 
ATOM     20  C   UNL     1       1.331   1.738  -4.254  1.00  0.00     0.030 A 
BRANCH  16  21
ATOM     21  S   UNL     1       0.567  -1.005  -1.387  1.00  0.00     0.238 S 
ATOM     22  O   UNL     1       1.204  -2.290  -1.261  1.00  0.00    -0.207 OA
ATOM     23  O   UNL     1      -0.865  -0.825  -1.256  1.00  0.00    -0.207 OA
BRANCH  21  24
ATOM     24  N   UNL     1       1.270  -0.050  -0.198  1.00  0.00    -0.225 NA
ATOM     25  H   UNL     1       1.023  -0.415   0.722  1.00  0.00     0.137 HD
ATOM     26  H   UNL     1       0.930   0.908  -0.286  1.00  0.00     0.137 HD
ENDBRANCH  21  24
ENDBRANCH  16  21
ENDBRANCH  11  15
BRANCH  13  27
ATOM     27  C   UNL     1       1.200   0.382  -8.329  1.00  0.00     0.054 A 
ATOM     28  C   UNL     1      -0.007   0.434  -9.024  1.00  0.00     0.031 A 
ATOM     29  S   UNL     1       2.244  -0.494  -9.457  1.00  0.00    -0.134 S 
ATOM     30  C   UNL     1       0.322   0.901 -10.368  1.00  0.00    -0.007 A 
ATOM     31  C   UNL     1       1.668   0.630 -10.663  1.00  0.00     0.035 A 
ATOM     32  C   UNL     1      -0.409   1.701 -11.272  1.00  0.00     0.009 A 
ATOM     33  C   UNL     1       2.354   1.261 -11.711  1.00  0.00     0.019 A 
ATOM     34  C   UNL     1       0.275   2.367 -12.297  1.00  0.00     0.001 A 
ATOM     35  C   UNL     1       1.644   2.187 -12.481  1.00  0.00     0.001 A 
ENDBRANCH  13  27
ENDBRANCH   8  10
ENDBRANCH   7   8
ENDBRANCH   6   7
ENDBRANCH   5   6
ENDBRANCH   4   5
ENDBRANCH   3   4
ENDBRANCH   2   3
ENDBRANCH   1   2
BRANCH   1  36
ATOM     36  C   UNL     1       1.697   7.683  -9.655  1.00  0.00     0.188 C 
BRANCH  36  37
ATOM     37  C   UNL     1       2.090   8.881  -8.752  1.00  0.00     0.188 C 
BRANCH  37  38
ATOM     38  O   UNL     1       2.101   8.605  -7.359  1.00  0.00    -0.376 OA
BRANCH  38  39
ATOM     39  C   UNL     1       1.067   9.020  -6.483  1.00  0.00     0.202 C 
BRANCH  39  40
ATOM     40  C   UNL     1      -0.346   8.496  -6.711  1.00  0.00     0.261 C 
BRANCH  40  41
ATOM     41  O   UNL     1      -0.743   8.454  -8.066  1.00  0.00    -0.460 OA
BRANCH  41  42
ATOM     42  C   UNL     1      -0.935   9.667  -8.618  1.00  0.00     0.338 C 
ATOM     43  O   UNL     1      -0.505  10.735  -8.221  1.00  0.00    -0.246 OA
BRANCH  42  44
ATOM     44  C   UNL     1      -1.912   9.519  -9.691  1.00  0.00     0.060 A 
ATOM     45  C   UNL     1      -2.150  10.652 -10.465  1.00  0.00     0.016 A 
ATOM     46  C   UNL     1      -2.787   8.421  -9.662  1.00  0.00     0.016 A 
ATOM     47  C   UNL     1      -3.394  10.783 -11.031  1.00  0.00     0.010 A 
ATOM     48  C   UNL     1      -4.034   8.564 -10.210  1.00  0.00     0.010 A 
ATOM     49  C   UNL     1      -4.346   9.776 -10.814  1.00  0.00    -0.014 A 
BRANCH  49  50
ATOM     50  C   UNL     1      -5.641   9.934 -11.436  1.00  0.00     0.031 A 
ATOM     51  C   UNL     1      -5.516   9.768 -12.897  1.00  0.00     0.074 A 
ATOM     52  C   UNL     1      -6.780  10.120 -10.741  1.00  0.00     0.049 A 
ATOM     53  N   UNL     1      -5.486  10.711 -13.777  1.00  0.00    -0.248 NA
ATOM     54  C   UNL     1      -5.080   8.458 -13.417  1.00  0.00     0.031 C 
ATOM     55  C   UNL     1      -6.959  10.046  -9.287  1.00  0.00     0.029 A 
ATOM     56  N   UNL     1      -8.048  10.328 -11.191  1.00  0.00    -0.354 N 
ATOM     57  C   UNL     1      -5.382  10.050 -14.994  1.00  0.00     0.074 A 
ATOM     58  C   UNL     1      -4.849   8.750 -14.699  1.00  0.00     0.031 C 
ATOM     59  C   UNL     1      -8.280   9.974  -9.002  1.00  0.00     0.029 A 
ATOM     60  C   UNL     1      -9.040  10.132 -10.231  1.00  0.00     0.049 A 
ATOM     61  H   UNL     1      -8.248  10.595 -12.117  1.00  0.00     0.167 HD
ATOM     62  C   UNL     1      -6.141  10.472 -16.040  1.00  0.00     0.037 A 
ATOM     63  C   UNL     1     -10.380  10.066 -10.454  1.00  0.00     0.037 A 
ATOM     64  C   UNL     1      -6.616  11.815 -15.802  1.00  0.00     0.049 A 
ATOM     65  C   UNL     1     -10.630  10.753 -11.744  1.00  0.00     0.074 A 
ATOM     66  C   UNL     1      -6.048  13.063 -15.664  1.00  0.00     0.029 A 
ATOM     67  N   UNL     1      -7.859  11.864 -15.226  1.00  0.00    -0.354 N 
ATOM     68  N   UNL     1     -10.472  12.037 -11.914  1.00  0.00    -0.248 NA
ATOM     69  C   UNL     1     -10.687   9.965 -12.969  1.00  0.00     0.031 C 
ATOM     70  C   UNL     1      -6.916  13.798 -14.803  1.00  0.00     0.029 A 
ATOM     71  C   UNL     1      -8.020  13.005 -14.492  1.00  0.00     0.049 A 
ATOM     72  H   UNL     1      -8.546  11.167 -15.328  1.00  0.00     0.167 HD
ATOM     73  C   UNL     1      -9.970  12.155 -13.196  1.00  0.00     0.074 A 
ATOM     74  C   UNL     1     -10.287  10.889 -13.847  1.00  0.00     0.031 C 
ATOM     75  C   UNL     1      -9.058  13.126 -13.489  1.00  0.00     0.037 A 
BRANCH  62  76
ATOM     76  C   UNL     1      -6.907   9.525 -16.948  1.00  0.00     0.058 A 
ATOM     77  C   UNL     1      -7.610  10.066 -18.045  1.00  0.00     0.135 A 
ATOM     78  C   UNL     1      -7.234   8.187 -16.624  1.00  0.00     0.135 A 
ATOM     79  F   UNL     1      -7.405  11.337 -18.426  1.00  0.00    -0.206 F 
ATOM     80  C   UNL     1      -8.595   9.350 -18.729  1.00  0.00     0.059 A 
ATOM     81  C   UNL     1      -8.171   7.441 -17.324  1.00  0.00     0.059 A 
ATOM     82  F   UNL     1      -6.741   7.553 -15.556  1.00  0.00    -0.206 F 
ATOM     83  C   UNL     1      -8.869   8.038 -18.357  1.00  0.00     0.060 A 
BRANCH  83  84
ATOM     84  S   UNL     1     -10.155   7.114 -19.210  1.00  0.00     0.124 S 
ATOM     85  O   UNL     1     -11.356   7.812 -18.770  1.00  0.00    -0.237 OA
ATOM     86  O   UNL     1      -9.776   7.299 -20.607  1.00  0.00    -0.237 OA
ATOM     87  O   UNL     1      -9.986   5.757 -18.697  1.00  0.00    -0.744 OA
ENDBRANCH  83  84
ENDBRANCH  62  76
BRANCH  63  88
ATOM     88  C   UNL     1     -11.430   9.246  -9.788  1.00  0.00     0.058 A 
ATOM     89  C   UNL     1     -12.798   9.460 -10.056  1.00  0.00     0.135 A 
ATOM     90  C   UNL     1     -11.114   8.042  -9.130  1.00  0.00     0.135 A 
ATOM     91  F   UNL     1     -13.197  10.578 -10.683  1.00  0.00    -0.206 F 
ATOM     92  C   UNL     1     -13.780   8.506  -9.764  1.00  0.00     0.059 A 
ATOM     93  C   UNL     1     -12.078   7.079  -8.822  1.00  0.00     0.059 A 
ATOM     94  F   UNL     1      -9.842   7.720  -8.854  1.00  0.00    -0.206 F 
ATOM     95  C   UNL     1     -13.405   7.303  -9.172  1.00  0.00     0.060 A 
BRANCH  95  96
ATOM     96  S   UNL     1     -14.629   5.982  -8.985  1.00  0.00     0.124 S 
ATOM     97  O   UNL     1     -15.487   6.511  -7.931  1.00  0.00    -0.237 OA
ATOM     98  O   UNL     1     -15.221   5.917 -10.316  1.00  0.00    -0.237 OA
ATOM     99  O   UNL     1     -13.821   4.824  -8.609  1.00  0.00    -0.744 OA
ENDBRANCH  95  96
ENDBRANCH  63  88
BRANCH  75 100
ATOM    100  C   UNL     1      -9.062  14.364 -12.640  1.00  0.00     0.058 A 
ATOM    101  C   UNL     1      -8.710  14.429 -11.282  1.00  0.00     0.135 A 
ATOM    102  C   UNL     1      -9.363  15.571 -13.290  1.00  0.00     0.135 A 
ATOM    103  F   UNL     1      -8.328  13.331 -10.613  1.00  0.00    -0.206 F 
ATOM    104  C   UNL     1      -8.697  15.644 -10.593  1.00  0.00     0.059 A 
ATOM    105  C   UNL     1      -9.322  16.793 -12.633  1.00  0.00     0.059 A 
ATOM    106  F   UNL     1      -9.662  15.575 -14.600  1.00  0.00    -0.206 F 
ATOM    107  C   UNL     1      -9.005  16.821 -11.279  1.00  0.00     0.060 A 
BRANCH 107 108
ATOM    108  S   UNL     1      -8.936  18.402 -10.410  1.00  0.00     0.124 S 
ATOM    109  O   UNL     1     -10.092  18.315  -9.525  1.00  0.00    -0.237 OA
ATOM    110  O   UNL     1      -7.630  18.347  -9.759  1.00  0.00    -0.237 OA
ATOM    111  O   UNL     1      -9.045  19.387 -11.484  1.00  0.00    -0.744 OA
ENDBRANCH 107 108
ENDBRANCH  75 100
ENDBRANCH  49  50
ENDBRANCH  42  44
ENDBRANCH  41  42
ENDBRANCH  40  41
ENDBRANCH  39  40
ENDBRANCH  38  39
ENDBRANCH  37  38
ENDBRANCH  36  37
ENDBRANCH   1  36
TORSDOF 27
