REMARK SMILES CCn1ccc([C@@H](C)NC(=O)[C@H](C)n2ccc(C(=O)OCCOCCOCCOCCOC(=O)c3ccc(-c4c5nc(c(-c6c(F)cc(S(=O)(=O)[O-])cc6F)c6ccc([nH]6)c(-c6c(F)cc(S(=O)(=O)[O-])cc6F)c6nc(c(-c7c(F)cc(S(=O)(=O)[O-])cc7F)c7ccc4[nH]7)C=C6)C=C5)cc3)n2)n1
REMARK SMILES IDX 25 1 24 2 23 3 22 4 21 5 20 6 18 7 19 8 17 9 14 10 15 11
REMARK SMILES IDX 101 12 16 13 12 14 13 15 10 16 9 17 11 19 7 20 8 21 6 22
REMARK SMILES IDX 3 23 4 24 102 25 5 26 2 27 1 28 26 29 27 30 28 31 29 32
REMARK SMILES IDX 30 33 31 34 32 35 33 36 34 37 35 38 36 39 100 40 37 41 99 42
REMARK SMILES IDX 38 43 39 44 40 45 93 46 41 47 98 48 92 49 94 50 42 51 97 52
REMARK SMILES IDX 91 53 90 54 43 56 77 57 56 58 76 59 57 60 60 61 75 62 95 63
REMARK SMILES IDX 58 64 59 65 74 67 96 68 61 69 44 70 45 71 54 72 46 73 47 74
REMARK SMILES IDX 53 75 55 76 48 77 49 78 50 79 51 80 52 81 78 82 79 83 88 84
REMARK SMILES IDX 80 85 81 86 87 87 89 88 82 89 83 90 84 91 85 92 86 93 62 94
REMARK SMILES IDX 63 95 72 96 64 97 65 98 71 99 73 100 66 101 67 102 68 103
REMARK SMILES IDX 69 104 70 105
REMARK H PARENT 9 18 94 55 60 66
REMARK Flexibility Score: inf
ROOT
ATOM      1  C   UNL     1       0.381 -11.716  -0.083  1.00  0.00     0.188 C 
ENDROOT
BRANCH   1   2
ATOM      2  C   UNL     1       1.840 -11.988   0.327  1.00  0.00     0.188 C 
BRANCH   2   3
ATOM      3  O   UNL     1       2.194 -13.320   0.653  1.00  0.00    -0.376 OA
BRANCH   3   4
ATOM      4  C   UNL     1       1.679 -14.013   1.776  1.00  0.00     0.202 C 
BRANCH   4   5
ATOM      5  C   UNL     1       0.713 -13.473   2.853  1.00  0.00     0.261 C 
BRANCH   5   6
ATOM      6  O   UNL     1       0.385 -12.091   2.849  1.00  0.00    -0.458 OA
BRANCH   6   7
ATOM      7  C   UNL     1       1.316 -11.228   3.332  1.00  0.00     0.358 C 
ATOM      8  O   UNL     1       2.368 -11.562   3.863  1.00  0.00    -0.244 OA
BRANCH   7   9
ATOM      9  C   UNL     1       0.999  -9.849   2.936  1.00  0.00     0.170 A 
ATOM     10  N   UNL     1      -0.117  -8.086   2.486  1.00  0.00    -0.260 N 
ATOM     11  C   UNL     1       1.147  -7.831   2.018  1.00  0.00     0.110 A 
ATOM     12  N   UNL     1      -0.242  -9.333   2.998  1.00  0.00    -0.165 NA
ATOM     13  C   UNL     1       1.902  -8.928   2.341  1.00  0.00     0.057 A 
BRANCH  10  14
ATOM     14  C   UNL     1      -1.117  -7.072   2.878  1.00  0.00     0.193 C 
ATOM     15  C   UNL     1      -0.622  -6.512   4.210  1.00  0.00     0.044 C 
BRANCH  14  16
ATOM     16  C   UNL     1      -1.379  -6.071   1.741  1.00  0.00     0.245 C 
ATOM     17  N   UNL     1      -2.085  -4.918   1.915  1.00  0.00    -0.346 N 
ATOM     18  H   UNL     1      -2.328  -4.468   1.074  1.00  0.00     0.164 HD
ATOM     19  O   UNL     1      -1.041  -6.302   0.574  1.00  0.00    -0.273 OA
BRANCH  17  20
ATOM     20  C   UNL     1      -2.547  -4.226   3.112  1.00  0.00     0.130 C 
ATOM     21  C   UNL     1      -3.998  -3.784   2.958  1.00  0.00     0.038 C 
BRANCH  20  22
ATOM     22  C   UNL     1      -1.607  -3.073   3.367  1.00  0.00     0.084 A 
ATOM     23  N   UNL     1      -0.002  -1.982   4.244  1.00  0.00    -0.273 N 
ATOM     24  C   UNL     1      -0.448  -1.186   3.231  1.00  0.00     0.109 A 
ATOM     25  N   UNL     1      -0.709  -3.125   4.363  1.00  0.00    -0.176 NA
ATOM     26  C   UNL     1      -1.485  -1.864   2.638  1.00  0.00     0.047 A 
BRANCH  23  27
ATOM     27  C   UNL     1       1.131  -1.775   5.128  1.00  0.00     0.141 C 
ATOM     28  C   UNL     1       1.675  -0.356   5.188  1.00  0.00     0.029 C 
ENDBRANCH  23  27
ENDBRANCH  20  22
ENDBRANCH  17  20
ENDBRANCH  14  16
ENDBRANCH  10  14
ENDBRANCH   7   9
ENDBRANCH   6   7
ENDBRANCH   5   6
ENDBRANCH   4   5
ENDBRANCH   3   4
ENDBRANCH   2   3
ENDBRANCH   1   2
BRANCH   1  29
ATOM     29  O   UNL     1      -0.465 -12.822   0.193  1.00  0.00    -0.377 OA
BRANCH  29  30
ATOM     30  C   UNL     1      -0.629 -13.764  -0.863  1.00  0.00     0.188 C 
BRANCH  30  31
ATOM     31  C   UNL     1       0.588 -14.188  -1.726  1.00  0.00     0.188 C 
BRANCH  31  32
ATOM     32  O   UNL     1       1.465 -13.126  -2.100  1.00  0.00    -0.376 OA
BRANCH  32  33
ATOM     33  C   UNL     1       1.600 -12.768  -3.465  1.00  0.00     0.202 C 
BRANCH  33  34
ATOM     34  C   UNL     1       0.518 -11.806  -3.941  1.00  0.00     0.261 C 
BRANCH  34  35
ATOM     35  O   UNL     1      -0.788 -12.256  -3.626  1.00  0.00    -0.460 OA
BRANCH  35  36
ATOM     36  C   UNL     1      -1.152 -13.412  -4.216  1.00  0.00     0.338 C 
ATOM     37  O   UNL     1      -0.454 -14.159  -4.874  1.00  0.00    -0.246 OA
BRANCH  36  38
ATOM     38  C   UNL     1      -2.595 -13.577  -4.036  1.00  0.00     0.060 A 
ATOM     39  C   UNL     1      -3.149 -14.704  -4.640  1.00  0.00     0.016 A 
ATOM     40  C   UNL     1      -3.363 -12.473  -3.630  1.00  0.00     0.016 A 
ATOM     41  C   UNL     1      -4.426 -14.592  -5.123  1.00  0.00     0.010 A 
ATOM     42  C   UNL     1      -4.630 -12.355  -4.131  1.00  0.00     0.010 A 
ATOM     43  C   UNL     1      -5.087 -13.370  -4.964  1.00  0.00    -0.014 A 
BRANCH  43  44
ATOM     44  C   UNL     1      -6.263 -13.161  -5.765  1.00  0.00     0.031 A 
ATOM     45  C   UNL     1      -7.468 -13.806  -5.225  1.00  0.00     0.074 A 
ATOM     46  C   UNL     1      -6.231 -12.391  -6.866  1.00  0.00     0.049 A 
ATOM     47  N   UNL     1      -8.114 -14.813  -5.707  1.00  0.00    -0.248 NA
ATOM     48  C   UNL     1      -7.906 -13.375  -3.890  1.00  0.00     0.031 C 
ATOM     49  C   UNL     1      -5.176 -11.473  -7.306  1.00  0.00     0.029 A 
ATOM     50  N   UNL     1      -7.214 -12.197  -7.780  1.00  0.00    -0.354 N 
ATOM     51  C   UNL     1      -9.183 -14.998  -4.843  1.00  0.00     0.074 A 
ATOM     52  C   UNL     1      -8.896 -14.234  -3.656  1.00  0.00     0.031 C 
ATOM     53  C   UNL     1      -5.672 -10.666  -8.271  1.00  0.00     0.029 A 
ATOM     54  C   UNL     1      -7.024 -11.093  -8.593  1.00  0.00     0.049 A 
ATOM     55  H   UNL     1      -7.995 -12.790  -7.858  1.00  0.00     0.167 HD
ATOM     56  C   UNL     1     -10.350 -15.547  -5.269  1.00  0.00     0.037 A 
ATOM     57  C   UNL     1      -7.966 -10.525  -9.383  1.00  0.00     0.037 A 
ATOM     58  C   UNL     1     -10.182 -16.282  -6.495  1.00  0.00     0.049 A 
ATOM     59  C   UNL     1      -9.030 -11.545  -9.605  1.00  0.00     0.074 A 
ATOM     60  C   UNL     1      -9.403 -17.359  -6.873  1.00  0.00     0.029 A 
ATOM     61  N   UNL     1     -10.603 -15.696  -7.665  1.00  0.00    -0.354 N 
ATOM     62  N   UNL     1      -8.857 -12.653 -10.277  1.00  0.00    -0.248 NA
ATOM     63  C   UNL     1     -10.174 -11.547  -8.704  1.00  0.00     0.031 C 
ATOM     64  C   UNL     1      -9.026 -17.097  -8.222  1.00  0.00     0.029 A 
ATOM     65  C   UNL     1      -9.619 -15.891  -8.603  1.00  0.00     0.049 A 
ATOM     66  H   UNL     1     -11.455 -15.222  -7.805  1.00  0.00     0.167 HD
ATOM     67  C   UNL     1      -9.606 -13.610  -9.604  1.00  0.00     0.074 A 
ATOM     68  C   UNL     1     -10.471 -12.849  -8.708  1.00  0.00     0.031 C 
ATOM     69  C   UNL     1      -9.266 -14.933  -9.632  1.00  0.00     0.037 A 
BRANCH  56  70
ATOM     70  C   UNL     1     -11.688 -15.100  -4.748  1.00  0.00     0.058 A 
ATOM     71  C   UNL     1     -12.833 -15.869  -5.022  1.00  0.00     0.135 A 
ATOM     72  C   UNL     1     -11.925 -13.811  -4.213  1.00  0.00     0.135 A 
ATOM     73  F   UNL     1     -12.719 -17.096  -5.555  1.00  0.00    -0.206 F 
ATOM     74  C   UNL     1     -14.121 -15.373  -4.828  1.00  0.00     0.059 A 
ATOM     75  C   UNL     1     -13.196 -13.323  -3.951  1.00  0.00     0.059 A 
ATOM     76  F   UNL     1     -10.942 -12.923  -4.018  1.00  0.00    -0.206 F 
ATOM     77  C   UNL     1     -14.290 -14.092  -4.306  1.00  0.00     0.060 A 
BRANCH  77  78
ATOM     78  S   UNL     1     -15.943 -13.394  -4.173  1.00  0.00     0.124 S 
ATOM     79  O   UNL     1     -16.256 -13.135  -5.574  1.00  0.00    -0.237 OA
ATOM     80  O   UNL     1     -16.683 -14.480  -3.540  1.00  0.00    -0.237 OA
ATOM     81  O   UNL     1     -15.741 -12.212  -3.340  1.00  0.00    -0.744 OA
ENDBRANCH  77  78
ENDBRANCH  56  70
BRANCH  57  82
ATOM     82  C   UNL     1      -8.162  -9.071  -9.623  1.00  0.00     0.058 A 
ATOM     83  C   UNL     1      -8.996  -8.606 -10.653  1.00  0.00     0.135 A 
ATOM     84  C   UNL     1      -7.731  -8.104  -8.689  1.00  0.00     0.135 A 
ATOM     85  F   UNL     1      -9.482  -9.462 -11.564  1.00  0.00    -0.206 F 
ATOM     86  C   UNL     1      -9.399  -7.268 -10.738  1.00  0.00     0.059 A 
ATOM     87  C   UNL     1      -8.105  -6.765  -8.763  1.00  0.00     0.059 A 
ATOM     88  F   UNL     1      -7.002  -8.447  -7.617  1.00  0.00    -0.206 F 
ATOM     89  C   UNL     1      -8.957  -6.356  -9.779  1.00  0.00     0.060 A 
BRANCH  89  90
ATOM     90  S   UNL     1      -9.586  -4.662  -9.799  1.00  0.00     0.124 S 
ATOM     91  O   UNL     1      -8.970  -4.126 -11.007  1.00  0.00    -0.237 OA
ATOM     92  O   UNL     1     -11.029  -4.870  -9.856  1.00  0.00    -0.237 OA
ATOM     93  O   UNL     1      -9.090  -4.100  -8.545  1.00  0.00    -0.744 OA
ENDBRANCH  89  90
ENDBRANCH  57  82
BRANCH  69  94
ATOM     94  C   UNL     1      -8.239 -15.383 -10.641  1.00  0.00     0.058 A 
ATOM     95  C   UNL     1      -6.888 -14.995 -10.608  1.00  0.00     0.135 A 
ATOM     96  C   UNL     1      -8.594 -16.383 -11.560  1.00  0.00     0.135 A 
ATOM     97  F   UNL     1      -6.445 -14.124  -9.691  1.00  0.00    -0.206 F 
ATOM     98  C   UNL     1      -5.939 -15.552 -11.468  1.00  0.00     0.059 A 
ATOM     99  C   UNL     1      -7.658 -16.974 -12.408  1.00  0.00     0.059 A 
ATOM    100  F   UNL     1      -9.855 -16.844 -11.598  1.00  0.00    -0.206 F 
ATOM    101  C   UNL     1      -6.332 -16.548 -12.361  1.00  0.00     0.060 A 
BRANCH 101 102
ATOM    102  S   UNL     1      -5.081 -17.350 -13.388  1.00  0.00     0.124 S 
ATOM    103  O   UNL     1      -4.787 -16.318 -14.377  1.00  0.00    -0.237 OA
ATOM    104  O   UNL     1      -4.015 -17.632 -12.431  1.00  0.00    -0.237 OA
ATOM    105  O   UNL     1      -5.768 -18.532 -13.904  1.00  0.00    -0.744 OA
ENDBRANCH 101 102
ENDBRANCH  69  94
ENDBRANCH  43  44
ENDBRANCH  36  38
ENDBRANCH  35  36
ENDBRANCH  34  35
ENDBRANCH  33  34
ENDBRANCH  32  33
ENDBRANCH  31  32
ENDBRANCH  30  31
ENDBRANCH  29  30
ENDBRANCH   1  29
TORSDOF 28
