REMARK SMILES C[C@@]1(Oc2c[nH]c3ccc(Br)c(Cl)c23)O[C@@H](C(=O)OCCOCCOCCOCCOC(=O)c2ccc(-c3c4nc(c(-c5c(F)cc(S(=O)(=O)[O-])cc5F)c5ccc([nH]5)c(-c5c(F)cc(S(=O)(=O)[O-])cc5F)c5nc(c(-c6c(F)cc(S(=O)(=O)[O-])cc6F)c6ccc3[nH]6)C=C5)C=C4)cc2)[C@@](C)(O)[C@@](C)(O)[C@@]1(C)O
REMARK SMILES IDX 26 1 25 2 24 3 23 4 22 5 21 6 20 7 19 8 17 9 18 10 16 11
REMARK SMILES IDX 1 12 2 13 15 14 106 15 103 16 107 17 100 18 104 19 101 20
REMARK SMILES IDX 3 21 4 22 5 23 14 24 6 25 7 26 12 27 8 29 10 30 13 31 9 32
REMARK SMILES IDX 11 33 108 34 105 36 102 38 27 40 28 41 29 42 30 43 31 44
REMARK SMILES IDX 32 45 33 46 34 47 35 48 99 49 36 50 98 51 37 52 38 53 39 54
REMARK SMILES IDX 92 55 40 56 97 57 91 58 93 59 41 60 96 61 90 62 89 63 42 65
REMARK SMILES IDX 76 66 55 67 75 68 56 69 59 70 74 71 94 72 57 73 58 74 73 76
REMARK SMILES IDX 95 77 60 78 43 79 44 80 53 81 45 82 46 83 52 84 54 85 47 86
REMARK SMILES IDX 48 87 49 88 50 89 51 90 77 91 78 92 87 93 79 94 80 95 86 96
REMARK SMILES IDX 88 97 81 98 82 99 83 100 84 101 85 102 61 103 62 104 71 105
REMARK SMILES IDX 63 106 64 107 70 108 72 109 65 110 66 111 67 112 68 113
REMARK SMILES IDX 69 114
REMARK H PARENT 6 28 108 35 105 37 102 39 93 64 59 75
REMARK Flexibility Score: inf
ROOT
ATOM      1  C   UNL     1      -2.951   0.338  -3.720  1.00  0.00     0.188 C 
ENDROOT
BRANCH   1   2
ATOM      2  O   UNL     1      -3.381   1.219  -2.697  1.00  0.00    -0.377 OA
BRANCH   2   3
ATOM      3  C   UNL     1      -2.396   2.048  -2.116  1.00  0.00     0.188 C 
BRANCH   3   4
ATOM      4  C   UNL     1      -1.580   2.988  -2.994  1.00  0.00     0.188 C 
BRANCH   4   5
ATOM      5  O   UNL     1      -0.594   2.392  -3.830  1.00  0.00    -0.376 OA
BRANCH   5   6
ATOM      6  C   UNL     1       0.399   1.548  -3.247  1.00  0.00     0.202 C 
BRANCH   6   7
ATOM      7  C   UNL     1       1.062   2.026  -1.951  1.00  0.00     0.261 C 
BRANCH   7   8
ATOM      8  O   UNL     1       0.377   1.477  -0.801  1.00  0.00    -0.461 OA
BRANCH   8   9
ATOM      9  C   UNL     1       0.198   2.272   0.278  1.00  0.00     0.338 C 
ATOM     10  O   UNL     1       0.558   3.448   0.309  1.00  0.00    -0.249 OA
BRANCH   9  11
ATOM     11  C   UNL     1      -0.387   1.548   1.525  1.00  0.00     0.266 C 
ATOM     12  C   UNL     1       1.433  -0.833   0.638  1.00  0.00     0.094 C 
ATOM     13  C   UNL     1       0.582  -0.685   1.920  1.00  0.00     0.240 C 
ATOM     14  O   UNL     1       0.499   0.705   2.258  1.00  0.00    -0.320 OA
ATOM     15  C   UNL     1      -0.860  -1.389   1.794  1.00  0.00     0.158 C 
ATOM     16  C   UNL     1      -1.856  -0.495   0.974  1.00  0.00     0.128 C 
ATOM     17  C   UNL     1      -1.512  -1.780   3.129  1.00  0.00     0.053 C 
ATOM     18  C   UNL     1      -1.839   0.993   1.484  1.00  0.00     0.130 C 
ATOM     19  C   UNL     1      -3.286  -1.086   0.852  1.00  0.00     0.049 C 
ATOM     20  C   UNL     1      -2.444   1.167   2.905  1.00  0.00     0.049 C 
BRANCH  13  21
ATOM     21  O   UNL     1       1.446  -1.426   2.855  1.00  0.00    -0.457 OA
BRANCH  21  22
ATOM     22  C   UNL     1       1.328  -1.119   4.165  1.00  0.00     0.150 A 
ATOM     23  C   UNL     1       1.609   0.096   4.739  1.00  0.00     0.130 A 
ATOM     24  C   UNL     1       0.884  -2.009   5.185  1.00  0.00     0.061 A 
ATOM     25  N   UNL     1       1.152   0.045   6.029  1.00  0.00    -0.358 N 
ATOM     26  C   UNL     1       0.595  -1.191   6.282  1.00  0.00     0.051 A 
ATOM     27  C   UNL     1       0.531  -3.375   5.257  1.00  0.00     0.068 A 
ATOM     28  H   UNL     1       1.213   0.781   6.679  1.00  0.00     0.166 HD
ATOM     29  C   UNL     1      -0.155  -1.639   7.375  1.00  0.00     0.028 A 
ATOM     30  C   UNL     1      -0.270  -3.828   6.309  1.00  0.00     0.037 A 
ATOM     31  Cl  UNL     1       1.063  -4.353   3.948  1.00  0.00    -0.082 Cl
ATOM     32  C   UNL     1      -0.627  -2.957   7.340  1.00  0.00     0.019 A 
ATOM     33  Br  UNL     1      -0.986  -5.585   6.342  1.00  0.00    -0.049 Br
ENDBRANCH  21  22
ENDBRANCH  13  21
BRANCH  15  34
ATOM     34  O   UNL     1      -0.713  -2.640   1.065  1.00  0.00    -0.380 OA
ATOM     35  H   UNL     1      -0.303  -2.466   0.203  1.00  0.00     0.211 HD
ENDBRANCH  15  34
BRANCH  16  36
ATOM     36  O   UNL     1      -1.410  -0.547  -0.395  1.00  0.00    -0.384 OA
ATOM     37  H   UNL     1      -0.507  -0.197  -0.454  1.00  0.00     0.211 HD
ENDBRANCH  16  36
BRANCH  18  38
ATOM     38  O   UNL     1      -2.660   1.853   0.690  1.00  0.00    -0.384 OA
ATOM     39  H   UNL     1      -2.364   1.820  -0.234  1.00  0.00     0.211 HD
ENDBRANCH  18  38
ENDBRANCH   9  11
ENDBRANCH   8   9
ENDBRANCH   7   8
ENDBRANCH   6   7
ENDBRANCH   5   6
ENDBRANCH   4   5
ENDBRANCH   3   4
ENDBRANCH   2   3
ENDBRANCH   1   2
BRANCH   1  40
ATOM     40  C   UNL     1      -3.168   0.928  -5.118  1.00  0.00     0.188 C 
BRANCH  40  41
ATOM     41  O   UNL     1      -4.449   1.462  -5.456  1.00  0.00    -0.376 OA
BRANCH  41  42
ATOM     42  C   UNL     1      -5.127   2.290  -4.516  1.00  0.00     0.202 C 
BRANCH  42  43
ATOM     43  C   UNL     1      -6.220   1.564  -3.710  1.00  0.00     0.261 C 
BRANCH  43  44
ATOM     44  O   UNL     1      -5.905   0.205  -3.426  1.00  0.00    -0.460 OA
BRANCH  44  45
ATOM     45  C   UNL     1      -6.047  -0.595  -4.509  1.00  0.00     0.338 C 
ATOM     46  O   UNL     1      -6.473  -0.281  -5.607  1.00  0.00    -0.246 OA
BRANCH  45  47
ATOM     47  C   UNL     1      -5.706  -1.983  -4.165  1.00  0.00     0.060 A 
ATOM     48  C   UNL     1      -5.601  -2.846  -5.256  1.00  0.00     0.016 A 
ATOM     49  C   UNL     1      -5.952  -2.442  -2.864  1.00  0.00     0.016 A 
ATOM     50  C   UNL     1      -6.124  -4.106  -5.113  1.00  0.00     0.010 A 
ATOM     51  C   UNL     1      -6.476  -3.708  -2.721  1.00  0.00     0.010 A 
ATOM     52  C   UNL     1      -6.698  -4.445  -3.882  1.00  0.00    -0.014 A 
BRANCH  52  53
ATOM     53  C   UNL     1      -7.777  -5.411  -3.957  1.00  0.00     0.031 A 
ATOM     54  C   UNL     1      -7.391  -6.821  -4.078  1.00  0.00     0.074 A 
ATOM     55  C   UNL     1      -9.067  -5.023  -3.991  1.00  0.00     0.049 A 
ATOM     56  N   UNL     1      -7.513  -7.590  -5.108  1.00  0.00    -0.248 NA
ATOM     57  C   UNL     1      -6.712  -7.420  -2.927  1.00  0.00     0.031 C 
ATOM     58  C   UNL     1      -9.640  -3.722  -3.630  1.00  0.00     0.029 A 
ATOM     59  N   UNL     1     -10.161  -5.776  -4.284  1.00  0.00    -0.354 N 
ATOM     60  C   UNL     1      -7.075  -8.834  -4.687  1.00  0.00     0.074 A 
ATOM     61  C   UNL     1      -6.489  -8.653  -3.379  1.00  0.00     0.031 C 
ATOM     62  C   UNL     1     -10.980  -3.851  -3.513  1.00  0.00     0.029 A 
ATOM     63  C   UNL     1     -11.361  -5.195  -3.915  1.00  0.00     0.049 A 
ATOM     64  H   UNL     1     -10.104  -6.657  -4.721  1.00  0.00     0.167 HD
ATOM     65  C   UNL     1      -7.370  -9.981  -5.351  1.00  0.00     0.037 A 
ATOM     66  C   UNL     1     -12.557  -5.825  -3.842  1.00  0.00     0.037 A 
ATOM     67  C   UNL     1      -7.898  -9.763  -6.667  1.00  0.00     0.049 A 
ATOM     68  C   UNL     1     -12.489  -7.032  -4.710  1.00  0.00     0.074 A 
ATOM     69  C   UNL     1      -7.409  -9.194  -7.826  1.00  0.00     0.029 A 
ATOM     70  N   UNL     1      -9.257  -9.867  -6.845  1.00  0.00    -0.354 N 
ATOM     71  N   UNL     1     -12.427  -7.007  -6.013  1.00  0.00    -0.248 NA
ATOM     72  C   UNL     1     -12.107  -8.298  -4.100  1.00  0.00     0.031 C 
ATOM     73  C   UNL     1      -8.534  -8.594  -8.463  1.00  0.00     0.029 A 
ATOM     74  C   UNL     1      -9.646  -8.826  -7.654  1.00  0.00     0.049 A 
ATOM     75  H   UNL     1      -9.843 -10.559  -6.464  1.00  0.00     0.167 HD
ATOM     76  C   UNL     1     -11.635  -8.092  -6.360  1.00  0.00     0.074 A 
ATOM     77  C   UNL     1     -11.567  -8.910  -5.156  1.00  0.00     0.031 C 
ATOM     78  C   UNL     1     -10.886  -8.094  -7.502  1.00  0.00     0.037 A 
BRANCH  65  79
ATOM     79  C   UNL     1      -7.419 -11.297  -4.651  1.00  0.00     0.058 A 
ATOM     80  C   UNL     1      -7.113 -12.486  -5.326  1.00  0.00     0.135 A 
ATOM     81  C   UNL     1      -7.951 -11.421  -3.349  1.00  0.00     0.135 A 
ATOM     82  F   UNL     1      -6.640 -12.454  -6.582  1.00  0.00    -0.206 F 
ATOM     83  C   UNL     1      -7.321 -13.733  -4.739  1.00  0.00     0.059 A 
ATOM     84  C   UNL     1      -8.121 -12.648  -2.726  1.00  0.00     0.059 A 
ATOM     85  F   UNL     1      -8.382 -10.347  -2.670  1.00  0.00    -0.206 F 
ATOM     86  C   UNL     1      -7.831 -13.801  -3.441  1.00  0.00     0.060 A 
BRANCH  86  87
ATOM     87  S   UNL     1      -8.159 -15.410  -2.701  1.00  0.00     0.124 S 
ATOM     88  O   UNL     1      -9.409 -15.778  -3.356  1.00  0.00    -0.237 OA
ATOM     89  O   UNL     1      -6.981 -16.178  -3.092  1.00  0.00    -0.237 OA
ATOM     90  O   UNL     1      -8.255 -15.107  -1.276  1.00  0.00    -0.744 OA
ENDBRANCH  86  87
ENDBRANCH  65  79
BRANCH  66  91
ATOM     91  C   UNL     1     -13.583  -5.653  -2.782  1.00  0.00     0.058 A 
ATOM     92  C   UNL     1     -14.864  -6.213  -2.921  1.00  0.00     0.135 A 
ATOM     93  C   UNL     1     -13.248  -5.177  -1.496  1.00  0.00     0.135 A 
ATOM     94  F   UNL     1     -15.256  -6.717  -4.101  1.00  0.00    -0.206 F 
ATOM     95  C   UNL     1     -15.740  -6.340  -1.839  1.00  0.00     0.059 A 
ATOM     96  C   UNL     1     -14.111  -5.274  -0.410  1.00  0.00     0.059 A 
ATOM     97  F   UNL     1     -12.027  -4.690  -1.226  1.00  0.00    -0.206 F 
ATOM     98  C   UNL     1     -15.345  -5.885  -0.582  1.00  0.00     0.060 A 
BRANCH  98  99
ATOM     99  S   UNL     1     -16.393  -6.213   0.852  1.00  0.00     0.124 S 
ATOM    100  O   UNL     1     -17.553  -5.374   0.577  1.00  0.00    -0.237 OA
ATOM    101  O   UNL     1     -16.606  -7.653   0.750  1.00  0.00    -0.237 OA
ATOM    102  O   UNL     1     -15.568  -5.787   1.980  1.00  0.00    -0.744 OA
ENDBRANCH  98  99
ENDBRANCH  66  91
BRANCH  78 103
ATOM    103  C   UNL     1     -11.207  -7.061  -8.551  1.00  0.00     0.058 A 
ATOM    104  C   UNL     1     -11.035  -5.678  -8.362  1.00  0.00     0.135 A 
ATOM    105  C   UNL     1     -11.577  -7.492  -9.834  1.00  0.00     0.135 A 
ATOM    106  F   UNL     1     -10.580  -5.197  -7.196  1.00  0.00    -0.206 F 
ATOM    107  C   UNL     1     -11.271  -4.762  -9.389  1.00  0.00     0.059 A 
ATOM    108  C   UNL     1     -11.791  -6.597 -10.881  1.00  0.00     0.059 A 
ATOM    109  F   UNL     1     -11.694  -8.805 -10.096  1.00  0.00    -0.206 F 
ATOM    110  C   UNL     1     -11.651  -5.231 -10.646  1.00  0.00     0.060 A 
BRANCH 110 111
ATOM    111  S   UNL     1     -11.885  -4.048 -11.993  1.00  0.00     0.124 S 
ATOM    112  O   UNL     1     -13.161  -3.433 -11.643  1.00  0.00    -0.237 OA
ATOM    113  O   UNL     1     -10.711  -3.188 -11.872  1.00  0.00    -0.237 OA
ATOM    114  O   UNL     1     -11.907  -4.890 -13.187  1.00  0.00    -0.744 OA
ENDBRANCH 110 111
ENDBRANCH  78 103
ENDBRANCH  52  53
ENDBRANCH  45  47
ENDBRANCH  44  45
ENDBRANCH  43  44
ENDBRANCH  42  43
ENDBRANCH  41  42
ENDBRANCH  40  41
ENDBRANCH   1  40
TORSDOF 28
