REMARK SMILES O=C(OCCOCCOCCOCCOC(=O)[C@H]1C[C@H](O)CN1C(=O)CS[C@H]1CCS(=O)(=O)C1)c1ccc(-c2c3nc(c(-c4c(F)cc(S(=O)(=O)[O-])cc4F)c4ccc([nH]4)c(-c4c(F)cc(S(=O)(=O)[O-])cc4F)c4nc(c(-c5c(F)cc(S(=O)(=O)[O-])cc5F)c5ccc2[nH]5)C=C4)C=C3)cc1
REMARK SMILES IDX 10 1 9 2 8 3 7 4 6 5 5 6 4 7 3 8 2 9 1 10 35 11 36 12 100 13
REMARK SMILES IDX 37 14 99 15 38 16 39 17 40 18 93 19 41 20 98 21 92 22 94 23
REMARK SMILES IDX 42 24 97 25 91 26 90 27 43 29 77 30 56 31 76 32 57 33 60 34
REMARK SMILES IDX 75 35 95 36 58 37 59 38 74 40 96 41 61 42 44 43 45 44 54 45
REMARK SMILES IDX 46 46 47 47 53 48 55 49 48 50 49 51 50 52 51 53 52 54 78 55
REMARK SMILES IDX 79 56 88 57 80 58 81 59 87 60 89 61 82 62 83 63 84 64 85 65
REMARK SMILES IDX 86 66 62 67 63 68 72 69 64 70 65 71 71 72 73 73 66 74 67 75
REMARK SMILES IDX 68 76 69 77 70 78 11 79 12 80 13 81 14 82 15 83 16 84 17 85
REMARK SMILES IDX 18 86 19 87 23 88 20 89 22 90 24 91 25 92 26 93 27 94 28 95
REMARK SMILES IDX 29 96 34 97 30 98 31 99 32 100 33 101 21 102
REMARK H PARENT 94 28 60 39 21 103
REMARK Flexibility Score: inf
ROOT
ATOM      1  C   UNL     1       4.600   0.980  12.272  1.00  0.00     0.188 C 
ENDROOT
BRANCH   1   2
ATOM      2  O   UNL     1       3.564   0.320  11.533  1.00  0.00    -0.377 OA
BRANCH   2   3
ATOM      3  C   UNL     1       2.687  -0.566  12.239  1.00  0.00     0.188 C 
BRANCH   3   4
ATOM      4  C   UNL     1       3.374  -1.729  12.939  1.00  0.00     0.188 C 
BRANCH   4   5
ATOM      5  O   UNL     1       4.748  -1.738  12.614  1.00  0.00    -0.376 OA
BRANCH   5   6
ATOM      6  C   UNL     1       5.208  -2.692  11.683  1.00  0.00     0.202 C 
BRANCH   6   7
ATOM      7  C   UNL     1       6.310  -3.509  12.358  1.00  0.00     0.261 C 
BRANCH   7   8
ATOM      8  O   UNL     1       5.816  -4.149  13.552  1.00  0.00    -0.460 OA
BRANCH   8   9
ATOM      9  C   UNL     1       5.463  -3.509  14.696  1.00  0.00     0.338 C 
ATOM     10  O   UNL     1       4.542  -3.957  15.378  1.00  0.00    -0.246 OA
BRANCH   9  11
ATOM     11  C   UNL     1       6.263  -2.374  15.256  1.00  0.00     0.060 A 
ATOM     12  C   UNL     1       6.720  -1.265  14.535  1.00  0.00     0.016 A 
ATOM     13  C   UNL     1       6.479  -2.393  16.644  1.00  0.00     0.016 A 
ATOM     14  C   UNL     1       7.370  -0.209  15.156  1.00  0.00     0.010 A 
ATOM     15  C   UNL     1       7.157  -1.348  17.276  1.00  0.00     0.010 A 
ATOM     16  C   UNL     1       7.616  -0.261  16.523  1.00  0.00    -0.014 A 
BRANCH  16  17
ATOM     17  C   UNL     1       8.556   0.723  17.080  1.00  0.00     0.031 A 
ATOM     18  C   UNL     1       9.976   0.281  17.260  1.00  0.00     0.074 A 
ATOM     19  C   UNL     1       8.173   1.996  17.274  1.00  0.00     0.049 A 
ATOM     20  N   UNL     1      10.978   0.909  17.805  1.00  0.00    -0.248 NA
ATOM     21  C   UNL     1      10.315  -1.057  16.738  1.00  0.00     0.031 C 
ATOM     22  C   UNL     1       6.847   2.537  16.964  1.00  0.00     0.029 A 
ATOM     23  N   UNL     1       8.869   3.072  17.755  1.00  0.00    -0.354 N 
ATOM     24  C   UNL     1      12.054   0.033  17.725  1.00  0.00     0.074 A 
ATOM     25  C   UNL     1      11.586  -1.172  17.082  1.00  0.00     0.031 C 
ATOM     26  C   UNL     1       6.827   3.846  17.266  1.00  0.00     0.029 A 
ATOM     27  C   UNL     1       8.112   4.216  17.851  1.00  0.00     0.049 A 
ATOM     28  H   UNL     1       9.819   3.030  18.008  1.00  0.00     0.167 HD
ATOM     29  C   UNL     1      13.317   0.227  18.164  1.00  0.00     0.037 A 
ATOM     30  C   UNL     1       8.425   5.407  18.396  1.00  0.00     0.037 A 
ATOM     31  C   UNL     1      13.735   1.446  18.800  1.00  0.00     0.049 A 
ATOM     32  C   UNL     1       9.804   5.562  18.985  1.00  0.00     0.074 A 
ATOM     33  C   UNL     1      14.959   1.756  19.360  1.00  0.00     0.029 A 
ATOM     34  N   UNL     1      12.922   2.564  18.956  1.00  0.00    -0.354 N 
ATOM     35  N   UNL     1      10.796   4.700  18.997  1.00  0.00    -0.248 NA
ATOM     36  C   UNL     1      10.105   6.835  19.649  1.00  0.00     0.031 C 
ATOM     37  C   UNL     1      14.870   3.046  19.896  1.00  0.00     0.029 A 
ATOM     38  C   UNL     1      13.611   3.562  19.617  1.00  0.00     0.049 A 
ATOM     39  H   UNL     1      11.992   2.633  18.641  1.00  0.00     0.167 HD
ATOM     40  C   UNL     1      11.847   5.333  19.649  1.00  0.00     0.074 A 
ATOM     41  C   UNL     1      11.371   6.657  20.004  1.00  0.00     0.031 C 
ATOM     42  C   UNL     1      13.091   4.871  19.934  1.00  0.00     0.037 A 
BRANCH  29  43
ATOM     43  C   UNL     1      14.276  -0.922  18.037  1.00  0.00     0.058 A 
ATOM     44  C   UNL     1      14.772  -1.350  16.795  1.00  0.00     0.135 A 
ATOM     45  C   UNL     1      14.675  -1.636  19.179  1.00  0.00     0.135 A 
ATOM     46  F   UNL     1      14.395  -0.730  15.665  1.00  0.00    -0.206 F 
ATOM     47  C   UNL     1      15.605  -2.461  16.687  1.00  0.00     0.059 A 
ATOM     48  C   UNL     1      15.528  -2.732  19.098  1.00  0.00     0.059 A 
ATOM     49  F   UNL     1      14.216  -1.284  20.390  1.00  0.00    -0.206 F 
ATOM     50  C   UNL     1      15.976  -3.147  17.845  1.00  0.00     0.060 A 
BRANCH  50  51
ATOM     51  S   UNL     1      17.046  -4.592  17.687  1.00  0.00     0.124 S 
ATOM     52  O   UNL     1      16.137  -5.563  17.083  1.00  0.00    -0.237 OA
ATOM     53  O   UNL     1      18.110  -4.097  16.820  1.00  0.00    -0.237 OA
ATOM     54  O   UNL     1      17.441  -4.875  19.063  1.00  0.00    -0.744 OA
ENDBRANCH  50  51
ENDBRANCH  29  43
BRANCH  30  55
ATOM     55  C   UNL     1       7.415   6.499  18.463  1.00  0.00     0.058 A 
ATOM     56  C   UNL     1       7.592   7.705  17.768  1.00  0.00     0.135 A 
ATOM     57  C   UNL     1       6.243   6.360  19.227  1.00  0.00     0.135 A 
ATOM     58  F   UNL     1       8.696   7.898  17.031  1.00  0.00    -0.206 F 
ATOM     59  C   UNL     1       6.656   8.735  17.837  1.00  0.00     0.059 A 
ATOM     60  C   UNL     1       5.279   7.362  19.288  1.00  0.00     0.059 A 
ATOM     61  F   UNL     1       6.015   5.227  19.909  1.00  0.00    -0.206 F 
ATOM     62  C   UNL     1       5.500   8.552  18.599  1.00  0.00     0.060 A 
BRANCH  62  63
ATOM     63  S   UNL     1       4.276   9.880  18.657  1.00  0.00     0.124 S 
ATOM     64  O   UNL     1       4.965  10.880  19.464  1.00  0.00    -0.237 OA
ATOM     65  O   UNL     1       4.109  10.204  17.244  1.00  0.00    -0.237 OA
ATOM     66  O   UNL     1       3.122   9.247  19.288  1.00  0.00    -0.744 OA
ENDBRANCH  62  63
ENDBRANCH  30  55
BRANCH  42  67
ATOM     67  C   UNL     1      14.029   5.819  20.623  1.00  0.00     0.058 A 
ATOM     68  C   UNL     1      13.884   6.142  21.980  1.00  0.00     0.135 A 
ATOM     69  C   UNL     1      15.130   6.345  19.929  1.00  0.00     0.135 A 
ATOM     70  F   UNL     1      12.843   5.667  22.682  1.00  0.00    -0.206 F 
ATOM     71  C   UNL     1      14.793   6.972  22.623  1.00  0.00     0.059 A 
ATOM     72  C   UNL     1      16.068   7.151  20.561  1.00  0.00     0.059 A 
ATOM     73  F   UNL     1      15.316   6.051  18.632  1.00  0.00    -0.206 F 
ATOM     74  C   UNL     1      15.886   7.466  21.906  1.00  0.00     0.060 A 
BRANCH  74  75
ATOM     75  S   UNL     1      17.087   8.500  22.768  1.00  0.00     0.124 S 
ATOM     76  O   UNL     1      16.344   9.746  22.922  1.00  0.00    -0.237 OA
ATOM     77  O   UNL     1      17.323   7.745  23.995  1.00  0.00    -0.237 OA
ATOM     78  O   UNL     1      18.216   8.551  21.844  1.00  0.00    -0.744 OA
ENDBRANCH  74  75
ENDBRANCH  42  67
ENDBRANCH  16  17
ENDBRANCH   9  11
ENDBRANCH   8   9
ENDBRANCH   7   8
ENDBRANCH   6   7
ENDBRANCH   5   6
ENDBRANCH   4   5
ENDBRANCH   3   4
ENDBRANCH   2   3
ENDBRANCH   1   2
BRANCH   1  79
ATOM     79  C   UNL     1       4.470   2.511  12.255  1.00  0.00     0.188 C 
BRANCH  79  80
ATOM     80  O   UNL     1       3.924   3.083  13.441  1.00  0.00    -0.376 OA
BRANCH  80  81
ATOM     81  C   UNL     1       2.664   2.568  13.861  1.00  0.00     0.202 C 
BRANCH  81  82
ATOM     82  C   UNL     1       1.503   2.807  12.880  1.00  0.00     0.261 C 
BRANCH  82  83
ATOM     83  O   UNL     1       1.733   2.162  11.602  1.00  0.00    -0.462 OA
BRANCH  83  84
ATOM     84  C   UNL     1       1.219   2.767  10.507  1.00  0.00     0.329 C 
ATOM     85  O   UNL     1       0.412   3.692  10.573  1.00  0.00    -0.250 OA
BRANCH  84  86
ATOM     86  C   UNL     1       1.688   2.182   9.137  1.00  0.00     0.197 C 
ATOM     87  C   UNL     1       2.084   3.346   8.229  1.00  0.00     0.070 C 
ATOM     88  N   UNL     1       2.855   1.288   8.956  1.00  0.00    -0.325 N 
ATOM     89  C   UNL     1       3.586   3.499   8.472  1.00  0.00     0.136 C 
ATOM     90  C   UNL     1       4.070   2.078   8.763  1.00  0.00     0.152 C 
BRANCH  88  91
ATOM     91  C   UNL     1       2.715  -0.077   8.748  1.00  0.00     0.233 C 
ATOM     92  O   UNL     1       1.599  -0.605   8.733  1.00  0.00    -0.274 OA
BRANCH  91  93
ATOM     93  C   UNL     1       3.983  -0.920   8.528  1.00  0.00     0.169 C 
BRANCH  93  94
ATOM     94  S   UNL     1       3.867  -2.128   7.131  1.00  0.00    -0.148 SA
BRANCH  94  95
ATOM     95  C   UNL     1       4.078  -1.126   5.596  1.00  0.00     0.063 C 
ATOM     96  C   UNL     1       2.784  -1.150   4.768  1.00  0.00     0.031 C 
ATOM     97  C   UNL     1       4.407   0.326   5.820  1.00  0.00     0.151 C 
ATOM     98  C   UNL     1       2.867  -0.044   3.713  1.00  0.00     0.138 C 
ATOM     99  S   UNL     1       3.994   1.185   4.341  1.00  0.00     0.151 S 
ATOM    100  O   UNL     1       5.160   1.237   3.496  1.00  0.00    -0.229 OA
ATOM    101  O   UNL     1       3.262   2.380   4.736  1.00  0.00    -0.229 OA
ENDBRANCH  94  95
ENDBRANCH  93  94
ENDBRANCH  91  93
ENDBRANCH  88  91
BRANCH  89 102
ATOM    102  O   UNL     1       4.236   4.045   7.332  1.00  0.00    -0.391 OA
ATOM    103  H   UNL     1       4.076   3.474   6.564  1.00  0.00     0.211 HD
ENDBRANCH  89 102
ENDBRANCH  84  86
ENDBRANCH  83  84
ENDBRANCH  82  83
ENDBRANCH  81  82
ENDBRANCH  80  81
ENDBRANCH  79  80
ENDBRANCH   1  79
TORSDOF 28
