REMARK SMILES Cc1cc(SCC(=O)OCCOCCOCCOCCOC(=O)c2ccc(-c3c4nc(c(-c5c(F)cc(S(=O)(=O)[O-])cc5F)c5ccc([nH]5)c(-c5c(F)cc(S(=O)(=O)[O-])cc5F)c5nc(c(-c6c(F)cc(S(=O)(=O)[O-])cc6F)c6ccc3[nH]6)C=C5)C=C4)cc2)c2cc(C(F)(F)F)ccc2n1
REMARK SMILES IDX 15 1 14 2 13 3 12 4 11 5 10 6 9 7 7 8 8 9 6 10 5 11 4 12
REMARK SMILES IDX 1 13 2 14 3 15 100 16 99 17 90 18 98 19 91 20 97 21 92 22
REMARK SMILES IDX 93 23 94 24 95 25 96 26 16 27 17 28 18 29 19 30 20 31 21 32
REMARK SMILES IDX 22 33 23 34 24 35 25 36 89 37 26 38 88 39 27 40 28 41 29 42
REMARK SMILES IDX 82 43 30 44 87 45 81 46 83 47 31 48 86 49 80 50 79 51 32 53
REMARK SMILES IDX 66 54 45 55 65 56 46 57 49 58 64 59 84 60 47 61 48 62 63 64
REMARK SMILES IDX 85 65 50 66 33 67 34 68 43 69 35 70 36 71 42 72 44 73 37 74
REMARK SMILES IDX 38 75 39 76 40 77 41 78 67 79 68 80 77 81 69 82 70 83 76 84
REMARK SMILES IDX 78 85 71 86 72 87 73 88 74 89 75 90 51 91 52 92 61 93 53 94
REMARK SMILES IDX 54 95 60 96 62 97 55 98 56 99 57 100 58 101 59 102
REMARK H PARENT 83 52 49 63
REMARK Flexibility Score: inf
ROOT
ATOM      1  O   UNL     1      -1.168   1.053  -2.925  1.00  0.00    -0.377 OA
ENDROOT
BRANCH   1   2
ATOM      2  C   UNL     1      -1.799   1.969  -2.072  1.00  0.00     0.188 C 
BRANCH   2   3
ATOM      3  C   UNL     1      -3.327   1.984  -1.893  1.00  0.00     0.188 C 
BRANCH   3   4
ATOM      4  O   UNL     1      -4.152   2.438  -2.942  1.00  0.00    -0.376 OA
BRANCH   4   5
ATOM      5  C   UNL     1      -3.931   3.674  -3.589  1.00  0.00     0.202 C 
BRANCH   5   6
ATOM      6  C   UNL     1      -3.259   4.902  -2.935  1.00  0.00     0.261 C 
BRANCH   6   7
ATOM      7  O   UNL     1      -2.398   4.701  -1.792  1.00  0.00    -0.463 OA
BRANCH   7   8
ATOM      8  C   UNL     1      -2.926   4.926  -0.567  1.00  0.00     0.316 C 
ATOM      9  O   UNL     1      -4.085   5.305  -0.404  1.00  0.00    -0.251 OA
BRANCH   8  10
ATOM     10  C   UNL     1      -2.010   4.712   0.635  1.00  0.00     0.197 C 
BRANCH  10  11
ATOM     11  S   UNL     1      -0.404   3.844   0.466  1.00  0.00    -0.114 SA
BRANCH  11  12
ATOM     12  C   UNL     1      -0.598   2.098   1.018  1.00  0.00     0.019 A 
ATOM     13  C   UNL     1      -3.371  -0.444   1.475  1.00  0.00     0.067 C 
ATOM     14  C   UNL     1      -2.014   0.190   1.398  1.00  0.00     0.039 A 
ATOM     15  C   UNL     1      -1.856   1.572   1.343  1.00  0.00     0.039 A 
ATOM     16  N   UNL     1      -0.986  -0.669   1.273  1.00  0.00    -0.253 NA
ATOM     17  C   UNL     1       0.233  -0.191   1.014  1.00  0.00     0.072 A 
ATOM     18  C   UNL     1       0.514   1.187   0.865  1.00  0.00     0.014 A 
ATOM     19  C   UNL     1       1.228  -1.140   0.823  1.00  0.00     0.029 A 
ATOM     20  C   UNL     1       1.859   1.529   0.531  1.00  0.00     0.024 A 
ATOM     21  C   UNL     1       2.529  -0.788   0.479  1.00  0.00     0.015 A 
ATOM     22  C   UNL     1       2.866   0.557   0.341  1.00  0.00     0.056 A 
BRANCH  22  23
ATOM     23  C   UNL     1       4.282   0.958   0.000  1.00  0.00     0.416 C 
ATOM     24  F   UNL     1       4.370   1.643  -1.170  1.00  0.00    -0.166 F 
ATOM     25  F   UNL     1       4.833   1.759   0.954  1.00  0.00    -0.166 F 
ATOM     26  F   UNL     1       5.130  -0.104  -0.122  1.00  0.00    -0.166 F 
ENDBRANCH  22  23
ENDBRANCH  11  12
ENDBRANCH  10  11
ENDBRANCH   8  10
ENDBRANCH   7   8
ENDBRANCH   6   7
ENDBRANCH   5   6
ENDBRANCH   4   5
ENDBRANCH   3   4
ENDBRANCH   2   3
ENDBRANCH   1   2
BRANCH   1  27
ATOM     27  C   UNL     1      -1.610   1.099  -4.249  1.00  0.00     0.188 C 
BRANCH  27  28
ATOM     28  C   UNL     1      -2.555  -0.061  -4.551  1.00  0.00     0.188 C 
BRANCH  28  29
ATOM     29  O   UNL     1      -3.087  -0.874  -3.514  1.00  0.00    -0.376 OA
BRANCH  29  30
ATOM     30  C   UNL     1      -2.326  -1.347  -2.410  1.00  0.00     0.202 C 
BRANCH  30  31
ATOM     31  C   UNL     1      -0.868  -1.838  -2.453  1.00  0.00     0.261 C 
BRANCH  31  32
ATOM     32  O   UNL     1      -0.014  -1.305  -3.453  1.00  0.00    -0.460 OA
BRANCH  32  33
ATOM     33  C   UNL     1       0.051  -2.013  -4.595  1.00  0.00     0.338 C 
ATOM     34  O   UNL     1      -0.526  -3.054  -4.864  1.00  0.00    -0.246 OA
BRANCH  33  35
ATOM     35  C   UNL     1       0.790  -1.183  -5.556  1.00  0.00     0.060 A 
ATOM     36  C   UNL     1       0.135  -0.814  -6.736  1.00  0.00     0.016 A 
ATOM     37  C   UNL     1       2.078  -0.720  -5.265  1.00  0.00     0.016 A 
ATOM     38  C   UNL     1       0.765   0.029  -7.637  1.00  0.00     0.010 A 
ATOM     39  C   UNL     1       2.733   0.080  -6.196  1.00  0.00     0.010 A 
ATOM     40  C   UNL     1       2.084   0.426  -7.394  1.00  0.00    -0.014 A 
BRANCH  40  41
ATOM     41  C   UNL     1       2.863   0.945  -8.531  1.00  0.00     0.031 A 
ATOM     42  C   UNL     1       3.614  -0.063  -9.353  1.00  0.00     0.074 A 
ATOM     43  C   UNL     1       2.837   2.248  -8.851  1.00  0.00     0.049 A 
ATOM     44  N   UNL     1       4.385   0.121 -10.387  1.00  0.00    -0.248 NA
ATOM     45  C   UNL     1       3.469  -1.475  -8.952  1.00  0.00     0.031 C 
ATOM     46  C   UNL     1       2.076   3.278  -8.145  1.00  0.00     0.029 A 
ATOM     47  N   UNL     1       3.472   2.924  -9.857  1.00  0.00    -0.354 N 
ATOM     48  C   UNL     1       4.816  -1.146 -10.759  1.00  0.00     0.074 A 
ATOM     49  C   UNL     1       4.250  -2.089  -9.824  1.00  0.00     0.031 C 
ATOM     50  C   UNL     1       2.303   4.465  -8.733  1.00  0.00     0.029 A 
ATOM     51  C   UNL     1       3.251   4.280  -9.830  1.00  0.00     0.049 A 
ATOM     52  H   UNL     1       4.033   2.482 -10.534  1.00  0.00     0.167 HD
ATOM     53  C   UNL     1       5.611  -1.488 -11.798  1.00  0.00     0.037 A 
ATOM     54  C   UNL     1       3.786   5.251 -10.595  1.00  0.00     0.037 A 
ATOM     55  C   UNL     1       6.175  -0.524 -12.702  1.00  0.00     0.049 A 
ATOM     56  C   UNL     1       4.749   4.856 -11.686  1.00  0.00     0.074 A 
ATOM     57  C   UNL     1       7.008  -0.742 -13.781  1.00  0.00     0.029 A 
ATOM     58  N   UNL     1       5.966   0.846 -12.620  1.00  0.00    -0.354 N 
ATOM     59  N   UNL     1       5.152   3.655 -12.036  1.00  0.00    -0.248 NA
ATOM     60  C   UNL     1       5.330   5.941 -12.486  1.00  0.00     0.031 C 
ATOM     61  C   UNL     1       7.351   0.503 -14.318  1.00  0.00     0.029 A 
ATOM     62  C   UNL     1       6.676   1.491 -13.616  1.00  0.00     0.049 A 
ATOM     63  H   UNL     1       5.398   1.293 -11.952  1.00  0.00     0.167 HD
ATOM     64  C   UNL     1       6.006   3.838 -13.119  1.00  0.00     0.074 A 
ATOM     65  C   UNL     1       6.054   5.265 -13.369  1.00  0.00     0.031 C 
ATOM     66  C   UNL     1       6.686   2.916 -13.845  1.00  0.00     0.037 A 
BRANCH  53  67
ATOM     67  C   UNL     1       5.939  -2.943 -11.973  1.00  0.00     0.058 A 
ATOM     68  C   UNL     1       4.973  -3.880 -12.376  1.00  0.00     0.135 A 
ATOM     69  C   UNL     1       7.244  -3.408 -11.742  1.00  0.00     0.135 A 
ATOM     70  F   UNL     1       3.703  -3.497 -12.581  1.00  0.00    -0.206 F 
ATOM     71  C   UNL     1       5.284  -5.228 -12.524  1.00  0.00     0.059 A 
ATOM     72  C   UNL     1       7.585  -4.746 -11.914  1.00  0.00     0.059 A 
ATOM     73  F   UNL     1       8.203  -2.559 -11.340  1.00  0.00    -0.206 F 
ATOM     74  C   UNL     1       6.595  -5.651 -12.294  1.00  0.00     0.060 A 
BRANCH  74  75
ATOM     75  S   UNL     1       6.985  -7.400 -12.508  1.00  0.00     0.124 S 
ATOM     76  O   UNL     1       6.293  -7.996 -11.370  1.00  0.00    -0.237 OA
ATOM     77  O   UNL     1       6.411  -7.687 -13.819  1.00  0.00    -0.237 OA
ATOM     78  O   UNL     1       8.443  -7.434 -12.444  1.00  0.00    -0.744 OA
ENDBRANCH  74  75
ENDBRANCH  53  67
BRANCH  54  79
ATOM     79  C   UNL     1       3.444   6.677 -10.343  1.00  0.00     0.058 A 
ATOM     80  C   UNL     1       2.723   7.431 -11.281  1.00  0.00     0.135 A 
ATOM     81  C   UNL     1       3.836   7.319  -9.157  1.00  0.00     0.135 A 
ATOM     82  F   UNL     1       2.330   6.868 -12.434  1.00  0.00    -0.206 F 
ATOM     83  C   UNL     1       2.419   8.771 -11.063  1.00  0.00     0.059 A 
ATOM     84  C   UNL     1       3.518   8.650  -8.902  1.00  0.00     0.059 A 
ATOM     85  F   UNL     1       4.518   6.643  -8.219  1.00  0.00    -0.206 F 
ATOM     86  C   UNL     1       2.819   9.371  -9.868  1.00  0.00     0.060 A 
BRANCH  86  87
ATOM     87  S   UNL     1       2.385  11.100  -9.579  1.00  0.00     0.124 S 
ATOM     88  O   UNL     1       3.253  11.784 -10.530  1.00  0.00    -0.237 OA
ATOM     89  O   UNL     1       0.959  11.112  -9.891  1.00  0.00    -0.237 OA
ATOM     90  O   UNL     1       2.712  11.298  -8.170  1.00  0.00    -0.744 OA
ENDBRANCH  86  87
ENDBRANCH  54  79
BRANCH  66  91
ATOM     91  C   UNL     1       7.498   3.410 -15.009  1.00  0.00     0.058 A 
ATOM     92  C   UNL     1       8.701   4.109 -14.830  1.00  0.00     0.135 A 
ATOM     93  C   UNL     1       7.105   3.103 -16.322  1.00  0.00     0.135 A 
ATOM     94  F   UNL     1       9.119   4.432 -13.596  1.00  0.00    -0.206 F 
ATOM     95  C   UNL     1       9.479   4.501 -15.914  1.00  0.00     0.059 A 
ATOM     96  C   UNL     1       7.883   3.455 -17.419  1.00  0.00     0.059 A 
ATOM     97  F   UNL     1       5.968   2.424 -16.547  1.00  0.00    -0.206 F 
ATOM     98  C   UNL     1       9.065   4.162 -17.204  1.00  0.00     0.060 A 
BRANCH  98  99
ATOM     99  S   UNL     1      10.112   4.629 -18.597  1.00  0.00     0.124 S 
ATOM    100  O   UNL     1       9.917   6.075 -18.639  1.00  0.00    -0.237 OA
ATOM    101  O   UNL     1      11.430   4.179 -18.159  1.00  0.00    -0.237 OA
ATOM    102  O   UNL     1       9.543   3.886 -19.717  1.00  0.00    -0.744 OA
ENDBRANCH  98  99
ENDBRANCH  66  91
ENDBRANCH  40  41
ENDBRANCH  33  35
ENDBRANCH  32  33
ENDBRANCH  31  32
ENDBRANCH  30  31
ENDBRANCH  29  30
ENDBRANCH  28  29
ENDBRANCH  27  28
ENDBRANCH   1  27
TORSDOF 26
