REMARK SMILES CC(C)[N@@H+](C)Cc1cc2c(cc1Cl)C=C(C(=O)OCCOCCOCCOCCOC(=O)c1ccc(-c3c4nc(c(-c5c(F)cc(S(=O)(=O)[O-])cc5F)c5ccc([nH]5)c(-c5c(F)cc(S(=O)(=O)[O-])cc5F)c5nc(c(-c6c(F)cc(S(=O)(=O)[O-])cc6F)c6ccc3[nH]6)C=C5)C=C4)cc1)[C@@H](C(F)(F)F)O2
REMARK SMILES IDX 24 1 23 2 22 3 21 4 20 5 19 6 18 7 16 8 17 9 15 10 7 11 8 12
REMARK SMILES IDX 12 13 9 14 11 15 13 16 10 17 104 18 14 19 99 20 6 21 4 22
REMARK SMILES IDX 5 23 2 25 1 26 3 27 100 28 101 29 102 30 103 31 25 32 26 33
REMARK SMILES IDX 27 34 28 35 29 36 30 37 31 38 32 39 33 40 34 41 98 42 35 43
REMARK SMILES IDX 97 44 36 45 37 46 38 47 91 48 39 49 96 50 90 51 92 52 40 53
REMARK SMILES IDX 95 54 89 55 88 56 41 58 75 59 54 60 74 61 55 62 58 63 73 64
REMARK SMILES IDX 93 65 56 66 57 67 72 69 94 70 59 71 42 72 43 73 52 74 44 75
REMARK SMILES IDX 45 76 51 77 53 78 46 79 47 80 48 81 49 82 50 83 76 84 77 85
REMARK SMILES IDX 86 86 78 87 79 88 85 89 87 90 80 91 81 92 82 93 83 94 84 95
REMARK SMILES IDX 60 96 61 97 70 98 62 99 63 100 69 101 71 102 64 103 65 104
REMARK SMILES IDX 66 105 67 106 68 107
REMARK H PARENT 4 24 92 57 58 68
REMARK Flexibility Score: inf
ROOT
ATOM      1  O   UNL     1       3.329  -0.038  -9.334  1.00  0.00    -0.377 OA
ENDROOT
BRANCH   1   2
ATOM      2  C   UNL     1       2.939  -1.178  -8.592  1.00  0.00     0.188 C 
BRANCH   2   3
ATOM      3  C   UNL     1       2.341  -2.300  -9.460  1.00  0.00     0.188 C 
BRANCH   3   4
ATOM      4  O   UNL     1       2.524  -2.103 -10.861  1.00  0.00    -0.376 OA
BRANCH   4   5
ATOM      5  C   UNL     1       1.391  -1.665 -11.605  1.00  0.00     0.202 C 
BRANCH   5   6
ATOM      6  C   UNL     1       0.948  -0.215 -11.367  1.00  0.00     0.261 C 
BRANCH   6   7
ATOM      7  O   UNL     1       0.560   0.069 -10.015  1.00  0.00    -0.460 OA
BRANCH   7   8
ATOM      8  C   UNL     1      -0.503  -0.589  -9.516  1.00  0.00     0.338 C 
ATOM      9  O   UNL     1      -1.216  -1.388 -10.097  1.00  0.00    -0.246 OA
BRANCH   8  10
ATOM     10  C   UNL     1      -0.558  -0.312  -8.066  1.00  0.00     0.087 C 
ATOM     11  C   UNL     1      -1.137  -0.486  -3.063  1.00  0.00     0.029 A 
ATOM     12  C   UNL     1      -0.908   0.511  -4.022  1.00  0.00     0.058 A 
ATOM     13  C   UNL     1      -1.190  -1.814  -3.531  1.00  0.00     0.050 A 
ATOM     14  C   UNL     1      -0.712   0.214  -5.369  1.00  0.00     0.128 A 
ATOM     15  C   UNL     1      -1.031  -2.114  -4.895  1.00  0.00     0.033 A 
ATOM     16  Cl  UNL     1      -1.494  -3.153  -2.476  1.00  0.00    -0.084 Cl
ATOM     17  C   UNL     1      -0.818  -1.093  -5.823  1.00  0.00     0.019 A 
ATOM     18  O   UNL     1      -0.432   1.286  -6.160  1.00  0.00    -0.475 OA
ATOM     19  C   UNL     1      -0.771  -1.355  -7.251  1.00  0.00     0.027 C 
ATOM     20  C   UNL     1      -0.293   1.095  -7.592  1.00  0.00     0.316 C 
BRANCH  11  21
ATOM     21  C   UNL     1      -1.434  -0.136  -1.616  1.00  0.00     0.300 C 
BRANCH  21  22
ATOM     22  N   UNL     1      -0.832   1.050  -1.002  1.00  0.00    -0.332 N 
ATOM     23  C   UNL     1      -1.472   2.326  -1.268  1.00  0.00     0.333 C 
ATOM     24  H   UNL     1      -1.122   0.809  -0.054  1.00  0.00     0.348 HD
BRANCH  22  25
ATOM     25  C   UNL     1       0.611   1.111  -0.753  1.00  0.00     0.177 C 
ATOM     26  C   UNL     1       1.057  -0.015   0.187  1.00  0.00     0.075 C 
ATOM     27  C   UNL     1       1.512   1.138  -1.989  1.00  0.00     0.075 C 
ENDBRANCH  22  25
ENDBRANCH  21  22
ENDBRANCH  11  21
BRANCH  20  28
ATOM     28  C   UNL     1      -1.189   2.139  -8.275  1.00  0.00     0.430 C 
ATOM     29  F   UNL     1      -0.942   3.378  -7.789  1.00  0.00    -0.167 F 
ATOM     30  F   UNL     1      -0.996   2.186  -9.610  1.00  0.00    -0.167 F 
ATOM     31  F   UNL     1      -2.499   1.870  -8.061  1.00  0.00    -0.167 F 
ENDBRANCH  20  28
ENDBRANCH   8  10
ENDBRANCH   7   8
ENDBRANCH   6   7
ENDBRANCH   5   6
ENDBRANCH   4   5
ENDBRANCH   3   4
ENDBRANCH   2   3
ENDBRANCH   1   2
BRANCH   1  32
ATOM     32  C   UNL     1       4.569  -0.086 -10.040  1.00  0.00     0.188 C 
BRANCH  32  33
ATOM     33  C   UNL     1       5.283  -1.420 -10.358  1.00  0.00     0.188 C 
BRANCH  33  34
ATOM     34  O   UNL     1       5.341  -2.324  -9.256  1.00  0.00    -0.376 OA
BRANCH  34  35
ATOM     35  C   UNL     1       6.627  -2.555  -8.696  1.00  0.00     0.202 C 
BRANCH  35  36
ATOM     36  C   UNL     1       7.080  -1.448  -7.739  1.00  0.00     0.261 C 
BRANCH  36  37
ATOM     37  O   UNL     1       7.248  -0.157  -8.341  1.00  0.00    -0.460 OA
BRANCH  37  38
ATOM     38  C   UNL     1       8.141  -0.038  -9.350  1.00  0.00     0.338 C 
ATOM     39  O   UNL     1       8.869  -0.905  -9.797  1.00  0.00    -0.246 OA
BRANCH  38  40
ATOM     40  C   UNL     1       7.929   1.295  -9.949  1.00  0.00     0.060 A 
ATOM     41  C   UNL     1       7.905   2.428  -9.133  1.00  0.00     0.016 A 
ATOM     42  C   UNL     1       7.690   1.402 -11.325  1.00  0.00     0.016 A 
ATOM     43  C   UNL     1       7.656   3.677  -9.698  1.00  0.00     0.010 A 
ATOM     44  C   UNL     1       7.433   2.655 -11.889  1.00  0.00     0.010 A 
ATOM     45  C   UNL     1       7.433   3.801 -11.079  1.00  0.00    -0.014 A 
BRANCH  45  46
ATOM     46  C   UNL     1       7.383   5.155 -11.677  1.00  0.00     0.031 A 
ATOM     47  C   UNL     1       6.090   5.842 -11.991  1.00  0.00     0.074 A 
ATOM     48  C   UNL     1       8.557   5.778 -11.894  1.00  0.00     0.049 A 
ATOM     49  N   UNL     1       5.896   7.072 -12.391  1.00  0.00    -0.248 NA
ATOM     50  C   UNL     1       4.860   5.053 -11.841  1.00  0.00     0.031 C 
ATOM     51  C   UNL     1       9.874   5.190 -11.636  1.00  0.00     0.029 A 
ATOM     52  N   UNL     1       8.837   7.036 -12.356  1.00  0.00    -0.354 N 
ATOM     53  C   UNL     1       4.521   7.221 -12.516  1.00  0.00     0.074 A 
ATOM     54  C   UNL     1       3.932   5.936 -12.194  1.00  0.00     0.031 C 
ATOM     55  C   UNL     1      10.821   6.097 -11.918  1.00  0.00     0.029 A 
ATOM     56  C   UNL     1      10.180   7.321 -12.390  1.00  0.00     0.049 A 
ATOM     57  H   UNL     1       8.142   7.675 -12.637  1.00  0.00     0.167 HD
ATOM     58  C   UNL     1       3.824   8.334 -12.851  1.00  0.00     0.037 A 
ATOM     59  C   UNL     1      10.827   8.445 -12.749  1.00  0.00     0.037 A 
ATOM     60  C   UNL     1       4.428   9.601 -13.189  1.00  0.00     0.049 A 
ATOM     61  C   UNL     1      10.030   9.649 -13.159  1.00  0.00     0.074 A 
ATOM     62  C   UNL     1       3.801  10.794 -13.509  1.00  0.00     0.029 A 
ATOM     63  N   UNL     1       5.793   9.839 -13.265  1.00  0.00    -0.354 N 
ATOM     64  N   UNL     1       8.727   9.795 -13.206  1.00  0.00    -0.248 NA
ATOM     65  C   UNL     1      10.787  10.843 -13.556  1.00  0.00     0.031 C 
ATOM     66  C   UNL     1       4.785  11.738 -13.824  1.00  0.00     0.029 A 
ATOM     67  C   UNL     1       6.028  11.149 -13.655  1.00  0.00     0.049 A 
ATOM     68  H   UNL     1       6.493   9.174 -13.071  1.00  0.00     0.167 HD
ATOM     69  C   UNL     1       8.508  11.102 -13.623  1.00  0.00     0.074 A 
ATOM     70  C   UNL     1       9.812  11.709 -13.799  1.00  0.00     0.031 C 
ATOM     71  C   UNL     1       7.331  11.739 -13.840  1.00  0.00     0.037 A 
BRANCH  58  72
ATOM     72  C   UNL     1       2.322   8.247 -12.864  1.00  0.00     0.058 A 
ATOM     73  C   UNL     1       1.585   8.182 -11.671  1.00  0.00     0.135 A 
ATOM     74  C   UNL     1       1.607   8.318 -14.071  1.00  0.00     0.135 A 
ATOM     75  F   UNL     1       2.217   8.106 -10.489  1.00  0.00    -0.206 F 
ATOM     76  C   UNL     1       0.193   8.177 -11.673  1.00  0.00     0.059 A 
ATOM     77  C   UNL     1       0.214   8.337 -14.096  1.00  0.00     0.059 A 
ATOM     78  F   UNL     1       2.261   8.385 -15.241  1.00  0.00    -0.206 F 
ATOM     79  C   UNL     1      -0.484   8.259 -12.892  1.00  0.00     0.060 A 
BRANCH  79  80
ATOM     80  S   UNL     1      -2.289   8.276 -12.874  1.00  0.00     0.124 S 
ATOM     81  O   UNL     1      -2.590   6.902 -12.481  1.00  0.00    -0.237 OA
ATOM     82  O   UNL     1      -2.581   9.299 -11.875  1.00  0.00    -0.237 OA
ATOM     83  O   UNL     1      -2.641   8.625 -14.247  1.00  0.00    -0.744 OA
ENDBRANCH  79  80
ENDBRANCH  58  72
BRANCH  59  84
ATOM     84  C   UNL     1      12.309   8.481 -12.694  1.00  0.00     0.058 A 
ATOM     85  C   UNL     1      12.974   9.214 -11.701  1.00  0.00     0.135 A 
ATOM     86  C   UNL     1      13.088   7.742 -13.598  1.00  0.00     0.135 A 
ATOM     87  F   UNL     1      12.271   9.936 -10.815  1.00  0.00    -0.206 F 
ATOM     88  C   UNL     1      14.361   9.218 -11.608  1.00  0.00     0.059 A 
ATOM     89  C   UNL     1      14.475   7.712 -13.512  1.00  0.00     0.059 A 
ATOM     90  F   UNL     1      12.494   7.010 -14.554  1.00  0.00    -0.206 F 
ATOM     91  C   UNL     1      15.103   8.459 -12.515  1.00  0.00     0.060 A 
BRANCH  91  92
ATOM     92  S   UNL     1      16.899   8.421 -12.343  1.00  0.00     0.124 S 
ATOM     93  O   UNL     1      17.264   9.763 -12.785  1.00  0.00    -0.237 OA
ATOM     94  O   UNL     1      17.064   8.150 -10.918  1.00  0.00    -0.237 OA
ATOM     95  O   UNL     1      17.299   7.333 -13.231  1.00  0.00    -0.744 OA
ENDBRANCH  91  92
ENDBRANCH  59  84
BRANCH  71  96
ATOM     96  C   UNL     1       7.396  13.172 -14.294  1.00  0.00     0.058 A 
ATOM     97  C   UNL     1       7.783  13.509 -15.601  1.00  0.00     0.135 A 
ATOM     98  C   UNL     1       7.019  14.214 -13.432  1.00  0.00     0.135 A 
ATOM     99  F   UNL     1       8.163  12.551 -16.461  1.00  0.00    -0.206 F 
ATOM    100  C   UNL     1       7.808  14.831 -16.033  1.00  0.00     0.059 A 
ATOM    101  C   UNL     1       7.013  15.542 -13.851  1.00  0.00     0.059 A 
ATOM    102  F   UNL     1       6.635  13.946 -12.174  1.00  0.00    -0.206 F 
ATOM    103  C   UNL     1       7.417  15.841 -15.151  1.00  0.00     0.060 A 
BRANCH 103 104
ATOM    104  S   UNL     1       7.417  17.548 -15.740  1.00  0.00     0.124 S 
ATOM    105  O   UNL     1       8.846  17.833 -15.817  1.00  0.00    -0.237 OA
ATOM    106  O   UNL     1       6.724  17.435 -17.020  1.00  0.00    -0.237 OA
ATOM    107  O   UNL     1       6.689  18.267 -14.700  1.00  0.00    -0.744 OA
ENDBRANCH 103 104
ENDBRANCH  71  96
ENDBRANCH  45  46
ENDBRANCH  38  40
ENDBRANCH  37  38
ENDBRANCH  36  37
ENDBRANCH  35  36
ENDBRANCH  34  35
ENDBRANCH  33  34
ENDBRANCH  32  33
ENDBRANCH   1  32
TORSDOF 27
