REMARK SMILES Cc1ccc(NC(=O)c2ccccc2NC(=O)[C@H]2CCCC[C@H]2C(=O)OCCOCCOCCOCCOC(=O)c2ccc(-c3c4nc(c(-c5c(F)cc(S(=O)(=O)[O-])cc5F)c5ccc([nH]5)c(-c5c(F)cc(S(=O)(=O)[O-])cc5F)c5nc(c(-c6c(F)cc(S(=O)(=O)[O-])cc6F)c6ccc3[nH]6)C=C5)C=C4)cc2)cc1
REMARK SMILES IDX 31 1 30 2 29 3 28 4 27 5 26 6 24 7 25 8 23 9 18 10 19 11
REMARK SMILES IDX 20 12 22 13 21 14 16 15 15 16 17 18 14 19 9 20 10 21 11 22
REMARK SMILES IDX 13 23 12 24 7 25 6 26 8 28 5 29 1 30 2 31 3 32 108 33 4 34
REMARK SMILES IDX 107 35 32 36 33 37 34 38 35 39 36 40 37 41 38 42 39 43 40 44
REMARK SMILES IDX 41 45 42 46 106 47 43 48 105 49 44 50 45 51 46 52 99 53
REMARK SMILES IDX 47 54 104 55 98 56 100 57 48 58 103 59 97 60 96 61 49 63
REMARK SMILES IDX 83 64 62 65 82 66 63 67 66 68 81 69 101 70 64 71 65 72 80 74
REMARK SMILES IDX 102 75 67 76 50 77 51 78 60 79 52 80 53 81 59 82 61 83 54 84
REMARK SMILES IDX 55 85 56 86 57 87 58 88 84 89 85 90 94 91 86 92 87 93 93 94
REMARK SMILES IDX 95 95 88 96 89 97 90 98 91 99 92 100 68 101 69 102 78 103
REMARK SMILES IDX 70 104 71 105 77 106 79 107 72 108 73 109 74 110 75 111
REMARK SMILES IDX 76 112
REMARK H PARENT 15 17 6 27 100 62 66 73
REMARK Flexibility Score: inf
ROOT
ATOM      1  C   UNL     1      -1.811   0.511   2.793  1.00  0.00     0.188 C 
ENDROOT
BRANCH   1   2
ATOM      2  C   UNL     1      -3.162   1.002   3.325  1.00  0.00     0.188 C 
BRANCH   2   3
ATOM      3  O   UNL     1      -3.256   1.731   4.521  1.00  0.00    -0.376 OA
BRANCH   3   4
ATOM      4  C   UNL     1      -2.796   1.123   5.713  1.00  0.00     0.202 C 
BRANCH   4   5
ATOM      5  C   UNL     1      -3.221  -0.277   6.111  1.00  0.00     0.261 C 
BRANCH   5   6
ATOM      6  O   UNL     1      -2.226  -1.242   5.722  1.00  0.00    -0.463 OA
BRANCH   6   7
ATOM      7  C   UNL     1      -2.579  -2.037   4.706  1.00  0.00     0.309 C 
ATOM      8  O   UNL     1      -3.654  -1.987   4.112  1.00  0.00    -0.252 OA
BRANCH   7   9
ATOM      9  C   UNL     1      -1.560  -3.087   4.363  1.00  0.00     0.111 C 
ATOM     10  C   UNL     1      -0.419  -2.776   3.359  1.00  0.00     0.093 C 
ATOM     11  C   UNL     1      -0.057  -4.140   2.727  1.00  0.00     0.014 C 
ATOM     12  C   UNL     1       0.170  -5.254   3.772  1.00  0.00     0.001 C 
ATOM     13  C   UNL     1      -1.232  -4.059   5.484  1.00  0.00     0.016 C 
ATOM     14  C   UNL     1      -0.932  -5.403   4.824  1.00  0.00     0.001 C 
BRANCH  10  15
ATOM     15  C   UNL     1       0.905  -2.100   3.803  1.00  0.00     0.228 C 
ATOM     16  N   UNL     1       1.727  -1.320   2.993  1.00  0.00    -0.325 N 
ATOM     17  H   UNL     1       2.594  -1.151   3.429  1.00  0.00     0.169 HD
ATOM     18  O   UNL     1       1.349  -2.351   4.932  1.00  0.00    -0.274 OA
BRANCH  16  19
ATOM     19  C   UNL     1       1.672  -0.692   1.700  1.00  0.00     0.054 A 
ATOM     20  C   UNL     1       2.661   0.241   1.232  1.00  0.00     0.063 A 
ATOM     21  C   UNL     1       2.364   1.044   0.092  1.00  0.00     0.016 A 
ATOM     22  C   UNL     1       1.178   0.926  -0.615  1.00  0.00     0.001 A 
ATOM     23  C   UNL     1       0.564  -0.881   0.862  1.00  0.00     0.027 A 
ATOM     24  C   UNL     1       0.295  -0.067  -0.249  1.00  0.00     0.002 A 
BRANCH  20  25
ATOM     25  C   UNL     1       4.027   0.605   1.768  1.00  0.00     0.257 C 
ATOM     26  N   UNL     1       4.819  -0.209   2.530  1.00  0.00    -0.322 N 
ATOM     27  H   UNL     1       5.509   0.260   3.053  1.00  0.00     0.170 HD
ATOM     28  O   UNL     1       4.514   1.697   1.462  1.00  0.00    -0.269 OA
BRANCH  26  29
ATOM     29  C   UNL     1       4.809  -1.588   2.686  1.00  0.00     0.041 A 
ATOM     30  C   UNL     1       3.936  -5.645   3.663  1.00  0.00     0.044 C 
ATOM     31  C   UNL     1       4.344  -4.255   3.294  1.00  0.00    -0.051 A 
ATOM     32  C   UNL     1       4.032  -3.763   2.024  1.00  0.00     0.005 A 
ATOM     33  C   UNL     1       5.014  -3.434   4.208  1.00  0.00     0.005 A 
ATOM     34  C   UNL     1       4.285  -2.434   1.713  1.00  0.00     0.026 A 
ATOM     35  C   UNL     1       5.274  -2.104   3.891  1.00  0.00     0.026 A 
ENDBRANCH  26  29
ENDBRANCH  20  25
ENDBRANCH  16  19
ENDBRANCH  10  15
ENDBRANCH   7   9
ENDBRANCH   6   7
ENDBRANCH   5   6
ENDBRANCH   4   5
ENDBRANCH   3   4
ENDBRANCH   2   3
ENDBRANCH   1   2
BRANCH   1  36
ATOM     36  O   UNL     1      -0.723   0.299   3.671  1.00  0.00    -0.377 OA
BRANCH  36  37
ATOM     37  C   UNL     1       0.173   1.382   3.935  1.00  0.00     0.188 C 
BRANCH  37  38
ATOM     38  C   UNL     1       0.373   2.460   2.892  1.00  0.00     0.188 C 
BRANCH  38  39
ATOM     39  O   UNL     1      -0.865   3.127   2.659  1.00  0.00    -0.376 OA
BRANCH  39  40
ATOM     40  C   UNL     1      -0.912   3.822   1.423  1.00  0.00     0.202 C 
BRANCH  40  41
ATOM     41  C   UNL     1       0.115   4.952   1.325  1.00  0.00     0.261 C 
BRANCH  41  42
ATOM     42  O   UNL     1      -0.251   6.010   2.233  1.00  0.00    -0.460 OA
BRANCH  42  43
ATOM     43  C   UNL     1       0.695   6.307   3.179  1.00  0.00     0.338 C 
ATOM     44  O   UNL     1       1.635   7.032   2.972  1.00  0.00    -0.246 OA
BRANCH  43  45
ATOM     45  C   UNL     1       0.344   5.673   4.490  1.00  0.00     0.060 A 
ATOM     46  C   UNL     1       1.303   5.498   5.498  1.00  0.00     0.016 A 
ATOM     47  C   UNL     1      -0.917   5.124   4.664  1.00  0.00     0.016 A 
ATOM     48  C   UNL     1       1.045   4.648   6.596  1.00  0.00     0.010 A 
ATOM     49  C   UNL     1      -1.135   4.238   5.703  1.00  0.00     0.010 A 
ATOM     50  C   UNL     1      -0.156   3.953   6.669  1.00  0.00    -0.014 A 
BRANCH  50  51
ATOM     51  C   UNL     1      -0.499   2.857   7.607  1.00  0.00     0.031 A 
ATOM     52  C   UNL     1      -1.815   2.929   8.328  1.00  0.00     0.074 A 
ATOM     53  C   UNL     1       0.140   1.658   7.504  1.00  0.00     0.049 A 
ATOM     54  N   UNL     1      -2.342   1.957   8.987  1.00  0.00    -0.248 NA
ATOM     55  C   UNL     1      -2.712   4.088   8.290  1.00  0.00     0.031 C 
ATOM     56  C   UNL     1      -0.387   0.326   7.838  1.00  0.00     0.029 A 
ATOM     57  N   UNL     1       1.425   1.360   7.048  1.00  0.00    -0.354 N 
ATOM     58  C   UNL     1      -3.693   2.190   9.137  1.00  0.00     0.074 A 
ATOM     59  C   UNL     1      -3.858   3.570   8.757  1.00  0.00     0.031 C 
ATOM     60  C   UNL     1       0.568  -0.609   7.739  1.00  0.00     0.029 A 
ATOM     61  C   UNL     1       1.805   0.116   7.599  1.00  0.00     0.049 A 
ATOM     62  H   UNL     1       1.971   1.919   6.449  1.00  0.00     0.167 HD
ATOM     63  C   UNL     1      -4.502   1.130   9.450  1.00  0.00     0.037 A 
ATOM     64  C   UNL     1       2.785   0.093   8.552  1.00  0.00     0.037 A 
ATOM     65  C   UNL     1      -3.694  -0.032   9.869  1.00  0.00     0.049 A 
ATOM     66  C   UNL     1       2.185  -0.255   9.899  1.00  0.00     0.074 A 
ATOM     67  C   UNL     1      -3.583  -1.361   9.497  1.00  0.00     0.029 A 
ATOM     68  N   UNL     1      -2.655   0.189  10.775  1.00  0.00    -0.354 N 
ATOM     69  N   UNL     1       0.960   0.061  10.248  1.00  0.00    -0.248 NA
ATOM     70  C   UNL     1       2.808  -1.185  10.839  1.00  0.00     0.031 C 
ATOM     71  C   UNL     1      -2.363  -1.869  10.048  1.00  0.00     0.029 A 
ATOM     72  C   UNL     1      -1.788  -0.877  10.832  1.00  0.00     0.049 A 
ATOM     73  H   UNL     1      -2.556   1.009  11.310  1.00  0.00     0.167 HD
ATOM     74  C   UNL     1       0.589  -0.704  11.317  1.00  0.00     0.074 A 
ATOM     75  C   UNL     1       1.795  -1.424  11.691  1.00  0.00     0.031 C 
ATOM     76  C   UNL     1      -0.686  -0.852  11.781  1.00  0.00     0.037 A 
BRANCH  63  77
ATOM     77  C   UNL     1      -6.021   1.068   9.290  1.00  0.00     0.058 A 
ATOM     78  C   UNL     1      -6.754  -0.015   9.831  1.00  0.00     0.135 A 
ATOM     79  C   UNL     1      -6.808   1.977   8.545  1.00  0.00     0.135 A 
ATOM     80  F   UNL     1      -6.148  -0.976  10.543  1.00  0.00    -0.206 F 
ATOM     81  C   UNL     1      -8.136  -0.175   9.666  1.00  0.00     0.059 A 
ATOM     82  C   UNL     1      -8.202   1.863   8.406  1.00  0.00     0.059 A 
ATOM     83  F   UNL     1      -6.259   2.996   7.872  1.00  0.00    -0.206 F 
ATOM     84  C   UNL     1      -8.860   0.777   8.964  1.00  0.00     0.060 A 
BRANCH  84  85
ATOM     85  S   UNL     1     -10.650   0.582   8.814  1.00  0.00     0.124 S 
ATOM     86  O   UNL     1     -10.759  -0.593   7.955  1.00  0.00    -0.237 OA
ATOM     87  O   UNL     1     -11.060   0.392  10.202  1.00  0.00    -0.237 OA
ATOM     88  O   UNL     1     -11.082   1.838   8.208  1.00  0.00    -0.744 OA
ENDBRANCH  84  85
ENDBRANCH  63  77
BRANCH  64  89
ATOM     89  C   UNL     1       3.906   0.999   8.147  1.00  0.00     0.058 A 
ATOM     90  C   UNL     1       4.557   0.579   6.964  1.00  0.00     0.135 A 
ATOM     91  C   UNL     1       3.875   2.382   8.395  1.00  0.00     0.135 A 
ATOM     92  F   UNL     1       4.643  -0.731   6.682  1.00  0.00    -0.206 F 
ATOM     93  C   UNL     1       4.895   1.475   5.959  1.00  0.00     0.059 A 
ATOM     94  C   UNL     1       4.270   3.304   7.412  1.00  0.00     0.059 A 
ATOM     95  F   UNL     1       3.287   2.857   9.502  1.00  0.00    -0.206 F 
ATOM     96  C   UNL     1       4.677   2.831   6.165  1.00  0.00     0.060 A 
BRANCH  96  97
ATOM     97  S   UNL     1       4.760   3.910   4.714  1.00  0.00     0.124 S 
ATOM     98  O   UNL     1       6.060   3.551   4.157  1.00  0.00    -0.237 OA
ATOM     99  O   UNL     1       3.588   3.455   3.969  1.00  0.00    -0.237 OA
ATOM    100  O   UNL     1       4.668   5.247   5.288  1.00  0.00    -0.744 OA
ENDBRANCH  96  97
ENDBRANCH  64  89
BRANCH  76 101
ATOM    101  C   UNL     1      -0.996  -0.909  13.259  1.00  0.00     0.058 A 
ATOM    102  C   UNL     1      -0.055  -0.580  14.250  1.00  0.00     0.135 A 
ATOM    103  C   UNL     1      -2.329  -1.079  13.715  1.00  0.00     0.135 A 
ATOM    104  F   UNL     1       1.219  -0.292  13.952  1.00  0.00    -0.206 F 
ATOM    105  C   UNL     1      -0.392  -0.488  15.595  1.00  0.00     0.059 A 
ATOM    106  C   UNL     1      -2.698  -0.927  15.046  1.00  0.00     0.059 A 
ATOM    107  F   UNL     1      -3.336  -1.371  12.879  1.00  0.00    -0.206 F 
ATOM    108  C   UNL     1      -1.714  -0.665  15.983  1.00  0.00     0.060 A 
BRANCH 108 109
ATOM    109  S   UNL     1      -2.127  -0.542  17.725  1.00  0.00     0.124 S 
ATOM    110  O   UNL     1      -1.715  -1.858  18.206  1.00  0.00    -0.237 OA
ATOM    111  O   UNL     1      -1.303   0.579  18.168  1.00  0.00    -0.237 OA
ATOM    112  O   UNL     1      -3.564  -0.293  17.719  1.00  0.00    -0.744 OA
ENDBRANCH 108 109
ENDBRANCH  76 101
ENDBRANCH  50  51
ENDBRANCH  43  45
ENDBRANCH  42  43
ENDBRANCH  41  42
ENDBRANCH  40  41
ENDBRANCH  39  40
ENDBRANCH  38  39
ENDBRANCH  37  38
ENDBRANCH  36  37
ENDBRANCH   1  36
TORSDOF 27
