REMARK SMILES Cc1cccc(C(=O)OCCOCCOCCOCCOC(=O)c2ccc(-c3c4nc(c(-c5c(F)cc(S(=O)(=O)[O-])cc5F)c5ccc([nH]5)c(-c5c(F)cc(S(=O)(=O)[O-])cc5F)c5nc(c(-c6c(F)cc(S(=O)(=O)[O-])cc6F)c6ccc3[nH]6)C=C5)C=C4)cc2)c1OC[C@@H]1C[C@H]2CC[C@@H]1C2
REMARK SMILES IDX 15 1 14 2 13 3 12 4 11 5 10 6 9 7 7 8 8 9 6 10 1 11 2 12
REMARK SMILES IDX 3 13 90 14 4 15 5 16 91 17 92 18 93 19 94 20 98 21 95 22
REMARK SMILES IDX 97 23 99 24 96 25 16 26 17 27 18 28 19 29 20 30 21 31 22 32
REMARK SMILES IDX 23 33 24 34 25 35 89 36 26 37 88 38 27 39 28 40 29 41 82 42
REMARK SMILES IDX 30 43 87 44 81 45 83 46 31 47 86 48 80 49 79 50 32 52 66 53
REMARK SMILES IDX 45 54 65 55 46 56 49 57 64 58 84 59 47 60 48 61 63 63 85 64
REMARK SMILES IDX 50 65 33 66 34 67 43 68 35 69 36 70 42 71 44 72 37 73 38 74
REMARK SMILES IDX 39 75 40 76 41 77 67 78 68 79 77 80 69 81 70 82 76 83 78 84
REMARK SMILES IDX 71 85 72 86 73 87 74 88 75 89 51 90 52 91 61 92 53 93 54 94
REMARK SMILES IDX 60 95 62 96 55 97 56 98 57 99 58 100 59 101
REMARK H PARENT 83 51 49 62
REMARK Flexibility Score: inf
ROOT
ATOM      1  O   UNL     1      -0.825   2.442  -2.048  1.00  0.00    -0.377 OA
ENDROOT
BRANCH   1   2
ATOM      2  C   UNL     1      -1.315   1.270  -2.671  1.00  0.00     0.188 C 
BRANCH   2   3
ATOM      3  C   UNL     1      -2.692   0.732  -2.223  1.00  0.00     0.188 C 
BRANCH   3   4
ATOM      4  O   UNL     1      -3.795   1.611  -2.058  1.00  0.00    -0.376 OA
BRANCH   4   5
ATOM      5  C   UNL     1      -3.727   2.466  -0.915  1.00  0.00     0.202 C 
BRANCH   5   6
ATOM      6  C   UNL     1      -3.437   1.797   0.419  1.00  0.00     0.261 C 
BRANCH   6   7
ATOM      7  O   UNL     1      -2.040   1.486   0.456  1.00  0.00    -0.460 OA
BRANCH   7   8
ATOM      8  C   UNL     1      -1.668   0.611   1.407  1.00  0.00     0.342 C 
ATOM      9  O   UNL     1      -2.213   0.361   2.461  1.00  0.00    -0.246 OA
BRANCH   8  10
ATOM     10  C   UNL     1      -0.845  -0.391   0.717  1.00  0.00     0.102 A 
ATOM     11  C   UNL     1       2.214  -1.228  -1.435  1.00  0.00     0.048 C 
ATOM     12  C   UNL     1       0.979  -1.222  -0.587  1.00  0.00    -0.008 A 
ATOM     13  C   UNL     1       0.289  -2.470  -0.635  1.00  0.00     0.007 A 
ATOM     14  C   UNL     1       0.424  -0.152   0.136  1.00  0.00     0.136 A 
ATOM     15  C   UNL     1      -0.971  -2.657  -0.089  1.00  0.00     0.001 A 
ATOM     16  C   UNL     1      -1.544  -1.606   0.581  1.00  0.00     0.019 A 
BRANCH  14  17
ATOM     17  O   UNL     1       0.864   1.128   0.276  1.00  0.00    -0.492 OA
BRANCH  17  18
ATOM     18  C   UNL     1       2.200   1.639   0.203  1.00  0.00     0.233 C 
BRANCH  18  19
ATOM     19  C   UNL     1       2.995   1.262   1.450  1.00  0.00     0.030 C 
ATOM     20  C   UNL     1       4.047   2.274   1.958  1.00  0.00     0.011 C 
ATOM     21  C   UNL     1       3.856  -0.019   1.306  1.00  0.00    -0.004 C 
ATOM     22  C   UNL     1       5.192   1.348   2.424  1.00  0.00    -0.010 C 
ATOM     23  C   UNL     1       3.870  -0.674   2.685  1.00  0.00     0.004 C 
ATOM     24  C   UNL     1       5.305   0.465   1.192  1.00  0.00     0.007 C 
ATOM     25  C   UNL     1       4.698   0.339   3.493  1.00  0.00     0.004 C 
ENDBRANCH  18  19
ENDBRANCH  17  18
ENDBRANCH  14  17
ENDBRANCH   8  10
ENDBRANCH   7   8
ENDBRANCH   6   7
ENDBRANCH   5   6
ENDBRANCH   4   5
ENDBRANCH   3   4
ENDBRANCH   2   3
ENDBRANCH   1   2
BRANCH   1  26
ATOM     26  C   UNL     1      -0.714   3.635  -2.831  1.00  0.00     0.188 C 
BRANCH  26  27
ATOM     27  C   UNL     1      -1.256   3.673  -4.238  1.00  0.00     0.188 C 
BRANCH  27  28
ATOM     28  O   UNL     1      -2.640   3.357  -4.122  1.00  0.00    -0.376 OA
BRANCH  28  29
ATOM     29  C   UNL     1      -3.247   2.801  -5.266  1.00  0.00     0.202 C 
BRANCH  29  30
ATOM     30  C   UNL     1      -3.114   3.705  -6.488  1.00  0.00     0.261 C 
BRANCH  30  31
ATOM     31  O   UNL     1      -4.010   4.839  -6.391  1.00  0.00    -0.460 OA
BRANCH  31  32
ATOM     32  C   UNL     1      -3.469   6.040  -6.016  1.00  0.00     0.338 C 
ATOM     33  O   UNL     1      -3.015   6.840  -6.816  1.00  0.00    -0.246 OA
BRANCH  32  34
ATOM     34  C   UNL     1      -3.624   6.292  -4.550  1.00  0.00     0.060 A 
ATOM     35  C   UNL     1      -2.851   7.235  -3.858  1.00  0.00     0.016 A 
ATOM     36  C   UNL     1      -4.464   5.476  -3.817  1.00  0.00     0.016 A 
ATOM     37  C   UNL     1      -2.742   7.199  -2.444  1.00  0.00     0.010 A 
ATOM     38  C   UNL     1      -4.301   5.407  -2.444  1.00  0.00     0.010 A 
ATOM     39  C   UNL     1      -3.394   6.209  -1.722  1.00  0.00    -0.014 A 
BRANCH  39  40
ATOM     40  C   UNL     1      -3.214   5.836  -0.282  1.00  0.00     0.031 A 
ATOM     41  C   UNL     1      -4.485   5.567   0.502  1.00  0.00     0.074 A 
ATOM     42  C   UNL     1      -2.024   5.354   0.197  1.00  0.00     0.049 A 
ATOM     43  N   UNL     1      -4.553   4.908   1.604  1.00  0.00    -0.248 NA
ATOM     44  C   UNL     1      -5.829   5.940   0.044  1.00  0.00     0.031 C 
ATOM     45  C   UNL     1      -1.852   4.387   1.288  1.00  0.00     0.029 A 
ATOM     46  N   UNL     1      -0.690   5.546  -0.199  1.00  0.00    -0.354 N 
ATOM     47  C   UNL     1      -5.848   4.478   1.812  1.00  0.00     0.074 A 
ATOM     48  C   UNL     1      -6.618   5.191   0.829  1.00  0.00     0.031 C 
ATOM     49  C   UNL     1      -0.562   4.124   1.540  1.00  0.00     0.029 A 
ATOM     50  C   UNL     1       0.153   5.174   0.876  1.00  0.00     0.049 A 
ATOM     51  H   UNL     1      -0.392   5.883  -1.075  1.00  0.00     0.167 HD
ATOM     52  C   UNL     1      -6.061   3.486   2.730  1.00  0.00     0.037 A 
ATOM     53  C   UNL     1       0.874   6.115   1.550  1.00  0.00     0.037 A 
ATOM     54  C   UNL     1      -4.859   3.289   3.561  1.00  0.00     0.049 A 
ATOM     55  C   UNL     1       0.330   6.205   2.970  1.00  0.00     0.074 A 
ATOM     56  C   UNL     1      -4.059   2.208   3.875  1.00  0.00     0.029 A 
ATOM     57  N   UNL     1      -4.203   4.407   4.091  1.00  0.00    -0.354 N 
ATOM     58  N   UNL     1      -0.942   6.052   3.277  1.00  0.00    -0.248 NA
ATOM     59  C   UNL     1       1.196   6.130   4.147  1.00  0.00     0.031 C 
ATOM     60  C   UNL     1      -2.832   2.714   4.405  1.00  0.00     0.029 A 
ATOM     61  C   UNL     1      -2.926   4.096   4.513  1.00  0.00     0.049 A 
ATOM     62  H   UNL     1      -4.603   5.304   4.154  1.00  0.00     0.167 HD
ATOM     63  C   UNL     1      -1.042   5.674   4.594  1.00  0.00     0.074 A 
ATOM     64  C   UNL     1       0.315   5.806   5.111  1.00  0.00     0.031 C 
ATOM     65  C   UNL     1      -2.114   5.083   5.210  1.00  0.00     0.037 A 
BRANCH  52  66
ATOM     66  C   UNL     1      -7.285   2.564   2.827  1.00  0.00     0.058 A 
ATOM     67  C   UNL     1      -7.430   1.680   3.926  1.00  0.00     0.135 A 
ATOM     68  C   UNL     1      -8.282   2.407   1.837  1.00  0.00     0.135 A 
ATOM     69  F   UNL     1      -6.570   1.705   4.954  1.00  0.00    -0.206 F 
ATOM     70  C   UNL     1      -8.454   0.727   4.031  1.00  0.00     0.059 A 
ATOM     71  C   UNL     1      -9.348   1.491   1.943  1.00  0.00     0.059 A 
ATOM     72  F   UNL     1      -8.251   3.105   0.694  1.00  0.00    -0.206 F 
ATOM     73  C   UNL     1      -9.420   0.643   3.040  1.00  0.00     0.060 A 
BRANCH  73  74
ATOM     74  S   UNL     1     -10.766  -0.551   3.229  1.00  0.00     0.124 S 
ATOM     75  O   UNL     1     -10.073  -1.826   3.072  1.00  0.00    -0.237 OA
ATOM     76  O   UNL     1     -11.258  -0.259   4.572  1.00  0.00    -0.237 OA
ATOM     77  O   UNL     1     -11.684  -0.205   2.147  1.00  0.00    -0.744 OA
ENDBRANCH  73  74
ENDBRANCH  52  66
BRANCH  53  78
ATOM     78  C   UNL     1       1.441   7.103   0.572  1.00  0.00     0.058 A 
ATOM     79  C   UNL     1       2.442   6.556  -0.273  1.00  0.00     0.135 A 
ATOM     80  C   UNL     1       0.619   8.093   0.005  1.00  0.00     0.135 A 
ATOM     81  F   UNL     1       3.288   5.628   0.210  1.00  0.00    -0.206 F 
ATOM     82  C   UNL     1       2.445   6.766  -1.653  1.00  0.00     0.059 A 
ATOM     83  C   UNL     1       0.624   8.335  -1.380  1.00  0.00     0.059 A 
ATOM     84  F   UNL     1      -0.346   8.665   0.740  1.00  0.00    -0.206 F 
ATOM     85  C   UNL     1       1.479   7.600  -2.206  1.00  0.00     0.060 A 
BRANCH  85  86
ATOM     86  S   UNL     1       1.240   7.541  -4.004  1.00  0.00     0.124 S 
ATOM     87  O   UNL     1       2.497   8.090  -4.498  1.00  0.00    -0.237 OA
ATOM     88  O   UNL     1       1.040   6.112  -4.240  1.00  0.00    -0.237 OA
ATOM     89  O   UNL     1       0.067   8.378  -4.217  1.00  0.00    -0.744 OA
ENDBRANCH  85  86
ENDBRANCH  53  78
BRANCH  65  90
ATOM     90  C   UNL     1      -2.483   5.399   6.642  1.00  0.00     0.058 A 
ATOM     91  C   UNL     1      -1.964   6.512   7.322  1.00  0.00     0.135 A 
ATOM     92  C   UNL     1      -3.546   4.721   7.297  1.00  0.00     0.135 A 
ATOM     93  F   UNL     1      -1.036   7.308   6.773  1.00  0.00    -0.206 F 
ATOM     94  C   UNL     1      -2.414   6.886   8.581  1.00  0.00     0.059 A 
ATOM     95  C   UNL     1      -4.050   5.117   8.528  1.00  0.00     0.059 A 
ATOM     96  F   UNL     1      -4.169   3.666   6.753  1.00  0.00    -0.206 F 
ATOM     97  C   UNL     1      -3.457   6.186   9.174  1.00  0.00     0.060 A 
BRANCH  97  98
ATOM     98  S   UNL     1      -4.041   6.718  10.784  1.00  0.00     0.124 S 
ATOM     99  O   UNL     1      -2.993   6.192  11.654  1.00  0.00    -0.237 OA
ATOM    100  O   UNL     1      -4.074   8.170  10.640  1.00  0.00    -0.237 OA
ATOM    101  O   UNL     1      -5.346   6.076  10.906  1.00  0.00    -0.744 OA
ENDBRANCH  97  98
ENDBRANCH  65  90
ENDBRANCH  39  40
ENDBRANCH  32  34
ENDBRANCH  31  32
ENDBRANCH  30  31
ENDBRANCH  29  30
ENDBRANCH  28  29
ENDBRANCH  27  28
ENDBRANCH  26  27
ENDBRANCH   1  26
TORSDOF 26
