REMARK SMILES O=C(OCCOCCOCCOCCOC(=O)c1ccc([C@@H]2CC(O)=Nc3c2ncn3-c2cccc(Cl)c2)cc1)c1ccc(-c2c3nc(c(-c4c(F)cc(S(=O)(=O)[O-])cc4F)c4ccc([nH]4)c(-c4c(F)cc(S(=O)(=O)[O-])cc4F)c4nc(c(-c5c(F)cc(S(=O)(=O)[O-])cc5F)c5ccc2[nH]5)C=C4)C=C3)cc1
REMARK SMILES IDX 8 1 7 2 6 3 5 4 4 5 3 6 2 7 1 8 41 9 42 10 106 11 43 12
REMARK SMILES IDX 105 13 44 14 45 15 46 16 99 17 47 18 104 19 98 20 100 21
REMARK SMILES IDX 48 22 103 23 97 24 96 25 49 27 83 28 62 29 82 30 63 31 66 32
REMARK SMILES IDX 81 33 101 34 64 35 65 36 80 38 102 39 67 40 50 41 51 42
REMARK SMILES IDX 60 43 52 44 53 45 59 46 61 47 54 48 55 49 56 50 57 51 58 52
REMARK SMILES IDX 84 53 85 54 94 55 86 56 87 57 93 58 95 59 88 60 89 61 90 62
REMARK SMILES IDX 91 63 92 64 68 65 69 66 78 67 70 68 71 69 77 70 79 71 72 72
REMARK SMILES IDX 73 73 74 74 75 75 76 76 9 77 10 78 11 79 12 80 13 81 14 82
REMARK SMILES IDX 15 83 16 84 17 85 18 86 19 87 40 88 20 89 39 90 21 91 22 92
REMARK SMILES IDX 23 93 28 94 24 95 27 96 29 97 26 98 31 99 30 100 25 101
REMARK SMILES IDX 32 103 33 104 38 105 34 106 36 107 35 108 37 109
REMARK H PARENT 100 26 66 37 25 102
REMARK Flexibility Score: inf
ROOT
ATOM      1  C   UNL     1       2.153   1.965   0.875  1.00  0.00     0.188 C 
ENDROOT
BRANCH   1   2
ATOM      2  C   UNL     1       2.929   0.798   1.520  1.00  0.00     0.188 C 
BRANCH   2   3
ATOM      3  O   UNL     1       4.257   0.389   1.230  1.00  0.00    -0.376 OA
BRANCH   3   4
ATOM      4  C   UNL     1       5.002   0.384   0.031  1.00  0.00     0.202 C 
BRANCH   4   5
ATOM      5  C   UNL     1       4.461   0.059  -1.359  1.00  0.00     0.261 C 
BRANCH   5   6
ATOM      6  O   UNL     1       3.097   0.368  -1.575  1.00  0.00    -0.460 OA
BRANCH   6   7
ATOM      7  C   UNL     1       2.033  -0.408  -1.293  1.00  0.00     0.338 C 
ATOM      8  O   UNL     1       0.922  -0.020  -1.655  1.00  0.00    -0.246 OA
BRANCH   7   9
ATOM      9  C   UNL     1       2.102  -1.645  -0.469  1.00  0.00     0.060 A 
ATOM     10  C   UNL     1       3.235  -2.428  -0.229  1.00  0.00     0.016 A 
ATOM     11  C   UNL     1       0.867  -2.047   0.075  1.00  0.00     0.016 A 
ATOM     12  C   UNL     1       3.100  -3.691   0.294  1.00  0.00     0.010 A 
ATOM     13  C   UNL     1       0.731  -3.290   0.648  1.00  0.00     0.010 A 
ATOM     14  C   UNL     1       1.829  -4.138   0.619  1.00  0.00    -0.014 A 
BRANCH  14  15
ATOM     15  C   UNL     1       1.680  -5.555   0.852  1.00  0.00     0.031 A 
ATOM     16  C   UNL     1       2.392  -6.041   2.059  1.00  0.00     0.074 A 
ATOM     17  C   UNL     1       0.926  -6.266  -0.010  1.00  0.00     0.049 A 
ATOM     18  N   UNL     1       3.340  -6.916   2.135  1.00  0.00    -0.248 NA
ATOM     19  C   UNL     1       2.154  -5.312   3.318  1.00  0.00     0.031 C 
ATOM     20  C   UNL     1       0.085  -5.759  -1.105  1.00  0.00     0.029 A 
ATOM     21  N   UNL     1       0.647  -7.593  -0.009  1.00  0.00    -0.354 N 
ATOM     22  C   UNL     1       3.627  -7.034   3.493  1.00  0.00     0.074 A 
ATOM     23  C   UNL     1       3.032  -5.895   4.134  1.00  0.00     0.031 C 
ATOM     24  C   UNL     1      -0.799  -6.710  -1.469  1.00  0.00     0.029 A 
ATOM     25  C   UNL     1      -0.492  -7.924  -0.743  1.00  0.00     0.049 A 
ATOM     26  H   UNL     1       1.195  -8.259   0.466  1.00  0.00     0.167 HD
ATOM     27  C   UNL     1       4.075  -8.210   4.011  1.00  0.00     0.037 A 
ATOM     28  C   UNL     1      -1.182  -9.086  -0.618  1.00  0.00     0.037 A 
ATOM     29  C   UNL     1       4.709  -9.011   2.994  1.00  0.00     0.049 A 
ATOM     30  C   UNL     1      -0.239 -10.065  -0.003  1.00  0.00     0.074 A 
ATOM     31  C   UNL     1       5.803  -8.829   2.170  1.00  0.00     0.029 A 
ATOM     32  N   UNL     1       3.986 -10.037   2.434  1.00  0.00    -0.354 N 
ATOM     33  N   UNL     1       0.852 -10.481  -0.597  1.00  0.00    -0.248 NA
ATOM     34  C   UNL     1      -0.230 -10.165   1.451  1.00  0.00     0.031 C 
ATOM     35  C   UNL     1       5.424  -9.402   0.921  1.00  0.00     0.029 A 
ATOM     36  C   UNL     1       4.158  -9.970   1.074  1.00  0.00     0.049 A 
ATOM     37  H   UNL     1       3.443 -10.700   2.920  1.00  0.00     0.167 HD
ATOM     38  C   UNL     1       1.820 -10.507   0.401  1.00  0.00     0.074 A 
ATOM     39  C   UNL     1       1.079 -10.350   1.652  1.00  0.00     0.031 C 
ATOM     40  C   UNL     1       3.148 -10.361   0.113  1.00  0.00     0.037 A 
BRANCH  27  41
ATOM     41  C   UNL     1       3.548  -8.793   5.307  1.00  0.00     0.058 A 
ATOM     42  C   UNL     1       4.083 -10.011   5.773  1.00  0.00     0.135 A 
ATOM     43  C   UNL     1       2.349  -8.380   5.936  1.00  0.00     0.135 A 
ATOM     44  F   UNL     1       5.229 -10.493   5.268  1.00  0.00    -0.206 F 
ATOM     45  C   UNL     1       3.417 -10.812   6.702  1.00  0.00     0.059 A 
ATOM     46  C   UNL     1       1.694  -9.141   6.895  1.00  0.00     0.059 A 
ATOM     47  F   UNL     1       1.693  -7.266   5.595  1.00  0.00    -0.206 F 
ATOM     48  C   UNL     1       2.207 -10.378   7.235  1.00  0.00     0.060 A 
BRANCH  48  49
ATOM     49  S   UNL     1       1.270 -11.467   8.318  1.00  0.00     0.124 S 
ATOM     50  O   UNL     1       0.881 -12.527   7.396  1.00  0.00    -0.237 OA
ATOM     51  O   UNL     1       2.268 -11.823   9.321  1.00  0.00    -0.237 OA
ATOM     52  O   UNL     1       0.186 -10.613   8.796  1.00  0.00    -0.744 OA
ENDBRANCH  48  49
ENDBRANCH  27  41
BRANCH  28  53
ATOM     53  C   UNL     1      -2.664  -9.212  -0.559  1.00  0.00     0.058 A 
ATOM     54  C   UNL     1      -3.299 -10.460  -0.671  1.00  0.00     0.135 A 
ATOM     55  C   UNL     1      -3.482  -8.139  -0.139  1.00  0.00     0.135 A 
ATOM     56  F   UNL     1      -2.593 -11.541  -1.038  1.00  0.00    -0.206 F 
ATOM     57  C   UNL     1      -4.653 -10.640  -0.358  1.00  0.00     0.059 A 
ATOM     58  C   UNL     1      -4.832  -8.291   0.166  1.00  0.00     0.059 A 
ATOM     59  F   UNL     1      -2.972  -6.917   0.074  1.00  0.00    -0.206 F 
ATOM     60  C   UNL     1      -5.409  -9.550   0.076  1.00  0.00     0.060 A 
BRANCH  60  61
ATOM     61  S   UNL     1      -7.112  -9.800   0.630  1.00  0.00     0.124 S 
ATOM     62  O   UNL     1      -7.790 -10.132  -0.619  1.00  0.00    -0.237 OA
ATOM     63  O   UNL     1      -6.968 -10.892   1.587  1.00  0.00    -0.237 OA
ATOM     64  O   UNL     1      -7.475  -8.510   1.210  1.00  0.00    -0.744 OA
ENDBRANCH  60  61
ENDBRANCH  28  53
BRANCH  40  65
ATOM     65  C   UNL     1       3.578 -10.389  -1.334  1.00  0.00     0.058 A 
ATOM     66  C   UNL     1       3.237  -9.405  -2.281  1.00  0.00     0.135 A 
ATOM     67  C   UNL     1       4.521 -11.349  -1.726  1.00  0.00     0.135 A 
ATOM     68  F   UNL     1       2.427  -8.389  -1.953  1.00  0.00    -0.206 F 
ATOM     69  C   UNL     1       3.781  -9.398  -3.568  1.00  0.00     0.059 A 
ATOM     70  C   UNL     1       5.100 -11.344  -2.992  1.00  0.00     0.059 A 
ATOM     71  F   UNL     1       4.943 -12.273  -0.847  1.00  0.00    -0.206 F 
ATOM     72  C   UNL     1       4.718 -10.372  -3.913  1.00  0.00     0.060 A 
BRANCH  72  73
ATOM     73  S   UNL     1       5.487 -10.316  -5.547  1.00  0.00     0.124 S 
ATOM     74  O   UNL     1       4.384 -10.703  -6.420  1.00  0.00    -0.237 OA
ATOM     75  O   UNL     1       5.918  -8.925  -5.648  1.00  0.00    -0.237 OA
ATOM     76  O   UNL     1       6.573 -11.289  -5.447  1.00  0.00    -0.744 OA
ENDBRANCH  72  73
ENDBRANCH  40  65
ENDBRANCH  14  15
ENDBRANCH   7   9
ENDBRANCH   6   7
ENDBRANCH   5   6
ENDBRANCH   4   5
ENDBRANCH   3   4
ENDBRANCH   2   3
ENDBRANCH   1   2
BRANCH   1  77
ATOM     77  O   UNL     1       2.663   3.276   1.040  1.00  0.00    -0.377 OA
BRANCH  77  78
ATOM     78  C   UNL     1       3.985   3.424   0.578  1.00  0.00     0.188 C 
BRANCH  78  79
ATOM     79  C   UNL     1       5.027   3.382   1.713  1.00  0.00     0.188 C 
BRANCH  79  80
ATOM     80  O   UNL     1       4.650   3.091   3.048  1.00  0.00    -0.376 OA
BRANCH  80  81
ATOM     81  C   UNL     1       3.485   3.664   3.619  1.00  0.00     0.202 C 
BRANCH  81  82
ATOM     82  C   UNL     1       3.100   5.145   3.436  1.00  0.00     0.261 C 
BRANCH  82  83
ATOM     83  O   UNL     1       3.436   5.772   2.193  1.00  0.00    -0.460 OA
BRANCH  83  84
ATOM     84  C   UNL     1       4.575   6.497   2.173  1.00  0.00     0.338 C 
ATOM     85  O   UNL     1       5.352   6.698   3.096  1.00  0.00    -0.246 OA
BRANCH  84  86
ATOM     86  C   UNL     1       4.848   6.884   0.776  1.00  0.00     0.060 A 
ATOM     87  C   UNL     1       5.976   6.361   0.132  1.00  0.00     0.016 A 
ATOM     88  C   UNL     1       3.977   7.730   0.094  1.00  0.00     0.016 A 
ATOM     89  C   UNL     1       6.217   6.658  -1.204  1.00  0.00     0.005 A 
ATOM     90  C   UNL     1       4.265   8.088  -1.225  1.00  0.00     0.005 A 
ATOM     91  C   UNL     1       5.386   7.556  -1.892  1.00  0.00    -0.038 A 
BRANCH  91  92
ATOM     92  C   UNL     1       5.856   8.032  -3.258  1.00  0.00     0.081 C 
ATOM     93  C   UNL     1       6.570   9.390  -3.101  1.00  0.00     0.111 C 
ATOM     94  C   UNL     1       4.681   8.140  -4.150  1.00  0.00     0.093 A 
ATOM     95  C   UNL     1       5.724  10.591  -3.490  1.00  0.00     0.188 C 
ATOM     96  C   UNL     1       4.225   9.365  -4.583  1.00  0.00     0.164 A 
ATOM     97  N   UNL     1       3.885   7.117  -4.579  1.00  0.00    -0.238 NA
ATOM     98  N   UNL     1       4.669  10.600  -4.240  1.00  0.00    -0.198 NA
ATOM     99  N   UNL     1       3.072   9.086  -5.290  1.00  0.00    -0.283 N 
ATOM    100  C   UNL     1       2.902   7.718  -5.219  1.00  0.00     0.206 A 
BRANCH  95 101
ATOM    101  O   UNL     1       6.191  11.767  -3.028  1.00  0.00    -0.496 OA
ATOM    102  H   UNL     1       6.952  11.788  -2.483  1.00  0.00     0.294 HD
ENDBRANCH  95 101
BRANCH  99 103
ATOM    103  C   UNL     1       2.214  10.021  -5.907  1.00  0.00     0.050 A 
ATOM    104  C   UNL     1       0.827   9.890  -5.776  1.00  0.00     0.027 A 
ATOM    105  C   UNL     1       2.767  11.094  -6.617  1.00  0.00     0.047 A 
ATOM    106  C   UNL     1      -0.006  10.869  -6.322  1.00  0.00     0.004 A 
ATOM    107  C   UNL     1       1.922  12.033  -7.201  1.00  0.00     0.043 A 
ATOM    108  C   UNL     1       0.540  11.935  -7.042  1.00  0.00     0.020 A 
ATOM    109  Cl  UNL     1       2.587  13.317  -8.134  1.00  0.00    -0.084 Cl
ENDBRANCH  99 103
ENDBRANCH  91  92
ENDBRANCH  84  86
ENDBRANCH  83  84
ENDBRANCH  82  83
ENDBRANCH  81  82
ENDBRANCH  80  81
ENDBRANCH  79  80
ENDBRANCH  78  79
ENDBRANCH  77  78
ENDBRANCH   1  77
TORSDOF 26
