REMARK SMILES C[C@@H]([NH2+]C[C@H]1CCC[C@@H]1C(=O)OCCOCCOCCOCCOC(=O)c1ccc(-c2c3nc(c(-c4c(F)cc(S(=O)(=O)[O-])cc4F)c4ccc([nH]4)c(-c4c(F)cc(S(=O)(=O)[O-])cc4F)c4nc(c(-c5c(F)cc(S(=O)(=O)[O-])cc5F)c5ccc2[nH]5)C=C4)C=C3)cc1)c1cc(F)ccc1O
REMARK SMILES IDX 17 1 16 2 15 3 14 4 13 5 12 6 10 7 11 8 9 9 5 10 6 11 7 12
REMARK SMILES IDX 8 13 4 14 3 15 2 18 1 19 93 20 94 21 99 22 95 23 98 24 96 25
REMARK SMILES IDX 97 26 100 27 18 29 19 30 20 31 21 32 22 33 23 34 24 35 25 36
REMARK SMILES IDX 26 37 27 38 28 39 92 40 29 41 91 42 30 43 31 44 32 45 85 46
REMARK SMILES IDX 33 47 90 48 84 49 86 50 34 51 89 52 83 53 82 54 35 56 69 57
REMARK SMILES IDX 48 58 68 59 49 60 52 61 67 62 87 63 50 64 51 65 66 67 88 68
REMARK SMILES IDX 53 69 36 70 37 71 46 72 38 73 39 74 45 75 47 76 40 77 41 78
REMARK SMILES IDX 42 79 43 80 44 81 70 82 71 83 80 84 72 85 73 86 79 87 81 88
REMARK SMILES IDX 74 89 75 90 76 91 77 92 78 93 54 94 55 95 64 96 56 97 57 98
REMARK SMILES IDX 63 99 65 100 58 101 59 102 60 103 61 104 62 105
REMARK H PARENT 3 16 3 17 100 28 86 55 52 66
REMARK Flexibility Score: inf
ROOT
ATOM      1  C   UNL     1      -1.613  -0.366  -2.951  1.00  0.00     0.188 C 
ENDROOT
BRANCH   1   2
ATOM      2  C   UNL     1      -2.319   0.962  -3.278  1.00  0.00     0.188 C 
BRANCH   2   3
ATOM      3  O   UNL     1      -3.614   0.953  -3.854  1.00  0.00    -0.376 OA
BRANCH   3   4
ATOM      4  C   UNL     1      -3.930  -0.050  -4.806  1.00  0.00     0.202 C 
BRANCH   4   5
ATOM      5  C   UNL     1      -2.957  -0.424  -5.953  1.00  0.00     0.261 C 
BRANCH   5   6
ATOM      6  O   UNL     1      -1.532  -0.246  -5.761  1.00  0.00    -0.463 OA
BRANCH   6   7
ATOM      7  C   UNL     1      -0.988   0.872  -6.305  1.00  0.00     0.309 C 
ATOM      8  O   UNL     1      -1.653   1.723  -6.887  1.00  0.00    -0.252 OA
BRANCH   7   9
ATOM      9  C   UNL     1       0.557   0.939  -6.203  1.00  0.00     0.108 C 
ATOM     10  C   UNL     1       1.260   0.620  -4.854  1.00  0.00     0.058 C 
ATOM     11  C   UNL     1       1.085   1.906  -4.034  1.00  0.00     0.010 C 
ATOM     12  C   UNL     1       0.935   3.040  -5.037  1.00  0.00     0.001 C 
ATOM     13  C   UNL     1       0.983   2.400  -6.421  1.00  0.00     0.016 C 
BRANCH  10  14
ATOM     14  C   UNL     1       2.749   0.205  -4.998  1.00  0.00     0.265 C 
BRANCH  14  15
ATOM     15  N   UNL     1       3.611   0.325  -3.800  1.00  0.00    -0.340 N 
ATOM     16  H   UNL     1       4.519  -0.078  -4.029  1.00  0.00     0.346 HD
ATOM     17  H   UNL     1       3.636   1.321  -3.580  1.00  0.00     0.346 HD
BRANCH  15  18
ATOM     18  C   UNL     1       3.118  -0.340  -2.568  1.00  0.00     0.214 C 
ATOM     19  C   UNL     1       3.832   0.300  -1.363  1.00  0.00     0.081 C 
BRANCH  18  20
ATOM     20  C   UNL     1       3.365  -1.837  -2.537  1.00  0.00     0.054 A 
ATOM     21  C   UNL     1       2.518  -2.650  -1.763  1.00  0.00     0.053 A 
ATOM     22  C   UNL     1       4.457  -2.452  -3.171  1.00  0.00     0.124 A 
ATOM     23  C   UNL     1       2.757  -4.019  -1.655  1.00  0.00     0.123 A 
ATOM     24  C   UNL     1       4.687  -3.823  -3.068  1.00  0.00     0.050 A 
ATOM     25  F   UNL     1       1.946  -4.768  -0.894  1.00  0.00    -0.207 F 
ATOM     26  C   UNL     1       3.829  -4.613  -2.306  1.00  0.00     0.043 A 
BRANCH  22  27
ATOM     27  O   UNL     1       5.351  -1.732  -3.915  1.00  0.00    -0.507 OA
ATOM     28  H   UNL     1       5.240  -0.807  -4.015  1.00  0.00     0.293 HD
ENDBRANCH  22  27
ENDBRANCH  18  20
ENDBRANCH  15  18
ENDBRANCH  14  15
ENDBRANCH  10  14
ENDBRANCH   7   9
ENDBRANCH   6   7
ENDBRANCH   5   6
ENDBRANCH   4   5
ENDBRANCH   3   4
ENDBRANCH   2   3
ENDBRANCH   1   2
BRANCH   1  29
ATOM     29  O   UNL     1      -2.382  -1.520  -3.203  1.00  0.00    -0.377 OA
BRANCH  29  30
ATOM     30  C   UNL     1      -2.946  -2.132  -2.061  1.00  0.00     0.188 C 
BRANCH  30  31
ATOM     31  C   UNL     1      -3.625  -1.188  -1.052  1.00  0.00     0.188 C 
BRANCH  31  32
ATOM     32  O   UNL     1      -2.792  -0.116  -0.613  1.00  0.00    -0.376 OA
BRANCH  32  33
ATOM     33  C   UNL     1      -2.117  -0.222   0.631  1.00  0.00     0.202 C 
BRANCH  33  34
ATOM     34  C   UNL     1      -0.944  -1.212   0.742  1.00  0.00     0.261 C 
BRANCH  34  35
ATOM     35  O   UNL     1      -1.211  -2.573   0.383  1.00  0.00    -0.460 OA
BRANCH  35  36
ATOM     36  C   UNL     1      -2.163  -3.224   1.087  1.00  0.00     0.338 C 
ATOM     37  O   UNL     1      -2.781  -2.787   2.044  1.00  0.00    -0.246 OA
BRANCH  36  38
ATOM     38  C   UNL     1      -2.502  -4.466   0.358  1.00  0.00     0.060 A 
ATOM     39  C   UNL     1      -3.831  -4.659  -0.046  1.00  0.00     0.016 A 
ATOM     40  C   UNL     1      -1.522  -5.407   0.033  1.00  0.00     0.016 A 
ATOM     41  C   UNL     1      -4.190  -5.806  -0.750  1.00  0.00     0.010 A 
ATOM     42  C   UNL     1      -1.891  -6.577  -0.639  1.00  0.00     0.010 A 
ATOM     43  C   UNL     1      -3.232  -6.796  -1.001  1.00  0.00    -0.014 A 
BRANCH  43  44
ATOM     44  C   UNL     1      -3.685  -8.147  -1.410  1.00  0.00     0.031 A 
ATOM     45  C   UNL     1      -3.917  -9.164  -0.326  1.00  0.00     0.074 A 
ATOM     46  C   UNL     1      -3.930  -8.454  -2.696  1.00  0.00     0.049 A 
ATOM     47  N   UNL     1      -4.302 -10.409  -0.419  1.00  0.00    -0.248 NA
ATOM     48  C   UNL     1      -3.681  -8.708   1.054  1.00  0.00     0.031 C 
ATOM     49  C   UNL     1      -3.807  -7.535  -3.825  1.00  0.00     0.029 A 
ATOM     50  N   UNL     1      -4.339  -9.635  -3.263  1.00  0.00    -0.354 N 
ATOM     51  C   UNL     1      -4.347 -10.887   0.886  1.00  0.00     0.074 A 
ATOM     52  C   UNL     1      -3.919  -9.808   1.748  1.00  0.00     0.031 C 
ATOM     53  C   UNL     1      -4.133  -8.189  -4.954  1.00  0.00     0.029 A 
ATOM     54  C   UNL     1      -4.454  -9.579  -4.631  1.00  0.00     0.049 A 
ATOM     55  H   UNL     1      -4.531 -10.445  -2.739  1.00  0.00     0.167 HD
ATOM     56  C   UNL     1      -4.715 -12.113   1.327  1.00  0.00     0.037 A 
ATOM     57  C   UNL     1      -4.767 -10.547  -5.517  1.00  0.00     0.037 A 
ATOM     58  C   UNL     1      -5.123 -13.186   0.459  1.00  0.00     0.049 A 
ATOM     59  C   UNL     1      -5.074 -11.935  -5.013  1.00  0.00     0.074 A 
ATOM     60  C   UNL     1      -5.525 -14.464   0.800  1.00  0.00     0.029 A 
ATOM     61  N   UNL     1      -5.162 -13.111  -0.927  1.00  0.00    -0.354 N 
ATOM     62  N   UNL     1      -5.133 -12.373  -3.776  1.00  0.00    -0.248 NA
ATOM     63  C   UNL     1      -5.354 -12.963  -6.026  1.00  0.00     0.031 C 
ATOM     64  C   UNL     1      -5.744 -15.182  -0.381  1.00  0.00     0.029 A 
ATOM     65  C   UNL     1      -5.546 -14.331  -1.457  1.00  0.00     0.049 A 
ATOM     66  H   UNL     1      -4.947 -12.308  -1.455  1.00  0.00     0.167 HD
ATOM     67  C   UNL     1      -5.494 -13.715  -3.862  1.00  0.00     0.074 A 
ATOM     68  C   UNL     1      -5.641 -14.015  -5.272  1.00  0.00     0.031 C 
ATOM     69  C   UNL     1      -5.693 -14.614  -2.865  1.00  0.00     0.037 A 
BRANCH  56  70
ATOM     70  C   UNL     1      -4.636 -12.363   2.808  1.00  0.00     0.058 A 
ATOM     71  C   UNL     1      -5.497 -11.729   3.720  1.00  0.00     0.135 A 
ATOM     72  C   UNL     1      -3.667 -13.238   3.327  1.00  0.00     0.135 A 
ATOM     73  F   UNL     1      -6.430 -10.868   3.283  1.00  0.00    -0.206 F 
ATOM     74  C   UNL     1      -5.368 -11.915   5.093  1.00  0.00     0.059 A 
ATOM     75  C   UNL     1      -3.542 -13.465   4.694  1.00  0.00     0.059 A 
ATOM     76  F   UNL     1      -2.816 -13.870   2.503  1.00  0.00    -0.206 F 
ATOM     77  C   UNL     1      -4.382 -12.780   5.570  1.00  0.00     0.060 A 
BRANCH  77  78
ATOM     78  S   UNL     1      -4.203 -12.983   7.355  1.00  0.00     0.124 S 
ATOM     79  O   UNL     1      -3.618 -11.701   7.736  1.00  0.00    -0.237 OA
ATOM     80  O   UNL     1      -5.580 -13.203   7.784  1.00  0.00    -0.237 OA
ATOM     81  O   UNL     1      -3.318 -14.137   7.479  1.00  0.00    -0.744 OA
ENDBRANCH  77  78
ENDBRANCH  56  70
BRANCH  57  82
ATOM     82  C   UNL     1      -4.820 -10.237  -6.971  1.00  0.00     0.058 A 
ATOM     83  C   UNL     1      -6.039 -10.241  -7.664  1.00  0.00     0.135 A 
ATOM     84  C   UNL     1      -3.659  -9.925  -7.697  1.00  0.00     0.135 A 
ATOM     85  F   UNL     1      -7.175 -10.549  -7.020  1.00  0.00    -0.206 F 
ATOM     86  C   UNL     1      -6.108  -9.949  -9.023  1.00  0.00     0.059 A 
ATOM     87  C   UNL     1      -3.705  -9.604  -9.050  1.00  0.00     0.059 A 
ATOM     88  F   UNL     1      -2.466  -9.905  -7.082  1.00  0.00    -0.206 F 
ATOM     89  C   UNL     1      -4.935  -9.623  -9.706  1.00  0.00     0.060 A 
BRANCH  89  90
ATOM     90  S   UNL     1      -5.049  -9.179 -11.453  1.00  0.00     0.124 S 
ATOM     91  O   UNL     1      -5.379 -10.462 -12.063  1.00  0.00    -0.237 OA
ATOM     92  O   UNL     1      -6.115  -8.183 -11.443  1.00  0.00    -0.237 OA
ATOM     93  O   UNL     1      -3.718  -8.660 -11.755  1.00  0.00    -0.744 OA
ENDBRANCH  89  90
ENDBRANCH  57  82
BRANCH  69  94
ATOM     94  C   UNL     1      -6.135 -16.001  -3.253  1.00  0.00     0.058 A 
ATOM     95  C   UNL     1      -5.270 -16.910  -3.883  1.00  0.00     0.135 A 
ATOM     96  C   UNL     1      -7.429 -16.446  -2.934  1.00  0.00     0.135 A 
ATOM     97  F   UNL     1      -4.025 -16.537  -4.217  1.00  0.00    -0.206 F 
ATOM     98  C   UNL     1      -5.680 -18.200  -4.205  1.00  0.00     0.059 A 
ATOM     99  C   UNL     1      -7.849 -17.742  -3.216  1.00  0.00     0.059 A 
ATOM    100  F   UNL     1      -8.295 -15.624  -2.320  1.00  0.00    -0.206 F 
ATOM    101  C   UNL     1      -6.971 -18.609  -3.863  1.00  0.00     0.060 A 
BRANCH 101 102
ATOM    102  S   UNL     1      -7.476 -20.298  -4.253  1.00  0.00     0.124 S 
ATOM    103  O   UNL     1      -7.620 -20.235  -5.704  1.00  0.00    -0.237 OA
ATOM    104  O   UNL     1      -6.348 -21.082  -3.761  1.00  0.00    -0.237 OA
ATOM    105  O   UNL     1      -8.720 -20.462  -3.506  1.00  0.00    -0.744 OA
ENDBRANCH 101 102
ENDBRANCH  69  94
ENDBRANCH  43  44
ENDBRANCH  36  38
ENDBRANCH  35  36
ENDBRANCH  34  35
ENDBRANCH  33  34
ENDBRANCH  32  33
ENDBRANCH  31  32
ENDBRANCH  30  31
ENDBRANCH  29  30
ENDBRANCH   1  29
TORSDOF 28
