REMARK SMILES CC[NH2+]C(C)(C)C(=O)NC[C@@H]1CC[C@H](C(=O)OCCOCCOCCOCCOC(=O)c2ccc(-c3c4nc(c(-c5c(F)cc(S(=O)(=O)[O-])cc5F)c5ccc([nH]5)c(-c5c(F)cc(S(=O)(=O)[O-])cc5F)c5nc(c(-c6c(F)cc(S(=O)(=O)[O-])cc6F)c6ccc3[nH]6)C=C5)C=C4)cc2)O1
REMARK SMILES IDX 22 1 21 2 20 3 19 4 18 5 17 6 15 7 16 8 14 9 11 10 12 11
REMARK SMILES IDX 98 12 13 13 10 14 9 15 7 16 8 17 4 19 5 20 6 21 3 22 2 25
REMARK SMILES IDX 1 26 23 27 24 28 25 29 26 30 27 31 28 32 29 33 30 34 31 35
REMARK SMILES IDX 32 36 33 37 97 38 34 39 96 40 35 41 36 42 37 43 90 44 38 45
REMARK SMILES IDX 95 46 89 47 91 48 39 49 94 50 88 51 87 52 40 54 74 55 53 56
REMARK SMILES IDX 73 57 54 58 57 59 72 60 92 61 55 62 56 63 71 65 93 66 58 67
REMARK SMILES IDX 41 68 42 69 51 70 43 71 44 72 50 73 52 74 45 75 46 76 47 77
REMARK SMILES IDX 48 78 49 79 75 80 76 81 85 82 77 83 78 84 84 85 86 86 79 87
REMARK SMILES IDX 80 88 81 89 82 90 83 91 59 92 60 93 69 94 61 95 62 96 68 97
REMARK SMILES IDX 70 98 63 99 64 100 65 101 66 102 67 103
REMARK H PARENT 9 18 3 23 3 24 91 53 57 64
REMARK Flexibility Score: inf
ROOT
ATOM      1  C   UNL     1       0.992  -5.577  -7.187  1.00  0.00     0.188 C 
ENDROOT
BRANCH   1   2
ATOM      2  C   UNL     1       2.340  -5.400  -7.899  1.00  0.00     0.188 C 
BRANCH   2   3
ATOM      3  O   UNL     1       3.531  -5.303  -7.134  1.00  0.00    -0.376 OA
BRANCH   3   4
ATOM      4  C   UNL     1       3.651  -4.255  -6.174  1.00  0.00     0.202 C 
BRANCH   4   5
ATOM      5  C   UNL     1       3.108  -2.856  -6.501  1.00  0.00     0.261 C 
BRANCH   5   6
ATOM      6  O   UNL     1       1.693  -2.823  -6.808  1.00  0.00    -0.461 OA
BRANCH   6   7
ATOM      7  C   UNL     1       1.300  -2.005  -7.811  1.00  0.00     0.335 C 
ATOM      8  O   UNL     1       2.078  -1.283  -8.430  1.00  0.00    -0.249 OA
BRANCH   7   9
ATOM      9  C   UNL     1      -0.206  -2.074  -8.172  1.00  0.00     0.228 C 
ATOM     10  C   UNL     1      -1.726  -0.615  -7.119  1.00  0.00     0.138 C 
ATOM     11  C   UNL     1      -1.863  -1.970  -6.453  1.00  0.00     0.037 C 
ATOM     12  O   UNL     1      -0.757  -0.743  -8.180  1.00  0.00    -0.361 OA
ATOM     13  C   UNL     1      -1.231  -2.911  -7.429  1.00  0.00     0.047 C 
BRANCH  10  14
ATOM     14  C   UNL     1      -1.303   0.517  -6.168  1.00  0.00     0.148 C 
BRANCH  14  15
ATOM     15  N   UNL     1      -1.808   0.361  -4.817  1.00  0.00    -0.348 N 
ATOM     16  C   UNL     1      -1.192   0.024  -3.644  1.00  0.00     0.280 C 
ATOM     17  O   UNL     1      -1.972  -0.288  -2.737  1.00  0.00    -0.268 OA
ATOM     18  H   UNL     1      -2.774   0.529  -4.728  1.00  0.00     0.163 HD
BRANCH  16  19
ATOM     19  C   UNL     1       0.372  -0.003  -3.487  1.00  0.00     0.169 C 
ATOM     20  C   UNL     1       1.044   1.307  -3.928  1.00  0.00     0.090 C 
ATOM     21  C   UNL     1       0.952  -1.181  -4.265  1.00  0.00     0.090 C 
BRANCH  19  22
ATOM     22  N   UNL     1       0.753  -0.317  -2.087  1.00  0.00    -0.334 N 
ATOM     23  H   UNL     1       0.244  -1.152  -1.798  1.00  0.00     0.347 HD
ATOM     24  H   UNL     1       1.765  -0.445  -2.084  1.00  0.00     0.347 HD
BRANCH  22  25
ATOM     25  C   UNL     1       0.468   0.745  -1.128  1.00  0.00     0.257 C 
ATOM     26  C   UNL     1       1.001   0.305   0.214  1.00  0.00     0.071 C 
ENDBRANCH  22  25
ENDBRANCH  19  22
ENDBRANCH  16  19
ENDBRANCH  14  15
ENDBRANCH  10  14
ENDBRANCH   7   9
ENDBRANCH   6   7
ENDBRANCH   5   6
ENDBRANCH   4   5
ENDBRANCH   3   4
ENDBRANCH   2   3
ENDBRANCH   1   2
BRANCH   1  27
ATOM     27  O   UNL     1       0.933  -5.063  -5.869  1.00  0.00    -0.377 OA
BRANCH  27  28
ATOM     28  C   UNL     1       1.127  -5.956  -4.775  1.00  0.00     0.188 C 
BRANCH  28  29
ATOM     29  C   UNL     1       2.024  -7.190  -4.987  1.00  0.00     0.188 C 
BRANCH  29  30
ATOM     30  O   UNL     1       1.731  -7.926  -6.165  1.00  0.00    -0.376 OA
BRANCH  30  31
ATOM     31  C   UNL     1       0.804  -9.001  -6.094  1.00  0.00     0.202 C 
BRANCH  31  32
ATOM     32  C   UNL     1      -0.624  -8.719  -5.588  1.00  0.00     0.261 C 
BRANCH  32  33
ATOM     33  O   UNL     1      -0.753  -8.228  -4.244  1.00  0.00    -0.460 OA
BRANCH  33  34
ATOM     34  C   UNL     1      -0.174  -8.931  -3.252  1.00  0.00     0.338 C 
ATOM     35  O   UNL     1       0.402 -10.005  -3.355  1.00  0.00    -0.246 OA
BRANCH  34  36
ATOM     36  C   UNL     1      -0.171  -8.099  -2.033  1.00  0.00     0.060 A 
ATOM     37  C   UNL     1       1.054  -7.794  -1.427  1.00  0.00     0.016 A 
ATOM     38  C   UNL     1      -1.369  -7.662  -1.463  1.00  0.00     0.016 A 
ATOM     39  C   UNL     1       1.082  -7.107  -0.214  1.00  0.00     0.010 A 
ATOM     40  C   UNL     1      -1.340  -6.986  -0.239  1.00  0.00     0.010 A 
ATOM     41  C   UNL     1      -0.117  -6.750   0.416  1.00  0.00    -0.014 A 
BRANCH  41  42
ATOM     42  C   UNL     1      -0.092  -6.341   1.844  1.00  0.00     0.031 A 
ATOM     43  C   UNL     1      -0.450  -7.366   2.889  1.00  0.00     0.074 A 
ATOM     44  C   UNL     1       0.299  -5.112   2.224  1.00  0.00     0.049 A 
ATOM     45  N   UNL     1      -0.514  -7.240   4.189  1.00  0.00    -0.248 NA
ATOM     46  C   UNL     1      -0.771  -8.718   2.400  1.00  0.00     0.031 C 
ATOM     47  C   UNL     1       0.742  -4.047   1.327  1.00  0.00     0.029 A 
ATOM     48  N   UNL     1       0.387  -4.555   3.478  1.00  0.00    -0.354 N 
ATOM     49  C   UNL     1      -0.886  -8.489   4.673  1.00  0.00     0.074 A 
ATOM     50  C   UNL     1      -1.071  -9.350   3.524  1.00  0.00     0.031 C 
ATOM     51  C   UNL     1       1.039  -2.961   2.062  1.00  0.00     0.029 A 
ATOM     52  C   UNL     1       0.753  -3.231   3.466  1.00  0.00     0.049 A 
ATOM     53  H   UNL     1       0.204  -5.057   4.305  1.00  0.00     0.167 HD
ATOM     54  C   UNL     1      -1.046  -8.888   5.957  1.00  0.00     0.037 A 
ATOM     55  C   UNL     1       0.816  -2.329   4.466  1.00  0.00     0.037 A 
ATOM     56  C   UNL     1      -0.860  -8.029   7.098  1.00  0.00     0.049 A 
ATOM     57  C   UNL     1       0.537  -2.765   5.874  1.00  0.00     0.074 A 
ATOM     58  C   UNL     1      -0.970  -8.348   8.440  1.00  0.00     0.029 A 
ATOM     59  N   UNL     1      -0.544  -6.680   7.034  1.00  0.00    -0.354 N 
ATOM     60  N   UNL     1       0.207  -3.952   6.319  1.00  0.00    -0.248 NA
ATOM     61  C   UNL     1       0.665  -1.740   6.919  1.00  0.00     0.031 C 
ATOM     62  C   UNL     1      -0.786  -7.179   9.185  1.00  0.00     0.029 A 
ATOM     63  C   UNL     1      -0.491  -6.146   8.312  1.00  0.00     0.049 A 
ATOM     64  H   UNL     1      -0.382  -6.176   6.204  1.00  0.00     0.167 HD
ATOM     65  C   UNL     1       0.119  -3.825   7.700  1.00  0.00     0.074 A 
ATOM     66  C   UNL     1       0.435  -2.447   8.016  1.00  0.00     0.031 C 
ATOM     67  C   UNL     1      -0.182  -4.772   8.622  1.00  0.00     0.037 A 
BRANCH  54  68
ATOM     68  C   UNL     1      -1.480 -10.309   6.195  1.00  0.00     0.058 A 
ATOM     69  C   UNL     1      -0.636 -11.401   5.940  1.00  0.00     0.135 A 
ATOM     70  C   UNL     1      -2.759 -10.578   6.709  1.00  0.00     0.135 A 
ATOM     71  F   UNL     1       0.591 -11.204   5.431  1.00  0.00    -0.206 F 
ATOM     72  C   UNL     1      -1.056 -12.710   6.153  1.00  0.00     0.059 A 
ATOM     73  C   UNL     1      -3.188 -11.877   6.962  1.00  0.00     0.059 A 
ATOM     74  F   UNL     1      -3.609  -9.572   6.970  1.00  0.00    -0.206 F 
ATOM     75  C   UNL     1      -2.335 -12.938   6.664  1.00  0.00     0.060 A 
BRANCH  75  76
ATOM     76  S   UNL     1      -2.867 -14.642   6.930  1.00  0.00     0.124 S 
ATOM     77  O   UNL     1      -3.039 -15.111   5.559  1.00  0.00    -0.237 OA
ATOM     78  O   UNL     1      -1.737 -15.210   7.658  1.00  0.00    -0.237 OA
ATOM     79  O   UNL     1      -4.098 -14.498   7.702  1.00  0.00    -0.744 OA
ENDBRANCH  75  76
ENDBRANCH  54  68
BRANCH  55  80
ATOM     80  C   UNL     1       1.112  -0.902   4.180  1.00  0.00     0.058 A 
ATOM     81  C   UNL     1       2.365  -0.341   4.458  1.00  0.00     0.135 A 
ATOM     82  C   UNL     1       0.119  -0.064   3.653  1.00  0.00     0.135 A 
ATOM     83  F   UNL     1       3.330  -1.094   5.008  1.00  0.00    -0.206 F 
ATOM     84  C   UNL     1       2.638   0.998   4.193  1.00  0.00     0.059 A 
ATOM     85  C   UNL     1       0.364   1.279   3.389  1.00  0.00     0.059 A 
ATOM     86  F   UNL     1      -1.093  -0.560   3.358  1.00  0.00    -0.206 F 
ATOM     87  C   UNL     1       1.635   1.797   3.640  1.00  0.00     0.060 A 
BRANCH  87  88
ATOM     88  S   UNL     1       2.052   3.473   3.105  1.00  0.00     0.124 S 
ATOM     89  O   UNL     1       1.990   4.210   4.361  1.00  0.00    -0.237 OA
ATOM     90  O   UNL     1       3.384   3.294   2.534  1.00  0.00    -0.237 OA
ATOM     91  O   UNL     1       1.007   3.783   2.133  1.00  0.00    -0.744 OA
ENDBRANCH  87  88
ENDBRANCH  55  80
BRANCH  67  92
ATOM     92  C   UNL     1      -0.141  -4.365  10.068  1.00  0.00     0.058 A 
ATOM     93  C   UNL     1      -1.103  -3.512  10.630  1.00  0.00     0.135 A 
ATOM     94  C   UNL     1       0.862  -4.870  10.913  1.00  0.00     0.135 A 
ATOM     95  F   UNL     1      -2.075  -2.992   9.865  1.00  0.00    -0.206 F 
ATOM     96  C   UNL     1      -1.058  -3.153  11.974  1.00  0.00     0.059 A 
ATOM     97  C   UNL     1       0.907  -4.551  12.266  1.00  0.00     0.059 A 
ATOM     98  F   UNL     1       1.805  -5.693  10.428  1.00  0.00    -0.206 F 
ATOM     99  C   UNL     1      -0.051  -3.681  12.784  1.00  0.00     0.060 A 
BRANCH  99 100
ATOM    100  S   UNL     1      -0.024  -3.234  14.532  1.00  0.00     0.124 S 
ATOM    101  O   UNL     1       0.416  -1.843  14.474  1.00  0.00    -0.237 OA
ATOM    102  O   UNL     1      -1.412  -3.444  14.929  1.00  0.00    -0.237 OA
ATOM    103  O   UNL     1       0.936  -4.171  15.109  1.00  0.00    -0.744 OA
ENDBRANCH  99 100
ENDBRANCH  67  92
ENDBRANCH  41  42
ENDBRANCH  34  36
ENDBRANCH  33  34
ENDBRANCH  32  33
ENDBRANCH  31  32
ENDBRANCH  30  31
ENDBRANCH  29  30
ENDBRANCH  28  29
ENDBRANCH  27  28
ENDBRANCH   1  27
TORSDOF 28
