REMARK SMILES O=C(/C=C/c1ccccc1Oc1cccc(Cl)c1)OCCOCCOCCOCCOC(=O)c1ccc(-c2c3nc(c(-c4c(F)cc(S(=O)(=O)[O-])cc4F)c4ccc([nH]4)c(-c4c(F)cc(S(=O)(=O)[O-])cc4F)c4nc(c(-c5c(F)cc(S(=O)(=O)[O-])cc5F)c5ccc2[nH]5)C=C4)C=C3)cc1
REMARK SMILES IDX 25 1 24 2 23 3 22 4 21 5 20 6 19 7 2 8 1 9 3 10 4 11 5 12
REMARK SMILES IDX 6 13 10 14 7 15 9 16 8 17 11 18 12 19 13 20 18 21 14 22
REMARK SMILES IDX 16 23 15 24 17 25 26 26 27 27 28 28 29 29 30 30 31 31 32 32
REMARK SMILES IDX 33 33 34 34 35 35 99 36 36 37 98 38 37 39 38 40 39 41 92 42
REMARK SMILES IDX 40 43 97 44 91 45 93 46 41 47 96 48 90 49 89 50 42 52 76 53
REMARK SMILES IDX 55 54 75 55 56 56 59 57 74 58 94 59 57 60 58 61 73 63 95 64
REMARK SMILES IDX 60 65 43 66 44 67 53 68 45 69 46 70 52 71 54 72 47 73 48 74
REMARK SMILES IDX 49 75 50 76 51 77 77 78 78 79 87 80 79 81 80 82 86 83 88 84
REMARK SMILES IDX 81 85 82 86 83 87 84 88 85 89 61 90 62 91 71 92 63 93 64 94
REMARK SMILES IDX 70 95 72 96 65 97 66 98 67 99 68 100 69 101
REMARK H PARENT 93 51 59 62
REMARK Flexibility Score: inf
ROOT
ATOM      1  O   UNL     1       2.612   3.606   1.134  1.00  0.00    -0.377 OA
ENDROOT
BRANCH   1   2
ATOM      2  C   UNL     1       2.304   2.286   0.714  1.00  0.00     0.188 C 
BRANCH   2   3
ATOM      3  C   UNL     1       3.058   1.194   1.462  1.00  0.00     0.188 C 
BRANCH   3   4
ATOM      4  O   UNL     1       4.380   0.768   1.119  1.00  0.00    -0.376 OA
BRANCH   4   5
ATOM      5  C   UNL     1       5.088   1.033  -0.079  1.00  0.00     0.202 C 
BRANCH   5   6
ATOM      6  C   UNL     1       4.688   0.452  -1.435  1.00  0.00     0.261 C 
BRANCH   6   7
ATOM      7  O   UNL     1       3.311   0.170  -1.643  1.00  0.00    -0.460 OA
BRANCH   7   8
ATOM      8  C   UNL     1       2.611  -0.750  -0.957  1.00  0.00     0.330 C 
ATOM      9  O   UNL     1       1.385  -0.756  -1.035  1.00  0.00    -0.247 OA
BRANCH   8  10
ATOM     10  C   UNL     1       3.272  -1.568   0.079  1.00  0.00     0.094 C 
ATOM     11  C   UNL     1       4.438  -2.225   0.134  1.00  0.00     0.019 C 
BRANCH  11  12
ATOM     12  C   UNL     1       4.905  -2.764   1.427  1.00  0.00     0.017 A 
ATOM     13  C   UNL     1       5.944  -2.027   2.039  1.00  0.00     0.012 A 
ATOM     14  C   UNL     1       4.431  -3.915   2.085  1.00  0.00     0.134 A 
ATOM     15  C   UNL     1       6.533  -2.434   3.237  1.00  0.00     0.001 A 
ATOM     16  C   UNL     1       5.050  -4.326   3.281  1.00  0.00     0.048 A 
ATOM     17  C   UNL     1       6.094  -3.596   3.853  1.00  0.00     0.004 A 
BRANCH  14  18
ATOM     18  O   UNL     1       3.478  -4.815   1.640  1.00  0.00    -0.457 OA
BRANCH  18  19
ATOM     19  C   UNL     1       2.342  -4.344   1.034  1.00  0.00     0.128 A 
ATOM     20  C   UNL     1       1.319  -3.728   1.762  1.00  0.00     0.047 A 
ATOM     21  C   UNL     1       2.226  -4.524  -0.345  1.00  0.00     0.067 A 
ATOM     22  C   UNL     1       0.209  -3.211   1.084  1.00  0.00     0.005 A 
ATOM     23  C   UNL     1       1.130  -3.987  -1.014  1.00  0.00     0.044 A 
ATOM     24  C   UNL     1       0.122  -3.331  -0.306  1.00  0.00     0.021 A 
ATOM     25  Cl  UNL     1       1.079  -4.049  -2.733  1.00  0.00    -0.084 Cl
ENDBRANCH  18  19
ENDBRANCH  14  18
ENDBRANCH  11  12
ENDBRANCH   8  10
ENDBRANCH   7   8
ENDBRANCH   6   7
ENDBRANCH   5   6
ENDBRANCH   4   5
ENDBRANCH   3   4
ENDBRANCH   2   3
ENDBRANCH   1   2
BRANCH   1  26
ATOM     26  C   UNL     1       3.941   3.991   0.826  1.00  0.00     0.188 C 
BRANCH  26  27
ATOM     27  C   UNL     1       4.934   3.730   1.979  1.00  0.00     0.188 C 
BRANCH  27  28
ATOM     28  O   UNL     1       4.313   3.207   3.139  1.00  0.00    -0.376 OA
BRANCH  28  29
ATOM     29  C   UNL     1       3.799   4.095   4.115  1.00  0.00     0.202 C 
BRANCH  29  30
ATOM     30  C   UNL     1       2.974   5.341   3.744  1.00  0.00     0.261 C 
BRANCH  30  31
ATOM     31  O   UNL     1       3.410   6.155   2.648  1.00  0.00    -0.460 OA
BRANCH  31  32
ATOM     32  C   UNL     1       4.609   6.776   2.683  1.00  0.00     0.338 C 
ATOM     33  O   UNL     1       5.399   6.792   3.609  1.00  0.00    -0.246 OA
BRANCH  32  34
ATOM     34  C   UNL     1       4.895   7.176   1.274  1.00  0.00     0.060 A 
ATOM     35  C   UNL     1       6.093   6.754   0.670  1.00  0.00     0.016 A 
ATOM     36  C   UNL     1       3.903   7.791   0.500  1.00  0.00     0.016 A 
ATOM     37  C   UNL     1       6.306   6.963  -0.698  1.00  0.00     0.010 A 
ATOM     38  C   UNL     1       4.129   8.030  -0.856  1.00  0.00     0.010 A 
ATOM     39  C   UNL     1       5.346   7.653  -1.451  1.00  0.00    -0.014 A 
BRANCH  39  40
ATOM     40  C   UNL     1       5.728   8.313  -2.723  1.00  0.00     0.031 A 
ATOM     41  C   UNL     1       6.284   9.706  -2.602  1.00  0.00     0.074 A 
ATOM     42  C   UNL     1       5.522   7.761  -3.930  1.00  0.00     0.049 A 
ATOM     43  N   UNL     1       6.529  10.592  -3.528  1.00  0.00    -0.248 NA
ATOM     44  C   UNL     1       6.578  10.166  -1.233  1.00  0.00     0.031 C 
ATOM     45  C   UNL     1       5.019   6.412  -4.176  1.00  0.00     0.029 A 
ATOM     46  N   UNL     1       5.680   8.298  -5.186  1.00  0.00    -0.354 N 
ATOM     47  C   UNL     1       6.977  11.720  -2.851  1.00  0.00     0.074 A 
ATOM     48  C   UNL     1       6.959  11.413  -1.440  1.00  0.00     0.031 C 
ATOM     49  C   UNL     1       4.870   6.240  -5.503  1.00  0.00     0.029 A 
ATOM     50  C   UNL     1       5.226   7.481  -6.194  1.00  0.00     0.049 A 
ATOM     51  H   UNL     1       6.081   9.183  -5.347  1.00  0.00     0.167 HD
ATOM     52  C   UNL     1       7.361  12.913  -3.357  1.00  0.00     0.037 A 
ATOM     53  C   UNL     1       5.074   7.728  -7.512  1.00  0.00     0.037 A 
ATOM     54  C   UNL     1       7.350  13.220  -4.759  1.00  0.00     0.049 A 
ATOM     55  C   UNL     1       5.461   9.079  -8.062  1.00  0.00     0.074 A 
ATOM     56  C   UNL     1       7.737  14.389  -5.386  1.00  0.00     0.029 A 
ATOM     57  N   UNL     1       6.906  12.356  -5.749  1.00  0.00    -0.354 N 
ATOM     58  N   UNL     1       5.921  10.129  -7.421  1.00  0.00    -0.248 NA
ATOM     59  C   UNL     1       5.308   9.284  -9.510  1.00  0.00     0.031 C 
ATOM     60  C   UNL     1       7.477  14.251  -6.753  1.00  0.00     0.029 A 
ATOM     61  C   UNL     1       6.986  12.974  -6.984  1.00  0.00     0.049 A 
ATOM     62  H   UNL     1       6.582  11.439  -5.596  1.00  0.00     0.167 HD
ATOM     63  C   UNL     1       6.137  11.107  -8.389  1.00  0.00     0.074 A 
ATOM     64  C   UNL     1       5.756  10.524  -9.659  1.00  0.00     0.031 C 
ATOM     65  C   UNL     1       6.614  12.369  -8.240  1.00  0.00     0.037 A 
BRANCH  52  66
ATOM     66  C   UNL     1       7.757  13.974  -2.371  1.00  0.00     0.058 A 
ATOM     67  C   UNL     1       8.930  13.876  -1.604  1.00  0.00     0.135 A 
ATOM     68  C   UNL     1       6.921  15.080  -2.152  1.00  0.00     0.135 A 
ATOM     69  F   UNL     1       9.749  12.821  -1.752  1.00  0.00    -0.206 F 
ATOM     70  C   UNL     1       9.235  14.811  -0.621  1.00  0.00     0.059 A 
ATOM     71  C   UNL     1       7.224  16.045  -1.197  1.00  0.00     0.059 A 
ATOM     72  F   UNL     1       5.783  15.217  -2.850  1.00  0.00    -0.206 F 
ATOM     73  C   UNL     1       8.370  15.888  -0.420  1.00  0.00     0.060 A 
BRANCH  73  74
ATOM     74  S   UNL     1       8.757  17.073   0.884  1.00  0.00     0.124 S 
ATOM     75  O   UNL     1       8.413  16.310   2.080  1.00  0.00    -0.237 OA
ATOM     76  O   UNL     1      10.181  17.314   0.676  1.00  0.00    -0.237 OA
ATOM     77  O   UNL     1       7.882  18.203   0.587  1.00  0.00    -0.744 OA
ENDBRANCH  73  74
ENDBRANCH  52  66
BRANCH  53  78
ATOM     78  C   UNL     1       4.503   6.674  -8.395  1.00  0.00     0.058 A 
ATOM     79  C   UNL     1       5.302   5.985  -9.318  1.00  0.00     0.135 A 
ATOM     80  C   UNL     1       3.151   6.304  -8.298  1.00  0.00     0.135 A 
ATOM     81  F   UNL     1       6.594   6.314  -9.463  1.00  0.00    -0.206 F 
ATOM     82  C   UNL     1       4.788   4.957 -10.103  1.00  0.00     0.059 A 
ATOM     83  C   UNL     1       2.619   5.265  -9.056  1.00  0.00     0.059 A 
ATOM     84  F   UNL     1       2.343   6.932  -7.430  1.00  0.00    -0.206 F 
ATOM     85  C   UNL     1       3.447   4.594  -9.955  1.00  0.00     0.060 A 
BRANCH  85  86
ATOM     86  S   UNL     1       2.822   3.189 -10.903  1.00  0.00     0.124 S 
ATOM     87  O   UNL     1       2.772   3.740 -12.252  1.00  0.00    -0.237 OA
ATOM     88  O   UNL     1       3.849   2.180 -10.663  1.00  0.00    -0.237 OA
ATOM     89  O   UNL     1       1.528   2.916 -10.284  1.00  0.00    -0.744 OA
ENDBRANCH  85  86
ENDBRANCH  53  78
BRANCH  65  90
ATOM     90  C   UNL     1       6.806  13.205  -9.476  1.00  0.00     0.058 A 
ATOM     91  C   UNL     1       5.726  13.794 -10.148  1.00  0.00     0.135 A 
ATOM     92  C   UNL     1       8.104  13.515  -9.917  1.00  0.00     0.135 A 
ATOM     93  F   UNL     1       4.466  13.528  -9.768  1.00  0.00    -0.206 F 
ATOM     94  C   UNL     1       5.925  14.661 -11.219  1.00  0.00     0.059 A 
ATOM     95  C   UNL     1       8.326  14.399 -10.968  1.00  0.00     0.059 A 
ATOM     96  F   UNL     1       9.172  12.987  -9.299  1.00  0.00    -0.206 F 
ATOM     97  C   UNL     1       7.229  14.965 -11.615  1.00  0.00     0.060 A 
BRANCH  97  98
ATOM     98  S   UNL     1       7.476  16.148 -12.956  1.00  0.00     0.124 S 
ATOM     99  O   UNL     1       7.080  15.361 -14.119  1.00  0.00    -0.237 OA
ATOM    100  O   UNL     1       6.572  17.233 -12.586  1.00  0.00    -0.237 OA
ATOM    101  O   UNL     1       8.898  16.469 -12.870  1.00  0.00    -0.744 OA
ENDBRANCH  97  98
ENDBRANCH  65  90
ENDBRANCH  39  40
ENDBRANCH  32  34
ENDBRANCH  31  32
ENDBRANCH  30  31
ENDBRANCH  29  30
ENDBRANCH  28  29
ENDBRANCH  27  28
ENDBRANCH  26  27
ENDBRANCH   1  26
TORSDOF 26
