REMARK SMILES COc1cccc(OCC(=O)N/N=C/c2ccccc2C(=O)OCCOCCOCCOCCOC(=O)c2ccc(-c3c4nc(c(-c5c(F)cc(S(=O)(=O)[O-])cc5F)c5ccc([nH]5)c(-c5c(F)cc(S(=O)(=O)[O-])cc5F)c5nc(c(-c6c(F)cc(S(=O)(=O)[O-])cc6F)c6ccc3[nH]6)C=C5)C=C4)cc2)c1
REMARK SMILES IDX 27 1 26 2 25 3 24 4 23 5 21 6 22 7 20 8 15 9 16 10 17 11
REMARK SMILES IDX 19 12 18 13 14 14 13 15 12 16 10 17 11 18 9 20 8 21 7 22
REMARK SMILES IDX 3 23 4 24 104 25 5 26 6 27 2 28 1 29 28 30 29 31 30 32 31 33
REMARK SMILES IDX 32 34 33 35 34 36 35 37 36 38 37 39 38 40 39 41 103 42 40 43
REMARK SMILES IDX 102 44 41 45 42 46 43 47 96 48 44 49 101 50 95 51 97 52
REMARK SMILES IDX 45 53 100 54 94 55 93 56 46 58 80 59 59 60 79 61 60 62 63 63
REMARK SMILES IDX 78 64 98 65 61 66 62 67 77 69 99 70 64 71 47 72 48 73 57 74
REMARK SMILES IDX 49 75 50 76 56 77 58 78 51 79 52 80 53 81 54 82 55 83 81 84
REMARK SMILES IDX 82 85 91 86 83 87 84 88 90 89 92 90 85 91 86 92 87 93 88 94
REMARK SMILES IDX 89 95 65 96 66 97 75 98 67 99 68 100 74 101 76 102 69 103
REMARK SMILES IDX 70 104 71 105 72 106 73 107
REMARK H PARENT 12 19 97 57 63 68
REMARK Flexibility Score: inf
ROOT
ATOM      1  C   UNL     1       8.309  -7.906   0.026  1.00  0.00     0.188 C 
ENDROOT
BRANCH   1   2
ATOM      2  O   UNL     1       8.076  -7.632  -1.351  1.00  0.00    -0.376 OA
BRANCH   2   3
ATOM      3  C   UNL     1       6.894  -8.207  -1.902  1.00  0.00     0.202 C 
BRANCH   3   4
ATOM      4  C   UNL     1       5.631  -7.419  -1.563  1.00  0.00     0.261 C 
BRANCH   4   5
ATOM      5  O   UNL     1       5.459  -7.265  -0.150  1.00  0.00    -0.460 OA
BRANCH   5   6
ATOM      6  C   UNL     1       4.953  -8.298   0.547  1.00  0.00     0.338 C 
ATOM      7  O   UNL     1       4.681  -9.403   0.102  1.00  0.00    -0.246 OA
BRANCH   6   8
ATOM      8  C   UNL     1       4.987  -7.974   1.997  1.00  0.00     0.068 A 
ATOM      9  C   UNL     1       4.855  -6.681   2.523  1.00  0.00     0.009 A 
ATOM     10  C   UNL     1       5.001  -6.445   3.896  1.00  0.00     0.010 A 
ATOM     11  C   UNL     1       5.300  -7.501   4.754  1.00  0.00     0.001 A 
ATOM     12  C   UNL     1       5.295  -9.027   2.874  1.00  0.00     0.016 A 
ATOM     13  C   UNL     1       5.463  -8.787   4.242  1.00  0.00     0.001 A 
BRANCH   9  14
ATOM     14  C   UNL     1       4.779  -5.490   1.672  1.00  0.00     0.142 C 
ATOM     15  N   UNL     1       3.753  -5.219   0.940  1.00  0.00    -0.181 NA
BRANCH  15  16
ATOM     16  N   UNL     1       3.838  -4.099   0.159  1.00  0.00    -0.244 N 
ATOM     17  C   UNL     1       4.354  -2.855   0.437  1.00  0.00     0.277 C 
ATOM     18  O   UNL     1       4.475  -2.038  -0.483  1.00  0.00    -0.269 OA
ATOM     19  H   UNL     1       3.471  -4.200  -0.749  1.00  0.00     0.193 HD
BRANCH  17  20
ATOM     20  C   UNL     1       4.787  -2.473   1.862  1.00  0.00     0.331 C 
BRANCH  20  21
ATOM     21  O   UNL     1       4.021  -2.944   2.962  1.00  0.00    -0.484 OA
BRANCH  21  22
ATOM     22  C   UNL     1       2.696  -2.590   2.962  1.00  0.00     0.123 A 
ATOM     23  C   UNL     1       0.804  -1.192   2.396  1.00  0.00     0.122 A 
ATOM     24  C   UNL     1      -0.042  -2.065   3.080  1.00  0.00     0.046 A 
ATOM     25  C   UNL     1       2.175  -1.448   2.350  1.00  0.00     0.092 A 
ATOM     26  C   UNL     1       0.475  -3.197   3.707  1.00  0.00     0.008 A 
ATOM     27  C   UNL     1       1.844  -3.455   3.652  1.00  0.00     0.047 A 
BRANCH  23  28
ATOM     28  O   UNL     1       0.194  -0.103   1.836  1.00  0.00    -0.497 OA
ATOM     29  C   UNL     1       0.887   0.487   0.740  1.00  0.00     0.278 C 
ENDBRANCH  23  28
ENDBRANCH  21  22
ENDBRANCH  20  21
ENDBRANCH  17  20
ENDBRANCH  15  16
ENDBRANCH   9  14
ENDBRANCH   6   8
ENDBRANCH   5   6
ENDBRANCH   4   5
ENDBRANCH   3   4
ENDBRANCH   2   3
ENDBRANCH   1   2
BRANCH   1  30
ATOM     30  C   UNL     1       8.322  -6.670   0.946  1.00  0.00     0.188 C 
BRANCH  30  31
ATOM     31  O   UNL     1       7.962  -5.405   0.418  1.00  0.00    -0.377 OA
BRANCH  31  32
ATOM     32  C   UNL     1       8.577  -4.945  -0.783  1.00  0.00     0.188 C 
BRANCH  32  33
ATOM     33  C   UNL     1       9.971  -5.455  -1.208  1.00  0.00     0.188 C 
BRANCH  33  34
ATOM     34  O   UNL     1      10.740  -6.036  -0.161  1.00  0.00    -0.376 OA
BRANCH  34  35
ATOM     35  C   UNL     1      11.851  -5.275   0.291  1.00  0.00     0.202 C 
BRANCH  35  36
ATOM     36  C   UNL     1      11.464  -4.061   1.142  1.00  0.00     0.261 C 
BRANCH  36  37
ATOM     37  O   UNL     1      10.752  -3.033   0.435  1.00  0.00    -0.460 OA
BRANCH  37  38
ATOM     38  C   UNL     1      11.386  -2.452  -0.609  1.00  0.00     0.338 C 
ATOM     39  O   UNL     1      12.514  -2.675  -1.007  1.00  0.00    -0.246 OA
BRANCH  38  40
ATOM     40  C   UNL     1      10.401  -1.604  -1.301  1.00  0.00     0.060 A 
ATOM     41  C   UNL     1      10.085  -1.874  -2.639  1.00  0.00     0.016 A 
ATOM     42  C   UNL     1       9.784  -0.555  -0.617  1.00  0.00     0.016 A 
ATOM     43  C   UNL     1       9.153  -1.076  -3.303  1.00  0.00     0.010 A 
ATOM     44  C   UNL     1       8.868   0.253  -1.289  1.00  0.00     0.010 A 
ATOM     45  C   UNL     1       8.564   0.009  -2.640  1.00  0.00    -0.014 A 
BRANCH  45  46
ATOM     46  C   UNL     1       7.756   1.000  -3.386  1.00  0.00     0.031 A 
ATOM     47  C   UNL     1       8.437   2.239  -3.893  1.00  0.00     0.074 A 
ATOM     48  C   UNL     1       6.439   0.817  -3.584  1.00  0.00     0.049 A 
ATOM     49  N   UNL     1       7.920   3.295  -4.462  1.00  0.00    -0.248 NA
ATOM     50  C   UNL     1       9.899   2.296  -3.729  1.00  0.00     0.031 C 
ATOM     51  C   UNL     1       5.675  -0.357  -3.169  1.00  0.00     0.029 A 
ATOM     52  N   UNL     1       5.506   1.634  -4.172  1.00  0.00    -0.354 N 
ATOM     53  C   UNL     1       8.988   4.146  -4.718  1.00  0.00     0.074 A 
ATOM     54  C   UNL     1      10.181   3.492  -4.225  1.00  0.00     0.031 C 
ATOM     55  C   UNL     1       4.385  -0.180  -3.503  1.00  0.00     0.029 A 
ATOM     56  C   UNL     1       4.226   1.135  -4.121  1.00  0.00     0.049 A 
ATOM     57  H   UNL     1       5.732   2.497  -4.590  1.00  0.00     0.167 HD
ATOM     58  C   UNL     1       8.973   5.362  -5.310  1.00  0.00     0.037 A 
ATOM     59  C   UNL     1       3.059   1.696  -4.493  1.00  0.00     0.037 A 
ATOM     60  C   UNL     1       7.781   6.011  -5.788  1.00  0.00     0.049 A 
ATOM     61  C   UNL     1       3.055   3.099  -5.038  1.00  0.00     0.074 A 
ATOM     62  C   UNL     1       7.664   7.225  -6.441  1.00  0.00     0.029 A 
ATOM     63  N   UNL     1       6.497   5.505  -5.648  1.00  0.00    -0.354 N 
ATOM     64  N   UNL     1       4.070   3.892  -5.284  1.00  0.00    -0.248 NA
ATOM     65  C   UNL     1       1.742   3.693  -5.328  1.00  0.00     0.031 C 
ATOM     66  C   UNL     1       6.304   7.478  -6.649  1.00  0.00     0.029 A 
ATOM     67  C   UNL     1       5.577   6.401  -6.165  1.00  0.00     0.049 A 
ATOM     68  H   UNL     1       6.274   4.638  -5.240  1.00  0.00     0.167 HD
ATOM     69  C   UNL     1       3.520   5.075  -5.765  1.00  0.00     0.074 A 
ATOM     70  C   UNL     1       2.083   4.891  -5.784  1.00  0.00     0.031 C 
ATOM     71  C   UNL     1       4.149   6.210  -6.159  1.00  0.00     0.037 A 
BRANCH  58  72
ATOM     72  C   UNL     1      10.284   6.082  -5.442  1.00  0.00     0.058 A 
ATOM     73  C   UNL     1      11.256   5.679  -6.372  1.00  0.00     0.135 A 
ATOM     74  C   UNL     1      10.565   7.197  -4.638  1.00  0.00     0.135 A 
ATOM     75  F   UNL     1      11.045   4.606  -7.150  1.00  0.00    -0.206 F 
ATOM     76  C   UNL     1      12.473   6.344  -6.482  1.00  0.00     0.059 A 
ATOM     77  C   UNL     1      11.767   7.891  -4.748  1.00  0.00     0.059 A 
ATOM     78  F   UNL     1       9.672   7.618  -3.729  1.00  0.00    -0.206 F 
ATOM     79  C   UNL     1      12.720   7.447  -5.663  1.00  0.00     0.060 A 
BRANCH  79  80
ATOM     80  S   UNL     1      14.306   8.297  -5.814  1.00  0.00     0.124 S 
ATOM     81  O   UNL     1      15.205   7.351  -5.159  1.00  0.00    -0.237 OA
ATOM     82  O   UNL     1      14.460   8.418  -7.260  1.00  0.00    -0.237 OA
ATOM     83  O   UNL     1      14.088   9.552  -5.102  1.00  0.00    -0.744 OA
ENDBRANCH  79  80
ENDBRANCH  58  72
BRANCH  59  84
ATOM     84  C   UNL     1       1.782   0.960  -4.307  1.00  0.00     0.058 A 
ATOM     85  C   UNL     1       1.083   0.426  -5.399  1.00  0.00     0.135 A 
ATOM     86  C   UNL     1       1.226   0.796  -3.031  1.00  0.00     0.135 A 
ATOM     87  F   UNL     1       1.563   0.583  -6.642  1.00  0.00    -0.206 F 
ATOM     88  C   UNL     1      -0.122  -0.250  -5.233  1.00  0.00     0.059 A 
ATOM     89  C   UNL     1       0.031   0.110  -2.840  1.00  0.00     0.059 A 
ATOM     90  F   UNL     1       1.852   1.303  -1.958  1.00  0.00    -0.206 F 
ATOM     91  C   UNL     1      -0.639  -0.406  -3.946  1.00  0.00     0.060 A 
BRANCH  91  92
ATOM     92  S   UNL     1      -2.171  -1.335  -3.716  1.00  0.00     0.124 S 
ATOM     93  O   UNL     1      -3.174  -0.339  -4.074  1.00  0.00    -0.237 OA
ATOM     94  O   UNL     1      -2.007  -2.442  -4.653  1.00  0.00    -0.237 OA
ATOM     95  O   UNL     1      -2.123  -1.708  -2.306  1.00  0.00    -0.744 OA
ENDBRANCH  91  92
ENDBRANCH  59  84
BRANCH  71  96
ATOM     96  C   UNL     1       3.291   7.340  -6.652  1.00  0.00     0.058 A 
ATOM     97  C   UNL     1       2.564   8.149  -5.766  1.00  0.00     0.135 A 
ATOM     98  C   UNL     1       3.241   7.653  -8.020  1.00  0.00     0.135 A 
ATOM     99  F   UNL     1       2.570   7.884  -4.450  1.00  0.00    -0.206 F 
ATOM    100  C   UNL     1       1.808   9.225  -6.220  1.00  0.00     0.059 A 
ATOM    101  C   UNL     1       2.510   8.737  -8.494  1.00  0.00     0.059 A 
ATOM    102  F   UNL     1       3.925   6.913  -8.907  1.00  0.00    -0.206 F 
ATOM    103  C   UNL     1       1.790   9.512  -7.587  1.00  0.00     0.060 A 
BRANCH 103 104
ATOM    104  S   UNL     1       0.841  10.938  -8.160  1.00  0.00     0.124 S 
ATOM    105  O   UNL     1      -0.527  10.441  -8.059  1.00  0.00    -0.237 OA
ATOM    106  O   UNL     1       1.213  11.970  -7.197  1.00  0.00    -0.237 OA
ATOM    107  O   UNL     1       1.334  11.150  -9.518  1.00  0.00    -0.744 OA
ENDBRANCH 103 104
ENDBRANCH  71  96
ENDBRANCH  45  46
ENDBRANCH  38  40
ENDBRANCH  37  38
ENDBRANCH  36  37
ENDBRANCH  35  36
ENDBRANCH  34  35
ENDBRANCH  33  34
ENDBRANCH  32  33
ENDBRANCH  31  32
ENDBRANCH  30  31
ENDBRANCH   1  30
TORSDOF 29
