REMARK SMILES C[C@@H](C(=O)OCCOCCOCCOCCOC(=O)c1ccc(-c2c3nc(c(-c4c(F)cc(S(=O)(=O)[O-])cc4F)c4ccc([nH]4)c(-c4c(F)cc(S(=O)(=O)[O-])cc4F)c4nc(c(-c5c(F)cc(S(=O)(=O)[O-])cc5F)c5ccc2[nH]5)C=C4)C=C3)cc1)c1cc(/C=C/S(C)(=O)=O)cc(C(=O)c2ccccc2)c1
REMARK SMILES IDX 11 1 10 2 9 3 8 4 7 5 6 6 5 7 3 8 4 9 2 10 1 11 86 12 87 13
REMARK SMILES IDX 105 14 88 15 96 16 95 17 89 18 90 19 91 20 92 21 93 22 94 23
REMARK SMILES IDX 97 24 98 25 99 26 100 27 104 28 101 29 103 30 102 31 12 32
REMARK SMILES IDX 13 33 14 34 15 35 16 36 17 37 18 38 19 39 20 40 21 41 85 42
REMARK SMILES IDX 22 43 84 44 23 45 24 46 25 47 78 48 26 49 83 50 77 51 79 52
REMARK SMILES IDX 27 53 82 54 76 55 75 56 28 58 62 59 41 60 61 61 42 62 45 63
REMARK SMILES IDX 60 64 80 65 43 66 44 67 59 69 81 70 46 71 29 72 30 73 39 74
REMARK SMILES IDX 31 75 32 76 38 77 40 78 33 79 34 80 35 81 36 82 37 83 63 84
REMARK SMILES IDX 64 85 73 86 65 87 66 88 72 89 74 90 67 91 68 92 69 93 70 94
REMARK SMILES IDX 71 95 47 96 48 97 57 98 49 99 50 100 56 101 58 102 51 103
REMARK SMILES IDX 52 104 53 105 54 106 55 107
REMARK H PARENT 79 57 45 68
REMARK Flexibility Score: inf
ROOT
ATOM      1  O   UNL     1       2.083   0.624  -2.700  1.00  0.00    -0.377 OA
ENDROOT
BRANCH   1   2
ATOM      2  C   UNL     1       0.672   0.607  -2.668  1.00  0.00     0.188 C 
BRANCH   2   3
ATOM      3  C   UNL     1      -0.021   1.930  -3.030  1.00  0.00     0.188 C 
BRANCH   3   4
ATOM      4  O   UNL     1       0.647   2.865  -3.854  1.00  0.00    -0.376 OA
BRANCH   4   5
ATOM      5  C   UNL     1       1.860   3.483  -3.450  1.00  0.00     0.202 C 
BRANCH   5   6
ATOM      6  C   UNL     1       2.348   3.614  -1.993  1.00  0.00     0.261 C 
BRANCH   6   7
ATOM      7  O   UNL     1       1.896   2.617  -1.068  1.00  0.00    -0.463 OA
BRANCH   7   8
ATOM      8  C   UNL     1       1.128   3.039  -0.039  1.00  0.00     0.313 C 
ATOM      9  O   UNL     1       0.836   4.216   0.159  1.00  0.00    -0.252 OA
BRANCH   8  10
ATOM     10  C   UNL     1       0.569   1.888   0.825  1.00  0.00     0.126 C 
ATOM     11  C   UNL     1       1.452   0.635   0.877  1.00  0.00     0.025 C 
BRANCH  10  12
ATOM     12  C   UNL     1      -0.941   1.675   0.623  1.00  0.00    -0.033 A 
ATOM     13  C   UNL     1      -1.770   2.804   0.743  1.00  0.00     0.012 A 
ATOM     14  C   UNL     1      -1.568   0.441   0.392  1.00  0.00     0.016 A 
ATOM     15  C   UNL     1      -3.163   2.756   0.609  1.00  0.00    -0.024 A 
ATOM     16  C   UNL     1      -2.974   0.342   0.332  1.00  0.00     0.023 A 
ATOM     17  C   UNL     1      -3.758   1.508   0.421  1.00  0.00     0.020 A 
BRANCH  15  18
ATOM     18  C   UNL     1      -3.984   3.968   0.788  1.00  0.00     0.020 C 
ATOM     19  C   UNL     1      -3.490   5.214   0.705  1.00  0.00     0.106 C 
BRANCH  19  20
ATOM     20  S   UNL     1      -4.449   6.586   1.151  1.00  0.00     0.168 S 
ATOM     21  C   UNL     1      -3.545   7.171   2.569  1.00  0.00     0.163 C 
ATOM     22  O   UNL     1      -4.323   7.595   0.118  1.00  0.00    -0.225 OA
ATOM     23  O   UNL     1      -5.757   6.168   1.620  1.00  0.00    -0.225 OA
ENDBRANCH  19  20
ENDBRANCH  15  18
BRANCH  16  24
ATOM     24  C   UNL     1      -3.700  -0.960   0.170  1.00  0.00     0.193 C 
ATOM     25  O   UNL     1      -4.902  -0.957  -0.095  1.00  0.00    -0.289 OA
BRANCH  24  26
ATOM     26  C   UNL     1      -3.030  -2.276   0.300  1.00  0.00     0.022 A 
ATOM     27  C   UNL     1      -3.346  -3.273  -0.632  1.00  0.00     0.012 A 
ATOM     28  C   UNL     1      -2.133  -2.554   1.337  1.00  0.00     0.012 A 
ATOM     29  C   UNL     1      -2.712  -4.514  -0.570  1.00  0.00     0.001 A 
ATOM     30  C   UNL     1      -1.492  -3.793   1.388  1.00  0.00     0.001 A 
ATOM     31  C   UNL     1      -1.773  -4.767   0.430  1.00  0.00     0.000 A 
ENDBRANCH  24  26
ENDBRANCH  16  24
ENDBRANCH  10  12
ENDBRANCH   8  10
ENDBRANCH   7   8
ENDBRANCH   6   7
ENDBRANCH   5   6
ENDBRANCH   4   5
ENDBRANCH   3   4
ENDBRANCH   2   3
ENDBRANCH   1   2
BRANCH   1  32
ATOM     32  C   UNL     1       2.742   0.332  -3.924  1.00  0.00     0.188 C 
BRANCH  32  33
ATOM     33  C   UNL     1       1.979   0.416  -5.263  1.00  0.00     0.188 C 
BRANCH  33  34
ATOM     34  O   UNL     1       0.660  -0.107  -5.232  1.00  0.00    -0.376 OA
BRANCH  34  35
ATOM     35  C   UNL     1       0.448  -1.443  -5.666  1.00  0.00     0.202 C 
BRANCH  35  36
ATOM     36  C   UNL     1       1.107  -2.570  -4.853  1.00  0.00     0.261 C 
BRANCH  36  37
ATOM     37  O   UNL     1       2.541  -2.549  -4.773  1.00  0.00    -0.460 OA
BRANCH  37  38
ATOM     38  C   UNL     1       3.240  -2.561  -5.927  1.00  0.00     0.338 C 
ATOM     39  O   UNL     1       2.787  -2.656  -7.057  1.00  0.00    -0.246 OA
BRANCH  38  40
ATOM     40  C   UNL     1       4.645  -2.233  -5.611  1.00  0.00     0.060 A 
ATOM     41  C   UNL     1       5.225  -1.098  -6.194  1.00  0.00     0.016 A 
ATOM     42  C   UNL     1       5.387  -3.039  -4.744  1.00  0.00     0.016 A 
ATOM     43  C   UNL     1       6.563  -0.790  -5.945  1.00  0.00     0.010 A 
ATOM     44  C   UNL     1       6.733  -2.742  -4.513  1.00  0.00     0.010 A 
ATOM     45  C   UNL     1       7.338  -1.638  -5.143  1.00  0.00    -0.014 A 
BRANCH  45  46
ATOM     46  C   UNL     1       8.815  -1.494  -5.130  1.00  0.00     0.031 A 
ATOM     47  C   UNL     1       9.625  -2.405  -6.013  1.00  0.00     0.074 A 
ATOM     48  C   UNL     1       9.426  -0.564  -4.375  1.00  0.00     0.049 A 
ATOM     49  N   UNL     1      10.922  -2.515  -6.128  1.00  0.00    -0.248 NA
ATOM     50  C   UNL     1       8.864  -3.320  -6.881  1.00  0.00     0.031 C 
ATOM     51  C   UNL     1       8.750   0.405  -3.514  1.00  0.00     0.029 A 
ATOM     52  N   UNL     1      10.761  -0.293  -4.203  1.00  0.00    -0.354 N 
ATOM     53  C   UNL     1      11.134  -3.512  -7.074  1.00  0.00     0.074 A 
ATOM     54  C   UNL     1       9.833  -4.001  -7.474  1.00  0.00     0.031 C 
ATOM     55  C   UNL     1       9.677   1.153  -2.890  1.00  0.00     0.029 A 
ATOM     56  C   UNL     1      11.010   0.693  -3.278  1.00  0.00     0.049 A 
ATOM     57  H   UNL     1      11.474  -0.762  -4.696  1.00  0.00     0.167 HD
ATOM     58  C   UNL     1      12.306  -3.972  -7.571  1.00  0.00     0.037 A 
ATOM     59  C   UNL     1      12.179   1.149  -2.782  1.00  0.00     0.037 A 
ATOM     60  C   UNL     1      13.598  -3.485  -7.164  1.00  0.00     0.049 A 
ATOM     61  C   UNL     1      13.475   0.568  -3.292  1.00  0.00     0.074 A 
ATOM     62  C   UNL     1      14.846  -3.880  -7.611  1.00  0.00     0.029 A 
ATOM     63  N   UNL     1      13.809  -2.502  -6.207  1.00  0.00    -0.354 N 
ATOM     64  N   UNL     1      13.663  -0.364  -4.197  1.00  0.00    -0.248 NA
ATOM     65  C   UNL     1      14.718   1.103  -2.718  1.00  0.00     0.031 C 
ATOM     66  C   UNL     1      15.813  -3.179  -6.884  1.00  0.00     0.029 A 
ATOM     67  C   UNL     1      15.168  -2.297  -6.031  1.00  0.00     0.049 A 
ATOM     68  H   UNL     1      13.099  -2.022  -5.724  1.00  0.00     0.167 HD
ATOM     69  C   UNL     1      15.043  -0.503  -4.323  1.00  0.00     0.074 A 
ATOM     70  C   UNL     1      15.641   0.448  -3.409  1.00  0.00     0.031 C 
ATOM     71  C   UNL     1      15.751  -1.339  -5.123  1.00  0.00     0.037 A 
BRANCH  58  72
ATOM     72  C   UNL     1      12.246  -5.077  -8.591  1.00  0.00     0.058 A 
ATOM     73  C   UNL     1      11.757  -4.863  -9.889  1.00  0.00     0.135 A 
ATOM     74  C   UNL     1      12.711  -6.364  -8.272  1.00  0.00     0.135 A 
ATOM     75  F   UNL     1      11.280  -3.659 -10.243  1.00  0.00    -0.206 F 
ATOM     76  C   UNL     1      11.707  -5.890 -10.827  1.00  0.00     0.059 A 
ATOM     77  C   UNL     1      12.700  -7.398  -9.204  1.00  0.00     0.059 A 
ATOM     78  F   UNL     1      13.184  -6.627  -7.044  1.00  0.00    -0.206 F 
ATOM     79  C   UNL     1      12.183  -7.154 -10.475  1.00  0.00     0.060 A 
BRANCH  79  80
ATOM     80  S   UNL     1      12.117  -8.472 -11.706  1.00  0.00     0.124 S 
ATOM     81  O   UNL     1      10.682  -8.725 -11.786  1.00  0.00    -0.237 OA
ATOM     82  O   UNL     1      12.714  -7.835 -12.875  1.00  0.00    -0.237 OA
ATOM     83  O   UNL     1      12.909  -9.541 -11.104  1.00  0.00    -0.744 OA
ENDBRANCH  79  80
ENDBRANCH  58  72
BRANCH  59  84
ATOM     84  C   UNL     1      12.181   2.198  -1.724  1.00  0.00     0.058 A 
ATOM     85  C   UNL     1      12.675   3.486  -1.974  1.00  0.00     0.135 A 
ATOM     86  C   UNL     1      11.691   1.927  -0.436  1.00  0.00     0.135 A 
ATOM     87  F   UNL     1      13.168   3.792  -3.184  1.00  0.00    -0.206 F 
ATOM     88  C   UNL     1      12.698   4.465  -0.984  1.00  0.00     0.059 A 
ATOM     89  C   UNL     1      11.675   2.897   0.561  1.00  0.00     0.059 A 
ATOM     90  F   UNL     1      11.200   0.713  -0.144  1.00  0.00    -0.206 F 
ATOM     91  C   UNL     1      12.189   4.161   0.280  1.00  0.00     0.060 A 
BRANCH  91  92
ATOM     92  S   UNL     1      12.171   5.455   1.540  1.00  0.00     0.124 S 
ATOM     93  O   UNL     1      13.589   5.580   1.855  1.00  0.00    -0.237 OA
ATOM     94  O   UNL     1      11.574   6.574   0.819  1.00  0.00    -0.237 OA
ATOM     95  O   UNL     1      11.338   4.883   2.595  1.00  0.00    -0.744 OA
ENDBRANCH  91  92
ENDBRANCH  59  84
BRANCH  71  96
ATOM     96  C   UNL     1      17.253  -1.239  -5.088  1.00  0.00     0.058 A 
ATOM     97  C   UNL     1      18.002  -1.677  -3.984  1.00  0.00     0.135 A 
ATOM     98  C   UNL     1      17.957  -0.752  -6.202  1.00  0.00     0.135 A 
ATOM     99  F   UNL     1      17.383  -2.148  -2.890  1.00  0.00    -0.206 F 
ATOM    100  C   UNL     1      19.393  -1.612  -3.977  1.00  0.00     0.059 A 
ATOM    101  C   UNL     1      19.348  -0.709  -6.230  1.00  0.00     0.059 A 
ATOM    102  F   UNL     1      17.293  -0.331  -7.291  1.00  0.00    -0.206 F 
ATOM    103  C   UNL     1      20.057  -1.130  -5.107  1.00  0.00     0.060 A 
BRANCH 103 104
ATOM    104  S   UNL     1      21.861  -1.084  -5.096  1.00  0.00     0.124 S 
ATOM    105  O   UNL     1      22.122   0.009  -4.164  1.00  0.00    -0.237 OA
ATOM    106  O   UNL     1      22.204  -2.420  -4.618  1.00  0.00    -0.237 OA
ATOM    107  O   UNL     1      22.204  -0.815  -6.489  1.00  0.00    -0.744 OA
ENDBRANCH 103 104
ENDBRANCH  71  96
ENDBRANCH  45  46
ENDBRANCH  38  40
ENDBRANCH  37  38
ENDBRANCH  36  37
ENDBRANCH  35  36
ENDBRANCH  34  35
ENDBRANCH  33  34
ENDBRANCH  32  33
ENDBRANCH   1  32
TORSDOF 28
