REMARK SMILES O=C(Nc1cccc(C(=O)OCCOCCOCCOCCOC(=O)c2ccc(-c3c4nc(c(-c5c(F)cc(S(=O)(=O)[O-])cc5F)c5ccc([nH]5)c(-c5c(F)cc(S(=O)(=O)[O-])cc5F)c5nc(c(-c6c(F)cc(S(=O)(=O)[O-])cc6F)c6ccc3[nH]6)C=C5)C=C4)cc2)c1)Nc1cc(Cl)c(Cl)cc1Cl
REMARK SMILES IDX 18 1 17 2 16 3 15 4 14 5 13 6 12 7 11 8 9 9 10 10 8 11 4 12
REMARK SMILES IDX 5 13 92 14 6 15 7 16 3 17 1 18 2 19 93 20 94 23 95 24 101 25
REMARK SMILES IDX 96 26 100 27 102 28 97 29 98 30 99 31 19 32 20 33 21 34
REMARK SMILES IDX 22 35 23 36 24 37 25 38 26 39 27 40 91 41 28 42 90 43 29 44
REMARK SMILES IDX 30 45 31 46 84 47 32 48 89 49 83 50 85 51 33 52 88 53 82 54
REMARK SMILES IDX 81 55 34 57 68 58 47 59 67 60 48 61 51 62 66 63 86 64 49 65
REMARK SMILES IDX 50 66 65 68 87 69 52 70 35 71 36 72 45 73 37 74 38 75 44 76
REMARK SMILES IDX 46 77 39 78 40 79 41 80 42 81 43 82 69 83 70 84 79 85 71 86
REMARK SMILES IDX 72 87 78 88 80 89 73 90 74 91 75 92 76 93 77 94 53 95 54 96
REMARK SMILES IDX 63 97 55 98 56 99 62 100 64 101 57 102 58 103 59 104 60 105
REMARK SMILES IDX 61 106
REMARK H PARENT 3 21 93 22 85 56 51 67
REMARK Flexibility Score: inf
ROOT
ATOM      1  C   UNL     1       6.538   5.259   2.048  1.00  0.00     0.188 C 
ENDROOT
BRANCH   1   2
ATOM      2  O   UNL     1       6.170   3.890   1.878  1.00  0.00    -0.377 OA
BRANCH   2   3
ATOM      3  C   UNL     1       7.069   2.870   2.274  1.00  0.00     0.188 C 
BRANCH   3   4
ATOM      4  C   UNL     1       8.442   2.845   1.576  1.00  0.00     0.188 C 
BRANCH   4   5
ATOM      5  O   UNL     1       8.723   4.028   0.844  1.00  0.00    -0.376 OA
BRANCH   5   6
ATOM      6  C   UNL     1       8.685   3.987  -0.572  1.00  0.00     0.202 C 
BRANCH   6   7
ATOM      7  C   UNL     1       7.381   3.592  -1.278  1.00  0.00     0.261 C 
BRANCH   7   8
ATOM      8  O   UNL     1       6.700   2.454  -0.744  1.00  0.00    -0.460 OA
BRANCH   8   9
ATOM      9  C   UNL     1       7.237   1.231  -0.930  1.00  0.00     0.338 C 
ATOM     10  O   UNL     1       8.253   0.955  -1.541  1.00  0.00    -0.246 OA
BRANCH   9  11
ATOM     11  C   UNL     1       6.477   0.289  -0.071  1.00  0.00     0.062 A 
ATOM     12  C   UNL     1       4.374  -0.442   0.899  1.00  0.00     0.043 A 
ATOM     13  C   UNL     1       5.074  -1.345   1.703  1.00  0.00     0.026 A 
ATOM     14  C   UNL     1       5.092   0.422   0.069  1.00  0.00     0.041 A 
ATOM     15  C   UNL     1       6.464  -1.462   1.590  1.00  0.00     0.003 A 
ATOM     16  C   UNL     1       7.164  -0.668   0.679  1.00  0.00     0.016 A 
BRANCH  12  17
ATOM     17  N   UNL     1       2.969  -0.449   0.957  1.00  0.00    -0.308 N 
ATOM     18  O   UNL     1       0.852  -0.036   0.343  1.00  0.00    -0.248 OA
ATOM     19  C   UNL     1       2.039  -0.018   0.035  1.00  0.00     0.323 C 
ATOM     20  N   UNL     1       2.535   0.225  -1.217  1.00  0.00    -0.306 N 
ATOM     21  H   UNL     1       2.589  -0.820   1.787  1.00  0.00     0.171 HD
ATOM     22  H   UNL     1       3.460  -0.076  -1.366  1.00  0.00     0.171 HD
BRANCH  20  23
ATOM     23  C   UNL     1       1.921   0.841  -2.325  1.00  0.00     0.063 A 
ATOM     24  C   UNL     1       2.457   0.458  -3.566  1.00  0.00     0.049 A 
ATOM     25  C   UNL     1       0.878   1.781  -2.304  1.00  0.00     0.066 A 
ATOM     26  C   UNL     1       1.879   0.879  -4.763  1.00  0.00     0.061 A 
ATOM     27  C   UNL     1       0.293   2.196  -3.508  1.00  0.00     0.044 A 
ATOM     28  Cl  UNL     1       0.353   2.594  -0.874  1.00  0.00    -0.082 Cl
ATOM     29  Cl  UNL     1       2.582   0.297  -6.231  1.00  0.00    -0.083 Cl
ATOM     30  C   UNL     1       0.762   1.711  -4.732  1.00  0.00     0.061 A 
ATOM     31  Cl  UNL     1      -0.097   2.122  -6.164  1.00  0.00    -0.083 Cl
ENDBRANCH  20  23
ENDBRANCH  12  17
ENDBRANCH   9  11
ENDBRANCH   8   9
ENDBRANCH   7   8
ENDBRANCH   6   7
ENDBRANCH   5   6
ENDBRANCH   4   5
ENDBRANCH   3   4
ENDBRANCH   2   3
ENDBRANCH   1   2
BRANCH   1  32
ATOM     32  C   UNL     1       7.795   5.697   2.842  1.00  0.00     0.188 C 
BRANCH  32  33
ATOM     33  O   UNL     1       8.299   4.735   3.758  1.00  0.00    -0.376 OA
BRANCH  33  34
ATOM     34  C   UNL     1       8.116   4.997   5.138  1.00  0.00     0.202 C 
BRANCH  34  35
ATOM     35  C   UNL     1       6.667   4.911   5.634  1.00  0.00     0.261 C 
BRANCH  35  36
ATOM     36  O   UNL     1       5.746   5.816   5.007  1.00  0.00    -0.460 OA
BRANCH  36  37
ATOM     37  C   UNL     1       5.973   7.139   5.164  1.00  0.00     0.338 C 
ATOM     38  O   UNL     1       6.872   7.662   5.801  1.00  0.00    -0.246 OA
BRANCH  37  39
ATOM     39  C   UNL     1       5.045   7.855   4.267  1.00  0.00     0.060 A 
ATOM     40  C   UNL     1       5.563   8.665   3.248  1.00  0.00     0.016 A 
ATOM     41  C   UNL     1       3.666   7.699   4.418  1.00  0.00     0.016 A 
ATOM     42  C   UNL     1       4.696   9.336   2.385  1.00  0.00     0.010 A 
ATOM     43  C   UNL     1       2.800   8.388   3.568  1.00  0.00     0.010 A 
ATOM     44  C   UNL     1       3.310   9.228   2.563  1.00  0.00    -0.014 A 
BRANCH  44  45
ATOM     45  C   UNL     1       2.388  10.109   1.807  1.00  0.00     0.031 A 
ATOM     46  C   UNL     1       1.876  11.354   2.475  1.00  0.00     0.074 A 
ATOM     47  C   UNL     1       2.007   9.806   0.553  1.00  0.00     0.049 A 
ATOM     48  N   UNL     1       1.010  12.232   2.042  1.00  0.00    -0.248 NA
ATOM     49  C   UNL     1       2.414  11.646   3.814  1.00  0.00     0.031 C 
ATOM     50  C   UNL     1       2.461   8.649  -0.215  1.00  0.00     0.029 A 
ATOM     51  N   UNL     1       1.133  10.448  -0.289  1.00  0.00    -0.354 N 
ATOM     52  C   UNL     1       0.893  13.177   3.055  1.00  0.00     0.074 A 
ATOM     53  C   UNL     1       1.755  12.749   4.135  1.00  0.00     0.031 C 
ATOM     54  C   UNL     1       1.851   8.655  -1.413  1.00  0.00     0.029 A 
ATOM     55  C   UNL     1       0.936   9.794  -1.481  1.00  0.00     0.049 A 
ATOM     56  H   UNL     1       0.690  11.297  -0.060  1.00  0.00     0.167 HD
ATOM     57  C   UNL     1       0.141  14.303   3.079  1.00  0.00     0.037 A 
ATOM     58  C   UNL     1       0.093  10.070  -2.496  1.00  0.00     0.037 A 
ATOM     59  C   UNL     1      -0.724  14.718   2.005  1.00  0.00     0.049 A 
ATOM     60  C   UNL     1      -0.804  11.279  -2.409  1.00  0.00     0.074 A 
ATOM     61  C   UNL     1      -1.512  15.853   1.927  1.00  0.00     0.029 A 
ATOM     62  N   UNL     1      -0.926  14.009   0.830  1.00  0.00    -0.354 N 
ATOM     63  N   UNL     1      -0.883  12.183  -1.461  1.00  0.00    -0.248 NA
ATOM     64  C   UNL     1      -1.731  11.503  -3.529  1.00  0.00     0.031 C 
ATOM     65  C   UNL     1      -2.234  15.801   0.730  1.00  0.00     0.029 A 
ATOM     66  C   UNL     1      -1.851  14.665   0.035  1.00  0.00     0.049 A 
ATOM     67  H   UNL     1      -0.477  13.165   0.596  1.00  0.00     0.167 HD
ATOM     68  C   UNL     1      -1.847  13.095  -1.883  1.00  0.00     0.074 A 
ATOM     69  C   UNL     1      -2.312  12.642  -3.177  1.00  0.00     0.031 C 
ATOM     70  C   UNL     1      -2.305  14.207  -1.255  1.00  0.00     0.037 A 
BRANCH  57  71
ATOM     71  C   UNL     1       0.197  15.150   4.320  1.00  0.00     0.058 A 
ATOM     72  C   UNL     1       1.336  15.901   4.651  1.00  0.00     0.135 A 
ATOM     73  C   UNL     1      -0.915  15.236   5.173  1.00  0.00     0.135 A 
ATOM     74  F   UNL     1       2.435  15.840   3.882  1.00  0.00    -0.206 F 
ATOM     75  C   UNL     1       1.380  16.688   5.798  1.00  0.00     0.059 A 
ATOM     76  C   UNL     1      -0.904  16.040   6.309  1.00  0.00     0.059 A 
ATOM     77  F   UNL     1      -2.028  14.536   4.905  1.00  0.00    -0.206 F 
ATOM     78  C   UNL     1       0.253  16.752   6.620  1.00  0.00     0.060 A 
BRANCH  78  79
ATOM     79  S   UNL     1       0.324  17.783   8.100  1.00  0.00     0.124 S 
ATOM     80  O   UNL     1       1.228  17.012   8.948  1.00  0.00    -0.237 OA
ATOM     81  O   UNL     1       0.859  19.037   7.579  1.00  0.00    -0.237 OA
ATOM     82  O   UNL     1      -1.064  17.834   8.547  1.00  0.00    -0.744 OA
ENDBRANCH  78  79
ENDBRANCH  57  71
BRANCH  58  83
ATOM     83  C   UNL     1       0.037   9.177  -3.683  1.00  0.00     0.058 A 
ATOM     84  C   UNL     1       0.475   9.619  -4.940  1.00  0.00     0.135 A 
ATOM     85  C   UNL     1      -0.475   7.873  -3.589  1.00  0.00     0.135 A 
ATOM     86  F   UNL     1       0.958  10.863  -5.082  1.00  0.00    -0.206 F 
ATOM     87  C   UNL     1       0.390   8.810  -6.066  1.00  0.00     0.059 A 
ATOM     88  C   UNL     1      -0.544   7.035  -4.696  1.00  0.00     0.059 A 
ATOM     89  F   UNL     1      -0.902   7.399  -2.408  1.00  0.00    -0.206 F 
ATOM     90  C   UNL     1      -0.117   7.518  -5.932  1.00  0.00     0.060 A 
BRANCH  90  91
ATOM     91  S   UNL     1      -0.204   6.476  -7.402  1.00  0.00     0.124 S 
ATOM     92  O   UNL     1      -1.126   7.227  -8.247  1.00  0.00    -0.237 OA
ATOM     93  O   UNL     1       1.190   6.456  -7.834  1.00  0.00    -0.237 OA
ATOM     94  O   UNL     1      -0.717   5.216  -6.879  1.00  0.00    -0.744 OA
ENDBRANCH  90  91
ENDBRANCH  58  83
BRANCH  70  95
ATOM     95  C   UNL     1      -3.343  15.033  -1.966  1.00  0.00     0.058 A 
ATOM     96  C   UNL     1      -4.668  14.592  -2.109  1.00  0.00     0.135 A 
ATOM     97  C   UNL     1      -3.022  16.309  -2.458  1.00  0.00     0.135 A 
ATOM     98  F   UNL     1      -5.028  13.378  -1.665  1.00  0.00    -0.206 F 
ATOM     99  C   UNL     1      -5.633  15.379  -2.732  1.00  0.00     0.059 A 
ATOM    100  C   UNL     1      -3.977  17.125  -3.057  1.00  0.00     0.059 A 
ATOM    101  F   UNL     1      -1.772  16.785  -2.339  1.00  0.00    -0.206 F 
ATOM    102  C   UNL     1      -5.279  16.646  -3.199  1.00  0.00     0.060 A 
BRANCH 102 103
ATOM    103  S   UNL     1      -6.551  17.672  -3.966  1.00  0.00     0.124 S 
ATOM    104  O   UNL     1      -6.745  16.995  -5.244  1.00  0.00    -0.237 OA
ATOM    105  O   UNL     1      -7.654  17.563  -3.016  1.00  0.00    -0.237 OA
ATOM    106  O   UNL     1      -5.926  18.989  -4.043  1.00  0.00    -0.744 OA
ENDBRANCH 102 103
ENDBRANCH  70  95
ENDBRANCH  44  45
ENDBRANCH  37  39
ENDBRANCH  36  37
ENDBRANCH  35  36
ENDBRANCH  34  35
ENDBRANCH  33  34
ENDBRANCH  32  33
ENDBRANCH   1  32
TORSDOF 25
