REMARK SMILES CCn1ncc(NC(=O)[C@@H]2CCCC[C@@H]2C(=O)OCCOCCOCCOCCOC(=O)c2ccc(-c3c4nc(c(-c5c(F)cc(S(=O)(=O)[O-])cc5F)c5ccc([nH]5)c(-c5c(F)cc(S(=O)(=O)[O-])cc5F)c5nc(c(-c6c(F)cc(S(=O)(=O)[O-])cc6F)c6ccc3[nH]6)C=C5)C=C4)cc2)c1C(=O)Nc1cnn(C)c1C
REMARK SMILES IDX 23 1 22 2 21 3 20 4 19 5 18 6 16 7 17 8 15 9 10 10 11 11
REMARK SMILES IDX 12 12 14 13 13 14 8 15 7 16 9 18 6 19 3 20 4 21 99 22 5 23
REMARK SMILES IDX 2 24 1 25 100 26 101 27 102 28 103 30 104 31 108 32 105 33
REMARK SMILES IDX 106 34 109 35 107 36 24 37 25 38 26 39 27 40 28 41 29 42
REMARK SMILES IDX 30 43 31 44 32 45 33 46 34 47 98 48 35 49 97 50 36 51 37 52
REMARK SMILES IDX 38 53 91 54 39 55 96 56 90 57 92 58 40 59 95 60 89 61 88 62
REMARK SMILES IDX 41 64 75 65 54 66 74 67 55 68 58 69 73 70 93 71 56 72 57 73
REMARK SMILES IDX 72 75 94 76 59 77 42 78 43 79 52 80 44 81 45 82 51 83 53 84
REMARK SMILES IDX 46 85 47 86 48 87 49 88 50 89 76 90 77 91 86 92 78 93 79 94
REMARK SMILES IDX 85 95 87 96 80 97 81 98 82 99 83 100 84 101 60 102 61 103
REMARK SMILES IDX 70 104 62 105 63 106 69 107 71 108 64 109 65 110 66 111
REMARK SMILES IDX 67 112 68 113
REMARK H PARENT 7 17 102 29 92 63 58 74
REMARK Flexibility Score: inf
ROOT
ATOM      1  C   UNL     1       0.575  -2.301  -7.763  1.00  0.00     0.188 C 
ENDROOT
BRANCH   1   2
ATOM      2  C   UNL     1       0.006  -0.904  -7.969  1.00  0.00     0.188 C 
BRANCH   2   3
ATOM      3  O   UNL     1       0.500  -0.212  -9.116  1.00  0.00    -0.376 OA
BRANCH   3   4
ATOM      4  C   UNL     1       1.917  -0.128  -9.276  1.00  0.00     0.202 C 
BRANCH   4   5
ATOM      5  C   UNL     1       2.660   0.778  -8.284  1.00  0.00     0.261 C 
BRANCH   5   6
ATOM      6  O   UNL     1       2.659   0.297  -6.925  1.00  0.00    -0.463 OA
BRANCH   6   7
ATOM      7  C   UNL     1       1.887   0.976  -6.045  1.00  0.00     0.309 C 
ATOM      8  O   UNL     1       1.181   1.940  -6.327  1.00  0.00    -0.252 OA
BRANCH   7   9
ATOM      9  C   UNL     1       1.993   0.461  -4.612  1.00  0.00     0.111 C 
ATOM     10  C   UNL     1       3.251   0.986  -3.927  1.00  0.00     0.093 C 
ATOM     11  C   UNL     1       4.485   0.173  -4.296  1.00  0.00     0.014 C 
ATOM     12  C   UNL     1       4.300  -1.224  -3.712  1.00  0.00     0.001 C 
ATOM     13  C   UNL     1       1.787  -1.040  -4.388  1.00  0.00     0.016 C 
ATOM     14  C   UNL     1       3.042  -1.908  -4.237  1.00  0.00     0.001 C 
BRANCH  10  15
ATOM     15  C   UNL     1       3.370   2.472  -4.112  1.00  0.00     0.228 C 
ATOM     16  N   UNL     1       2.517   3.308  -3.454  1.00  0.00    -0.322 N 
ATOM     17  H   UNL     1       2.506   4.208  -3.854  1.00  0.00     0.170 HD
ATOM     18  O   UNL     1       4.139   2.952  -4.948  1.00  0.00    -0.274 OA
BRANCH  16  19
ATOM     19  C   UNL     1       1.654   3.216  -2.362  1.00  0.00     0.092 A 
ATOM     20  N   UNL     1       0.608   3.013  -0.434  1.00  0.00    -0.258 N 
ATOM     21  N   UNL     1       0.053   4.110  -0.985  1.00  0.00    -0.178 NA
ATOM     22  C   UNL     1       1.439   2.324  -1.302  1.00  0.00     0.150 A 
ATOM     23  C   UNL     1       0.732   4.265  -2.113  1.00  0.00     0.162 A 
BRANCH  20  24
ATOM     24  C   UNL     1       0.332   2.803   0.980  1.00  0.00     0.142 C 
ATOM     25  C   UNL     1       1.455   2.248   1.841  1.00  0.00     0.029 C 
ENDBRANCH  20  24
BRANCH  22  26
ATOM     26  C   UNL     1       2.076   1.086  -0.931  1.00  0.00     0.276 C 
ATOM     27  O   UNL     1       3.254   1.022  -0.583  1.00  0.00    -0.267 OA
ATOM     28  N   UNL     1       1.355  -0.089  -1.129  1.00  0.00    -0.318 N 
ATOM     29  H   UNL     1       1.326  -0.524  -2.012  1.00  0.00     0.170 HD
BRANCH  28  30
ATOM     30  C   UNL     1       0.677  -0.629  -0.041  1.00  0.00     0.082 A 
ATOM     31  C   UNL     1      -0.681  -0.553   0.308  1.00  0.00     0.161 A 
ATOM     32  C   UNL     1       1.273  -1.361   0.969  1.00  0.00     0.059 A 
ATOM     33  N   UNL     1      -0.906  -1.036   1.533  1.00  0.00    -0.179 NA
ATOM     34  N   UNL     1       0.311  -1.449   1.947  1.00  0.00    -0.271 N 
ATOM     35  C   UNL     1       2.674  -1.824   1.153  1.00  0.00     0.068 C 
ATOM     36  C   UNL     1       0.531  -1.658   3.362  1.00  0.00     0.174 C 
ENDBRANCH  28  30
ENDBRANCH  22  26
ENDBRANCH  16  19
ENDBRANCH  10  15
ENDBRANCH   7   9
ENDBRANCH   6   7
ENDBRANCH   5   6
ENDBRANCH   4   5
ENDBRANCH   3   4
ENDBRANCH   2   3
ENDBRANCH   1   2
BRANCH   1  37
ATOM     37  O   UNL     1       1.951  -2.243  -7.397  1.00  0.00    -0.377 OA
BRANCH  37  38
ATOM     38  C   UNL     1       2.805  -3.329  -7.747  1.00  0.00     0.188 C 
BRANCH  38  39
ATOM     39  C   UNL     1       2.244  -4.359  -8.720  1.00  0.00     0.188 C 
BRANCH  39  40
ATOM     40  O   UNL     1       1.063  -5.067  -8.307  1.00  0.00    -0.376 OA
BRANCH  40  41
ATOM     41  C   UNL     1       0.813  -5.314  -6.920  1.00  0.00     0.202 C 
BRANCH  41  42
ATOM     42  C   UNL     1       1.305  -6.658  -6.419  1.00  0.00     0.261 C 
BRANCH  42  43
ATOM     43  O   UNL     1       2.716  -6.573  -6.335  1.00  0.00    -0.460 OA
BRANCH  43  44
ATOM     44  C   UNL     1       3.358  -6.860  -7.480  1.00  0.00     0.338 C 
ATOM     45  O   UNL     1       2.871  -7.347  -8.503  1.00  0.00    -0.246 OA
BRANCH  44  46
ATOM     46  C   UNL     1       4.787  -6.538  -7.309  1.00  0.00     0.060 A 
ATOM     47  C   UNL     1       5.576  -7.264  -8.197  1.00  0.00     0.016 A 
ATOM     48  C   UNL     1       5.194  -6.255  -5.997  1.00  0.00     0.016 A 
ATOM     49  C   UNL     1       6.444  -8.152  -7.626  1.00  0.00     0.010 A 
ATOM     50  C   UNL     1       6.034  -7.165  -5.417  1.00  0.00     0.010 A 
ATOM     51  C   UNL     1       6.545  -8.171  -6.230  1.00  0.00    -0.014 A 
BRANCH  51  52
ATOM     52  C   UNL     1       7.297  -9.251  -5.653  1.00  0.00     0.031 A 
ATOM     53  C   UNL     1       8.742  -9.021  -5.789  1.00  0.00     0.074 A 
ATOM     54  C   UNL     1       6.728 -10.285  -5.016  1.00  0.00     0.049 A 
ATOM     55  N   UNL     1       9.564  -9.606  -6.593  1.00  0.00    -0.248 NA
ATOM     56  C   UNL     1       9.280  -7.823  -5.125  1.00  0.00     0.031 C 
ATOM     57  C   UNL     1       5.342 -10.442  -4.570  1.00  0.00     0.029 A 
ATOM     58  N   UNL     1       7.335 -11.397  -4.538  1.00  0.00    -0.354 N 
ATOM     59  C   UNL     1      10.784  -8.994  -6.349  1.00  0.00     0.074 A 
ATOM     60  C   UNL     1      10.500  -7.768  -5.652  1.00  0.00     0.031 C 
ATOM     61  C   UNL     1       5.281 -11.471  -3.692  1.00  0.00     0.029 A 
ATOM     62  C   UNL     1       6.589 -12.103  -3.611  1.00  0.00     0.049 A 
ATOM     63  H   UNL     1       8.233 -11.680  -4.827  1.00  0.00     0.167 HD
ATOM     64  C   UNL     1      11.948  -9.683  -6.457  1.00  0.00     0.037 A 
ATOM     65  C   UNL     1       7.083 -13.044  -2.768  1.00  0.00     0.037 A 
ATOM     66  C   UNL     1      11.789 -10.875  -7.252  1.00  0.00     0.049 A 
ATOM     67  C   UNL     1       8.380 -13.510  -3.345  1.00  0.00     0.074 A 
ATOM     68  C   UNL     1      11.374 -11.119  -8.547  1.00  0.00     0.029 A 
ATOM     69  N   UNL     1      11.698 -12.080  -6.595  1.00  0.00    -0.354 N 
ATOM     70  N   UNL     1       8.487 -14.168  -4.469  1.00  0.00    -0.248 NA
ATOM     71  C   UNL     1       9.602 -12.848  -2.904  1.00  0.00     0.031 C 
ATOM     72  C   UNL     1      10.631 -12.334  -8.482  1.00  0.00     0.029 A 
ATOM     73  C   UNL     1      10.664 -12.785  -7.161  1.00  0.00     0.049 A 
ATOM     74  H   UNL     1      12.270 -12.382  -5.853  1.00  0.00     0.167 HD
ATOM     75  C   UNL     1       9.641 -13.680  -5.072  1.00  0.00     0.074 A 
ATOM     76  C   UNL     1      10.331 -12.940  -4.020  1.00  0.00     0.031 C 
ATOM     77  C   UNL     1       9.791 -13.682  -6.431  1.00  0.00     0.037 A 
BRANCH  64  78
ATOM     78  C   UNL     1      13.104  -9.456  -5.519  1.00  0.00     0.058 A 
ATOM     79  C   UNL     1      14.354 -10.022  -5.818  1.00  0.00     0.135 A 
ATOM     80  C   UNL     1      12.969  -8.921  -4.214  1.00  0.00     0.135 A 
ATOM     81  F   UNL     1      14.581 -10.579  -7.018  1.00  0.00    -0.206 F 
ATOM     82  C   UNL     1      15.376 -10.103  -4.872  1.00  0.00     0.059 A 
ATOM     83  C   UNL     1      13.994  -8.927  -3.283  1.00  0.00     0.059 A 
ATOM     84  F   UNL     1      11.807  -8.460  -3.736  1.00  0.00    -0.206 F 
ATOM     85  C   UNL     1      15.178  -9.563  -3.603  1.00  0.00     0.060 A 
BRANCH  85  86
ATOM     86  S   UNL     1      16.437  -9.772  -2.337  1.00  0.00     0.124 S 
ATOM     87  O   UNL     1      16.320 -11.198  -2.052  1.00  0.00    -0.237 OA
ATOM     88  O   UNL     1      17.645  -9.354  -3.040  1.00  0.00    -0.237 OA
ATOM     89  O   UNL     1      15.995  -8.876  -1.273  1.00  0.00    -0.744 OA
ENDBRANCH  85  86
ENDBRANCH  64  78
BRANCH  65  90
ATOM     90  C   UNL     1       6.711 -13.243  -1.341  1.00  0.00     0.058 A 
ATOM     91  C   UNL     1       7.147 -14.372  -0.626  1.00  0.00     0.135 A 
ATOM     92  C   UNL     1       6.138 -12.208  -0.571  1.00  0.00     0.135 A 
ATOM     93  F   UNL     1       7.733 -15.393  -1.270  1.00  0.00    -0.206 F 
ATOM     94  C   UNL     1       7.057 -14.453   0.769  1.00  0.00     0.059 A 
ATOM     95  C   UNL     1       6.021 -12.274   0.815  1.00  0.00     0.059 A 
ATOM     96  F   UNL     1       5.754 -11.051  -1.130  1.00  0.00    -0.206 F 
ATOM     97  C   UNL     1       6.505 -13.389   1.483  1.00  0.00     0.060 A 
BRANCH  97  98
ATOM     98  S   UNL     1       6.531 -13.411   3.290  1.00  0.00     0.124 S 
ATOM     99  O   UNL     1       5.560 -14.457   3.592  1.00  0.00    -0.237 OA
ATOM    100  O   UNL     1       7.925 -13.732   3.574  1.00  0.00    -0.237 OA
ATOM    101  O   UNL     1       6.120 -12.056   3.651  1.00  0.00    -0.744 OA
ENDBRANCH  97  98
ENDBRANCH  65  90
BRANCH  77 102
ATOM    102  C   UNL     1       8.809 -14.484  -7.250  1.00  0.00     0.058 A 
ATOM    103  C   UNL     1       7.436 -14.191  -7.338  1.00  0.00     0.135 A 
ATOM    104  C   UNL     1       9.303 -15.483  -8.103  1.00  0.00     0.135 A 
ATOM    105  F   UNL     1       6.903 -13.179  -6.640  1.00  0.00    -0.206 F 
ATOM    106  C   UNL     1       6.586 -14.886  -8.201  1.00  0.00     0.059 A 
ATOM    107  C   UNL     1       8.480 -16.168  -8.995  1.00  0.00     0.059 A 
ATOM    108  F   UNL     1      10.616 -15.765  -8.117  1.00  0.00    -0.206 F 
ATOM    109  C   UNL     1       7.119 -15.872  -9.030  1.00  0.00     0.060 A 
BRANCH 109 110
ATOM    110  S   UNL     1       6.035 -16.704 -10.213  1.00  0.00     0.124 S 
ATOM    111  O   UNL     1       5.239 -17.566  -9.346  1.00  0.00    -0.237 OA
ATOM    112  O   UNL     1       5.320 -15.589 -10.828  1.00  0.00    -0.237 OA
ATOM    113  O   UNL     1       6.967 -17.398 -11.098  1.00  0.00    -0.744 OA
ENDBRANCH 109 110
ENDBRANCH  77 102
ENDBRANCH  51  52
ENDBRANCH  44  46
ENDBRANCH  43  44
ENDBRANCH  42  43
ENDBRANCH  41  42
ENDBRANCH  40  41
ENDBRANCH  39  40
ENDBRANCH  38  39
ENDBRANCH  37  38
ENDBRANCH   1  37
TORSDOF 28
