REMARK SMILES Cc1ccc(-c2cnnc(-n3nc(C)c4c3NC(=O)C[C@@H]4c3ccc(C(=O)OCCOCCOCCOCCOC(=O)c4ccc(-c5c6nc(c(-c7c(F)cc(S(=O)(=O)[O-])cc7F)c7ccc([nH]7)c(-c7c(F)cc(S(=O)(=O)[O-])cc7F)c7nc(c(-c8c(F)cc(S(=O)(=O)[O-])cc8F)c8ccc5[nH]8)C=C7)C=C6)cc4)cc3)n2)cc1
REMARK SMILES IDX 34 1 33 2 32 3 31 4 30 5 29 6 28 7 26 8 27 9 25 10 22 11
REMARK SMILES IDX 23 12 110 13 24 14 109 15 21 16 11 17 12 18 16 19 13 20
REMARK SMILES IDX 15 21 17 22 14 23 18 24 20 26 19 27 10 28 6 29 7 30 111 31
REMARK SMILES IDX 8 32 9 33 5 34 1 35 2 36 3 37 113 38 4 39 112 40 35 41 36 42
REMARK SMILES IDX 37 43 38 44 39 45 40 46 41 47 42 48 43 49 44 50 108 51 45 52
REMARK SMILES IDX 107 53 46 54 47 55 48 56 101 57 49 58 106 59 100 60 102 61
REMARK SMILES IDX 50 62 105 63 99 64 98 65 51 67 85 68 64 69 84 70 65 71 68 72
REMARK SMILES IDX 83 73 103 74 66 75 67 76 82 78 104 79 69 80 52 81 53 82
REMARK SMILES IDX 62 83 54 84 55 85 61 86 63 87 56 88 57 89 58 90 59 91 60 92
REMARK SMILES IDX 86 93 87 94 96 95 88 96 89 97 95 98 97 99 90 100 91 101
REMARK SMILES IDX 92 102 93 103 94 104 70 105 71 106 80 107 72 108 73 109
REMARK SMILES IDX 79 110 81 111 74 112 75 113 76 114 77 115 78 116
REMARK H PARENT 17 25 102 66 68 77
REMARK Flexibility Score: inf
ROOT
ATOM      1  O   UNL     1      -8.150   7.320  -9.031  1.00  0.00    -0.377 OA
ENDROOT
BRANCH   1   2
ATOM      2  C   UNL     1      -8.098   5.912  -8.987  1.00  0.00     0.188 C 
BRANCH   2   3
ATOM      3  C   UNL     1      -7.967   5.168 -10.326  1.00  0.00     0.188 C 
BRANCH   3   4
ATOM      4  O   UNL     1      -9.046   5.195 -11.264  1.00  0.00    -0.376 OA
BRANCH   4   5
ATOM      5  C   UNL     1     -10.371   5.148 -10.758  1.00  0.00     0.202 C 
BRANCH   5   6
ATOM      6  C   UNL     1     -11.043   3.807 -10.811  1.00  0.00     0.261 C 
BRANCH   6   7
ATOM      7  O   UNL     1     -10.601   3.070  -9.685  1.00  0.00    -0.460 OA
BRANCH   7   8
ATOM      8  C   UNL     1      -9.781   2.079  -9.975  1.00  0.00     0.338 C 
ATOM      9  O   UNL     1      -9.632   1.502 -11.064  1.00  0.00    -0.246 OA
BRANCH   8  10
ATOM     10  C   UNL     1      -8.934   1.853  -8.810  1.00  0.00     0.060 A 
ATOM     11  C   UNL     1      -7.217   1.368  -6.666  1.00  0.00    -0.040 A 
ATOM     12  C   UNL     1      -7.245   0.522  -7.800  1.00  0.00     0.005 A 
ATOM     13  C   UNL     1      -8.010   2.514  -6.667  1.00  0.00     0.005 A 
ATOM     14  C   UNL     1      -8.065   0.780  -8.877  1.00  0.00     0.016 A 
ATOM     15  C   UNL     1      -8.908   2.720  -7.705  1.00  0.00     0.016 A 
BRANCH  11  16
ATOM     16  C   UNL     1      -6.372   0.887  -5.522  1.00  0.00     0.064 C 
ATOM     17  N   UNL     1      -5.742   2.343  -2.345  1.00  0.00    -0.180 N 
ATOM     18  N   UNL     1      -7.071   2.620  -2.270  1.00  0.00    -0.168 NA
ATOM     19  C   UNL     1      -5.396   2.279  -3.682  1.00  0.00     0.143 A 
ATOM     20  C   UNL     1      -7.563   2.111  -3.412  1.00  0.00     0.066 A 
ATOM     21  C   UNL     1      -6.500   1.701  -4.278  1.00  0.00     0.026 A 
ATOM     22  N   UNL     1      -4.244   2.549  -4.394  1.00  0.00    -0.310 N 
ATOM     23  C   UNL     1      -9.040   2.136  -3.583  1.00  0.00     0.069 C 
ATOM     24  C   UNL     1      -4.148   2.008  -5.708  1.00  0.00     0.226 C 
ATOM     25  H   UNL     1      -3.520   3.094  -4.009  1.00  0.00     0.171 HD
ATOM     26  C   UNL     1      -4.898   0.731  -5.935  1.00  0.00     0.113 C 
ATOM     27  O   UNL     1      -3.344   2.523  -6.483  1.00  0.00    -0.275 OA
BRANCH  17  28
ATOM     28  C   UNL     1      -5.083   1.600  -1.310  1.00  0.00     0.272 A 
ATOM     29  C   UNL     1      -3.284   0.417  -0.520  1.00  0.00     0.095 A 
ATOM     30  C   UNL     1      -4.118  -0.235   0.370  1.00  0.00     0.164 A 
ATOM     31  N   UNL     1      -3.763   1.319  -1.422  1.00  0.00    -0.208 NA
ATOM     32  N   UNL     1      -5.423   0.058   0.433  1.00  0.00    -0.153 NA
ATOM     33  N   UNL     1      -5.901   1.017  -0.395  1.00  0.00    -0.109 NA
BRANCH  29  34
ATOM     34  C   UNL     1      -1.825   0.264  -0.442  1.00  0.00     0.002 A 
ATOM     35  C   UNL     1       2.467  -0.055   0.067  1.00  0.00     0.044 C 
ATOM     36  C   UNL     1       0.981   0.059  -0.101  1.00  0.00    -0.051 A 
ATOM     37  C   UNL     1       0.188  -1.091  -0.170  1.00  0.00     0.004 A 
ATOM     38  C   UNL     1       0.369   1.310  -0.205  1.00  0.00     0.004 A 
ATOM     39  C   UNL     1      -1.199  -0.991  -0.337  1.00  0.00     0.011 A 
ATOM     40  C   UNL     1      -1.013   1.408  -0.378  1.00  0.00     0.011 A 
ENDBRANCH  29  34
ENDBRANCH  17  28
ENDBRANCH  11  16
ENDBRANCH   8  10
ENDBRANCH   7   8
ENDBRANCH   6   7
ENDBRANCH   5   6
ENDBRANCH   4   5
ENDBRANCH   3   4
ENDBRANCH   2   3
ENDBRANCH   1   2
BRANCH   1  41
ATOM     41  C   UNL     1      -9.010   7.940  -9.962  1.00  0.00     0.188 C 
BRANCH  41  42
ATOM     42  C   UNL     1      -8.247   8.590 -11.111  1.00  0.00     0.188 C 
BRANCH  42  43
ATOM     43  O   UNL     1      -6.915   8.977 -10.832  1.00  0.00    -0.376 OA
BRANCH  43  44
ATOM     44  C   UNL     1      -6.669   9.650  -9.592  1.00  0.00     0.202 C 
BRANCH  44  45
ATOM     45  C   UNL     1      -7.773  10.519  -8.911  1.00  0.00     0.261 C 
BRANCH  45  46
ATOM     46  O   UNL     1      -8.589  11.243  -9.873  1.00  0.00    -0.460 OA
BRANCH  46  47
ATOM     47  C   UNL     1      -9.736  11.856  -9.430  1.00  0.00     0.338 C 
ATOM     48  O   UNL     1      -9.825  13.044  -9.165  1.00  0.00    -0.246 OA
BRANCH  47  49
ATOM     49  C   UNL     1     -10.953  11.023  -9.678  1.00  0.00     0.060 A 
ATOM     50  C   UNL     1     -11.959  10.872  -8.724  1.00  0.00     0.016 A 
ATOM     51  C   UNL     1     -11.068  10.321 -10.873  1.00  0.00     0.016 A 
ATOM     52  C   UNL     1     -12.872   9.811  -8.838  1.00  0.00     0.010 A 
ATOM     53  C   UNL     1     -11.889   9.200 -10.938  1.00  0.00     0.010 A 
ATOM     54  C   UNL     1     -12.711   8.865  -9.860  1.00  0.00    -0.014 A 
BRANCH  54  55
ATOM     55  C   UNL     1     -13.050   7.432  -9.671  1.00  0.00     0.031 A 
ATOM     56  C   UNL     1     -13.702   6.599 -10.740  1.00  0.00     0.074 A 
ATOM     57  C   UNL     1     -12.454   6.830  -8.603  1.00  0.00     0.049 A 
ATOM     58  N   UNL     1     -14.076   5.372 -10.590  1.00  0.00    -0.248 NA
ATOM     59  C   UNL     1     -13.950   7.058 -12.106  1.00  0.00     0.031 C 
ATOM     60  C   UNL     1     -12.329   5.408  -8.300  1.00  0.00     0.029 A 
ATOM     61  N   UNL     1     -11.826   7.420  -7.502  1.00  0.00    -0.354 N 
ATOM     62  C   UNL     1     -14.259   4.792 -11.839  1.00  0.00     0.074 A 
ATOM     63  C   UNL     1     -14.269   5.918 -12.736  1.00  0.00     0.031 C 
ATOM     64  C   UNL     1     -11.770   5.222  -7.094  1.00  0.00     0.029 A 
ATOM     65  C   UNL     1     -11.779   6.508  -6.439  1.00  0.00     0.049 A 
ATOM     66  H   UNL     1     -11.470   8.338  -7.477  1.00  0.00     0.167 HD
ATOM     67  C   UNL     1     -14.225   3.421 -11.956  1.00  0.00     0.037 A 
ATOM     68  C   UNL     1     -12.622   6.726  -5.383  1.00  0.00     0.037 A 
ATOM     69  C   UNL     1     -14.296   2.782 -10.613  1.00  0.00     0.049 A 
ATOM     70  C   UNL     1     -13.857   5.803  -5.430  1.00  0.00     0.074 A 
ATOM     71  C   UNL     1     -13.555   1.830  -9.931  1.00  0.00     0.029 A 
ATOM     72  N   UNL     1     -15.173   3.307  -9.650  1.00  0.00    -0.354 N 
ATOM     73  N   UNL     1     -14.275   5.232  -6.544  1.00  0.00    -0.248 NA
ATOM     74  C   UNL     1     -14.609   5.292  -4.286  1.00  0.00     0.031 C 
ATOM     75  C   UNL     1     -13.812   1.991  -8.531  1.00  0.00     0.029 A 
ATOM     76  C   UNL     1     -14.803   2.953  -8.363  1.00  0.00     0.049 A 
ATOM     77  H   UNL     1     -15.958   3.861  -9.865  1.00  0.00     0.167 HD
ATOM     78  C   UNL     1     -15.183   4.240  -6.294  1.00  0.00     0.074 A 
ATOM     79  C   UNL     1     -15.412   4.369  -4.861  1.00  0.00     0.031 C 
ATOM     80  C   UNL     1     -15.643   3.330  -7.219  1.00  0.00     0.037 A 
BRANCH  67  81
ATOM     81  C   UNL     1     -13.905   2.642 -13.262  1.00  0.00     0.058 A 
ATOM     82  C   UNL     1     -13.964   1.225 -13.314  1.00  0.00     0.135 A 
ATOM     83  C   UNL     1     -13.432   3.217 -14.470  1.00  0.00     0.135 A 
ATOM     84  F   UNL     1     -14.355   0.512 -12.249  1.00  0.00    -0.206 F 
ATOM     85  C   UNL     1     -13.619   0.465 -14.451  1.00  0.00     0.059 A 
ATOM     86  C   UNL     1     -13.134   2.483 -15.634  1.00  0.00     0.059 A 
ATOM     87  F   UNL     1     -13.173   4.525 -14.574  1.00  0.00    -0.206 F 
ATOM     88  C   UNL     1     -13.224   1.102 -15.619  1.00  0.00     0.060 A 
BRANCH  88  89
ATOM     89  S   UNL     1     -12.866   0.127 -17.103  1.00  0.00     0.124 S 
ATOM     90  O   UNL     1     -11.627  -0.552 -16.738  1.00  0.00    -0.237 OA
ATOM     91  O   UNL     1     -14.047  -0.724 -17.210  1.00  0.00    -0.237 OA
ATOM     92  O   UNL     1     -12.737   1.137 -18.151  1.00  0.00    -0.744 OA
ENDBRANCH  88  89
ENDBRANCH  67  81
BRANCH  68  93
ATOM     93  C   UNL     1     -12.195   7.975  -4.656  1.00  0.00     0.058 A 
ATOM     94  C   UNL     1     -10.955   7.865  -3.978  1.00  0.00     0.135 A 
ATOM     95  C   UNL     1     -12.491   9.259  -5.157  1.00  0.00     0.135 A 
ATOM     96  F   UNL     1     -10.602   6.685  -3.442  1.00  0.00    -0.206 F 
ATOM     97  C   UNL     1      -9.982   8.872  -4.004  1.00  0.00     0.059 A 
ATOM     98  C   UNL     1     -11.530  10.292  -5.183  1.00  0.00     0.059 A 
ATOM     99  F   UNL     1     -13.664   9.486  -5.765  1.00  0.00    -0.206 F 
ATOM    100  C   UNL     1     -10.253  10.059  -4.673  1.00  0.00     0.060 A 
BRANCH 100 101
ATOM    101  S   UNL     1      -8.868  11.172  -5.060  1.00  0.00     0.124 S 
ATOM    102  O   UNL     1      -8.677  11.871  -3.796  1.00  0.00    -0.237 OA
ATOM    103  O   UNL     1      -7.809  10.238  -5.438  1.00  0.00    -0.237 OA
ATOM    104  O   UNL     1      -9.392  11.963  -6.166  1.00  0.00    -0.744 OA
ENDBRANCH 100 101
ENDBRANCH  68  93
BRANCH  80 105
ATOM    105  C   UNL     1     -16.995   2.640  -7.144  1.00  0.00     0.058 A 
ATOM    106  C   UNL     1     -18.095   3.207  -6.484  1.00  0.00     0.135 A 
ATOM    107  C   UNL     1     -17.291   1.526  -7.977  1.00  0.00     0.135 A 
ATOM    108  F   UNL     1     -17.964   4.306  -5.728  1.00  0.00    -0.206 F 
ATOM    109  C   UNL     1     -19.386   2.696  -6.618  1.00  0.00     0.059 A 
ATOM    110  C   UNL     1     -18.578   1.046  -8.178  1.00  0.00     0.059 A 
ATOM    111  F   UNL     1     -16.338   0.873  -8.659  1.00  0.00    -0.206 F 
ATOM    112  C   UNL     1     -19.619   1.624  -7.475  1.00  0.00     0.060 A 
BRANCH 112 113
ATOM    113  S   UNL     1     -21.293   1.004  -7.692  1.00  0.00     0.124 S 
ATOM    114  O   UNL     1     -21.404   0.091  -6.559  1.00  0.00    -0.237 OA
ATOM    115  O   UNL     1     -22.095   2.220  -7.608  1.00  0.00    -0.237 OA
ATOM    116  O   UNL     1     -21.253   0.377  -9.009  1.00  0.00    -0.744 OA
ENDBRANCH 112 113
ENDBRANCH  80 105
ENDBRANCH  54  55
ENDBRANCH  47  49
ENDBRANCH  46  47
ENDBRANCH  45  46
ENDBRANCH  44  45
ENDBRANCH  43  44
ENDBRANCH  42  43
ENDBRANCH  41  42
ENDBRANCH   1  41
TORSDOF 26
