REMARK SMILES O=C(C#Cc1ccncc1Cl)OCCOCCOCCOCCOC(=O)c1ccc(-c2c3nc(c(-c4c(F)cc(S(=O)(=O)[O-])cc4F)c4ccc([nH]4)c(-c4c(F)cc(S(=O)(=O)[O-])cc4F)c4nc(c(-c5c(F)cc(S(=O)(=O)[O-])cc5F)c5ccc2[nH]5)C=C4)C=C3)cc1
REMARK SMILES IDX 19 1 18 2 17 3 16 4 15 5 14 6 13 7 12 8 2 9 1 10 3 11 4 12
REMARK SMILES IDX 5 13 6 14 10 15 7 16 9 17 11 18 8 19 20 20 21 21 22 22 23 23
REMARK SMILES IDX 24 24 25 25 26 26 27 27 28 28 92 29 29 30 91 31 30 32 31 33
REMARK SMILES IDX 32 34 85 35 33 36 90 37 84 38 86 39 34 40 89 41 83 42 82 43
REMARK SMILES IDX 35 45 69 46 48 47 68 48 49 49 52 50 67 51 87 52 50 53 51 54
REMARK SMILES IDX 66 56 88 57 53 58 36 59 37 60 46 61 38 62 39 63 45 64 47 65
REMARK SMILES IDX 40 66 41 67 42 68 43 69 44 70 70 71 71 72 80 73 72 74 73 75
REMARK SMILES IDX 79 76 81 77 74 78 75 79 76 80 77 81 78 82 54 83 55 84 64 85
REMARK SMILES IDX 56 86 57 87 63 88 65 89 58 90 59 91 60 92 61 93 62 94
REMARK H PARENT 86 44 52 55
REMARK Flexibility Score: inf
ROOT
ATOM      1  C   UNL     1       4.099  -3.329  -1.196  1.00  0.00     0.188 C 
ENDROOT
BRANCH   1   2
ATOM      2  O   UNL     1       2.679  -3.240  -1.116  1.00  0.00    -0.377 OA
BRANCH   2   3
ATOM      3  C   UNL     1       2.045  -2.005  -1.437  1.00  0.00     0.188 C 
BRANCH   3   4
ATOM      4  C   UNL     1       2.714  -0.663  -1.065  1.00  0.00     0.188 C 
BRANCH   4   5
ATOM      5  O   UNL     1       4.108  -0.781  -0.895  1.00  0.00    -0.376 OA
BRANCH   5   6
ATOM      6  C   UNL     1       4.855   0.036  -0.026  1.00  0.00     0.202 C 
BRANCH   6   7
ATOM      7  C   UNL     1       4.322   0.188   1.390  1.00  0.00     0.262 C 
BRANCH   7   8
ATOM      8  O   UNL     1       3.072   0.891   1.599  1.00  0.00    -0.454 OA
BRANCH   8   9
ATOM      9  C   UNL     1       2.603   2.009   0.992  1.00  0.00     0.384 C 
ATOM     10  O   UNL     1       1.565   2.550   1.351  1.00  0.00    -0.236 OA
BRANCH   9  11
ATOM     11  C   UNL     1       3.290   2.544  -0.153  1.00  0.00     0.022 C 
ATOM     12  C   UNL     1       3.782   3.021  -1.151  1.00  0.00    -0.053 C 
BRANCH  12  13
ATOM     13  C   UNL     1       4.331   3.656  -2.309  1.00  0.00     0.047 A 
ATOM     14  C   UNL     1       4.210   5.045  -2.383  1.00  0.00     0.039 A 
ATOM     15  C   UNL     1       4.969   2.977  -3.350  1.00  0.00     0.075 A 
ATOM     16  C   UNL     1       4.730   5.702  -3.484  1.00  0.00     0.112 A 
ATOM     17  C   UNL     1       5.460   3.729  -4.410  1.00  0.00     0.132 A 
ATOM     18  Cl  UNL     1       5.176   1.271  -3.400  1.00  0.00    -0.081 Cl
ATOM     19  N   UNL     1       5.355   5.077  -4.502  1.00  0.00    -0.263 NA
ENDBRANCH  12  13
ENDBRANCH   9  11
ENDBRANCH   8   9
ENDBRANCH   7   8
ENDBRANCH   6   7
ENDBRANCH   5   6
ENDBRANCH   4   5
ENDBRANCH   3   4
ENDBRANCH   2   3
ENDBRANCH   1   2
BRANCH   1  20
ATOM     20  C   UNL     1       4.811  -2.845  -2.485  1.00  0.00     0.188 C 
BRANCH  20  21
ATOM     21  O   UNL     1       3.942  -2.213  -3.419  1.00  0.00    -0.376 OA
BRANCH  21  22
ATOM     22  C   UNL     1       3.691  -2.933  -4.617  1.00  0.00     0.202 C 
BRANCH  22  23
ATOM     23  C   UNL     1       2.903  -4.246  -4.484  1.00  0.00     0.261 C 
BRANCH  23  24
ATOM     24  O   UNL     1       3.393  -5.182  -3.514  1.00  0.00    -0.460 OA
BRANCH  24  25
ATOM     25  C   UNL     1       4.573  -5.799  -3.752  1.00  0.00     0.338 C 
ATOM     26  O   UNL     1       5.271  -5.678  -4.742  1.00  0.00    -0.246 OA
BRANCH  25  27
ATOM     27  C   UNL     1       4.979  -6.462  -2.485  1.00  0.00     0.060 A 
ATOM     28  C   UNL     1       4.050  -7.180  -1.725  1.00  0.00     0.016 A 
ATOM     29  C   UNL     1       6.283  -6.271  -2.003  1.00  0.00     0.016 A 
ATOM     30  C   UNL     1       4.434  -7.737  -0.503  1.00  0.00     0.010 A 
ATOM     31  C   UNL     1       6.665  -6.825  -0.775  1.00  0.00     0.010 A 
ATOM     32  C   UNL     1       5.753  -7.590  -0.034  1.00  0.00    -0.014 A 
BRANCH  32  33
ATOM     33  C   UNL     1       6.223  -8.463   1.071  1.00  0.00     0.031 A 
ATOM     34  C   UNL     1       6.369  -7.991   2.485  1.00  0.00     0.074 A 
ATOM     35  C   UNL     1       6.512  -9.738   0.746  1.00  0.00     0.049 A 
ATOM     36  N   UNL     1       6.639  -8.697   3.554  1.00  0.00    -0.248 NA
ATOM     37  C   UNL     1       6.209  -6.553   2.739  1.00  0.00     0.031 C 
ATOM     38  C   UNL     1       6.450 -10.284  -0.614  1.00  0.00     0.029 A 
ATOM     39  N   UNL     1       6.894 -10.805   1.515  1.00  0.00    -0.354 N 
ATOM     40  C   UNL     1       6.654  -7.801   4.615  1.00  0.00     0.074 A 
ATOM     41  C   UNL     1       6.416  -6.487   4.051  1.00  0.00     0.031 C 
ATOM     42  C   UNL     1       6.746 -11.590  -0.578  1.00  0.00     0.029 A 
ATOM     43  C   UNL     1       7.032 -11.971   0.800  1.00  0.00     0.049 A 
ATOM     44  H   UNL     1       7.054 -10.743   2.484  1.00  0.00     0.167 HD
ATOM     45  C   UNL     1       6.833  -8.063   5.933  1.00  0.00     0.037 A 
ATOM     46  C   UNL     1       7.337 -13.217   1.207  1.00  0.00     0.037 A 
ATOM     47  C   UNL     1       7.080  -9.380   6.471  1.00  0.00     0.049 A 
ATOM     48  C   UNL     1       7.543 -13.476   2.671  1.00  0.00     0.074 A 
ATOM     49  C   UNL     1       7.216  -9.755   7.798  1.00  0.00     0.029 A 
ATOM     50  N   UNL     1       7.240 -10.534   5.716  1.00  0.00    -0.354 N 
ATOM     51  N   UNL     1       7.451 -12.634   3.672  1.00  0.00    -0.248 NA
ATOM     52  C   UNL     1       7.883 -14.849   3.065  1.00  0.00     0.031 C 
ATOM     53  C   UNL     1       7.508 -11.121   7.842  1.00  0.00     0.029 A 
ATOM     54  C   UNL     1       7.505 -11.612   6.546  1.00  0.00     0.049 A 
ATOM     55  H   UNL     1       7.176 -10.580   4.735  1.00  0.00     0.167 HD
ATOM     56  C   UNL     1       7.703 -13.379   4.817  1.00  0.00     0.074 A 
ATOM     57  C   UNL     1       7.940 -14.742   4.386  1.00  0.00     0.031 C 
ATOM     58  C   UNL     1       7.736 -12.966   6.106  1.00  0.00     0.037 A 
BRANCH  45  59
ATOM     59  C   UNL     1       6.741  -6.923   6.912  1.00  0.00     0.058 A 
ATOM     60  C   UNL     1       5.505  -6.341   7.234  1.00  0.00     0.135 A 
ATOM     61  C   UNL     1       7.872  -6.491   7.626  1.00  0.00     0.135 A 
ATOM     62  F   UNL     1       4.393  -6.713   6.582  1.00  0.00    -0.206 F 
ATOM     63  C   UNL     1       5.393  -5.368   8.223  1.00  0.00     0.059 A 
ATOM     64  C   UNL     1       7.780  -5.534   8.635  1.00  0.00     0.059 A 
ATOM     65  F   UNL     1       9.078  -7.018   7.364  1.00  0.00    -0.206 F 
ATOM     66  C   UNL     1       6.535  -4.975   8.923  1.00  0.00     0.060 A 
BRANCH  66  67
ATOM     67  S   UNL     1       6.361  -3.735  10.224  1.00  0.00     0.124 S 
ATOM     68  O   UNL     1       6.053  -2.538   9.446  1.00  0.00    -0.237 OA
ATOM     69  O   UNL     1       5.263  -4.272  11.021  1.00  0.00    -0.237 OA
ATOM     70  O   UNL     1       7.666  -3.738  10.877  1.00  0.00    -0.744 OA
ENDBRANCH  66  67
ENDBRANCH  45  59
BRANCH  46  71
ATOM     71  C   UNL     1       7.409 -14.313   0.209  1.00  0.00     0.058 A 
ATOM     72  C   UNL     1       6.416 -15.301   0.154  1.00  0.00     0.135 A 
ATOM     73  C   UNL     1       8.441 -14.365  -0.742  1.00  0.00     0.135 A 
ATOM     74  F   UNL     1       5.408 -15.289   1.040  1.00  0.00    -0.206 F 
ATOM     75  C   UNL     1       6.449 -16.312  -0.799  1.00  0.00     0.059 A 
ATOM     76  C   UNL     1       8.482 -15.352  -1.721  1.00  0.00     0.059 A 
ATOM     77  F   UNL     1       9.400 -13.426  -0.746  1.00  0.00    -0.206 F 
ATOM     78  C   UNL     1       7.486 -16.327  -1.735  1.00  0.00     0.060 A 
BRANCH  78  79
ATOM     79  S   UNL     1       7.493 -17.620  -2.994  1.00  0.00     0.124 S 
ATOM     80  O   UNL     1       7.841 -18.796  -2.204  1.00  0.00    -0.237 OA
ATOM     81  O   UNL     1       6.122 -17.569  -3.493  1.00  0.00    -0.237 OA
ATOM     82  O   UNL     1       8.513 -17.168  -3.935  1.00  0.00    -0.744 OA
ENDBRANCH  78  79
ENDBRANCH  46  71
BRANCH  58  83
ATOM     83  C   UNL     1       8.034 -13.993   7.162  1.00  0.00     0.058 A 
ATOM     84  C   UNL     1       9.337 -14.473   7.364  1.00  0.00     0.135 A 
ATOM     85  C   UNL     1       7.032 -14.417   8.050  1.00  0.00     0.135 A 
ATOM     86  F   UNL     1      10.327 -14.109   6.534  1.00  0.00    -0.206 F 
ATOM     87  C   UNL     1       9.638 -15.331   8.416  1.00  0.00     0.059 A 
ATOM     88  C   UNL     1       7.315 -15.255   9.123  1.00  0.00     0.059 A 
ATOM     89  F   UNL     1       5.770 -13.984   7.900  1.00  0.00    -0.206 F 
ATOM     90  C   UNL     1       8.623 -15.704   9.300  1.00  0.00     0.060 A 
BRANCH  90  91
ATOM     91  S   UNL     1       9.053 -16.741  10.714  1.00  0.00     0.124 S 
ATOM     92  O   UNL     1       9.335 -18.020  10.069  1.00  0.00    -0.237 OA
ATOM     93  O   UNL     1      10.209 -16.043  11.269  1.00  0.00    -0.237 OA
ATOM     94  O   UNL     1       7.851 -16.707  11.540  1.00  0.00    -0.744 OA
ENDBRANCH  90  91
ENDBRANCH  58  83
ENDBRANCH  32  33
ENDBRANCH  25  27
ENDBRANCH  24  25
ENDBRANCH  23  24
ENDBRANCH  22  23
ENDBRANCH  21  22
ENDBRANCH  20  21
ENDBRANCH   1  20
TORSDOF 24
