REMARK SMILES O=C(OCCOCCOCCOCCOC(=O)c1cc(OCc2ccccc2C(F)(F)F)cs1)c1ccc(-c2c3nc(c(-c4c(F)cc(S(=O)(=O)[O-])cc4F)c4ccc([nH]4)c(-c4c(F)cc(S(=O)(=O)[O-])cc4F)c4nc(c(-c5c(F)cc(S(=O)(=O)[O-])cc5F)c5ccc2[nH]5)C=C4)C=C3)cc1
REMARK SMILES IDX 10 1 9 2 8 3 7 4 6 5 5 6 4 7 3 8 2 9 1 10 35 11 36 12 100 13
REMARK SMILES IDX 37 14 99 15 38 16 39 17 40 18 93 19 41 20 98 21 92 22 94 23
REMARK SMILES IDX 42 24 97 25 91 26 90 27 43 29 77 30 56 31 76 32 57 33 60 34
REMARK SMILES IDX 75 35 95 36 58 37 59 38 74 40 96 41 61 42 44 43 45 44 54 45
REMARK SMILES IDX 46 46 47 47 53 48 55 49 48 50 49 51 50 52 51 53 52 54 78 55
REMARK SMILES IDX 79 56 88 57 80 58 81 59 87 60 89 61 82 62 83 63 84 64 85 65
REMARK SMILES IDX 86 66 62 67 63 68 72 69 64 70 65 71 71 72 73 73 66 74 67 75
REMARK SMILES IDX 68 76 69 77 70 78 11 79 12 80 13 81 14 82 15 83 16 84 17 85
REMARK SMILES IDX 18 86 19 87 34 88 20 89 33 90 21 91 22 92 23 93 24 94 28 95
REMARK SMILES IDX 25 96 27 97 26 98 29 99 30 100 31 101 32 102
REMARK H PARENT 94 28 60 39
REMARK Flexibility Score: inf
ROOT
ATOM      1  C   UNL     1       3.885  -0.449  -4.000  1.00  0.00     0.188 C 
ENDROOT
BRANCH   1   2
ATOM      2  O   UNL     1       2.462  -0.398  -4.047  1.00  0.00    -0.377 OA
BRANCH   2   3
ATOM      3  C   UNL     1       1.790   0.040  -2.867  1.00  0.00     0.188 C 
BRANCH   3   4
ATOM      4  C   UNL     1       2.205  -0.663  -1.575  1.00  0.00     0.188 C 
BRANCH   4   5
ATOM      5  O   UNL     1       3.540  -0.310  -1.205  1.00  0.00    -0.376 OA
BRANCH   5   6
ATOM      6  C   UNL     1       4.317  -1.369  -0.647  1.00  0.00     0.202 C 
BRANCH   6   7
ATOM      7  C   UNL     1       4.128  -1.560   0.860  1.00  0.00     0.261 C 
BRANCH   7   8
ATOM      8  O   UNL     1       2.762  -1.374   1.257  1.00  0.00    -0.460 OA
BRANCH   8   9
ATOM      9  C   UNL     1       2.161  -0.228   1.667  1.00  0.00     0.338 C 
ATOM     10  O   UNL     1       0.967  -0.280   1.964  1.00  0.00    -0.246 OA
BRANCH   9  11
ATOM     11  C   UNL     1       2.857   1.094   1.805  1.00  0.00     0.060 A 
ATOM     12  C   UNL     1       4.032   1.475   1.151  1.00  0.00     0.016 A 
ATOM     13  C   UNL     1       2.248   2.041   2.649  1.00  0.00     0.016 A 
ATOM     14  C   UNL     1       4.654   2.687   1.417  1.00  0.00     0.010 A 
ATOM     15  C   UNL     1       2.847   3.280   2.900  1.00  0.00     0.010 A 
ATOM     16  C   UNL     1       4.087   3.574   2.326  1.00  0.00    -0.014 A 
BRANCH  16  17
ATOM     17  C   UNL     1       4.944   4.662   2.833  1.00  0.00     0.031 A 
ATOM     18  C   UNL     1       5.611   4.446   4.162  1.00  0.00     0.074 A 
ATOM     19  C   UNL     1       5.247   5.710   2.049  1.00  0.00     0.049 A 
ATOM     20  N   UNL     1       6.415   5.229   4.826  1.00  0.00    -0.248 NA
ATOM     21  C   UNL     1       5.348   3.155   4.825  1.00  0.00     0.031 C 
ATOM     22  C   UNL     1       4.755   5.912   0.684  1.00  0.00     0.029 A 
ATOM     23  N   UNL     1       6.073   6.779   2.268  1.00  0.00    -0.354 N 
ATOM     24  C   UNL     1       6.722   4.544   5.997  1.00  0.00     0.074 A 
ATOM     25  C   UNL     1       6.022   3.282   5.955  1.00  0.00     0.031 C 
ATOM     26  C   UNL     1       5.313   7.025   0.178  1.00  0.00     0.029 A 
ATOM     27  C   UNL     1       6.151   7.642   1.201  1.00  0.00     0.049 A 
ATOM     28  H   UNL     1       6.565   6.916   3.110  1.00  0.00     0.167 HD
ATOM     29  C   UNL     1       7.513   4.945   7.018  1.00  0.00     0.037 A 
ATOM     30  C   UNL     1       6.813   8.809   1.087  1.00  0.00     0.037 A 
ATOM     31  C   UNL     1       8.199   6.206   7.021  1.00  0.00     0.049 A 
ATOM     32  C   UNL     1       7.621   9.276   2.270  1.00  0.00     0.074 A 
ATOM     33  C   UNL     1       8.972   6.772   8.016  1.00  0.00     0.029 A 
ATOM     34  N   UNL     1       8.190   7.101   5.957  1.00  0.00    -0.354 N 
ATOM     35  N   UNL     1       7.835   8.665   3.414  1.00  0.00    -0.248 NA
ATOM     36  C   UNL     1       8.263  10.590   2.159  1.00  0.00     0.031 C 
ATOM     37  C   UNL     1       9.397   8.028   7.568  1.00  0.00     0.029 A 
ATOM     38  C   UNL     1       8.933   8.222   6.274  1.00  0.00     0.049 A 
ATOM     39  H   UNL     1       7.723   6.957   5.102  1.00  0.00     0.167 HD
ATOM     40  C   UNL     1       8.658   9.508   4.151  1.00  0.00     0.074 A 
ATOM     41  C   UNL     1       8.908  10.669   3.316  1.00  0.00     0.031 C 
ATOM     42  C   UNL     1       9.163   9.346   5.400  1.00  0.00     0.037 A 
BRANCH  29  43
ATOM     43  C   UNL     1       7.577   4.048   8.222  1.00  0.00     0.058 A 
ATOM     44  C   UNL     1       8.247   2.813   8.206  1.00  0.00     0.135 A 
ATOM     45  C   UNL     1       6.889   4.401   9.394  1.00  0.00     0.135 A 
ATOM     46  F   UNL     1       8.892   2.407   7.100  1.00  0.00    -0.206 F 
ATOM     47  C   UNL     1       8.194   1.942   9.292  1.00  0.00     0.059 A 
ATOM     48  C   UNL     1       6.844   3.558  10.500  1.00  0.00     0.059 A 
ATOM     49  F   UNL     1       6.221   5.563   9.460  1.00  0.00    -0.206 F 
ATOM     50  C   UNL     1       7.479   2.320  10.431  1.00  0.00     0.060 A 
BRANCH  50  51
ATOM     51  S   UNL     1       7.372   1.162  11.813  1.00  0.00     0.124 S 
ATOM     52  O   UNL     1       6.427   0.177  11.294  1.00  0.00    -0.237 OA
ATOM     53  O   UNL     1       8.751   0.705  11.948  1.00  0.00    -0.237 OA
ATOM     54  O   UNL     1       6.878   1.988  12.910  1.00  0.00    -0.744 OA
ENDBRANCH  50  51
ENDBRANCH  29  43
BRANCH  30  55
ATOM     55  C   UNL     1       6.715   9.614  -0.162  1.00  0.00     0.058 A 
ATOM     56  C   UNL     1       7.828   9.821  -0.990  1.00  0.00     0.135 A 
ATOM     57  C   UNL     1       5.495  10.187  -0.562  1.00  0.00     0.135 A 
ATOM     58  F   UNL     1       9.020   9.306  -0.652  1.00  0.00    -0.206 F 
ATOM     59  C   UNL     1       7.740  10.571  -2.162  1.00  0.00     0.059 A 
ATOM     60  C   UNL     1       5.376  10.917  -1.741  1.00  0.00     0.059 A 
ATOM     61  F   UNL     1       4.395  10.017   0.187  1.00  0.00    -0.206 F 
ATOM     62  C   UNL     1       6.507  11.113  -2.530  1.00  0.00     0.060 A 
BRANCH  62  63
ATOM     63  S   UNL     1       6.390  12.044  -4.074  1.00  0.00     0.124 S 
ATOM     64  O   UNL     1       7.078  13.282  -3.724  1.00  0.00    -0.237 OA
ATOM     65  O   UNL     1       7.085  11.171  -5.014  1.00  0.00    -0.237 OA
ATOM     66  O   UNL     1       4.950  12.161  -4.287  1.00  0.00    -0.744 OA
ENDBRANCH  62  63
ENDBRANCH  30  55
BRANCH  42  67
ATOM     67  C   UNL     1      10.073  10.425   5.909  1.00  0.00     0.058 A 
ATOM     68  C   UNL     1       9.580  11.666   6.335  1.00  0.00     0.135 A 
ATOM     69  C   UNL     1      11.451  10.182   6.028  1.00  0.00     0.135 A 
ATOM     70  F   UNL     1       8.270  11.944   6.237  1.00  0.00    -0.206 F 
ATOM     71  C   UNL     1      10.428  12.644   6.841  1.00  0.00     0.059 A 
ATOM     72  C   UNL     1      12.312  11.134   6.557  1.00  0.00     0.059 A 
ATOM     73  F   UNL     1      11.965   9.002   5.647  1.00  0.00    -0.206 F 
ATOM     74  C   UNL     1      11.793  12.367   6.949  1.00  0.00     0.060 A 
BRANCH  74  75
ATOM     75  S   UNL     1      12.881  13.630   7.640  1.00  0.00     0.124 S 
ATOM     76  O   UNL     1      13.000  14.557   6.520  1.00  0.00    -0.237 OA
ATOM     77  O   UNL     1      12.114  14.112   8.785  1.00  0.00    -0.237 OA
ATOM     78  O   UNL     1      14.092  12.886   7.973  1.00  0.00    -0.744 OA
ENDBRANCH  74  75
ENDBRANCH  42  67
ENDBRANCH  16  17
ENDBRANCH   9  11
ENDBRANCH   8   9
ENDBRANCH   7   8
ENDBRANCH   6   7
ENDBRANCH   5   6
ENDBRANCH   4   5
ENDBRANCH   3   4
ENDBRANCH   2   3
ENDBRANCH   1   2
BRANCH   1  79
ATOM     79  C   UNL     1       4.659   0.837  -3.637  1.00  0.00     0.188 C 
BRANCH  79  80
ATOM     80  O   UNL     1       3.834   1.977  -3.454  1.00  0.00    -0.376 OA
BRANCH  80  81
ATOM     81  C   UNL     1       3.894   2.966  -4.474  1.00  0.00     0.202 C 
BRANCH  81  82
ATOM     82  C   UNL     1       3.226   2.570  -5.796  1.00  0.00     0.261 C 
BRANCH  82  83
ATOM     83  O   UNL     1       3.779   1.427  -6.472  1.00  0.00    -0.459 OA
BRANCH  83  84
ATOM     84  C   UNL     1       5.092   1.419  -6.832  1.00  0.00     0.348 C 
ATOM     85  O   UNL     1       5.859   2.364  -6.720  1.00  0.00    -0.245 OA
BRANCH  84  86
ATOM     86  C   UNL     1       5.417   0.067  -7.239  1.00  0.00     0.116 A 
ATOM     87  C   UNL     1       4.633  -0.789  -7.987  1.00  0.00     0.074 A 
ATOM     88  S   UNL     1       6.819  -0.724  -6.668  1.00  0.00    -0.133 S 
ATOM     89  C   UNL     1       5.085  -2.135  -7.955  1.00  0.00     0.131 A 
ATOM     90  C   UNL     1       6.250  -2.247  -7.228  1.00  0.00     0.112 A 
BRANCH  89  91
ATOM     91  O   UNL     1       4.509  -3.250  -8.481  1.00  0.00    -0.488 OA
BRANCH  91  92
ATOM     92  C   UNL     1       3.439  -3.031  -9.409  1.00  0.00     0.266 C 
BRANCH  92  93
ATOM     93  C   UNL     1       2.089  -2.990  -8.715  1.00  0.00     0.001 A 
ATOM     94  C   UNL     1       1.415  -1.754  -8.641  1.00  0.00     0.008 A 
ATOM     95  C   UNL     1       1.500  -4.115  -8.096  1.00  0.00     0.062 A 
ATOM     96  C   UNL     1       0.255  -1.596  -7.886  1.00  0.00     0.000 A 
ATOM     97  C   UNL     1       0.314  -3.936  -7.348  1.00  0.00     0.013 A 
ATOM     98  C   UNL     1      -0.288  -2.686  -7.223  1.00  0.00     0.001 A 
BRANCH  95  99
ATOM     99  C   UNL     1       2.021  -5.532  -8.212  1.00  0.00     0.416 C 
ATOM    100  F   UNL     1       2.238  -6.115  -7.000  1.00  0.00    -0.166 F 
ATOM    101  F   UNL     1       1.116  -6.339  -8.844  1.00  0.00    -0.166 F 
ATOM    102  F   UNL     1       3.175  -5.687  -8.912  1.00  0.00    -0.166 F 
ENDBRANCH  95  99
ENDBRANCH  92  93
ENDBRANCH  91  92
ENDBRANCH  89  91
ENDBRANCH  84  86
ENDBRANCH  83  84
ENDBRANCH  82  83
ENDBRANCH  81  82
ENDBRANCH  80  81
ENDBRANCH  79  80
ENDBRANCH   1  79
TORSDOF 27
