REMARK SMILES COc1ccc(/C=C/c2ncc([N+](=O)[O-])cc2C(=O)OCCOCCOCCOCCOC(=O)c2ccc(-c3c4nc(c(-c5c(F)cc(S(=O)(=O)[O-])cc5F)c5ccc([nH]5)c(-c5c(F)cc(S(=O)(=O)[O-])cc5F)c5nc(c(-c6c(F)cc(S(=O)(=O)[O-])cc6F)c6ccc3[nH]6)C=C5)C=C4)cc2)cc1
REMARK SMILES IDX 26 1 25 2 24 3 23 4 22 5 21 6 20 7 18 8 19 9 17 10 9 11
REMARK SMILES IDX 10 12 11 13 16 14 12 15 8 16 7 17 6 18 3 19 4 20 102 21 5 22
REMARK SMILES IDX 101 23 2 24 1 25 13 26 14 27 15 28 27 29 28 30 29 31 30 32
REMARK SMILES IDX 31 33 32 34 33 35 34 36 35 37 36 38 100 39 37 40 99 41 38 42
REMARK SMILES IDX 39 43 40 44 93 45 41 46 98 47 92 48 94 49 42 50 97 51 91 52
REMARK SMILES IDX 90 53 43 55 77 56 56 57 76 58 57 59 60 60 75 61 95 62 58 63
REMARK SMILES IDX 59 64 74 66 96 67 61 68 44 69 45 70 54 71 46 72 47 73 53 74
REMARK SMILES IDX 55 75 48 76 49 77 50 78 51 79 52 80 78 81 79 82 88 83 80 84
REMARK SMILES IDX 81 85 87 86 89 87 82 88 83 89 84 90 85 91 86 92 62 93 63 94
REMARK SMILES IDX 72 95 64 96 65 97 71 98 73 99 66 100 67 101 68 102 69 103
REMARK SMILES IDX 70 104
REMARK H PARENT 94 54 60 65
REMARK Flexibility Score: inf
ROOT
ATOM      1  O   UNL     1       5.660  -3.885  -7.763  1.00  0.00    -0.377 OA
ENDROOT
BRANCH   1   2
ATOM      2  C   UNL     1       4.378  -3.731  -7.177  1.00  0.00     0.188 C 
BRANCH   2   3
ATOM      3  C   UNL     1       4.141  -4.130  -5.709  1.00  0.00     0.188 C 
BRANCH   3   4
ATOM      4  O   UNL     1       5.097  -5.037  -5.177  1.00  0.00    -0.376 OA
BRANCH   4   5
ATOM      5  C   UNL     1       4.586  -6.303  -4.787  1.00  0.00     0.202 C 
BRANCH   5   6
ATOM      6  C   UNL     1       4.413  -7.247  -5.977  1.00  0.00     0.261 C 
BRANCH   6   7
ATOM      7  O   UNL     1       3.521  -6.743  -6.987  1.00  0.00    -0.460 OA
BRANCH   7   8
ATOM      8  C   UNL     1       2.201  -6.679  -6.684  1.00  0.00     0.340 C 
ATOM      9  O   UNL     1       1.666  -7.050  -5.667  1.00  0.00    -0.246 OA
BRANCH   8  10
ATOM     10  C   UNL     1       1.542  -5.937  -7.785  1.00  0.00     0.092 A 
ATOM     11  C   UNL     1       0.693  -4.851  -7.528  1.00  0.00     0.078 A 
ATOM     12  N   UNL     1       0.148  -4.106  -8.531  1.00  0.00    -0.249 NA
ATOM     13  C   UNL     1       0.456  -4.439  -9.811  1.00  0.00     0.197 A 
ATOM     14  C   UNL     1       1.867  -6.247  -9.115  1.00  0.00     0.105 A 
ATOM     15  C   UNL     1       1.312  -5.479 -10.137  1.00  0.00     0.288 A 
BRANCH  11  16
ATOM     16  C   UNL     1       0.418  -4.344  -6.174  1.00  0.00     0.030 C 
ATOM     17  C   UNL     1       0.761  -3.101  -5.789  1.00  0.00     0.010 C 
BRANCH  17  18
ATOM     18  C   UNL     1       0.641  -2.626  -4.403  1.00  0.00    -0.025 A 
ATOM     19  C   UNL     1       0.474  -1.693  -1.749  1.00  0.00     0.118 A 
ATOM     20  C   UNL     1      -0.606  -2.349  -2.339  1.00  0.00     0.047 A 
ATOM     21  C   UNL     1       1.649  -1.518  -2.477  1.00  0.00     0.047 A 
ATOM     22  C   UNL     1      -0.529  -2.805  -3.659  1.00  0.00     0.012 A 
ATOM     23  C   UNL     1       1.721  -1.964  -3.803  1.00  0.00     0.012 A 
BRANCH  19  24
ATOM     24  O   UNL     1       0.294  -1.294  -0.453  1.00  0.00    -0.497 OA
ATOM     25  C   UNL     1       0.960  -0.083  -0.106  1.00  0.00     0.278 C 
ENDBRANCH  19  24
ENDBRANCH  17  18
ENDBRANCH  11  16
BRANCH  15  26
ATOM     26  N   UNL     1       1.634  -5.737 -11.532  1.00  0.00     0.064 N 
ATOM     27  O   UNL     1       0.906  -5.221 -12.391  1.00  0.00    -0.258 OA
ATOM     28  O   UNL     1       2.611  -6.458 -11.771  1.00  0.00    -0.258 OA
ENDBRANCH  15  26
ENDBRANCH   8  10
ENDBRANCH   7   8
ENDBRANCH   6   7
ENDBRANCH   5   6
ENDBRANCH   4   5
ENDBRANCH   3   4
ENDBRANCH   2   3
ENDBRANCH   1   2
BRANCH   1  29
ATOM     29  C   UNL     1       6.811  -3.827  -6.933  1.00  0.00     0.188 C 
BRANCH  29  30
ATOM     30  C   UNL     1       6.871  -2.741  -5.840  1.00  0.00     0.188 C 
BRANCH  30  31
ATOM     31  O   UNL     1       5.849  -1.751  -5.940  1.00  0.00    -0.376 OA
BRANCH  31  32
ATOM     32  C   UNL     1       6.258  -0.474  -6.407  1.00  0.00     0.202 C 
BRANCH  32  33
ATOM     33  C   UNL     1       6.562  -0.414  -7.908  1.00  0.00     0.261 C 
BRANCH  33  34
ATOM     34  O   UNL     1       7.663  -1.228  -8.342  1.00  0.00    -0.460 OA
BRANCH  34  35
ATOM     35  C   UNL     1       8.874  -0.999  -7.787  1.00  0.00     0.338 C 
ATOM     36  O   UNL     1       9.167  -0.133  -6.984  1.00  0.00    -0.246 OA
BRANCH  35  37
ATOM     37  C   UNL     1       9.743  -2.131  -8.168  1.00  0.00     0.060 A 
ATOM     38  C   UNL     1      10.333  -2.905  -7.160  1.00  0.00     0.016 A 
ATOM     39  C   UNL     1       9.910  -2.465  -9.514  1.00  0.00     0.016 A 
ATOM     40  C   UNL     1      11.106  -4.015  -7.502  1.00  0.00     0.010 A 
ATOM     41  C   UNL     1      10.706  -3.558  -9.854  1.00  0.00     0.010 A 
ATOM     42  C   UNL     1      11.326  -4.322  -8.851  1.00  0.00    -0.014 A 
BRANCH  42  43
ATOM     43  C   UNL     1      12.369  -5.304  -9.227  1.00  0.00     0.031 A 
ATOM     44  C   UNL     1      13.749  -4.782  -9.515  1.00  0.00     0.074 A 
ATOM     45  C   UNL     1      12.099  -6.617  -9.321  1.00  0.00     0.049 A 
ATOM     46  N   UNL     1      14.811  -5.424  -9.920  1.00  0.00    -0.248 NA
ATOM     47  C   UNL     1      13.954  -3.336  -9.321  1.00  0.00     0.031 C 
ATOM     48  C   UNL     1      10.808  -7.241  -9.037  1.00  0.00     0.029 A 
ATOM     49  N   UNL     1      12.903  -7.663  -9.699  1.00  0.00    -0.354 N 
ATOM     50  C   UNL     1      15.809  -4.464 -10.031  1.00  0.00     0.074 A 
ATOM     51  C   UNL     1      15.220  -3.191  -9.679  1.00  0.00     0.031 C 
ATOM     52  C   UNL     1      10.904  -8.563  -9.268  1.00  0.00     0.029 A 
ATOM     53  C   UNL     1      12.252  -8.873  -9.743  1.00  0.00     0.049 A 
ATOM     54  H   UNL     1      13.857  -7.557  -9.918  1.00  0.00     0.167 HD
ATOM     55  C   UNL     1      17.104  -4.630 -10.386  1.00  0.00     0.037 A 
ATOM     56  C   UNL     1      12.691 -10.082 -10.146  1.00  0.00     0.037 A 
ATOM     57  C   UNL     1      17.680  -5.896 -10.751  1.00  0.00     0.049 A 
ATOM     58  C   UNL     1      14.118 -10.229 -10.614  1.00  0.00     0.074 A 
ATOM     59  C   UNL     1      18.985  -6.173 -11.117  1.00  0.00     0.029 A 
ATOM     60  N   UNL     1      16.983  -7.093 -10.811  1.00  0.00    -0.354 N 
ATOM     61  N   UNL     1      15.063  -9.321 -10.684  1.00  0.00    -0.248 NA
ATOM     62  C   UNL     1      14.539 -11.566 -11.061  1.00  0.00     0.031 C 
ATOM     63  C   UNL     1      19.065  -7.531 -11.445  1.00  0.00     0.029 A 
ATOM     64  C   UNL     1      17.823  -8.109 -11.234  1.00  0.00     0.049 A 
ATOM     65  H   UNL     1      16.030  -7.204 -10.586  1.00  0.00     0.167 HD
ATOM     66  C   UNL     1      16.194  -9.980 -11.157  1.00  0.00     0.074 A 
ATOM     67  C   UNL     1      15.819 -11.366 -11.346  1.00  0.00     0.031 C 
ATOM     68  C   UNL     1      17.431  -9.486 -11.412  1.00  0.00     0.037 A 
BRANCH  55  69
ATOM     69  C   UNL     1      17.972  -3.404 -10.423  1.00  0.00     0.058 A 
ATOM     70  C   UNL     1      18.383  -2.757  -9.246  1.00  0.00     0.135 A 
ATOM     71  C   UNL     1      18.410  -2.879 -11.648  1.00  0.00     0.135 A 
ATOM     72  F   UNL     1      17.972  -3.204  -8.049  1.00  0.00    -0.206 F 
ATOM     73  C   UNL     1      19.180  -1.618  -9.285  1.00  0.00     0.059 A 
ATOM     74  C   UNL     1      19.229  -1.756 -11.709  1.00  0.00     0.059 A 
ATOM     75  F   UNL     1      18.038  -3.454 -12.802  1.00  0.00    -0.206 F 
ATOM     76  C   UNL     1      19.598  -1.125 -10.522  1.00  0.00     0.060 A 
BRANCH  76  77
ATOM     77  S   UNL     1      20.635   0.352 -10.555  1.00  0.00     0.124 S 
ATOM     78  O   UNL     1      19.673   1.391 -10.198  1.00  0.00    -0.237 OA
ATOM     79  O   UNL     1      21.642   0.048  -9.543  1.00  0.00    -0.237 OA
ATOM     80  O   UNL     1      21.123   0.395 -11.929  1.00  0.00    -0.744 OA
ENDBRANCH  76  77
ENDBRANCH  55  69
BRANCH  56  81
ATOM     81  C   UNL     1      11.772 -11.252 -10.139  1.00  0.00     0.058 A 
ATOM     82  C   UNL     1      11.955 -12.314  -9.240  1.00  0.00     0.135 A 
ATOM     83  C   UNL     1      10.696 -11.338 -11.037  1.00  0.00     0.135 A 
ATOM     84  F   UNL     1      12.978 -12.288  -8.372  1.00  0.00    -0.206 F 
ATOM     85  C   UNL     1      11.114 -13.422  -9.238  1.00  0.00     0.059 A 
ATOM     86  C   UNL     1       9.826 -12.424 -11.038  1.00  0.00     0.059 A 
ATOM     87  F   UNL     1      10.473 -10.347 -11.915  1.00  0.00    -0.206 F 
ATOM     88  C   UNL     1      10.049 -13.466 -10.139  1.00  0.00     0.060 A 
BRANCH  88  89
ATOM     89  S   UNL     1       8.931 -14.884 -10.091  1.00  0.00     0.124 S 
ATOM     90  O   UNL     1       9.758 -15.931 -10.680  1.00  0.00    -0.237 OA
ATOM     91  O   UNL     1       8.660 -15.012  -8.662  1.00  0.00    -0.237 OA
ATOM     92  O   UNL     1       7.797 -14.445 -10.898  1.00  0.00    -0.744 OA
ENDBRANCH  88  89
ENDBRANCH  56  81
BRANCH  68  93
ATOM     93  C   UNL     1      18.482 -10.449 -11.893  1.00  0.00     0.058 A 
ATOM     94  C   UNL     1      18.465 -10.968 -13.197  1.00  0.00     0.135 A 
ATOM     95  C   UNL     1      19.555 -10.804 -11.059  1.00  0.00     0.135 A 
ATOM     96  F   UNL     1      17.460 -10.664 -14.033  1.00  0.00    -0.206 F 
ATOM     97  C   UNL     1      19.465 -11.824 -13.650  1.00  0.00     0.059 A 
ATOM     98  C   UNL     1      20.580 -11.636 -11.501  1.00  0.00     0.059 A 
ATOM     99  F   UNL     1      19.627 -10.325  -9.807  1.00  0.00    -0.206 F 
ATOM    100  C   UNL     1      20.520 -12.149 -12.796  1.00  0.00     0.060 A 
BRANCH 100 101
ATOM    101  S   UNL     1      21.830 -13.229 -13.410  1.00  0.00     0.124 S 
ATOM    102  O   UNL     1      21.163 -14.527 -13.414  1.00  0.00    -0.237 OA
ATOM    103  O   UNL     1      22.116 -12.659 -14.723  1.00  0.00    -0.237 OA
ATOM    104  O   UNL     1      22.892 -13.072 -12.420  1.00  0.00    -0.744 OA
ENDBRANCH 100 101
ENDBRANCH  68  93
ENDBRANCH  42  43
ENDBRANCH  35  37
ENDBRANCH  34  35
ENDBRANCH  33  34
ENDBRANCH  32  33
ENDBRANCH  31  32
ENDBRANCH  30  31
ENDBRANCH  29  30
ENDBRANCH   1  29
TORSDOF 27
