REMARK SMILES CCC(=O)N1CCC[C@](C[C@H]2CC(c3ccc(C)cc3)=NO2)(C(=O)OCCOCCOCCOCCOC(=O)c2ccc(-c3c4nc(c(-c5c(F)cc(S(=O)(=O)[O-])cc5F)c5ccc([nH]5)c(-c5c(F)cc(S(=O)(=O)[O-])cc5F)c5nc(c(-c6c(F)cc(S(=O)(=O)[O-])cc6F)c6ccc3[nH]6)C=C5)C=C4)cc2)C1
REMARK SMILES IDX 31 1 30 2 29 3 28 4 27 5 26 6 25 7 23 8 24 9 9 10 5 11 6 12
REMARK SMILES IDX 106 13 7 14 8 15 3 16 4 17 2 18 1 19 10 20 11 21 12 22 22 23
REMARK SMILES IDX 13 24 21 25 14 26 15 27 20 28 16 29 19 30 17 31 18 32 32 33
REMARK SMILES IDX 33 34 34 35 35 36 36 37 37 38 38 39 39 40 40 41 41 42 105 43
REMARK SMILES IDX 42 44 104 45 43 46 44 47 45 48 98 49 46 50 103 51 97 52
REMARK SMILES IDX 99 53 47 54 102 55 96 56 95 57 48 59 82 60 61 61 81 62 62 63
REMARK SMILES IDX 65 64 80 65 100 66 63 67 64 68 79 70 101 71 66 72 49 73
REMARK SMILES IDX 50 74 59 75 51 76 52 77 58 78 60 79 53 80 54 81 55 82 56 83
REMARK SMILES IDX 57 84 83 85 84 86 93 87 85 88 86 89 92 90 94 91 87 92 88 93
REMARK SMILES IDX 89 94 90 95 91 96 67 97 68 98 77 99 69 100 70 101 76 102
REMARK SMILES IDX 78 103 71 104 72 105 73 106 74 107 75 108
REMARK H PARENT 99 58 65 69
REMARK Flexibility Score: inf
ROOT
ATOM      1  O   UNL     1       5.001   4.056   1.216  1.00  0.00    -0.377 OA
ENDROOT
BRANCH   1   2
ATOM      2  C   UNL     1       4.004   4.130   0.173  1.00  0.00     0.188 C 
BRANCH   2   3
ATOM      3  C   UNL     1       2.490   4.869   0.071  1.00  0.00     0.188 C 
BRANCH   3   4
ATOM      4  O   UNL     1       0.954   4.824   0.909  1.00  0.00    -0.376 OA
BRANCH   4   5
ATOM      5  C   UNL     1       0.398   4.527   2.561  1.00  0.00     0.202 C 
BRANCH   5   6
ATOM      6  C   UNL     1       0.905   3.178   3.821  1.00  0.00     0.261 C 
BRANCH   6   7
ATOM      7  O   UNL     1       1.929   1.704   3.555  1.00  0.00    -0.463 OA
BRANCH   7   8
ATOM      8  C   UNL     1       2.160   0.597   2.660  1.00  0.00     0.314 C 
ATOM      9  O   UNL     1       1.399   0.231   1.762  1.00  0.00    -0.252 OA
BRANCH   8  10
ATOM     10  C   UNL     1       3.567  -0.200   2.492  1.00  0.00     0.089 C 
ATOM     11  N   UNL     1       2.301  -2.400   2.257  1.00  0.00    -0.342 N 
ATOM     12  C   UNL     1       2.635  -2.823   3.613  1.00  0.00     0.119 C 
ATOM     13  C   UNL     1       3.256  -1.507   1.645  1.00  0.00     0.138 C 
ATOM     14  C   UNL     1       3.204  -1.713   4.504  1.00  0.00     0.023 C 
ATOM     15  C   UNL     1       4.168  -0.785   3.779  1.00  0.00     0.022 C 
BRANCH  11  16
ATOM     16  C   UNL     1       1.260  -3.026   1.585  1.00  0.00     0.222 C 
ATOM     17  O   UNL     1       0.634  -3.933   2.154  1.00  0.00    -0.275 OA
BRANCH  16  18
ATOM     18  C   UNL     1       0.937  -2.779   0.096  1.00  0.00     0.097 C 
ATOM     19  C   UNL     1       0.764  -1.407  -0.533  1.00  0.00     0.014 C 
ENDBRANCH  16  18
ENDBRANCH  11  16
BRANCH  10  20
ATOM     20  C   UNL     1       4.534   0.568   1.470  1.00  0.00     0.069 C 
BRANCH  20  21
ATOM     21  C   UNL     1       6.008   0.174   1.202  1.00  0.00     0.212 C 
ATOM     22  C   UNL     1       6.976  -0.058   2.346  1.00  0.00     0.108 C 
ATOM     23  O   UNL     1       6.082  -0.988   0.363  1.00  0.00    -0.392 OA
ATOM     24  C   UNL     1       7.257  -1.505   2.131  1.00  0.00     0.091 C 
ATOM     25  N   UNL     1       6.818  -1.995   1.019  1.00  0.00    -0.090 NA
BRANCH  24  26
ATOM     26  C   UNL     1       8.025  -2.319   3.094  1.00  0.00    -0.001 A 
ATOM     27  C   UNL     1       7.778  -2.236   4.465  1.00  0.00     0.010 A 
ATOM     28  C   UNL     1       8.941  -3.255   2.604  1.00  0.00     0.010 A 
ATOM     29  C   UNL     1       8.428  -3.111   5.342  1.00  0.00     0.004 A 
ATOM     30  C   UNL     1       9.606  -4.111   3.485  1.00  0.00     0.004 A 
ATOM     31  C   UNL     1       9.338  -4.060   4.858  1.00  0.00    -0.051 A 
ATOM     32  C   UNL     1      10.019  -5.019   5.790  1.00  0.00     0.044 C 
ENDBRANCH  24  26
ENDBRANCH  20  21
ENDBRANCH  10  20
ENDBRANCH   8  10
ENDBRANCH   7   8
ENDBRANCH   6   7
ENDBRANCH   5   6
ENDBRANCH   4   5
ENDBRANCH   3   4
ENDBRANCH   2   3
ENDBRANCH   1   2
BRANCH   1  33
ATOM     33  C   UNL     1       5.714   5.160   1.784  1.00  0.00     0.188 C 
BRANCH  33  34
ATOM     34  C   UNL     1       6.243   6.193   0.822  1.00  0.00     0.188 C 
BRANCH  34  35
ATOM     35  O   UNL     1       5.109   6.669   0.121  1.00  0.00    -0.376 OA
BRANCH  35  36
ATOM     36  C   UNL     1       5.382   7.446  -1.023  1.00  0.00     0.202 C 
BRANCH  36  37
ATOM     37  C   UNL     1       5.693   8.897  -0.662  1.00  0.00     0.261 C 
BRANCH  37  38
ATOM     38  O   UNL     1       4.587   9.450   0.083  1.00  0.00    -0.460 OA
BRANCH  38  39
ATOM     39  C   UNL     1       4.734   9.379   1.442  1.00  0.00     0.338 C 
ATOM     40  O   UNL     1       5.779   9.631   2.027  1.00  0.00    -0.246 OA
BRANCH  39  41
ATOM     41  C   UNL     1       3.601   8.594   2.010  1.00  0.00     0.060 A 
ATOM     42  C   UNL     1       3.661   7.995   3.252  1.00  0.00     0.016 A 
ATOM     43  C   UNL     1       2.582   8.161   1.215  1.00  0.00     0.016 A 
ATOM     44  C   UNL     1       3.057   6.728   3.473  1.00  0.00     0.010 A 
ATOM     45  C   UNL     1       2.033   6.898   1.493  1.00  0.00     0.010 A 
ATOM     46  C   UNL     1       2.558   5.933   2.436  1.00  0.00    -0.014 A 
BRANCH  46  47
ATOM     47  C   UNL     1       2.668   4.078   2.393  1.00  0.00     0.031 A 
ATOM     48  C   UNL     1       1.481   2.852   1.394  1.00  0.00     0.074 A 
ATOM     49  C   UNL     1       3.564   3.740   3.438  1.00  0.00     0.049 A 
ATOM     50  N   UNL     1       0.385   2.289   2.002  1.00  0.00    -0.248 NA
ATOM     51  C   UNL     1       0.914   2.678  -0.086  1.00  0.00     0.031 C 
ATOM     52  C   UNL     1       4.164   2.510   3.936  1.00  0.00     0.029 A 
ATOM     53  N   UNL     1       3.833   4.511   4.591  1.00  0.00    -0.354 N 
ATOM     54  C   UNL     1      -0.670   1.795   1.293  1.00  0.00     0.074 A 
ATOM     55  C   UNL     1      -0.356   2.210  -0.021  1.00  0.00     0.031 C 
ATOM     56  C   UNL     1       4.136   2.423   5.271  1.00  0.00     0.029 A 
ATOM     57  C   UNL     1       3.770   3.711   5.729  1.00  0.00     0.049 A 
ATOM     58  H   UNL     1       4.035   5.475   4.590  1.00  0.00     0.167 HD
ATOM     59  C   UNL     1      -1.692   1.049   1.835  1.00  0.00     0.037 A 
ATOM     60  C   UNL     1       3.294   4.018   6.948  1.00  0.00     0.037 A 
ATOM     61  C   UNL     1      -1.376   0.468   3.149  1.00  0.00     0.049 A 
ATOM     62  C   UNL     1       2.220   3.006   7.347  1.00  0.00     0.074 A 
ATOM     63  C   UNL     1      -0.720  -0.720   3.405  1.00  0.00     0.029 A 
ATOM     64  N   UNL     1      -1.472   1.104   4.397  1.00  0.00    -0.354 N 
ATOM     65  N   UNL     1       1.331   2.461   6.538  1.00  0.00    -0.248 NA
ATOM     66  C   UNL     1       2.187   2.411   8.679  1.00  0.00     0.031 C 
ATOM     67  C   UNL     1      -0.170  -0.660   4.693  1.00  0.00     0.029 A 
ATOM     68  C   UNL     1      -0.614   0.488   5.327  1.00  0.00     0.049 A 
ATOM     69  H   UNL     1      -2.056   1.871   4.593  1.00  0.00     0.167 HD
ATOM     70  C   UNL     1       0.570   1.530   7.230  1.00  0.00     0.074 A 
ATOM     71  C   UNL     1       1.197   1.512   8.550  1.00  0.00     0.031 C 
ATOM     72  C   UNL     1      -0.499   0.790   6.760  1.00  0.00     0.037 A 
BRANCH  59  73
ATOM     73  C   UNL     1      -2.710   0.481   0.855  1.00  0.00     0.058 A 
ATOM     74  C   UNL     1      -2.788  -0.892   0.546  1.00  0.00     0.135 A 
ATOM     75  C   UNL     1      -3.502   1.327   0.050  1.00  0.00     0.135 A 
ATOM     76  F   UNL     1      -2.154  -1.812   1.281  1.00  0.00    -0.206 F 
ATOM     77  C   UNL     1      -3.462  -1.374  -0.581  1.00  0.00     0.059 A 
ATOM     78  C   UNL     1      -4.180   0.868  -1.090  1.00  0.00     0.059 A 
ATOM     79  F   UNL     1      -3.558   2.643   0.312  1.00  0.00    -0.206 F 
ATOM     80  C   UNL     1      -4.109  -0.481  -1.426  1.00  0.00     0.060 A 
BRANCH  80  81
ATOM     81  S   UNL     1      -4.740  -1.094  -3.008  1.00  0.00     0.124 S 
ATOM     82  O   UNL     1      -3.541  -1.667  -3.615  1.00  0.00    -0.237 OA
ATOM     83  O   UNL     1      -5.758  -2.053  -2.592  1.00  0.00    -0.237 OA
ATOM     84  O   UNL     1      -5.245   0.109  -3.665  1.00  0.00    -0.744 OA
ENDBRANCH  80  81
ENDBRANCH  59  73
BRANCH  60  85
ATOM     85  C   UNL     1       3.587   5.438   7.299  1.00  0.00     0.058 A 
ATOM     86  C   UNL     1       4.962   5.816   7.242  1.00  0.00     0.135 A 
ATOM     87  C   UNL     1       2.665   6.485   7.336  1.00  0.00     0.135 A 
ATOM     88  F   UNL     1       5.914   4.865   7.206  1.00  0.00    -0.206 F 
ATOM     89  C   UNL     1       5.388   7.132   7.085  1.00  0.00     0.059 A 
ATOM     90  C   UNL     1       3.077   7.830   7.216  1.00  0.00     0.059 A 
ATOM     91  F   UNL     1       1.353   6.221   7.390  1.00  0.00    -0.206 F 
ATOM     92  C   UNL     1       4.435   8.139   7.051  1.00  0.00     0.060 A 
BRANCH  92  93
ATOM     93  S   UNL     1       5.009   9.849   6.819  1.00  0.00     0.124 S 
ATOM     94  O   UNL     1       6.205   9.891   7.654  1.00  0.00    -0.237 OA
ATOM     95  O   UNL     1       5.256   9.900   5.385  1.00  0.00    -0.237 OA
ATOM     96  O   UNL     1       3.881  10.642   7.293  1.00  0.00    -0.744 OA
ENDBRANCH  92  93
ENDBRANCH  60  85
BRANCH  72  97
ATOM     97  C   UNL     1      -1.454   0.018   7.681  1.00  0.00     0.058 A 
ATOM     98  C   UNL     1      -1.813   0.478   8.960  1.00  0.00     0.135 A 
ATOM     99  C   UNL     1      -2.184  -1.119   7.235  1.00  0.00     0.135 A 
ATOM    100  F   UNL     1      -1.270   1.590   9.476  1.00  0.00    -0.206 F 
ATOM    101  C   UNL     1      -2.782  -0.154   9.744  1.00  0.00     0.059 A 
ATOM    102  C   UNL     1      -3.187  -1.730   7.977  1.00  0.00     0.059 A 
ATOM    103  F   UNL     1      -1.982  -1.690   6.043  1.00  0.00    -0.206 F 
ATOM    104  C   UNL     1      -3.477  -1.247   9.237  1.00  0.00     0.060 A 
BRANCH 104 105
ATOM    105  S   UNL     1      -4.837  -1.970  10.166  1.00  0.00     0.124 S 
ATOM    106  O   UNL     1      -4.147  -2.997  10.940  1.00  0.00    -0.237 OA
ATOM    107  O   UNL     1      -5.341  -0.834  10.931  1.00  0.00    -0.237 OA
ATOM    108  O   UNL     1      -5.732  -2.458   9.121  1.00  0.00    -0.744 OA
ENDBRANCH 104 105
ENDBRANCH  72  97
ENDBRANCH  46  47
ENDBRANCH  39  41
ENDBRANCH  38  39
ENDBRANCH  37  38
ENDBRANCH  36  37
ENDBRANCH  35  36
ENDBRANCH  34  35
ENDBRANCH  33  34
ENDBRANCH   1  33
TORSDOF 28
