REMARK SMILES Cc1ccc([C@@]23C[C@@H]4C[C@@H](C[C@@](C(=O)N5CCC(C(=O)OCCOCCOCCOCCOC(=O)c6ccc(-c7c8nc(c(-c9c(F)cc(S(=O)(=O)[O-])cc9F)c9ccc([nH]9)c(-c9c(F)cc(S(=O)(=O)[O-])cc9F)c9nc(c(-c%10c(F)cc(S(=O)(=O)[O-])cc%10F)c%10ccc7[nH]%10)C=C9)C=C8)cc6)CC5)(C4)C2)C3)cc1
REMARK SMILES IDX 28 1 27 2 26 3 25 4 24 5 23 6 22 7 21 8 19 9 20 10 18 11
REMARK SMILES IDX 13 12 14 13 15 14 16 15 103 16 17 17 102 18 12 19 6 20 7 21
REMARK SMILES IDX 105 22 106 23 8 24 10 25 9 26 104 27 11 28 5 29 1 30 2 31
REMARK SMILES IDX 3 32 108 33 4 34 107 35 29 36 30 37 31 38 32 39 33 40 34 41
REMARK SMILES IDX 35 42 36 43 37 44 101 45 38 46 100 47 39 48 40 49 41 50
REMARK SMILES IDX 94 51 42 52 99 53 93 54 95 55 43 56 98 57 92 58 91 59 44 61
REMARK SMILES IDX 78 62 57 63 77 64 58 65 61 66 76 67 96 68 59 69 60 70 75 72
REMARK SMILES IDX 97 73 62 74 45 75 46 76 55 77 47 78 48 79 54 80 56 81 49 82
REMARK SMILES IDX 50 83 51 84 52 85 53 86 79 87 80 88 89 89 81 90 82 91 88 92
REMARK SMILES IDX 90 93 83 94 84 95 85 96 86 97 87 98 63 99 64 100 73 101
REMARK SMILES IDX 65 102 66 103 72 104 74 105 67 106 68 107 69 108 70 109
REMARK SMILES IDX 71 110
REMARK H PARENT 95 60 61 71
REMARK Flexibility Score: inf
ROOT
ATOM      1  C   UNL     1      -6.811  -2.827  -8.251  1.00  0.00     0.188 C 
ENDROOT
BRANCH   1   2
ATOM      2  O   UNL     1      -6.273  -2.154  -7.139  1.00  0.00    -0.377 OA
BRANCH   2   3
ATOM      3  C   UNL     1      -5.441  -2.853  -6.246  1.00  0.00     0.188 C 
BRANCH   3   4
ATOM      4  C   UNL     1      -4.794  -4.168  -6.707  1.00  0.00     0.188 C 
BRANCH   4   5
ATOM      5  O   UNL     1      -5.601  -5.301  -6.992  1.00  0.00    -0.376 OA
BRANCH   5   6
ATOM      6  C   UNL     1      -6.864  -5.322  -6.386  1.00  0.00     0.202 C 
BRANCH   6   7
ATOM      7  C   UNL     1      -6.995  -6.319  -5.271  1.00  0.00     0.261 C 
BRANCH   7   8
ATOM      8  O   UNL     1      -6.460  -5.930  -4.028  1.00  0.00    -0.463 OA
BRANCH   8   9
ATOM      9  C   UNL     1      -5.148  -5.915  -3.932  1.00  0.00     0.309 C 
ATOM     10  O   UNL     1      -4.357  -6.492  -4.653  1.00  0.00    -0.252 OA
BRANCH   9  11
ATOM     11  C   UNL     1      -4.794  -4.991  -2.829  1.00  0.00     0.103 C 
ATOM     12  C   UNL     1      -5.739  -2.384   0.106  1.00  0.00     0.228 C 
ATOM     13  O   UNL     1      -6.554  -2.858   0.894  1.00  0.00    -0.274 OA
ATOM     14  N   UNL     1      -4.939  -3.184  -0.717  1.00  0.00    -0.342 N 
ATOM     15  C   UNL     1      -4.860  -4.609  -0.438  1.00  0.00     0.120 C 
ATOM     16  C   UNL     1      -4.267  -2.783  -1.969  1.00  0.00     0.120 C 
ATOM     17  C   UNL     1      -5.576  -5.327  -1.552  1.00  0.00     0.037 C 
ATOM     18  C   UNL     1      -4.926  -3.494  -3.119  1.00  0.00     0.037 C 
BRANCH  12  19
ATOM     19  C   UNL     1      -5.405  -0.892   0.113  1.00  0.00     0.051 C 
ATOM     20  C   UNL     1      -3.227   0.466   0.167  1.00  0.00    -0.003 C 
ATOM     21  C   UNL     1      -3.728   1.089  -1.170  1.00  0.00     0.015 C 
ATOM     22  C   UNL     1      -3.879  -0.890   0.331  1.00  0.00     0.028 C 
ATOM     23  C   UNL     1      -3.778   1.266   1.374  1.00  0.00     0.015 C 
ATOM     24  C   UNL     1      -5.261   1.244  -1.195  1.00  0.00    -0.009 C 
ATOM     25  C   UNL     1      -5.329   1.327   1.320  1.00  0.00    -0.009 C 
ATOM     26  C   UNL     1      -5.715   2.061   0.024  1.00  0.00     0.007 C 
ATOM     27  C   UNL     1      -5.924  -0.137  -1.130  1.00  0.00     0.020 C 
ATOM     28  C   UNL     1      -5.961  -0.096   1.318  1.00  0.00     0.020 C 
BRANCH  20  29
ATOM     29  C   UNL     1      -1.693   0.316   0.143  1.00  0.00    -0.042 A 
ATOM     30  C   UNL     1       2.633   0.005  -0.025  1.00  0.00     0.044 C 
ATOM     31  C   UNL     1       1.141   0.121   0.013  1.00  0.00    -0.051 A 
ATOM     32  C   UNL     1       0.364  -1.031   0.039  1.00  0.00     0.004 A 
ATOM     33  C   UNL     1       0.504   1.365   0.031  1.00  0.00     0.004 A 
ATOM     34  C   UNL     1      -1.026  -0.933   0.111  1.00  0.00     0.004 A 
ATOM     35  C   UNL     1      -0.891   1.460   0.091  1.00  0.00     0.004 A 
ENDBRANCH  20  29
ENDBRANCH  12  19
ENDBRANCH   9  11
ENDBRANCH   8   9
ENDBRANCH   7   8
ENDBRANCH   6   7
ENDBRANCH   5   6
ENDBRANCH   4   5
ENDBRANCH   3   4
ENDBRANCH   2   3
ENDBRANCH   1   2
BRANCH   1  36
ATOM     36  C   UNL     1      -6.414  -2.447  -9.711  1.00  0.00     0.188 C 
BRANCH  36  37
ATOM     37  O   UNL     1      -5.154  -1.856  -9.882  1.00  0.00    -0.376 OA
BRANCH  37  38
ATOM     38  C   UNL     1      -5.012  -0.841  -8.911  1.00  0.00     0.202 C 
BRANCH  38  39
ATOM     39  C   UNL     1      -6.272   0.075  -8.612  1.00  0.00     0.261 C 
BRANCH  39  40
ATOM     40  O   UNL     1      -7.807  -0.326  -8.843  1.00  0.00    -0.460 OA
BRANCH  40  41
ATOM     41  C   UNL     1      -9.089  -0.690  -9.058  1.00  0.00     0.338 C 
ATOM     42  O   UNL     1      -9.943   0.014  -8.535  1.00  0.00    -0.246 OA
BRANCH  41  43
ATOM     43  C   UNL     1      -9.842  -1.902  -9.696  1.00  0.00     0.060 A 
ATOM     44  C   UNL     1     -11.130  -2.090  -9.141  1.00  0.00     0.016 A 
ATOM     45  C   UNL     1      -9.255  -3.105  -9.930  1.00  0.00     0.016 A 
ATOM     46  C   UNL     1     -11.336  -3.059  -8.136  1.00  0.00     0.010 A 
ATOM     47  C   UNL     1      -9.352  -4.017  -8.892  1.00  0.00     0.010 A 
ATOM     48  C   UNL     1     -10.278  -3.891  -7.846  1.00  0.00    -0.014 A 
BRANCH  48  49
ATOM     49  C   UNL     1      -9.960  -4.697  -6.619  1.00  0.00     0.031 A 
ATOM     50  C   UNL     1      -9.808  -6.241  -7.013  1.00  0.00     0.074 A 
ATOM     51  C   UNL     1      -9.469  -3.944  -5.535  1.00  0.00     0.049 A 
ATOM     52  N   UNL     1      -9.503  -7.233  -6.252  1.00  0.00    -0.248 NA
ATOM     53  C   UNL     1      -9.805  -6.758  -8.411  1.00  0.00     0.031 C 
ATOM     54  C   UNL     1      -8.626  -4.193  -4.320  1.00  0.00     0.029 A 
ATOM     55  N   UNL     1      -9.719  -2.601  -5.235  1.00  0.00    -0.354 N 
ATOM     56  C   UNL     1      -8.819  -8.240  -6.984  1.00  0.00     0.074 A 
ATOM     57  C   UNL     1      -9.073  -7.883  -8.349  1.00  0.00     0.031 C 
ATOM     58  C   UNL     1      -8.794  -3.346  -3.300  1.00  0.00     0.029 A 
ATOM     59  C   UNL     1      -9.759  -2.466  -3.801  1.00  0.00     0.049 A 
ATOM     60  H   UNL     1      -9.846  -1.875  -5.888  1.00  0.00     0.167 HD
ATOM     61  C   UNL     1      -8.019  -9.163  -6.321  1.00  0.00     0.037 A 
ATOM     62  C   UNL     1     -10.954  -2.357  -3.196  1.00  0.00     0.037 A 
ATOM     63  C   UNL     1      -8.157  -8.956  -4.839  1.00  0.00     0.049 A 
ATOM     64  C   UNL     1     -11.391  -3.921  -2.854  1.00  0.00     0.074 A 
ATOM     65  C   UNL     1      -7.316  -8.836  -3.741  1.00  0.00     0.029 A 
ATOM     66  N   UNL     1      -9.392  -8.538  -4.348  1.00  0.00    -0.354 N 
ATOM     67  N   UNL     1     -10.689  -5.040  -3.121  1.00  0.00    -0.248 NA
ATOM     68  C   UNL     1     -12.525  -4.298  -2.019  1.00  0.00     0.031 C 
ATOM     69  C   UNL     1      -8.051  -8.158  -2.689  1.00  0.00     0.029 A 
ATOM     70  C   UNL     1      -9.343  -7.878  -3.133  1.00  0.00     0.049 A 
ATOM     71  H   UNL     1     -10.236  -8.700  -4.830  1.00  0.00     0.167 HD
ATOM     72  C   UNL     1     -11.195  -6.199  -2.546  1.00  0.00     0.074 A 
ATOM     73  C   UNL     1     -12.416  -5.646  -1.944  1.00  0.00     0.031 C 
ATOM     74  C   UNL     1     -10.646  -7.501  -2.537  1.00  0.00     0.037 A 
BRANCH  61  75
ATOM     75  C   UNL     1      -6.947 -10.173  -6.906  1.00  0.00     0.058 A 
ATOM     76  C   UNL     1      -6.339 -11.127  -6.042  1.00  0.00     0.135 A 
ATOM     77  C   UNL     1      -6.430 -10.253  -8.229  1.00  0.00     0.135 A 
ATOM     78  F   UNL     1      -6.708 -11.228  -4.759  1.00  0.00    -0.206 F 
ATOM     79  C   UNL     1      -5.348 -12.052  -6.425  1.00  0.00     0.059 A 
ATOM     80  C   UNL     1      -5.456 -11.212  -8.652  1.00  0.00     0.059 A 
ATOM     81  F   UNL     1      -6.834  -9.401  -9.182  1.00  0.00    -0.206 F 
ATOM     82  C   UNL     1      -4.920 -12.113  -7.738  1.00  0.00     0.060 A 
BRANCH  82  83
ATOM     83  S   UNL     1      -3.742 -13.424  -8.193  1.00  0.00     0.124 S 
ATOM     84  O   UNL     1      -2.545 -13.048  -7.448  1.00  0.00    -0.237 OA
ATOM     85  O   UNL     1      -4.419 -14.629  -7.721  1.00  0.00    -0.237 OA
ATOM     86  O   UNL     1      -3.635 -13.308  -9.645  1.00  0.00    -0.744 OA
ENDBRANCH  82  83
ENDBRANCH  61  75
BRANCH  62  87
ATOM     87  C   UNL     1     -11.336  -0.993  -3.879  1.00  0.00     0.058 A 
ATOM     88  C   UNL     1     -10.411   0.099  -3.608  1.00  0.00     0.135 A 
ATOM     89  C   UNL     1     -11.918  -0.891  -5.162  1.00  0.00     0.135 A 
ATOM     90  F   UNL     1      -9.712   0.104  -2.456  1.00  0.00    -0.206 F 
ATOM     91  C   UNL     1      -9.998   1.060  -4.563  1.00  0.00     0.059 A 
ATOM     92  C   UNL     1     -11.544   0.120  -6.125  1.00  0.00     0.059 A 
ATOM     93  F   UNL     1     -12.726  -1.882  -5.570  1.00  0.00    -0.206 F 
ATOM     94  C   UNL     1     -10.569   1.087  -5.830  1.00  0.00     0.060 A 
BRANCH  94  95
ATOM     95  S   UNL     1      -9.980   2.476  -6.936  1.00  0.00     0.124 S 
ATOM     96  O   UNL     1     -10.518   3.630  -6.218  1.00  0.00    -0.237 OA
ATOM     97  O   UNL     1      -8.521   2.348  -6.862  1.00  0.00    -0.237 OA
ATOM     98  O   UNL     1     -10.578   2.316  -8.256  1.00  0.00    -0.744 OA
ENDBRANCH  94  95
ENDBRANCH  62  87
BRANCH  74  99
ATOM     99  C   UNL     1     -11.407  -8.758  -2.040  1.00  0.00     0.058 A 
ATOM    100  C   UNL     1     -12.365  -8.707  -1.038  1.00  0.00     0.135 A 
ATOM    101  C   UNL     1     -11.188 -10.080  -2.556  1.00  0.00     0.135 A 
ATOM    102  F   UNL     1     -12.407  -7.677  -0.182  1.00  0.00    -0.206 F 
ATOM    103  C   UNL     1     -13.246  -9.759  -0.798  1.00  0.00     0.059 A 
ATOM    104  C   UNL     1     -12.006 -11.165  -2.288  1.00  0.00     0.059 A 
ATOM    105  F   UNL     1     -10.134 -10.432  -3.300  1.00  0.00    -0.206 F 
ATOM    106  C   UNL     1     -13.075 -10.977  -1.448  1.00  0.00     0.060 A 
BRANCH 106 107
ATOM    107  S   UNL     1     -14.148 -12.348  -1.032  1.00  0.00     0.124 S 
ATOM    108  O   UNL     1     -14.103 -12.323   0.426  1.00  0.00    -0.237 OA
ATOM    109  O   UNL     1     -15.407 -11.928  -1.638  1.00  0.00    -0.237 OA
ATOM    110  O   UNL     1     -13.502 -13.498  -1.656  1.00  0.00    -0.744 OA
ENDBRANCH 106 107
ENDBRANCH  74  99
ENDBRANCH  48  49
ENDBRANCH  41  43
ENDBRANCH  40  41
ENDBRANCH  39  40
ENDBRANCH  38  39
ENDBRANCH  37  38
ENDBRANCH  36  37
ENDBRANCH   1  36
TORSDOF 25
