REMARK SMILES CC(C)(C)c1cc2c(cc1Cl)C=C(C(=O)OCCOCCOCCOCCOC(=O)c1ccc(-c3c4nc(c(-c5c(F)cc(S(=O)(=O)[O-])cc5F)c5ccc([nH]5)c(-c5c(F)cc(S(=O)(=O)[O-])cc5F)c5nc(c(-c6c(F)cc(S(=O)(=O)[O-])cc6F)c6ccc3[nH]6)C=C5)C=C4)cc1)[C@@H](C(F)(F)F)O2
REMARK SMILES IDX 23 1 22 2 21 3 20 4 19 5 18 6 17 7 16 8 14 9 15 10 13 11
REMARK SMILES IDX 5 12 6 13 10 14 7 15 9 16 11 17 8 18 102 19 12 20 97 21 2 22
REMARK SMILES IDX 1 23 3 24 4 25 98 26 99 27 100 28 101 29 24 30 25 31 26 32
REMARK SMILES IDX 27 33 28 34 29 35 30 36 31 37 32 38 96 39 33 40 95 41 34 42
REMARK SMILES IDX 35 43 36 44 89 45 37 46 94 47 88 48 90 49 38 50 93 51 87 52
REMARK SMILES IDX 86 53 39 55 73 56 52 57 72 58 53 59 56 60 71 61 91 62 54 63
REMARK SMILES IDX 55 64 70 66 92 67 57 68 40 69 41 70 50 71 42 72 43 73 49 74
REMARK SMILES IDX 51 75 44 76 45 77 46 78 47 79 48 80 74 81 75 82 84 83 76 84
REMARK SMILES IDX 77 85 83 86 85 87 78 88 79 89 80 90 81 91 82 92 58 93 59 94
REMARK SMILES IDX 68 95 60 96 61 97 67 98 69 99 62 100 63 101 64 102 65 103
REMARK SMILES IDX 66 104
REMARK H PARENT 90 54 56 65
REMARK Flexibility Score: inf
ROOT
ATOM      1  C   UNL     1       0.855  -0.383  11.681  1.00  0.00     0.188 C 
ENDROOT
BRANCH   1   2
ATOM      2  O   UNL     1       1.523  -0.372  10.419  1.00  0.00    -0.377 OA
BRANCH   2   3
ATOM      3  C   UNL     1       0.936  -1.132   9.373  1.00  0.00     0.188 C 
BRANCH   3   4
ATOM      4  C   UNL     1       1.452  -2.583   9.347  1.00  0.00     0.188 C 
BRANCH   4   5
ATOM      5  O   UNL     1       2.084  -2.979  10.551  1.00  0.00    -0.376 OA
BRANCH   5   6
ATOM      6  C   UNL     1       3.473  -2.757  10.757  1.00  0.00     0.202 C 
BRANCH   6   7
ATOM      7  C   UNL     1       4.251  -1.528  10.243  1.00  0.00     0.261 C 
BRANCH   7   8
ATOM      8  O   UNL     1       3.821  -0.941   9.014  1.00  0.00    -0.460 OA
BRANCH   8   9
ATOM      9  C   UNL     1       4.154  -1.556   7.867  1.00  0.00     0.338 C 
ATOM     10  O   UNL     1       4.807  -2.576   7.743  1.00  0.00    -0.246 OA
BRANCH   9  11
ATOM     11  C   UNL     1       3.408  -0.886   6.778  1.00  0.00     0.087 C 
ATOM     12  C   UNL     1       0.815   0.143   2.562  1.00  0.00    -0.020 A 
ATOM     13  C   UNL     1       1.444   0.904   3.576  1.00  0.00     0.053 A 
ATOM     14  C   UNL     1       0.689  -1.242   2.818  1.00  0.00     0.045 A 
ATOM     15  C   UNL     1       2.026   0.316   4.706  1.00  0.00     0.128 A 
ATOM     16  C   UNL     1       1.283  -1.830   3.947  1.00  0.00     0.032 A 
ATOM     17  Cl  UNL     1      -0.184  -2.348   1.813  1.00  0.00    -0.084 Cl
ATOM     18  C   UNL     1       1.996  -1.060   4.862  1.00  0.00     0.019 A 
ATOM     19  O   UNL     1       2.629   1.168   5.584  1.00  0.00    -0.475 OA
ATOM     20  C   UNL     1       2.749  -1.686   5.931  1.00  0.00     0.027 C 
ATOM     21  C   UNL     1       3.345   0.622   6.730  1.00  0.00     0.316 C 
BRANCH  12  22
ATOM     22  C   UNL     1       0.355   0.837   1.255  1.00  0.00    -0.012 C 
ATOM     23  C   UNL     1       0.951   0.138   0.009  1.00  0.00     0.016 C 
ATOM     24  C   UNL     1       0.832   2.313   1.141  1.00  0.00     0.016 C 
ATOM     25  C   UNL     1      -1.183   0.872   1.170  1.00  0.00     0.016 C 
ENDBRANCH  12  22
BRANCH  21  26
ATOM     26  C   UNL     1       4.737   1.267   6.763  1.00  0.00     0.430 C 
ATOM     27  F   UNL     1       4.654   2.615   6.659  1.00  0.00    -0.167 F 
ATOM     28  F   UNL     1       5.396   0.998   7.911  1.00  0.00    -0.167 F 
ATOM     29  F   UNL     1       5.507   0.829   5.739  1.00  0.00    -0.167 F 
ENDBRANCH  21  26
ENDBRANCH   9  11
ENDBRANCH   8   9
ENDBRANCH   7   8
ENDBRANCH   6   7
ENDBRANCH   5   6
ENDBRANCH   4   5
ENDBRANCH   3   4
ENDBRANCH   2   3
ENDBRANCH   1   2
BRANCH   1  30
ATOM     30  C   UNL     1       0.122  -1.655  12.169  1.00  0.00     0.188 C 
BRANCH  30  31
ATOM     31  O   UNL     1      -0.753  -2.223  11.196  1.00  0.00    -0.376 OA
BRANCH  31  32
ATOM     32  C   UNL     1      -2.150  -2.077  11.398  1.00  0.00     0.202 C 
BRANCH  32  33
ATOM     33  C   UNL     1      -2.701  -0.678  11.103  1.00  0.00     0.261 C 
BRANCH  33  34
ATOM     34  O   UNL     1      -2.159   0.380  11.905  1.00  0.00    -0.460 OA
BRANCH  34  35
ATOM     35  C   UNL     1      -2.307   0.295  13.246  1.00  0.00     0.338 C 
ATOM     36  O   UNL     1      -2.892  -0.574  13.867  1.00  0.00    -0.246 OA
BRANCH  35  37
ATOM     37  C   UNL     1      -1.465   1.351  13.847  1.00  0.00     0.060 A 
ATOM     38  C   UNL     1      -1.534   2.659  13.363  1.00  0.00     0.016 A 
ATOM     39  C   UNL     1      -0.578   1.021  14.880  1.00  0.00     0.016 A 
ATOM     40  C   UNL     1      -0.735   3.646  13.935  1.00  0.00     0.010 A 
ATOM     41  C   UNL     1       0.219   2.015  15.457  1.00  0.00     0.010 A 
ATOM     42  C   UNL     1       0.128   3.339  15.003  1.00  0.00    -0.014 A 
BRANCH  42  43
ATOM     43  C   UNL     1       0.785   4.451  15.732  1.00  0.00     0.031 A 
ATOM     44  C   UNL     1       2.237   4.772  15.557  1.00  0.00     0.074 A 
ATOM     45  C   UNL     1       0.015   5.206  16.541  1.00  0.00     0.049 A 
ATOM     46  N   UNL     1       2.902   5.810  15.996  1.00  0.00    -0.248 NA
ATOM     47  C   UNL     1       3.051   3.808  14.803  1.00  0.00     0.031 C 
ATOM     48  C   UNL     1      -1.402   4.954  16.819  1.00  0.00     0.029 A 
ATOM     49  N   UNL     1       0.297   6.343  17.253  1.00  0.00    -0.354 N 
ATOM     50  C   UNL     1       4.206   5.645  15.549  1.00  0.00     0.074 A 
ATOM     51  C   UNL     1       4.251   4.375  14.853  1.00  0.00     0.031 C 
ATOM     52  C   UNL     1      -1.876   5.935  17.601  1.00  0.00     0.029 A 
ATOM     53  C   UNL     1      -0.796   6.870  17.899  1.00  0.00     0.049 A 
ATOM     54  H   UNL     1       1.196   6.743  17.297  1.00  0.00     0.167 HD
ATOM     55  C   UNL     1       5.257   6.490  15.689  1.00  0.00     0.037 A 
ATOM     56  C   UNL     1      -0.921   7.990  18.635  1.00  0.00     0.037 A 
ATOM     57  C   UNL     1       5.198   7.744  16.400  1.00  0.00     0.049 A 
ATOM     58  C   UNL     1       0.270   8.889  18.808  1.00  0.00     0.074 A 
ATOM     59  C   UNL     1       6.195   8.693  16.552  1.00  0.00     0.029 A 
ATOM     60  N   UNL     1       4.092   8.218  17.092  1.00  0.00    -0.354 N 
ATOM     61  N   UNL     1       1.470   8.771  18.292  1.00  0.00    -0.248 NA
ATOM     62  C   UNL     1       0.093  10.071  19.662  1.00  0.00     0.031 C 
ATOM     63  C   UNL     1       5.711   9.711  17.380  1.00  0.00     0.029 A 
ATOM     64  C   UNL     1       4.395   9.423  17.706  1.00  0.00     0.049 A 
ATOM     65  H   UNL     1       3.220   7.763  17.140  1.00  0.00     0.167 HD
ATOM     66  C   UNL     1       2.191   9.866  18.754  1.00  0.00     0.074 A 
ATOM     67  C   UNL     1       1.284  10.649  19.569  1.00  0.00     0.031 C 
ATOM     68  C   UNL     1       3.489  10.187  18.529  1.00  0.00     0.037 A 
BRANCH  55  69
ATOM     69  C   UNL     1       6.562   6.103  15.049  1.00  0.00     0.058 A 
ATOM     70  C   UNL     1       6.726   6.130  13.655  1.00  0.00     0.135 A 
ATOM     71  C   UNL     1       7.683   5.778  15.831  1.00  0.00     0.135 A 
ATOM     72  F   UNL     1       5.687   6.429  12.858  1.00  0.00    -0.206 F 
ATOM     73  C   UNL     1       7.945   5.828  13.058  1.00  0.00     0.059 A 
ATOM     74  C   UNL     1       8.920   5.497  15.257  1.00  0.00     0.059 A 
ATOM     75  F   UNL     1       7.585   5.743  17.170  1.00  0.00    -0.206 F 
ATOM     76  C   UNL     1       9.038   5.514  13.868  1.00  0.00     0.060 A 
BRANCH  76  77
ATOM     77  S   UNL     1      10.613   5.132  13.073  1.00  0.00     0.124 S 
ATOM     78  O   UNL     1      10.315   3.852  12.437  1.00  0.00    -0.237 OA
ATOM     79  O   UNL     1      10.786   6.264  12.168  1.00  0.00    -0.237 OA
ATOM     80  O   UNL     1      11.553   5.073  14.187  1.00  0.00    -0.744 OA
ENDBRANCH  76  77
ENDBRANCH  55  69
BRANCH  56  81
ATOM     81  C   UNL     1      -2.240   8.334  19.228  1.00  0.00     0.058 A 
ATOM     82  C   UNL     1      -2.989   9.415  18.742  1.00  0.00     0.135 A 
ATOM     83  C   UNL     1      -2.795   7.564  20.263  1.00  0.00     0.135 A 
ATOM     84  F   UNL     1      -2.499  10.181  17.756  1.00  0.00    -0.206 F 
ATOM     85  C   UNL     1      -4.240   9.726  19.264  1.00  0.00     0.059 A 
ATOM     86  C   UNL     1      -4.054   7.840  20.784  1.00  0.00     0.059 A 
ATOM     87  F   UNL     1      -2.124   6.509  20.750  1.00  0.00    -0.206 F 
ATOM     88  C   UNL     1      -4.767   8.927  20.282  1.00  0.00     0.060 A 
BRANCH  88  89
ATOM     89  S   UNL     1      -6.416   9.309  20.910  1.00  0.00     0.124 S 
ATOM     90  O   UNL     1      -6.179  10.565  21.613  1.00  0.00    -0.237 OA
ATOM     91  O   UNL     1      -7.195   9.402  19.680  1.00  0.00    -0.237 OA
ATOM     92  O   UNL     1      -6.728   8.161  21.756  1.00  0.00    -0.744 OA
ENDBRANCH  88  89
ENDBRANCH  56  81
BRANCH  68  93
ATOM     93  C   UNL     1       4.024  11.426  19.192  1.00  0.00     0.058 A 
ATOM     94  C   UNL     1       4.286  11.456  20.571  1.00  0.00     0.135 A 
ATOM     95  C   UNL     1       4.360  12.561  18.437  1.00  0.00     0.135 A 
ATOM     96  F   UNL     1       3.973  10.402  21.341  1.00  0.00    -0.206 F 
ATOM     97  C   UNL     1       4.861  12.567  21.178  1.00  0.00     0.059 A 
ATOM     98  C   UNL     1       4.960  13.675  19.019  1.00  0.00     0.059 A 
ATOM     99  F   UNL     1       4.134  12.584  17.114  1.00  0.00    -0.206 F 
ATOM    100  C   UNL     1       5.205  13.668  20.392  1.00  0.00     0.060 A 
BRANCH 100 101
ATOM    101  S   UNL     1       6.013  15.073  21.187  1.00  0.00     0.124 S 
ATOM    102  O   UNL     1       4.929  15.617  21.999  1.00  0.00    -0.237 OA
ATOM    103  O   UNL     1       7.095  14.430  21.925  1.00  0.00    -0.237 OA
ATOM    104  O   UNL     1       6.434  15.906  20.065  1.00  0.00    -0.744 OA
ENDBRANCH 100 101
ENDBRANCH  68  93
ENDBRANCH  42  43
ENDBRANCH  35  37
ENDBRANCH  34  35
ENDBRANCH  33  34
ENDBRANCH  32  33
ENDBRANCH  31  32
ENDBRANCH  30  31
ENDBRANCH   1  30
TORSDOF 25
