REMARK SMILES C[C@]12C(=O)N(c3ccc(C(=O)OCCOCCOCCOCCOC(=O)c4ccc(-c5c6nc(c(-c7c(F)cc(S(=O)(=O)[O-])cc7F)c7ccc([nH]7)c(-c7c(F)cc(S(=O)(=O)[O-])cc7F)c7nc(c(-c8c(F)cc(S(=O)(=O)[O-])cc8F)c8ccc5[nH]8)C=C7)C=C6)cc4)cc3)C(=O)[C@H]1[C@H]1c3ccccc3[C@@H]2c2ccccc21
REMARK SMILES IDX 19 1 18 2 17 3 16 4 15 5 14 6 13 7 12 8 10 9 11 10 9 11 6 12
REMARK SMILES IDX 7 13 94 14 8 15 93 16 5 17 1 18 2 19 3 20 97 21 105 22 4 23
REMARK SMILES IDX 95 24 98 25 104 26 106 27 96 28 99 29 111 30 103 31 107 32
REMARK SMILES IDX 100 33 110 34 102 35 108 36 101 37 109 38 20 39 21 40 22 41
REMARK SMILES IDX 23 42 24 43 25 44 26 45 27 46 28 47 92 48 29 49 91 50 30 51
REMARK SMILES IDX 31 52 32 53 85 54 33 55 90 56 84 57 86 58 34 59 89 60 83 61
REMARK SMILES IDX 82 62 35 64 69 65 48 66 68 67 49 68 52 69 67 70 87 71 50 72
REMARK SMILES IDX 51 73 66 75 88 76 53 77 36 78 37 79 46 80 38 81 39 82 45 83
REMARK SMILES IDX 47 84 40 85 41 86 42 87 43 88 44 89 70 90 71 91 80 92 72 93
REMARK SMILES IDX 73 94 79 95 81 96 74 97 75 98 76 99 77 100 78 101 54 102
REMARK SMILES IDX 55 103 64 104 56 105 57 106 63 107 65 108 58 109 59 110
REMARK SMILES IDX 60 111 61 112 62 113
REMARK H PARENT 86 63 52 74
REMARK Flexibility Score: inf
ROOT
ATOM      1  C   UNL     1       4.912  10.678  -2.005  1.00  0.00     0.188 C 
ENDROOT
BRANCH   1   2
ATOM      2  O   UNL     1       3.904   9.870  -1.413  1.00  0.00    -0.377 OA
BRANCH   2   3
ATOM      3  C   UNL     1       3.268   8.904  -2.222  1.00  0.00     0.188 C 
BRANCH   3   4
ATOM      4  C   UNL     1       2.028   9.435  -2.966  1.00  0.00     0.188 C 
BRANCH   4   5
ATOM      5  O   UNL     1       1.845  10.832  -3.111  1.00  0.00    -0.376 OA
BRANCH   5   6
ATOM      6  C   UNL     1       1.704  11.690  -1.987  1.00  0.00     0.202 C 
BRANCH   6   7
ATOM      7  C   UNL     1       1.230  11.273  -0.577  1.00  0.00     0.261 C 
BRANCH   7   8
ATOM      8  O   UNL     1       1.476   9.928  -0.160  1.00  0.00    -0.460 OA
BRANCH   8   9
ATOM      9  C   UNL     1       0.393   9.123  -0.115  1.00  0.00     0.338 C 
ATOM     10  O   UNL     1      -0.763   9.415  -0.373  1.00  0.00    -0.246 OA
BRANCH   9  11
ATOM     11  C   UNL     1       0.842   7.726   0.032  1.00  0.00     0.060 A 
ATOM     12  C   UNL     1       1.468   4.990   0.213  1.00  0.00     0.052 A 
ATOM     13  C   UNL     1       0.887   5.527  -0.948  1.00  0.00     0.028 A 
ATOM     14  C   UNL     1       1.840   5.877   1.236  1.00  0.00     0.028 A 
ATOM     15  C   UNL     1       0.520   6.864  -1.014  1.00  0.00     0.018 A 
ATOM     16  C   UNL     1       1.556   7.252   1.133  1.00  0.00     0.018 A 
BRANCH  12  17
ATOM     17  N   UNL     1       1.411   3.586   0.397  1.00  0.00    -0.250 N 
ATOM     18  C   UNL     1       1.006   0.277  -0.187  1.00  0.00     0.024 C 
ATOM     19  C   UNL     1       0.292   1.609   0.119  1.00  0.00     0.071 C 
ATOM     20  C   UNL     1       1.061   2.700  -0.560  1.00  0.00     0.241 C 
ATOM     21  C   UNL     1       0.327   1.856   1.700  1.00  0.00     0.107 C 
ATOM     22  C   UNL     1      -1.143   1.706  -0.525  1.00  0.00     0.066 C 
ATOM     23  O   UNL     1       1.298   2.723  -1.761  1.00  0.00    -0.273 OA
ATOM     24  C   UNL     1       1.494   2.905   1.571  1.00  0.00     0.238 C 
ATOM     25  C   UNL     1      -1.241   1.805   2.072  1.00  0.00     0.063 C 
ATOM     26  C   UNL     1      -1.784   2.999  -0.002  1.00  0.00    -0.036 A 
ATOM     27  C   UNL     1      -1.929   0.557   0.063  1.00  0.00    -0.036 A 
ATOM     28  O   UNL     1       2.372   3.027   2.422  1.00  0.00    -0.274 OA
ATOM     29  C   UNL     1      -1.847   3.049   1.411  1.00  0.00    -0.036 A 
ATOM     30  C   UNL     1      -1.950   0.584   1.474  1.00  0.00    -0.036 A 
ATOM     31  C   UNL     1      -2.184   4.090  -0.758  1.00  0.00     0.005 A 
ATOM     32  C   UNL     1      -2.629  -0.399  -0.660  1.00  0.00     0.005 A 
ATOM     33  C   UNL     1      -2.275   4.191   2.073  1.00  0.00     0.004 A 
ATOM     34  C   UNL     1      -2.698  -0.356   2.168  1.00  0.00     0.004 A 
ATOM     35  C   UNL     1      -2.608   5.245  -0.091  1.00  0.00     0.000 A 
ATOM     36  C   UNL     1      -3.375  -1.342   0.041  1.00  0.00     0.000 A 
ATOM     37  C   UNL     1      -2.647   5.297   1.310  1.00  0.00     0.000 A 
ATOM     38  C   UNL     1      -3.411  -1.320   1.444  1.00  0.00     0.000 A 
ENDBRANCH  12  17
ENDBRANCH   9  11
ENDBRANCH   8   9
ENDBRANCH   7   8
ENDBRANCH   6   7
ENDBRANCH   5   6
ENDBRANCH   4   5
ENDBRANCH   3   4
ENDBRANCH   2   3
ENDBRANCH   1   2
BRANCH   1  39
ATOM     39  C   UNL     1       4.922  10.956  -3.525  1.00  0.00     0.188 C 
BRANCH  39  40
ATOM     40  O   UNL     1       4.606   9.838  -4.346  1.00  0.00    -0.376 OA
BRANCH  40  41
ATOM     41  C   UNL     1       5.667   9.186  -5.030  1.00  0.00     0.202 C 
BRANCH  41  42
ATOM     42  C   UNL     1       6.607   8.337  -4.164  1.00  0.00     0.261 C 
BRANCH  42  43
ATOM     43  O   UNL     1       7.275   9.034  -3.107  1.00  0.00    -0.460 OA
BRANCH  43  44
ATOM     44  C   UNL     1       8.109  10.044  -3.443  1.00  0.00     0.338 C 
ATOM     45  O   UNL     1       8.371  10.436  -4.566  1.00  0.00    -0.246 OA
BRANCH  44  46
ATOM     46  C   UNL     1       8.513  10.713  -2.188  1.00  0.00     0.060 A 
ATOM     47  C   UNL     1       8.973   9.954  -1.108  1.00  0.00     0.016 A 
ATOM     48  C   UNL     1       8.383  12.103  -2.073  1.00  0.00     0.016 A 
ATOM     49  C   UNL     1       9.331  10.593   0.078  1.00  0.00     0.010 A 
ATOM     50  C   UNL     1       8.751  12.742  -0.884  1.00  0.00     0.010 A 
ATOM     51  C   UNL     1       9.248  11.993   0.192  1.00  0.00    -0.014 A 
BRANCH  51  52
ATOM     52  C   UNL     1       9.857  12.646   1.378  1.00  0.00     0.031 A 
ATOM     53  C   UNL     1       9.033  13.214   2.493  1.00  0.00     0.074 A 
ATOM     54  C   UNL     1      11.203  12.679   1.447  1.00  0.00     0.049 A 
ATOM     55  N   UNL     1       9.430  13.644   3.663  1.00  0.00    -0.248 NA
ATOM     56  C   UNL     1       7.585  13.328   2.268  1.00  0.00     0.031 C 
ATOM     57  C   UNL     1      12.102  12.203   0.394  1.00  0.00     0.029 A 
ATOM     58  N   UNL     1      12.047  13.098   2.443  1.00  0.00    -0.354 N 
ATOM     59  C   UNL     1       8.283  14.055   4.330  1.00  0.00     0.074 A 
ATOM     60  C   UNL     1       7.179  13.875   3.408  1.00  0.00     0.031 C 
ATOM     61  C   UNL     1      13.369  12.309   0.819  1.00  0.00     0.029 A 
ATOM     62  C   UNL     1      13.375  12.880   2.162  1.00  0.00     0.049 A 
ATOM     63  H   UNL     1      11.732  13.515   3.277  1.00  0.00     0.167 HD
ATOM     64  C   UNL     1       8.167  14.515   5.600  1.00  0.00     0.037 A 
ATOM     65  C   UNL     1      14.477  13.097   2.906  1.00  0.00     0.037 A 
ATOM     66  C   UNL     1       9.281  14.700   6.499  1.00  0.00     0.049 A 
ATOM     67  C   UNL     1      14.323  13.629   4.303  1.00  0.00     0.074 A 
ATOM     68  C   UNL     1       9.257  15.106   7.822  1.00  0.00     0.029 A 
ATOM     69  N   UNL     1      10.615  14.513   6.165  1.00  0.00    -0.354 N 
ATOM     70  N   UNL     1      13.222  13.905   4.960  1.00  0.00    -0.248 NA
ATOM     71  C   UNL     1      15.556  13.875   5.063  1.00  0.00     0.031 C 
ATOM     72  C   UNL     1      10.577  15.222   8.270  1.00  0.00     0.029 A 
ATOM     73  C   UNL     1      11.424  14.834   7.244  1.00  0.00     0.049 A 
ATOM     74  H   UNL     1      10.940  14.198   5.291  1.00  0.00     0.167 HD
ATOM     75  C   UNL     1      13.628  14.349   6.213  1.00  0.00     0.074 A 
ATOM     76  C   UNL     1      15.075  14.284   6.230  1.00  0.00     0.031 C 
ATOM     77  C   UNL     1      12.867  14.774   7.251  1.00  0.00     0.037 A 
BRANCH  64  78
ATOM     78  C   UNL     1       6.789  14.843   6.111  1.00  0.00     0.058 A 
ATOM     79  C   UNL     1       5.853  13.833   6.385  1.00  0.00     0.135 A 
ATOM     80  C   UNL     1       6.426  16.167   6.408  1.00  0.00     0.135 A 
ATOM     81  F   UNL     1       6.145  12.550   6.118  1.00  0.00    -0.206 F 
ATOM     82  C   UNL     1       4.599  14.125   6.912  1.00  0.00     0.059 A 
ATOM     83  C   UNL     1       5.186  16.480   6.961  1.00  0.00     0.059 A 
ATOM     84  F   UNL     1       7.284  17.172   6.174  1.00  0.00    -0.206 F 
ATOM     85  C   UNL     1       4.275  15.452   7.198  1.00  0.00     0.060 A 
BRANCH  85  86
ATOM     86  S   UNL     1       2.643  15.807   7.883  1.00  0.00     0.124 S 
ATOM     87  O   UNL     1       1.778  15.498   6.749  1.00  0.00    -0.237 OA
ATOM     88  O   UNL     1       2.570  14.879   9.007  1.00  0.00    -0.237 OA
ATOM     89  O   UNL     1       2.722  17.220   8.243  1.00  0.00    -0.744 OA
ENDBRANCH  85  86
ENDBRANCH  64  78
BRANCH  65  90
ATOM     90  C   UNL     1      15.812  12.765   2.344  1.00  0.00     0.058 A 
ATOM     91  C   UNL     1      16.550  11.675   2.827  1.00  0.00     0.135 A 
ATOM     92  C   UNL     1      16.351  13.499   1.275  1.00  0.00     0.135 A 
ATOM     93  F   UNL     1      16.078  10.945   3.849  1.00  0.00    -0.206 F 
ATOM     94  C   UNL     1      17.776  11.324   2.271  1.00  0.00     0.059 A 
ATOM     95  C   UNL     1      17.561  13.151   0.686  1.00  0.00     0.059 A 
ATOM     96  F   UNL     1      15.674  14.540   0.765  1.00  0.00    -0.206 F 
ATOM     97  C   UNL     1      18.269  12.064   1.194  1.00  0.00     0.060 A 
BRANCH  97  98
ATOM     98  S   UNL     1      19.830  11.556   0.442  1.00  0.00     0.124 S 
ATOM     99  O   UNL     1      20.784  11.881   1.496  1.00  0.00    -0.237 OA
ATOM    100  O   UNL     1      19.602  10.135   0.201  1.00  0.00    -0.237 OA
ATOM    101  O   UNL     1      19.910  12.383  -0.758  1.00  0.00    -0.744 OA
ENDBRANCH  97  98
ENDBRANCH  65  90
BRANCH  77 102
ATOM    102  C   UNL     1      13.572  15.222   8.502  1.00  0.00     0.058 A 
ATOM    103  C   UNL     1      14.251  16.449   8.556  1.00  0.00     0.135 A 
ATOM    104  C   UNL     1      13.476  14.473   9.687  1.00  0.00     0.135 A 
ATOM    105  F   UNL     1      14.383  17.198   7.450  1.00  0.00    -0.206 F 
ATOM    106  C   UNL     1      14.806  16.921   9.742  1.00  0.00     0.059 A 
ATOM    107  C   UNL     1      14.000  14.938  10.889  1.00  0.00     0.059 A 
ATOM    108  F   UNL     1      12.833  13.294   9.691  1.00  0.00    -0.206 F 
ATOM    109  C   UNL     1      14.662  16.165  10.907  1.00  0.00     0.060 A 
BRANCH 109 110
ATOM    110  S   UNL     1      15.312  16.835  12.452  1.00  0.00     0.124 S 
ATOM    111  O   UNL     1      16.752  16.767  12.222  1.00  0.00    -0.237 OA
ATOM    112  O   UNL     1      14.736  18.176  12.474  1.00  0.00    -0.237 OA
ATOM    113  O   UNL     1      14.796  15.919  13.466  1.00  0.00    -0.744 OA
ENDBRANCH 109 110
ENDBRANCH  77 102
ENDBRANCH  51  52
ENDBRANCH  44  46
ENDBRANCH  43  44
ENDBRANCH  42  43
ENDBRANCH  41  42
ENDBRANCH  40  41
ENDBRANCH  39  40
ENDBRANCH   1  39
TORSDOF 24
