REMARK SMILES O=C(OCCOCCOCCOCCOC(=O)[C@H]1CC[C@@H](CNC(=O)[C@@H]2CSc3ccccc32)O1)c1ccc(-c2c3nc(c(-c4c(F)cc(S(=O)(=O)[O-])cc4F)c4ccc([nH]4)c(-c4c(F)cc(S(=O)(=O)[O-])cc4F)c4nc(c(-c5c(F)cc(S(=O)(=O)[O-])cc5F)c5ccc2[nH]5)C=C4)C=C3)cc1
REMARK SMILES IDX 9 1 8 2 7 3 6 4 5 5 4 6 3 7 2 8 1 9 36 10 37 11 101 12 38 13
REMARK SMILES IDX 100 14 39 15 40 16 41 17 94 18 42 19 99 20 93 21 95 22 43 23
REMARK SMILES IDX 98 24 92 25 91 26 44 28 78 29 57 30 77 31 58 32 61 33 76 34
REMARK SMILES IDX 96 35 59 36 60 37 75 39 97 40 62 41 45 42 46 43 55 44 47 45
REMARK SMILES IDX 48 46 54 47 56 48 49 49 50 50 51 51 52 52 53 53 79 54 80 55
REMARK SMILES IDX 89 56 81 57 82 58 88 59 90 60 83 61 84 62 85 63 86 64 87 65
REMARK SMILES IDX 63 66 64 67 73 68 65 69 66 70 72 71 74 72 67 73 68 74 69 75
REMARK SMILES IDX 70 76 71 77 10 78 11 79 12 80 13 81 14 82 15 83 16 84 17 85
REMARK SMILES IDX 18 86 19 87 35 88 20 89 21 90 22 91 23 92 24 93 25 95 26 96
REMARK SMILES IDX 27 97 34 98 28 99 29 100 33 101 30 102 32 103 31 104
REMARK H PARENT 95 27 61 38 23 94
REMARK Flexibility Score: inf
ROOT
ATOM      1  O   UNL     1      -0.914 -16.657  -2.644  1.00  0.00    -0.377 OA
ENDROOT
BRANCH   1   2
ATOM      2  C   UNL     1      -2.195 -16.366  -3.154  1.00  0.00     0.188 C 
BRANCH   2   3
ATOM      3  C   UNL     1      -2.212 -15.218  -4.141  1.00  0.00     0.188 C 
BRANCH   3   4
ATOM      4  O   UNL     1      -1.663 -15.566  -5.417  1.00  0.00    -0.376 OA
BRANCH   4   5
ATOM      5  C   UNL     1      -0.784 -14.592  -5.982  1.00  0.00     0.202 C 
BRANCH   5   6
ATOM      6  C   UNL     1      -1.397 -13.283  -6.491  1.00  0.00     0.261 C 
BRANCH   6   7
ATOM      7  O   UNL     1      -2.355 -12.680  -5.609  1.00  0.00    -0.460 OA
BRANCH   7   8
ATOM      8  C   UNL     1      -3.711 -12.769  -5.683  1.00  0.00     0.338 C 
ATOM      9  O   UNL     1      -4.393 -11.870  -5.196  1.00  0.00    -0.246 OA
BRANCH   8  10
ATOM     10  C   UNL     1      -4.392 -14.042  -6.096  1.00  0.00     0.060 A 
ATOM     11  C   UNL     1      -5.582 -14.377  -5.416  1.00  0.00     0.016 A 
ATOM     12  C   UNL     1      -3.853 -14.981  -6.976  1.00  0.00     0.016 A 
ATOM     13  C   UNL     1      -6.185 -15.629  -5.591  1.00  0.00     0.010 A 
ATOM     14  C   UNL     1      -4.379 -16.263  -7.067  1.00  0.00     0.010 A 
ATOM     15  C   UNL     1      -5.575 -16.576  -6.420  1.00  0.00    -0.014 A 
BRANCH  15  16
ATOM     16  C   UNL     1      -6.304 -17.732  -6.969  1.00  0.00     0.031 A 
ATOM     17  C   UNL     1      -6.169 -19.112  -6.422  1.00  0.00     0.074 A 
ATOM     18  C   UNL     1      -6.928 -17.480  -8.136  1.00  0.00     0.049 A 
ATOM     19  N   UNL     1      -6.716 -20.214  -6.861  1.00  0.00    -0.248 NA
ATOM     20  C   UNL     1      -5.306 -19.289  -5.245  1.00  0.00     0.031 C 
ATOM     21  C   UNL     1      -7.007 -16.154  -8.767  1.00  0.00     0.029 A 
ATOM     22  N   UNL     1      -7.548 -18.306  -9.025  1.00  0.00    -0.354 N 
ATOM     23  C   UNL     1      -6.314 -21.215  -5.986  1.00  0.00     0.074 A 
ATOM     24  C   UNL     1      -5.415 -20.597  -5.031  1.00  0.00     0.031 C 
ATOM     25  C   UNL     1      -7.605 -16.265  -9.956  1.00  0.00     0.029 A 
ATOM     26  C   UNL     1      -7.974 -17.657 -10.157  1.00  0.00     0.049 A 
ATOM     27  H   UNL     1      -7.676 -19.270  -8.872  1.00  0.00     0.167 HD
ATOM     28  C   UNL     1      -6.693 -22.517  -5.985  1.00  0.00     0.037 A 
ATOM     29  C   UNL     1      -8.620 -18.130 -11.233  1.00  0.00     0.037 A 
ATOM     30  C   UNL     1      -7.525 -23.094  -7.018  1.00  0.00     0.049 A 
ATOM     31  C   UNL     1      -9.004 -19.573 -11.226  1.00  0.00     0.074 A 
ATOM     32  C   UNL     1      -8.005 -24.387  -7.127  1.00  0.00     0.029 A 
ATOM     33  N   UNL     1      -7.978 -22.409  -8.143  1.00  0.00    -0.354 N 
ATOM     34  N   UNL     1      -8.720 -20.491 -10.331  1.00  0.00    -0.248 NA
ATOM     35  C   UNL     1      -9.821 -20.040 -12.346  1.00  0.00     0.031 C 
ATOM     36  C   UNL     1      -8.704 -24.494  -8.337  1.00  0.00     0.029 A 
ATOM     37  C   UNL     1      -8.710 -23.256  -8.961  1.00  0.00     0.049 A 
ATOM     38  H   UNL     1      -7.803 -21.459  -8.330  1.00  0.00     0.167 HD
ATOM     39  C   UNL     1      -9.343 -21.649 -10.767  1.00  0.00     0.074 A 
ATOM     40  C   UNL     1     -10.035 -21.301 -11.998  1.00  0.00     0.031 C 
ATOM     41  C   UNL     1      -9.349 -22.884 -10.204  1.00  0.00     0.037 A 
BRANCH  28  42
ATOM     42  C   UNL     1      -6.234 -23.381  -4.835  1.00  0.00     0.058 A 
ATOM     43  C   UNL     1      -6.683 -23.140  -3.523  1.00  0.00     0.135 A 
ATOM     44  C   UNL     1      -5.379 -24.478  -5.029  1.00  0.00     0.135 A 
ATOM     45  F   UNL     1      -7.505 -22.110  -3.268  1.00  0.00    -0.206 F 
ATOM     46  C   UNL     1      -6.270 -23.924  -2.449  1.00  0.00     0.059 A 
ATOM     47  C   UNL     1      -4.973 -25.294  -3.971  1.00  0.00     0.059 A 
ATOM     48  F   UNL     1      -4.923 -24.772  -6.257  1.00  0.00    -0.206 F 
ATOM     49  C   UNL     1      -5.411 -24.997  -2.681  1.00  0.00     0.060 A 
BRANCH  49  50
ATOM     50  S   UNL     1      -4.867 -25.985  -1.270  1.00  0.00     0.124 S 
ATOM     51  O   UNL     1      -4.022 -25.030  -0.554  1.00  0.00    -0.237 OA
ATOM     52  O   UNL     1      -6.135 -26.314  -0.616  1.00  0.00    -0.237 OA
ATOM     53  O   UNL     1      -4.170 -27.105  -1.879  1.00  0.00    -0.744 OA
ENDBRANCH  49  50
ENDBRANCH  28  42
BRANCH  29  54
ATOM     54  C   UNL     1      -9.050 -17.173 -12.280  1.00  0.00     0.058 A 
ATOM     55  C   UNL     1     -10.380 -16.730 -12.313  1.00  0.00     0.135 A 
ATOM     56  C   UNL     1      -8.130 -16.560 -13.145  1.00  0.00     0.135 A 
ATOM     57  F   UNL     1     -11.287 -17.272 -11.486  1.00  0.00    -0.206 F 
ATOM     58  C   UNL     1     -10.785 -15.711 -13.165  1.00  0.00     0.059 A 
ATOM     59  C   UNL     1      -8.508 -15.524 -13.994  1.00  0.00     0.059 A 
ATOM     60  F   UNL     1      -6.836 -16.917 -13.114  1.00  0.00    -0.206 F 
ATOM     61  C   UNL     1      -9.838 -15.105 -13.994  1.00  0.00     0.060 A 
BRANCH  61  62
ATOM     62  S   UNL     1     -10.367 -13.721 -15.025  1.00  0.00     0.124 S 
ATOM     63  O   UNL     1     -11.268 -14.381 -15.964  1.00  0.00    -0.237 OA
ATOM     64  O   UNL     1     -10.998 -12.839 -14.048  1.00  0.00    -0.237 OA
ATOM     65  O   UNL     1      -9.118 -13.226 -15.593  1.00  0.00    -0.744 OA
ENDBRANCH  61  62
ENDBRANCH  29  54
BRANCH  41  66
ATOM     66  C   UNL     1     -10.116 -23.941 -10.945  1.00  0.00     0.058 A 
ATOM     67  C   UNL     1      -9.658 -24.452 -12.170  1.00  0.00     0.135 A 
ATOM     68  C   UNL     1     -11.319 -24.447 -10.428  1.00  0.00     0.135 A 
ATOM     69  F   UNL     1      -8.520 -23.990 -12.713  1.00  0.00    -0.206 F 
ATOM     70  C   UNL     1     -10.388 -25.398 -12.878  1.00  0.00     0.059 A 
ATOM     71  C   UNL     1     -12.048 -25.419 -11.103  1.00  0.00     0.059 A 
ATOM     72  F   UNL     1     -11.797 -23.996  -9.258  1.00  0.00    -0.206 F 
ATOM     73  C   UNL     1     -11.582 -25.875 -12.336  1.00  0.00     0.060 A 
BRANCH  73  74
ATOM     74  S   UNL     1     -12.515 -27.106 -13.268  1.00  0.00     0.124 S 
ATOM     75  O   UNL     1     -13.018 -26.310 -14.383  1.00  0.00    -0.237 OA
ATOM     76  O   UNL     1     -11.487 -28.086 -13.602  1.00  0.00    -0.237 OA
ATOM     77  O   UNL     1     -13.524 -27.561 -12.317  1.00  0.00    -0.744 OA
ENDBRANCH  73  74
ENDBRANCH  41  66
ENDBRANCH  15  16
ENDBRANCH   8  10
ENDBRANCH   7   8
ENDBRANCH   6   7
ENDBRANCH   5   6
ENDBRANCH   4   5
ENDBRANCH   3   4
ENDBRANCH   2   3
ENDBRANCH   1   2
BRANCH   1  78
ATOM     78  C   UNL     1       0.071 -16.924  -3.609  1.00  0.00     0.188 C 
BRANCH  78  79
ATOM     79  C   UNL     1      -0.017 -18.160  -4.503  1.00  0.00     0.188 C 
BRANCH  79  80
ATOM     80  O   UNL     1      -0.701 -19.328  -4.093  1.00  0.00    -0.376 OA
BRANCH  80  81
ATOM     81  C   UNL     1      -0.939 -19.575  -2.717  1.00  0.00     0.202 C 
BRANCH  81  82
ATOM     82  C   UNL     1       0.274 -19.816  -1.805  1.00  0.00     0.261 C 
BRANCH  82  83
ATOM     83  O   UNL     1       1.202 -18.714  -1.715  1.00  0.00    -0.461 OA
BRANCH  83  84
ATOM     84  C   UNL     1       2.424 -18.863  -2.297  1.00  0.00     0.335 C 
ATOM     85  O   UNL     1       2.830 -19.897  -2.816  1.00  0.00    -0.249 OA
BRANCH  84  86
ATOM     86  C   UNL     1       3.266 -17.548  -2.304  1.00  0.00     0.228 C 
ATOM     87  C   UNL     1       3.696 -17.196  -3.740  1.00  0.00     0.047 C 
ATOM     88  O   UNL     1       2.739 -16.333  -1.745  1.00  0.00    -0.361 OA
ATOM     89  C   UNL     1       3.303 -15.743  -3.945  1.00  0.00     0.037 C 
ATOM     90  C   UNL     1       3.204 -15.222  -2.525  1.00  0.00     0.138 C 
BRANCH  90  91
ATOM     91  C   UNL     1       2.413 -13.900  -2.332  1.00  0.00     0.147 C 
BRANCH  91  92
ATOM     92  N   UNL     1       0.953 -13.932  -2.393  1.00  0.00    -0.353 N 
ATOM     93  C   UNL     1      -0.025 -13.724  -1.465  1.00  0.00     0.228 C 
ATOM     94  H   UNL     1       0.604 -14.149  -3.288  1.00  0.00     0.163 HD
ATOM     95  O   UNL     1      -1.059 -13.207  -1.919  1.00  0.00    -0.274 OA
BRANCH  93  96
ATOM     96  C   UNL     1       0.018 -14.052   0.037  1.00  0.00     0.120 C 
ATOM     97  C   UNL     1       1.375 -14.436   0.622  1.00  0.00     0.093 C 
ATOM     98  C   UNL     1      -0.969 -15.143   0.436  1.00  0.00    -0.021 A 
ATOM     99  S   UNL     1       1.208 -15.833   1.758  1.00  0.00    -0.125 SA
ATOM    100  C   UNL     1      -0.424 -16.180   1.192  1.00  0.00     0.011 A 
ATOM    101  C   UNL     1      -2.337 -15.166   0.154  1.00  0.00     0.006 A 
ATOM    102  C   UNL     1      -1.157 -17.313   1.516  1.00  0.00     0.015 A 
ATOM    103  C   UNL     1      -3.096 -16.291   0.504  1.00  0.00     0.000 A 
ATOM    104  C   UNL     1      -2.497 -17.379   1.143  1.00  0.00     0.001 A 
ENDBRANCH  93  96
ENDBRANCH  91  92
ENDBRANCH  90  91
ENDBRANCH  84  86
ENDBRANCH  83  84
ENDBRANCH  82  83
ENDBRANCH  81  82
ENDBRANCH  80  81
ENDBRANCH  79  80
ENDBRANCH  78  79
ENDBRANCH   1  78
TORSDOF 26
