REMARK SMILES Cc1ccc(C#N)cc1Nc1cc(C)c(N)c(C(=O)OCCOCCOCCOCCOC(=O)c2ccc(-c3c4nc(c(-c5c(F)cc(S(=O)(=O)[O-])cc5F)c5ccc([nH]5)c(-c5c(F)cc(S(=O)(=O)[O-])cc5F)c5nc(c(-c6c(F)cc(S(=O)(=O)[O-])cc6F)c6ccc3[nH]6)C=C5)C=C4)cc2)c1
REMARK SMILES IDX 26 1 25 2 24 3 23 4 22 5 21 6 20 7 18 8 19 9 17 10 11 11
REMARK SMILES IDX 12 12 101 13 13 14 14 15 15 16 10 17 9 19 1 20 2 21 3 22
REMARK SMILES IDX 4 23 8 24 5 25 6 26 7 27 16 28 27 31 28 32 29 33 30 34 31 35
REMARK SMILES IDX 32 36 33 37 34 38 35 39 36 40 100 41 37 42 99 43 38 44 39 45
REMARK SMILES IDX 40 46 93 47 41 48 98 49 92 50 94 51 42 52 97 53 91 54 90 55
REMARK SMILES IDX 43 57 77 58 56 59 76 60 57 61 60 62 75 63 95 64 58 65 59 66
REMARK SMILES IDX 74 68 96 69 61 70 44 71 45 72 54 73 46 74 47 75 53 76 55 77
REMARK SMILES IDX 48 78 49 79 50 80 51 81 52 82 78 83 79 84 88 85 80 86 81 87
REMARK SMILES IDX 87 88 89 89 82 90 83 91 84 92 85 93 86 94 62 95 63 96 72 97
REMARK SMILES IDX 64 98 65 99 71 100 73 101 66 102 67 103 68 104 69 105 70 106
REMARK H PARENT 10 18 16 29 16 30 94 56 60 67
REMARK Flexibility Score: inf
ROOT
ATOM      1  O   UNL     1       0.044   5.268   6.221  1.00  0.00    -0.377 OA
ENDROOT
BRANCH   1   2
ATOM      2  C   UNL     1       1.293   5.850   5.878  1.00  0.00     0.188 C 
BRANCH   2   3
ATOM      3  C   UNL     1       1.468   7.378   5.702  1.00  0.00     0.188 C 
BRANCH   3   4
ATOM      4  O   UNL     1       0.335   8.166   6.000  1.00  0.00    -0.376 OA
BRANCH   4   5
ATOM      5  C   UNL     1      -0.481   8.710   4.984  1.00  0.00     0.202 C 
BRANCH   5   6
ATOM      6  C   UNL     1      -0.956   7.867   3.790  1.00  0.00     0.261 C 
BRANCH   6   7
ATOM      7  O   UNL     1      -0.075   6.832   3.357  1.00  0.00    -0.460 OA
BRANCH   7   8
ATOM      8  C   UNL     1       0.995   7.213   2.622  1.00  0.00     0.340 C 
ATOM      9  O   UNL     1       1.270   8.352   2.282  1.00  0.00    -0.246 OA
BRANCH   8  10
ATOM     10  C   UNL     1       1.910   6.047   2.488  1.00  0.00     0.085 A 
ATOM     11  C   UNL     1       2.170   3.698   1.946  1.00  0.00     0.040 A 
ATOM     12  C   UNL     1       3.548   3.837   2.114  1.00  0.00     0.031 A 
ATOM     13  C   UNL     1       1.352   4.795   2.212  1.00  0.00     0.044 A 
ATOM     14  C   UNL     1       4.128   5.069   2.478  1.00  0.00    -0.025 A 
ATOM     15  C   UNL     1       5.631   5.125   2.523  1.00  0.00     0.047 C 
ATOM     16  C   UNL     1       3.309   6.207   2.630  1.00  0.00     0.049 A 
BRANCH  11  17
ATOM     17  N   UNL     1       1.663   2.568   1.278  1.00  0.00    -0.355 N 
ATOM     18  H   UNL     1       1.843   1.691   1.687  1.00  0.00     0.167 HD
BRANCH  17  19
ATOM     19  C   UNL     1       0.919   2.570   0.073  1.00  0.00     0.043 A 
ATOM     20  C   UNL     1       0.791   0.030   0.072  1.00  0.00     0.046 C 
ATOM     21  C   UNL     1       0.448   1.377  -0.504  1.00  0.00    -0.027 A 
ATOM     22  C   UNL     1      -0.340   1.436  -1.671  1.00  0.00     0.007 A 
ATOM     23  C   UNL     1      -0.657   2.658  -2.275  1.00  0.00     0.020 A 
ATOM     24  C   UNL     1       0.605   3.781  -0.574  1.00  0.00     0.045 A 
ATOM     25  C   UNL     1      -0.173   3.837  -1.729  1.00  0.00     0.054 A 
BRANCH  25  26
ATOM     26  C   UNL     1      -0.410   5.115  -2.341  1.00  0.00     0.099 C 
ATOM     27  N   UNL     1      -0.525   6.160  -2.821  1.00  0.00    -0.192 NA
ENDBRANCH  25  26
ENDBRANCH  17  19
ENDBRANCH  11  17
BRANCH  16  28
ATOM     28  N   UNL     1       3.841   7.418   3.072  1.00  0.00    -0.398 N 
ATOM     29  H   UNL     1       4.816   7.522   3.168  1.00  0.00     0.156 HD
ATOM     30  H   UNL     1       3.243   8.170   3.287  1.00  0.00     0.156 HD
ENDBRANCH  16  28
ENDBRANCH   8  10
ENDBRANCH   7   8
ENDBRANCH   6   7
ENDBRANCH   5   6
ENDBRANCH   4   5
ENDBRANCH   3   4
ENDBRANCH   2   3
ENDBRANCH   1   2
BRANCH   1  31
ATOM     31  C   UNL     1      -0.893   5.986   7.006  1.00  0.00     0.188 C 
BRANCH  31  32
ATOM     32  C   UNL     1      -0.420   6.829   8.213  1.00  0.00     0.188 C 
BRANCH  32  33
ATOM     33  O   UNL     1       0.980   6.934   8.364  1.00  0.00    -0.376 OA
BRANCH  33  34
ATOM     34  C   UNL     1       1.691   6.077   9.230  1.00  0.00     0.202 C 
BRANCH  34  35
ATOM     35  C   UNL     1       1.352   4.589   9.402  1.00  0.00     0.261 C 
BRANCH  35  36
ATOM     36  O   UNL     1      -0.008   4.184   9.238  1.00  0.00    -0.460 OA
BRANCH  36  37
ATOM     37  C   UNL     1      -0.874   4.459  10.239  1.00  0.00     0.338 C 
ATOM     38  O   UNL     1      -0.636   5.052  11.274  1.00  0.00    -0.246 OA
BRANCH  37  39
ATOM     39  C   UNL     1      -2.218   4.085   9.740  1.00  0.00     0.060 A 
ATOM     40  C   UNL     1      -2.466   2.769   9.347  1.00  0.00     0.016 A 
ATOM     41  C   UNL     1      -3.204   5.070   9.582  1.00  0.00     0.016 A 
ATOM     42  C   UNL     1      -3.711   2.435   8.815  1.00  0.00     0.010 A 
ATOM     43  C   UNL     1      -4.444   4.736   9.029  1.00  0.00     0.010 A 
ATOM     44  C   UNL     1      -4.716   3.410   8.667  1.00  0.00    -0.014 A 
BRANCH  44  45
ATOM     45  C   UNL     1      -6.095   2.990   8.318  1.00  0.00     0.031 A 
ATOM     46  C   UNL     1      -6.694   3.230   6.965  1.00  0.00     0.074 A 
ATOM     47  C   UNL     1      -6.811   2.365   9.273  1.00  0.00     0.049 A 
ATOM     48  N   UNL     1      -7.851   2.829   6.501  1.00  0.00    -0.248 NA
ATOM     49  C   UNL     1      -5.905   4.026   6.016  1.00  0.00     0.031 C 
ATOM     50  C   UNL     1      -6.338   2.112  10.635  1.00  0.00     0.029 A 
ATOM     51  N   UNL     1      -8.067   1.818   9.247  1.00  0.00    -0.354 N 
ATOM     52  C   UNL     1      -7.923   3.298   5.196  1.00  0.00     0.074 A 
ATOM     53  C   UNL     1      -6.715   4.065   4.964  1.00  0.00     0.031 C 
ATOM     54  C   UNL     1      -7.271   1.417  11.300  1.00  0.00     0.029 A 
ATOM     55  C   UNL     1      -8.423   1.211  10.428  1.00  0.00     0.049 A 
ATOM     56  H   UNL     1      -8.657   1.855   8.460  1.00  0.00     0.167 HD
ATOM     57  C   UNL     1      -8.898   3.085   4.276  1.00  0.00     0.037 A 
ATOM     58  C   UNL     1      -9.548   0.556  10.774  1.00  0.00     0.037 A 
ATOM     59  C   UNL     1     -10.108   2.340   4.534  1.00  0.00     0.049 A 
ATOM     60  C   UNL     1     -10.637   0.384   9.754  1.00  0.00     0.074 A 
ATOM     61  C   UNL     1     -11.141   2.049   3.658  1.00  0.00     0.029 A 
ATOM     62  N   UNL     1     -10.462   1.785   5.757  1.00  0.00    -0.354 N 
ATOM     63  N   UNL     1     -10.658   0.766   8.499  1.00  0.00    -0.248 NA
ATOM     64  C   UNL     1     -11.853  -0.311  10.193  1.00  0.00     0.031 C 
ATOM     65  C   UNL     1     -12.144   1.379   4.366  1.00  0.00     0.029 A 
ATOM     66  C   UNL     1     -11.711   1.187   5.667  1.00  0.00     0.049 A 
ATOM     67  H   UNL     1      -9.907   1.812   6.570  1.00  0.00     0.167 HD
ATOM     68  C   UNL     1     -11.882   0.343   7.993  1.00  0.00     0.074 A 
ATOM     69  C   UNL     1     -12.562  -0.345   9.072  1.00  0.00     0.031 C 
ATOM     70  C   UNL     1     -12.392   0.511   6.747  1.00  0.00     0.037 A 
BRANCH  57  71
ATOM     71  C   UNL     1      -8.702   3.663   2.897  1.00  0.00     0.058 A 
ATOM     72  C   UNL     1      -7.707   3.177   2.033  1.00  0.00     0.135 A 
ATOM     73  C   UNL     1      -9.554   4.667   2.407  1.00  0.00     0.135 A 
ATOM     74  F   UNL     1      -6.862   2.218   2.445  1.00  0.00    -0.206 F 
ATOM     75  C   UNL     1      -7.540   3.690   0.751  1.00  0.00     0.059 A 
ATOM     76  C   UNL     1      -9.427   5.172   1.115  1.00  0.00     0.059 A 
ATOM     77  F   UNL     1     -10.531   5.163   3.182  1.00  0.00    -0.206 F 
ATOM     78  C   UNL     1      -8.405   4.688   0.300  1.00  0.00     0.060 A 
BRANCH  78  79
ATOM     79  S   UNL     1      -8.157   5.349  -1.361  1.00  0.00     0.124 S 
ATOM     80  O   UNL     1      -6.871   6.023  -1.214  1.00  0.00    -0.237 OA
ATOM     81  O   UNL     1      -8.149   4.139  -2.176  1.00  0.00    -0.237 OA
ATOM     82  O   UNL     1      -9.306   6.228  -1.554  1.00  0.00    -0.744 OA
ENDBRANCH  78  79
ENDBRANCH  57  71
BRANCH  58  83
ATOM     83  C   UNL     1      -9.665  -0.015  12.141  1.00  0.00     0.058 A 
ATOM     84  C   UNL     1      -9.644  -1.401  12.347  1.00  0.00     0.135 A 
ATOM     85  C   UNL     1      -9.737   0.814  13.273  1.00  0.00     0.135 A 
ATOM     86  F   UNL     1      -9.583  -2.235  11.297  1.00  0.00    -0.206 F 
ATOM     87  C   UNL     1      -9.688  -1.948  13.624  1.00  0.00     0.059 A 
ATOM     88  C   UNL     1      -9.751   0.292  14.561  1.00  0.00     0.059 A 
ATOM     89  F   UNL     1      -9.743   2.149  13.130  1.00  0.00    -0.206 F 
ATOM     90  C   UNL     1      -9.728  -1.091  14.727  1.00  0.00     0.060 A 
BRANCH  90  91
ATOM     91  S   UNL     1      -9.707  -1.816  16.380  1.00  0.00     0.124 S 
ATOM     92  O   UNL     1     -10.992  -2.504  16.418  1.00  0.00    -0.237 OA
ATOM     93  O   UNL     1      -8.526  -2.671  16.319  1.00  0.00    -0.237 OA
ATOM     94  O   UNL     1      -9.588  -0.654  17.256  1.00  0.00    -0.744 OA
ENDBRANCH  90  91
ENDBRANCH  58  83
BRANCH  70  95
ATOM     95  C   UNL     1     -13.759  -0.060   6.468  1.00  0.00     0.058 A 
ATOM     96  C   UNL     1     -14.918   0.489   7.040  1.00  0.00     0.135 A 
ATOM     97  C   UNL     1     -13.920  -1.125   5.566  1.00  0.00     0.135 A 
ATOM     98  F   UNL     1     -14.826   1.503   7.915  1.00  0.00    -0.206 F 
ATOM     99  C   UNL     1     -16.183  -0.009   6.743  1.00  0.00     0.059 A 
ATOM    100  C   UNL     1     -15.178  -1.616   5.227  1.00  0.00     0.059 A 
ATOM    101  F   UNL     1     -12.848  -1.685   4.982  1.00  0.00    -0.206 F 
ATOM    102  C   UNL     1     -16.304  -1.057   5.828  1.00  0.00     0.060 A 
BRANCH 102 103
ATOM    103  S   UNL     1     -17.956  -1.663   5.427  1.00  0.00     0.124 S 
ATOM    104  O   UNL     1     -18.367  -2.263   6.692  1.00  0.00    -0.237 OA
ATOM    105  O   UNL     1     -18.651  -0.436   5.051  1.00  0.00    -0.237 OA
ATOM    106  O   UNL     1     -17.720  -2.604   4.336  1.00  0.00    -0.744 OA
ENDBRANCH 102 103
ENDBRANCH  70  95
ENDBRANCH  44  45
ENDBRANCH  37  39
ENDBRANCH  36  37
ENDBRANCH  35  36
ENDBRANCH  34  35
ENDBRANCH  33  34
ENDBRANCH  32  33
ENDBRANCH  31  32
ENDBRANCH   1  31
TORSDOF 27
