REMARK SMILES O=C(OCCOCCOCCOCCOC(=O)c1ccc(-c2c3nc(c(-c4c(F)cc(S(=O)(=O)[O-])cc4F)c4ccc([nH]4)c(-c4c(F)cc(S(=O)(=O)[O-])cc4F)c4nc(c(-c5c(F)cc(S(=O)(=O)[O-])cc5F)c5ccc2[nH]5)C=C4)C=C3)cc1)C1=Cc2cc(Cl)cc(-c3ccc(CO)cc3)c2O[C@@H]1C(F)(F)F
REMARK SMILES IDX 9 1 8 2 7 3 6 4 5 5 4 6 3 7 2 8 1 9 84 10 85 11 102 12 86 13
REMARK SMILES IDX 101 14 87 15 100 16 88 17 91 18 89 19 90 20 103 21 104 22
REMARK SMILES IDX 105 23 106 24 92 25 93 26 99 27 94 28 98 29 95 30 96 31
REMARK SMILES IDX 97 32 10 34 11 35 12 36 13 37 14 38 15 39 16 40 17 41 18 42
REMARK SMILES IDX 19 43 83 44 20 45 82 46 21 47 22 48 23 49 76 50 24 51 81 52
REMARK SMILES IDX 75 53 77 54 25 55 80 56 74 57 73 58 26 60 60 61 39 62 59 63
REMARK SMILES IDX 40 64 43 65 58 66 78 67 41 68 42 69 57 71 79 72 44 73 27 74
REMARK SMILES IDX 28 75 37 76 29 77 30 78 36 79 38 80 31 81 32 82 33 83 34 84
REMARK SMILES IDX 35 85 61 86 62 87 71 88 63 89 64 90 70 91 72 92 65 93 66 94
REMARK SMILES IDX 67 95 68 96 69 97 45 98 46 99 55 100 47 101 48 102 54 103
REMARK SMILES IDX 56 104 49 105 50 106 51 107 52 108 53 109
REMARK H PARENT 97 33 77 59 43 70
REMARK Flexibility Score: inf
ROOT
ATOM      1  O   UNL     1       2.535   2.048   3.474  1.00  0.00    -0.377 OA
ENDROOT
BRANCH   1   2
ATOM      2  C   UNL     1       1.704   1.430   2.529  1.00  0.00     0.188 C 
BRANCH   2   3
ATOM      3  C   UNL     1       2.101  -0.028   2.379  1.00  0.00     0.188 C 
BRANCH   3   4
ATOM      4  O   UNL     1       3.451  -0.486   2.030  1.00  0.00    -0.376 OA
BRANCH   4   5
ATOM      5  C   UNL     1       4.258  -0.759   0.604  1.00  0.00     0.202 C 
BRANCH   5   6
ATOM      6  C   UNL     1       3.549  -0.439  -1.418  1.00  0.00     0.261 C 
BRANCH   6   7
ATOM      7  O   UNL     1       2.709  -1.411  -2.257  1.00  0.00    -0.460 OA
BRANCH   7   8
ATOM      8  C   UNL     1       2.967  -2.691  -1.969  1.00  0.00     0.338 C 
ATOM      9  O   UNL     1       2.391  -3.684  -2.339  1.00  0.00    -0.246 OA
BRANCH   8  10
ATOM     10  C   UNL     1       3.775  -2.430  -0.795  1.00  0.00     0.087 C 
ATOM     11  C   UNL     1       5.141  -2.020  -1.106  1.00  0.00     0.027 C 
ATOM     12  C   UNL     1       2.455  -1.319   0.053  1.00  0.00     0.316 C 
ATOM     13  C   UNL     1       5.739  -0.332  -0.963  1.00  0.00     0.019 A 
ATOM     14  O   UNL     1       3.040   0.546   0.125  1.00  0.00    -0.475 OA
ATOM     15  C   UNL     1       7.012  -0.092  -1.415  1.00  0.00     0.032 A 
ATOM     16  C   UNL     1       4.719   0.998  -0.491  1.00  0.00     0.135 A 
ATOM     17  C   UNL     1       7.388   1.252  -1.464  1.00  0.00     0.042 A 
ATOM     18  C   UNL     1       5.176   2.313  -0.641  1.00  0.00     0.026 A 
ATOM     19  Cl  UNL     1       8.993   1.604  -2.015  1.00  0.00    -0.084 Cl
ATOM     20  C   UNL     1       6.534   2.363  -1.112  1.00  0.00     0.033 A 
BRANCH  12  21
ATOM     21  C   UNL     1       2.173  -2.513   1.207  1.00  0.00     0.430 C 
ATOM     22  F   UNL     1       1.257  -2.294   2.168  1.00  0.00    -0.167 F 
ATOM     23  F   UNL     1       1.666  -3.592   0.530  1.00  0.00    -0.167 F 
ATOM     24  F   UNL     1       3.290  -2.997   1.809  1.00  0.00    -0.167 F 
ENDBRANCH  12  21
BRANCH  18  25
ATOM     25  C   UNL     1       4.559   3.603  -0.345  1.00  0.00    -0.015 A 
ATOM     26  C   UNL     1       3.910   4.420  -1.280  1.00  0.00     0.009 A 
ATOM     27  C   UNL     1       4.792   4.174   0.893  1.00  0.00     0.009 A 
ATOM     28  C   UNL     1       3.307   5.641  -0.896  1.00  0.00     0.007 A 
ATOM     29  C   UNL     1       4.055   5.276   1.314  1.00  0.00     0.007 A 
ATOM     30  C   UNL     1       3.284   6.023   0.442  1.00  0.00    -0.023 A 
BRANCH  30  31
ATOM     31  C   UNL     1       2.485   7.177   0.988  1.00  0.00     0.191 C 
BRANCH  31  32
ATOM     32  O   UNL     1       3.263   8.328   1.255  1.00  0.00    -0.392 OA
ATOM     33  H   UNL     1       3.925   8.121   1.933  1.00  0.00     0.211 HD
ENDBRANCH  31  32
ENDBRANCH  30  31
ENDBRANCH  18  25
ENDBRANCH   8  10
ENDBRANCH   7   8
ENDBRANCH   6   7
ENDBRANCH   5   6
ENDBRANCH   4   5
ENDBRANCH   3   4
ENDBRANCH   2   3
ENDBRANCH   1   2
BRANCH   1  34
ATOM     34  C   UNL     1       3.816   2.247   2.927  1.00  0.00     0.188 C 
BRANCH  34  35
ATOM     35  C   UNL     1       5.043   1.705   3.655  1.00  0.00     0.188 C 
BRANCH  35  36
ATOM     36  O   UNL     1       4.929   0.972   4.856  1.00  0.00    -0.376 OA
BRANCH  36  37
ATOM     37  C   UNL     1       3.784   1.176   5.659  1.00  0.00     0.202 C 
BRANCH  37  38
ATOM     38  C   UNL     1       3.429   2.601   6.146  1.00  0.00     0.261 C 
BRANCH  38  39
ATOM     39  O   UNL     1       3.957   3.727   5.418  1.00  0.00    -0.460 OA
BRANCH  39  40
ATOM     40  C   UNL     1       5.231   4.109   5.694  1.00  0.00     0.338 C 
ATOM     41  O   UNL     1       5.996   3.580   6.479  1.00  0.00    -0.246 OA
BRANCH  40  42
ATOM     42  C   UNL     1       5.606   5.201   4.750  1.00  0.00     0.060 A 
ATOM     43  C   UNL     1       6.742   5.079   3.927  1.00  0.00     0.016 A 
ATOM     44  C   UNL     1       4.803   6.334   4.643  1.00  0.00     0.016 A 
ATOM     45  C   UNL     1       7.065   6.072   2.975  1.00  0.00     0.010 A 
ATOM     46  C   UNL     1       5.126   7.319   3.698  1.00  0.00     0.010 A 
ATOM     47  C   UNL     1       6.262   7.211   2.851  1.00  0.00    -0.014 A 
BRANCH  47  48
ATOM     48  C   UNL     1       6.654   8.444   2.090  1.00  0.00     0.031 A 
ATOM     49  C   UNL     1       6.987   9.634   2.951  1.00  0.00     0.074 A 
ATOM     50  C   UNL     1       6.563   8.620   0.751  1.00  0.00     0.049 A 
ATOM     51  N   UNL     1       7.055  10.901   2.645  1.00  0.00    -0.248 NA
ATOM     52  C   UNL     1       7.210   9.339   4.379  1.00  0.00     0.031 C 
ATOM     53  C   UNL     1       6.290   7.593  -0.249  1.00  0.00     0.029 A 
ATOM     54  N   UNL     1       6.590   9.788   0.007  1.00  0.00    -0.354 N 
ATOM     55  C   UNL     1       7.311  11.545   3.846  1.00  0.00     0.074 A 
ATOM     56  C   UNL     1       7.235  10.554   4.893  1.00  0.00     0.031 C 
ATOM     57  C   UNL     1       6.053   8.179  -1.441  1.00  0.00     0.029 A 
ATOM     58  C   UNL     1       6.187   9.630  -1.305  1.00  0.00     0.049 A 
ATOM     59  H   UNL     1       6.870  10.654   0.381  1.00  0.00     0.167 HD
ATOM     60  C   UNL     1       7.655  12.833   4.067  1.00  0.00     0.037 A 
ATOM     61  C   UNL     1       5.941  10.541  -2.276  1.00  0.00     0.037 A 
ATOM     62  C   UNL     1       7.738  13.824   3.036  1.00  0.00     0.049 A 
ATOM     63  C   UNL     1       6.215  12.007  -2.012  1.00  0.00     0.074 A 
ATOM     64  C   UNL     1       8.152  15.137   3.139  1.00  0.00     0.029 A 
ATOM     65  N   UNL     1       7.377  13.613   1.714  1.00  0.00    -0.354 N 
ATOM     66  N   UNL     1       6.580  12.589  -0.894  1.00  0.00    -0.248 NA
ATOM     67  C   UNL     1       6.095  12.935  -3.150  1.00  0.00     0.031 C 
ATOM     68  C   UNL     1       7.975  15.743   1.892  1.00  0.00     0.029 A 
ATOM     69  C   UNL     1       7.534  14.783   0.995  1.00  0.00     0.049 A 
ATOM     70  H   UNL     1       7.057  12.759   1.344  1.00  0.00     0.167 HD
ATOM     71  C   UNL     1       6.815  13.926  -1.215  1.00  0.00     0.074 A 
ATOM     72  C   UNL     1       6.516  14.077  -2.621  1.00  0.00     0.031 C 
ATOM     73  C   UNL     1       7.273  14.924  -0.417  1.00  0.00     0.037 A 
BRANCH  60  74
ATOM     74  C   UNL     1       7.987  13.203   5.484  1.00  0.00     0.058 A 
ATOM     75  C   UNL     1       9.082  12.626   6.154  1.00  0.00     0.135 A 
ATOM     76  C   UNL     1       7.175  14.094   6.200  1.00  0.00     0.135 A 
ATOM     77  F   UNL     1       9.881  11.751   5.521  1.00  0.00    -0.206 F 
ATOM     78  C   UNL     1       9.315  12.861   7.501  1.00  0.00     0.059 A 
ATOM     79  C   UNL     1       7.419  14.382   7.538  1.00  0.00     0.059 A 
ATOM     80  F   UNL     1       6.117  14.672   5.610  1.00  0.00    -0.206 F 
ATOM     81  C   UNL     1       8.475  13.739   8.185  1.00  0.00     0.060 A 
BRANCH  81  82
ATOM     82  S   UNL     1       8.781  14.016   9.940  1.00  0.00     0.124 S 
ATOM     83  O   UNL     1       8.370  12.737  10.512  1.00  0.00    -0.237 OA
ATOM     84  O   UNL     1      10.214  14.289   9.963  1.00  0.00    -0.237 OA
ATOM     85  O   UNL     1       7.922  15.152  10.260  1.00  0.00    -0.744 OA
ENDBRANCH  81  82
ENDBRANCH  60  74
BRANCH  61  86
ATOM     86  C   UNL     1       5.457  10.115  -3.627  1.00  0.00     0.058 A 
ATOM     87  C   UNL     1       6.311  10.144  -4.742  1.00  0.00     0.135 A 
ATOM     88  C   UNL     1       4.130   9.709  -3.844  1.00  0.00     0.135 A 
ATOM     89  F   UNL     1       7.581  10.553  -4.600  1.00  0.00    -0.206 F 
ATOM     90  C   UNL     1       5.872   9.792  -6.017  1.00  0.00     0.059 A 
ATOM     91  C   UNL     1       3.671   9.336  -5.109  1.00  0.00     0.059 A 
ATOM     92  F   UNL     1       3.265   9.664  -2.820  1.00  0.00    -0.206 F 
ATOM     93  C   UNL     1       4.552   9.377  -6.190  1.00  0.00     0.060 A 
BRANCH  93  94
ATOM     94  S   UNL     1       4.027   8.838  -7.835  1.00  0.00     0.124 S 
ATOM     95  O   UNL     1       4.112  10.076  -8.600  1.00  0.00    -0.237 OA
ATOM     96  O   UNL     1       5.029   7.823  -8.149  1.00  0.00    -0.237 OA
ATOM     97  O   UNL     1       2.679   8.327  -7.608  1.00  0.00    -0.744 OA
ENDBRANCH  93  94
ENDBRANCH  61  86
BRANCH  73  98
ATOM     98  C   UNL     1       7.597  16.259  -1.036  1.00  0.00     0.058 A 
ATOM     99  C   UNL     1       6.609  17.154  -1.468  1.00  0.00     0.135 A 
ATOM    100  C   UNL     1       8.935  16.696  -1.069  1.00  0.00     0.135 A 
ATOM    101  F   UNL     1       5.317  16.790  -1.464  1.00  0.00    -0.206 F 
ATOM    102  C   UNL     1       6.934  18.435  -1.910  1.00  0.00     0.059 A 
ATOM    103  C   UNL     1       9.278  17.981  -1.473  1.00  0.00     0.059 A 
ATOM    104  F   UNL     1       9.922  15.883  -0.659  1.00  0.00    -0.206 F 
ATOM    105  C   UNL     1       8.270  18.844  -1.894  1.00  0.00     0.060 A 
BRANCH 105 106
ATOM    106  S   UNL     1       8.667  20.534  -2.391  1.00  0.00     0.124 S 
ATOM    107  O   UNL     1       8.402  20.490  -3.825  1.00  0.00    -0.237 OA
ATOM    108  O   UNL     1       7.728  21.319  -1.595  1.00  0.00    -0.237 OA
ATOM    109  O   UNL     1      10.071  20.679  -2.017  1.00  0.00    -0.744 OA
ENDBRANCH 105 106
ENDBRANCH  73  98
ENDBRANCH  47  48
ENDBRANCH  40  42
ENDBRANCH  39  40
ENDBRANCH  38  39
ENDBRANCH  37  38
ENDBRANCH  36  37
ENDBRANCH  35  36
ENDBRANCH  34  35
ENDBRANCH   1  34
TORSDOF 27
