REMARK SMILES N#Cc1ccccc1Cn1cccc1C(=O)OCCOCCOCCOCCOC(=O)c1ccc(-c2c3nc(c(-c4c(F)cc(S(=O)(=O)[O-])cc4F)c4ccc([nH]4)c(-c4c(F)cc(S(=O)(=O)[O-])cc4F)c4nc(c(-c5c(F)cc(S(=O)(=O)[O-])cc5F)c5ccc2[nH]5)C=C4)C=C3)cc1
REMARK SMILES IDX 23 1 22 2 21 3 20 4 19 5 18 6 17 7 15 8 16 9 14 10 10 11
REMARK SMILES IDX 11 12 12 13 13 14 9 15 8 16 3 17 4 18 5 19 7 20 6 21 2 22
REMARK SMILES IDX 1 23 24 24 25 25 26 26 27 27 28 28 29 29 30 30 31 31 32 32
REMARK SMILES IDX 33 33 97 34 34 35 96 36 35 37 36 38 37 39 90 40 38 41 95 42
REMARK SMILES IDX 89 43 91 44 39 45 94 46 88 47 87 48 40 50 74 51 53 52 73 53
REMARK SMILES IDX 54 54 57 55 72 56 92 57 55 58 56 59 71 61 93 62 58 63 41 64
REMARK SMILES IDX 42 65 51 66 43 67 44 68 50 69 52 70 45 71 46 72 47 73 48 74
REMARK SMILES IDX 49 75 75 76 76 77 85 78 77 79 78 80 84 81 86 82 79 83 80 84
REMARK SMILES IDX 81 85 82 86 83 87 59 88 60 89 69 90 61 91 62 92 68 93 70 94
REMARK SMILES IDX 63 95 64 96 65 97 66 98 67 99
REMARK H PARENT 91 49 57 60
REMARK Flexibility Score: inf
ROOT
ATOM      1  O   UNL     1      -2.132   0.199  -2.702  1.00  0.00    -0.377 OA
ENDROOT
BRANCH   1   2
ATOM      2  C   UNL     1      -1.854  -1.097  -3.207  1.00  0.00     0.188 C 
BRANCH   2   3
ATOM      3  C   UNL     1      -2.891  -1.953  -3.971  1.00  0.00     0.188 C 
BRANCH   3   4
ATOM      4  O   UNL     1      -4.242  -1.695  -3.674  1.00  0.00    -0.376 OA
BRANCH   4   5
ATOM      5  C   UNL     1      -5.004  -2.425  -2.741  1.00  0.00     0.202 C 
BRANCH   5   6
ATOM      6  C   UNL     1      -4.442  -2.946  -1.409  1.00  0.00     0.261 C 
BRANCH   6   7
ATOM      7  O   UNL     1      -3.022  -3.059  -1.310  1.00  0.00    -0.459 OA
BRANCH   7   8
ATOM      8  C   UNL     1      -2.494  -4.234  -1.733  1.00  0.00     0.355 C 
ATOM      9  O   UNL     1      -3.155  -5.188  -2.124  1.00  0.00    -0.244 OA
BRANCH   8  10
ATOM     10  C   UNL     1      -1.053  -4.121  -1.867  1.00  0.00     0.127 A 
ATOM     11  N   UNL     1      -0.107  -3.501  -1.051  1.00  0.00    -0.338 N 
ATOM     12  C   UNL     1       1.142  -3.865  -1.517  1.00  0.00     0.087 A 
ATOM     13  C   UNL     1       1.014  -4.410  -2.769  1.00  0.00     0.020 A 
ATOM     14  C   UNL     1      -0.359  -4.600  -2.977  1.00  0.00     0.035 A 
BRANCH  11  15
ATOM     15  C   UNL     1      -0.326  -2.714   0.183  1.00  0.00     0.159 C 
BRANCH  15  16
ATOM     16  C   UNL     1       0.311  -1.321   0.177  1.00  0.00    -0.010 A 
ATOM     17  C   UNL     1      -0.440  -0.129   0.281  1.00  0.00     0.057 A 
ATOM     18  C   UNL     1       0.192   1.128   0.204  1.00  0.00     0.020 A 
ATOM     19  C   UNL     1       1.576   1.224   0.073  1.00  0.00     0.001 A 
ATOM     20  C   UNL     1       1.714  -1.182   0.136  1.00  0.00     0.007 A 
ATOM     21  C   UNL     1       2.338   0.067   0.063  1.00  0.00     0.000 A 
BRANCH  17  22
ATOM     22  C   UNL     1      -1.855  -0.141   0.569  1.00  0.00     0.099 C 
ATOM     23  N   UNL     1      -2.968  -0.172   0.856  1.00  0.00    -0.192 NA
ENDBRANCH  17  22
ENDBRANCH  15  16
ENDBRANCH  11  15
ENDBRANCH   8  10
ENDBRANCH   7   8
ENDBRANCH   6   7
ENDBRANCH   5   6
ENDBRANCH   4   5
ENDBRANCH   3   4
ENDBRANCH   2   3
ENDBRANCH   1   2
BRANCH   1  24
ATOM     24  C   UNL     1      -3.467   0.567  -2.425  1.00  0.00     0.188 C 
BRANCH  24  25
ATOM     25  C   UNL     1      -4.266   1.054  -3.644  1.00  0.00     0.188 C 
BRANCH  25  26
ATOM     26  O   UNL     1      -3.807   0.745  -4.949  1.00  0.00    -0.376 OA
BRANCH  26  27
ATOM     27  C   UNL     1      -2.553   1.119  -5.497  1.00  0.00     0.202 C 
BRANCH  27  28
ATOM     28  C   UNL     1      -1.503   2.046  -4.877  1.00  0.00     0.261 C 
BRANCH  28  29
ATOM     29  O   UNL     1      -1.811   2.632  -3.636  1.00  0.00    -0.460 OA
BRANCH  29  30
ATOM     30  C   UNL     1      -2.722   3.605  -3.759  1.00  0.00     0.338 C 
ATOM     31  O   UNL     1      -3.399   3.881  -4.735  1.00  0.00    -0.246 OA
BRANCH  30  32
ATOM     32  C   UNL     1      -2.676   4.417  -2.546  1.00  0.00     0.060 A 
ATOM     33  C   UNL     1      -3.809   5.213  -2.391  1.00  0.00     0.016 A 
ATOM     34  C   UNL     1      -1.380   4.863  -2.262  1.00  0.00     0.016 A 
ATOM     35  C   UNL     1      -3.609   6.568  -2.295  1.00  0.00     0.010 A 
ATOM     36  C   UNL     1      -1.173   6.221  -2.225  1.00  0.00     0.010 A 
ATOM     37  C   UNL     1      -2.292   7.065  -2.281  1.00  0.00    -0.014 A 
BRANCH  37  38
ATOM     38  C   UNL     1      -2.133   8.454  -1.849  1.00  0.00     0.031 A 
ATOM     39  C   UNL     1      -2.262   8.387  -0.268  1.00  0.00     0.074 A 
ATOM     40  C   UNL     1      -1.982   9.411  -2.844  1.00  0.00     0.049 A 
ATOM     41  N   UNL     1      -2.717   9.269   0.555  1.00  0.00    -0.248 NA
ATOM     42  C   UNL     1      -1.993   7.117   0.516  1.00  0.00     0.031 C 
ATOM     43  C   UNL     1      -1.845   9.154  -4.310  1.00  0.00     0.029 A 
ATOM     44  N   UNL     1      -1.876  10.796  -2.861  1.00  0.00    -0.354 N 
ATOM     45  C   UNL     1      -2.402   8.845   1.869  1.00  0.00     0.074 A 
ATOM     46  C   UNL     1      -2.175   7.446   1.798  1.00  0.00     0.031 C 
ATOM     47  C   UNL     1      -1.817  10.309  -5.036  1.00  0.00     0.029 A 
ATOM     48  C   UNL     1      -1.873  11.460  -4.148  1.00  0.00     0.049 A 
ATOM     49  H   UNL     1      -1.806  11.310  -2.024  1.00  0.00     0.167 HD
ATOM     50  C   UNL     1      -2.100   9.743   2.853  1.00  0.00     0.037 A 
ATOM     51  C   UNL     1      -1.927  12.826  -4.415  1.00  0.00     0.037 A 
ATOM     52  C   UNL     1      -2.191  11.048   2.285  1.00  0.00     0.049 A 
ATOM     53  C   UNL     1      -1.615  13.393  -3.101  1.00  0.00     0.074 A 
ATOM     54  C   UNL     1      -3.271  11.704   1.747  1.00  0.00     0.029 A 
ATOM     55  N   UNL     1      -1.020  11.534   1.742  1.00  0.00    -0.354 N 
ATOM     56  N   UNL     1      -0.438  13.345  -2.552  1.00  0.00    -0.248 NA
ATOM     57  C   UNL     1      -2.709  13.952  -2.302  1.00  0.00     0.031 C 
ATOM     58  C   UNL     1      -2.752  12.111   0.508  1.00  0.00     0.029 A 
ATOM     59  C   UNL     1      -1.353  12.143   0.568  1.00  0.00     0.049 A 
ATOM     60  H   UNL     1      -0.118  11.455   2.128  1.00  0.00     0.167 HD
ATOM     61  C   UNL     1      -0.747  13.501  -1.229  1.00  0.00     0.074 A 
ATOM     62  C   UNL     1      -2.034  14.185  -1.179  1.00  0.00     0.031 C 
ATOM     63  C   UNL     1      -0.329  12.545  -0.354  1.00  0.00     0.037 A 
BRANCH  50  64
ATOM     64  C   UNL     1      -1.407   9.661   4.182  1.00  0.00     0.058 A 
ATOM     65  C   UNL     1      -1.511  10.805   5.016  1.00  0.00     0.135 A 
ATOM     66  C   UNL     1      -0.391   8.751   4.501  1.00  0.00     0.135 A 
ATOM     67  F   UNL     1      -2.486  11.710   4.823  1.00  0.00    -0.206 F 
ATOM     68  C   UNL     1      -0.579  11.106   5.997  1.00  0.00     0.059 A 
ATOM     69  C   UNL     1       0.528   9.008   5.528  1.00  0.00     0.059 A 
ATOM     70  F   UNL     1      -0.215   7.632   3.785  1.00  0.00    -0.206 F 
ATOM     71  C   UNL     1       0.451  10.209   6.236  1.00  0.00     0.060 A 
BRANCH  71  72
ATOM     72  S   UNL     1       1.670  10.658   7.488  1.00  0.00     0.124 S 
ATOM     73  O   UNL     1       2.348  11.785   6.859  1.00  0.00    -0.237 OA
ATOM     74  O   UNL     1       0.820  10.989   8.629  1.00  0.00    -0.237 OA
ATOM     75  O   UNL     1       2.461   9.441   7.638  1.00  0.00    -0.744 OA
ENDBRANCH  71  72
ENDBRANCH  50  64
BRANCH  51  76
ATOM     76  C   UNL     1      -2.188  13.937  -5.473  1.00  0.00     0.058 A 
ATOM     77  C   UNL     1      -2.513  13.782  -6.825  1.00  0.00     0.135 A 
ATOM     78  C   UNL     1      -2.318  15.306  -5.037  1.00  0.00     0.135 A 
ATOM     79  F   UNL     1      -2.280  12.616  -7.444  1.00  0.00    -0.206 F 
ATOM     80  C   UNL     1      -3.102  14.829  -7.598  1.00  0.00     0.059 A 
ATOM     81  C   UNL     1      -2.961  16.326  -5.744  1.00  0.00     0.059 A 
ATOM     82  F   UNL     1      -1.839  15.722  -3.856  1.00  0.00    -0.206 F 
ATOM     83  C   UNL     1      -3.402  16.069  -7.019  1.00  0.00     0.060 A 
BRANCH  83  84
ATOM     84  S   UNL     1      -4.477  17.280  -7.846  1.00  0.00     0.124 S 
ATOM     85  O   UNL     1      -3.598  17.841  -8.865  1.00  0.00    -0.237 OA
ATOM     86  O   UNL     1      -5.566  16.441  -8.335  1.00  0.00    -0.237 OA
ATOM     87  O   UNL     1      -4.852  18.198  -6.771  1.00  0.00    -0.744 OA
ENDBRANCH  83  84
ENDBRANCH  51  76
BRANCH  63  88
ATOM     88  C   UNL     1       0.979  11.833  -0.669  1.00  0.00     0.058 A 
ATOM     89  C   UNL     1       2.130  12.606  -0.913  1.00  0.00     0.135 A 
ATOM     90  C   UNL     1       1.159  10.438  -0.762  1.00  0.00     0.135 A 
ATOM     91  F   UNL     1       2.068  13.944  -0.825  1.00  0.00    -0.206 F 
ATOM     92  C   UNL     1       3.373  12.043  -1.215  1.00  0.00     0.059 A 
ATOM     93  C   UNL     1       2.396   9.845  -1.071  1.00  0.00     0.059 A 
ATOM     94  F   UNL     1       0.141   9.603  -0.535  1.00  0.00    -0.206 F 
ATOM     95  C   UNL     1       3.505  10.659  -1.281  1.00  0.00     0.060 A 
BRANCH  95  96
ATOM     96  S   UNL     1       5.152   9.960  -1.558  1.00  0.00     0.124 S 
ATOM     97  O   UNL     1       5.510  10.502  -2.865  1.00  0.00    -0.237 OA
ATOM     98  O   UNL     1       5.903  10.495  -0.427  1.00  0.00    -0.237 OA
ATOM     99  O   UNL     1       4.926   8.517  -1.526  1.00  0.00    -0.744 OA
ENDBRANCH  95  96
ENDBRANCH  63  88
ENDBRANCH  37  38
ENDBRANCH  30  32
ENDBRANCH  29  30
ENDBRANCH  28  29
ENDBRANCH  27  28
ENDBRANCH  26  27
ENDBRANCH  25  26
ENDBRANCH  24  25
ENDBRANCH   1  24
TORSDOF 26
