REMARK SMILES O=C(OCCOCCOCCOCCOC(=O)[C@@H]1[C@H](C(=O)NCc2ccncc2)[C@H]2C=C[C@@H]1O2)c1ccc(-c2c3nc(c(-c4c(F)cc(S(=O)(=O)[O-])cc4F)c4ccc([nH]4)c(-c4c(F)cc(S(=O)(=O)[O-])cc4F)c4nc(c(-c5c(F)cc(S(=O)(=O)[O-])cc5F)c5ccc2[nH]5)C=C4)C=C3)cc1
REMARK SMILES IDX 9 1 8 2 7 3 6 4 5 5 4 6 3 7 2 8 1 9 35 10 36 11 100 12 37 13
REMARK SMILES IDX 99 14 38 15 39 16 40 17 93 18 41 19 98 20 92 21 94 22 42 23
REMARK SMILES IDX 97 24 91 25 90 26 43 28 77 29 56 30 76 31 57 32 60 33 75 34
REMARK SMILES IDX 95 35 58 36 59 37 74 39 96 40 61 41 44 42 45 43 54 44 46 45
REMARK SMILES IDX 47 46 53 47 55 48 48 49 49 50 50 51 51 52 52 53 78 54 79 55
REMARK SMILES IDX 88 56 80 57 81 58 87 59 89 60 82 61 83 62 84 63 85 64 86 65
REMARK SMILES IDX 62 66 63 67 72 68 64 69 65 70 71 71 73 72 66 73 67 74 68 75
REMARK SMILES IDX 69 76 70 77 10 78 11 79 12 80 13 81 14 82 15 83 16 84 17 85
REMARK SMILES IDX 18 86 19 87 33 88 30 89 32 90 34 91 31 92 20 93 21 94 22 95
REMARK SMILES IDX 23 97 24 98 25 99 29 100 26 101 28 102 27 103
REMARK H PARENT 94 27 60 38 22 96
REMARK Flexibility Score: inf
ROOT
ATOM      1  O   UNL     1       0.889   1.911  -2.363  1.00  0.00    -0.377 OA
ENDROOT
BRANCH   1   2
ATOM      2  C   UNL     1       1.135   1.579  -1.000  1.00  0.00     0.188 C 
BRANCH   2   3
ATOM      3  C   UNL     1       1.770   0.194  -0.787  1.00  0.00     0.188 C 
BRANCH   3   4
ATOM      4  O   UNL     1       3.210   0.195  -0.804  1.00  0.00    -0.376 OA
BRANCH   4   5
ATOM      5  C   UNL     1       3.809  -1.114  -0.757  1.00  0.00     0.202 C 
BRANCH   5   6
ATOM      6  C   UNL     1       3.694  -1.945   0.537  1.00  0.00     0.261 C 
BRANCH   6   7
ATOM      7  O   UNL     1       2.405  -1.904   1.158  1.00  0.00    -0.460 OA
BRANCH   7   8
ATOM      8  C   UNL     1       1.976  -1.087   2.156  1.00  0.00     0.338 C 
ATOM      9  O   UNL     1       0.863  -1.302   2.635  1.00  0.00    -0.246 OA
BRANCH   8  10
ATOM     10  C   UNL     1       2.728   0.123   2.639  1.00  0.00     0.060 A 
ATOM     11  C   UNL     1       3.901   0.633   2.080  1.00  0.00     0.016 A 
ATOM     12  C   UNL     1       2.189   0.808   3.744  1.00  0.00     0.016 A 
ATOM     13  C   UNL     1       4.596   1.676   2.668  1.00  0.00     0.010 A 
ATOM     14  C   UNL     1       2.868   1.881   4.334  1.00  0.00     0.010 A 
ATOM     15  C   UNL     1       4.112   2.265   3.827  1.00  0.00    -0.014 A 
BRANCH  15  16
ATOM     16  C   UNL     1       5.093   3.008   4.635  1.00  0.00     0.031 A 
ATOM     17  C   UNL     1       5.786   2.236   5.722  1.00  0.00     0.074 A 
ATOM     18  C   UNL     1       5.500   4.234   4.266  1.00  0.00     0.049 A 
ATOM     19  N   UNL     1       6.675   2.633   6.588  1.00  0.00    -0.248 NA
ATOM     20  C   UNL     1       5.446   0.803   5.827  1.00  0.00     0.031 C 
ATOM     21  C   UNL     1       5.019   4.967   3.093  1.00  0.00     0.029 A 
ATOM     22  N   UNL     1       6.445   5.059   4.813  1.00  0.00    -0.354 N 
ATOM     23  C   UNL     1       6.954   1.519   7.372  1.00  0.00     0.074 A 
ATOM     24  C   UNL     1       6.168   0.421   6.866  1.00  0.00     0.031 C 
ATOM     25  C   UNL     1       5.692   6.128   2.998  1.00  0.00     0.029 A 
ATOM     26  C   UNL     1       6.590   6.250   4.142  1.00  0.00     0.049 A 
ATOM     27  H   UNL     1       6.971   4.822   5.611  1.00  0.00     0.167 HD
ATOM     28  C   UNL     1       7.777   1.438   8.440  1.00  0.00     0.037 A 
ATOM     29  C   UNL     1       7.343   7.322   4.455  1.00  0.00     0.037 A 
ATOM     30  C   UNL     1       8.537   2.560   8.916  1.00  0.00     0.049 A 
ATOM     31  C   UNL     1       8.171   7.247   5.715  1.00  0.00     0.074 A 
ATOM     32  C   UNL     1       9.331   2.655  10.041  1.00  0.00     0.029 A 
ATOM     33  N   UNL     1       8.586   3.793   8.277  1.00  0.00    -0.354 N 
ATOM     34  N   UNL     1       8.344   6.230   6.531  1.00  0.00    -0.248 NA
ATOM     35  C   UNL     1       8.888   8.464   6.113  1.00  0.00     0.031 C 
ATOM     36  C   UNL     1       9.817   3.965  10.112  1.00  0.00     0.029 A 
ATOM     37  C   UNL     1       9.383   4.664   8.994  1.00  0.00     0.049 A 
ATOM     38  H   UNL     1       8.122   4.014   7.438  1.00  0.00     0.167 HD
ATOM     39  C   UNL     1       9.206   6.678   7.526  1.00  0.00     0.074 A 
ATOM     40  C   UNL     1       9.531   8.053   7.197  1.00  0.00     0.031 C 
ATOM     41  C   UNL     1       9.686   6.023   8.614  1.00  0.00     0.037 A 
BRANCH  28  42
ATOM     42  C   UNL     1       7.777   0.147   9.207  1.00  0.00     0.058 A 
ATOM     43  C   UNL     1       8.352  -1.032   8.706  1.00  0.00     0.135 A 
ATOM     44  C   UNL     1       7.124   0.079  10.449  1.00  0.00     0.135 A 
ATOM     45  F   UNL     1       8.949  -1.037   7.503  1.00  0.00    -0.206 F 
ATOM     46  C   UNL     1       8.254  -2.238   9.396  1.00  0.00     0.059 A 
ATOM     47  C   UNL     1       7.037  -1.109  11.168  1.00  0.00     0.059 A 
ATOM     48  F   UNL     1       6.536   1.170  10.963  1.00  0.00    -0.206 F 
ATOM     49  C   UNL     1       7.591  -2.266  10.625  1.00  0.00     0.060 A 
BRANCH  49  50
ATOM     50  S   UNL     1       7.451  -3.839  11.499  1.00  0.00     0.124 S 
ATOM     51  O   UNL     1       6.478  -4.547  10.673  1.00  0.00    -0.237 OA
ATOM     52  O   UNL     1       8.818  -4.348  11.443  1.00  0.00    -0.237 OA
ATOM     53  O   UNL     1       6.984  -3.451  12.826  1.00  0.00    -0.744 OA
ENDBRANCH  49  50
ENDBRANCH  28  42
BRANCH  29  54
ATOM     54  C   UNL     1       7.304   8.558   3.621  1.00  0.00     0.058 A 
ATOM     55  C   UNL     1       8.448   9.036   2.965  1.00  0.00     0.135 A 
ATOM     56  C   UNL     1       6.123   9.307   3.484  1.00  0.00     0.135 A 
ATOM     57  F   UNL     1       9.609   8.372   3.072  1.00  0.00    -0.206 F 
ATOM     58  C   UNL     1       8.430  10.218   2.225  1.00  0.00     0.059 A 
ATOM     59  C   UNL     1       6.071  10.473   2.724  1.00  0.00     0.059 A 
ATOM     60  F   UNL     1       4.995   8.904   4.090  1.00  0.00    -0.206 F 
ATOM     61  C   UNL     1       7.235  10.930   2.111  1.00  0.00     0.060 A 
BRANCH  61  62
ATOM     62  S   UNL     1       7.217  12.455   1.142  1.00  0.00     0.124 S 
ATOM     63  O   UNL     1       7.963  13.362   2.007  1.00  0.00    -0.237 OA
ATOM     64  O   UNL     1       7.891  12.050  -0.088  1.00  0.00    -0.237 OA
ATOM     65  O   UNL     1       5.794  12.749   1.001  1.00  0.00    -0.744 OA
ENDBRANCH  61  62
ENDBRANCH  29  54
BRANCH  41  66
ATOM     66  C   UNL     1      10.651   6.769   9.489  1.00  0.00     0.058 A 
ATOM     67  C   UNL     1      10.236   7.810  10.332  1.00  0.00     0.135 A 
ATOM     68  C   UNL     1      12.002   6.385   9.526  1.00  0.00     0.135 A 
ATOM     69  F   UNL     1       8.956   8.212  10.332  1.00  0.00    -0.206 F 
ATOM     70  C   UNL     1      11.136   8.467  11.163  1.00  0.00     0.059 A 
ATOM     71  C   UNL     1      12.911   7.006  10.373  1.00  0.00     0.059 A 
ATOM     72  F   UNL     1      12.442   5.381   8.751  1.00  0.00    -0.206 F 
ATOM     73  C   UNL     1      12.471   8.056  11.177  1.00  0.00     0.060 A 
BRANCH  73  74
ATOM     74  S   UNL     1      13.623   8.897  12.280  1.00  0.00     0.124 S 
ATOM     75  O   UNL     1      13.813  10.169  11.591  1.00  0.00    -0.237 OA
ATOM     76  O   UNL     1      12.871   8.959  13.530  1.00  0.00    -0.237 OA
ATOM     77  O   UNL     1      14.784   8.012  12.297  1.00  0.00    -0.744 OA
ENDBRANCH  73  74
ENDBRANCH  41  66
ENDBRANCH  15  16
ENDBRANCH   8  10
ENDBRANCH   7   8
ENDBRANCH   6   7
ENDBRANCH   5   6
ENDBRANCH   4   5
ENDBRANCH   3   4
ENDBRANCH   2   3
ENDBRANCH   1   2
BRANCH   1  78
ATOM     78  C   UNL     1       2.054   1.850  -3.167  1.00  0.00     0.188 C 
BRANCH  78  79
ATOM     79  C   UNL     1       3.179   2.805  -2.736  1.00  0.00     0.188 C 
BRANCH  79  80
ATOM     80  O   UNL     1       2.902   4.197  -2.798  1.00  0.00    -0.376 OA
BRANCH  80  81
ATOM     81  C   UNL     1       2.160   4.622  -3.926  1.00  0.00     0.202 C 
BRANCH  81  82
ATOM     82  C   UNL     1       2.792   4.387  -5.314  1.00  0.00     0.261 C 
BRANCH  82  83
ATOM     83  O   UNL     1       3.322   3.056  -5.575  1.00  0.00    -0.463 OA
BRANCH  83  84
ATOM     84  C   UNL     1       4.660   2.959  -5.837  1.00  0.00     0.312 C 
ATOM     85  O   UNL     1       5.437   3.909  -5.787  1.00  0.00    -0.252 OA
BRANCH  84  86
ATOM     86  C   UNL     1       5.020   1.642  -6.483  1.00  0.00     0.147 C 
ATOM     87  C   UNL     1       4.755   0.249  -5.887  1.00  0.00     0.128 C 
ATOM     88  C   UNL     1       6.518   1.509  -6.859  1.00  0.00     0.157 C 
ATOM     89  C   UNL     1       5.986  -0.539  -6.332  1.00  0.00     0.155 C 
ATOM     90  C   UNL     1       6.592   0.723  -8.135  1.00  0.00     0.004 C 
ATOM     91  O   UNL     1       6.990   0.442  -5.990  1.00  0.00    -0.365 OA
ATOM     92  C   UNL     1       6.200  -0.523  -7.822  1.00  0.00     0.004 C 
BRANCH  87  93
ATOM     93  C   UNL     1       4.531  -0.004  -4.411  1.00  0.00     0.227 C 
ATOM     94  O   UNL     1       3.647  -0.826  -4.118  1.00  0.00    -0.275 OA
ATOM     95  N   UNL     1       5.198   0.528  -3.364  1.00  0.00    -0.352 N 
ATOM     96  H   UNL     1       4.622   0.641  -2.574  1.00  0.00     0.163 HD
BRANCH  95  97
ATOM     97  C   UNL     1       6.564   0.979  -3.118  1.00  0.00     0.151 C 
BRANCH  97  98
ATOM     98  C   UNL     1       6.615   2.215  -2.261  1.00  0.00    -0.026 A 
ATOM     99  C   UNL     1       6.598   2.169  -0.866  1.00  0.00     0.025 A 
ATOM    100  C   UNL     1       6.662   3.472  -2.869  1.00  0.00     0.025 A 
ATOM    101  C   UNL     1       6.606   3.369  -0.165  1.00  0.00     0.111 A 
ATOM    102  C   UNL     1       6.611   4.613  -2.089  1.00  0.00     0.111 A 
ATOM    103  N   UNL     1       6.587   4.585  -0.746  1.00  0.00    -0.265 NA
ENDBRANCH  97  98
ENDBRANCH  95  97
ENDBRANCH  87  93
ENDBRANCH  84  86
ENDBRANCH  83  84
ENDBRANCH  82  83
ENDBRANCH  81  82
ENDBRANCH  80  81
ENDBRANCH  79  80
ENDBRANCH  78  79
ENDBRANCH   1  78
TORSDOF 26
