REMARK SMILES C[N@H+]1C[C@@H](Oc2cccc3cccnc23)C[C@H]1C(=O)OCCOCCOCCOCCOC(=O)c1ccc(-c2c3nc(c(-c4c(F)cc(S(=O)(=O)[O-])cc4F)c4ccc([nH]4)c(-c4c(F)cc(S(=O)(=O)[O-])cc4F)c4nc(c(-c5c(F)cc(S(=O)(=O)[O-])cc5F)c5ccc2[nH]5)C=C4)C=C3)cc1
REMARK SMILES IDX 27 1 26 2 25 3 24 4 23 5 22 6 21 7 20 8 18 9 19 10 17 11
REMARK SMILES IDX 1 12 2 13 3 14 4 16 16 17 5 18 6 19 7 20 15 21 8 22 10 23
REMARK SMILES IDX 14 24 9 25 11 26 13 27 12 28 28 29 29 30 30 31 31 32 32 33
REMARK SMILES IDX 33 34 34 35 35 36 36 37 100 38 37 39 99 40 38 41 39 42 40 43
REMARK SMILES IDX 93 44 41 45 98 46 92 47 94 48 42 49 97 50 91 51 90 52 43 54
REMARK SMILES IDX 77 55 56 56 76 57 57 58 60 59 75 60 95 61 58 62 59 63 74 65
REMARK SMILES IDX 96 66 61 67 44 68 45 69 54 70 46 71 47 72 53 73 55 74 48 75
REMARK SMILES IDX 49 76 50 77 51 78 52 79 78 80 79 81 88 82 80 83 81 84 87 85
REMARK SMILES IDX 89 86 82 87 83 88 84 89 85 90 86 91 62 92 63 93 72 94 64 95
REMARK SMILES IDX 65 96 71 97 73 98 66 99 67 100 68 101 69 102 70 103
REMARK H PARENT 2 15 94 53 60 64
REMARK Flexibility Score: inf
ROOT
ATOM      1  C   UNL     1      -3.284  -0.085   3.044  1.00  0.00     0.188 C 
ENDROOT
BRANCH   1   2
ATOM      2  O   UNL     1      -2.571  -0.965   2.176  1.00  0.00    -0.377 OA
BRANCH   2   3
ATOM      3  C   UNL     1      -2.937  -2.328   2.044  1.00  0.00     0.188 C 
BRANCH   3   4
ATOM      4  C   UNL     1      -1.984  -3.329   2.700  1.00  0.00     0.188 C 
BRANCH   4   5
ATOM      5  O   UNL     1      -1.804  -3.233   4.102  1.00  0.00    -0.376 OA
BRANCH   5   6
ATOM      6  C   UNL     1      -1.130  -2.087   4.609  1.00  0.00     0.202 C 
BRANCH   6   7
ATOM      7  C   UNL     1       0.146  -1.586   3.915  1.00  0.00     0.261 C 
BRANCH   7   8
ATOM      8  O   UNL     1      -0.022  -1.015   2.598  1.00  0.00    -0.459 OA
BRANCH   8   9
ATOM      9  C   UNL     1       0.647  -1.612   1.578  1.00  0.00     0.365 C 
ATOM     10  O   UNL     1       1.329  -2.630   1.719  1.00  0.00    -0.245 OA
BRANCH   9  11
ATOM     11  C   UNL     1       0.521  -0.959   0.194  1.00  0.00     0.298 C 
ATOM     12  C   UNL     1      -1.605   0.358  -0.299  1.00  0.00     0.333 C 
ATOM     13  N   UNL     1      -0.228   0.272   0.064  1.00  0.00    -0.322 N 
ATOM     14  C   UNL     1       0.521   1.423   0.504  1.00  0.00     0.308 C 
ATOM     15  H   UNL     1      -0.695   0.224  -0.841  1.00  0.00     0.348 HD
ATOM     16  C   UNL     1       1.960   1.015   0.153  1.00  0.00     0.234 C 
ATOM     17  C   UNL     1       1.906  -0.475  -0.241  1.00  0.00     0.128 C 
BRANCH  16  18
ATOM     18  O   UNL     1       3.028   1.330   1.050  1.00  0.00    -0.482 OA
BRANCH  18  19
ATOM     19  C   UNL     1       2.846   1.063   2.385  1.00  0.00     0.146 A 
ATOM     20  C   UNL     1       3.323  -0.162   2.867  1.00  0.00     0.049 A 
ATOM     21  C   UNL     1       2.384   2.066   3.252  1.00  0.00     0.112 A 
ATOM     22  C   UNL     1       3.282  -0.442   4.227  1.00  0.00     0.005 A 
ATOM     23  C   UNL     1       2.350   1.762   4.634  1.00  0.00     0.004 A 
ATOM     24  N   UNL     1       1.994   3.278   2.790  1.00  0.00    -0.252 NA
ATOM     25  C   UNL     1       2.789   0.514   5.109  1.00  0.00     0.010 A 
ATOM     26  C   UNL     1       1.895   2.742   5.524  1.00  0.00     0.012 A 
ATOM     27  C   UNL     1       1.598   4.210   3.684  1.00  0.00     0.112 A 
ATOM     28  C   UNL     1       1.528   3.990   5.044  1.00  0.00     0.021 A 
ENDBRANCH  18  19
ENDBRANCH  16  18
ENDBRANCH   9  11
ENDBRANCH   8   9
ENDBRANCH   7   8
ENDBRANCH   6   7
ENDBRANCH   5   6
ENDBRANCH   4   5
ENDBRANCH   3   4
ENDBRANCH   2   3
ENDBRANCH   1   2
BRANCH   1  29
ATOM     29  C   UNL     1      -4.588  -0.602   3.646  1.00  0.00     0.188 C 
BRANCH  29  30
ATOM     30  O   UNL     1      -5.620  -0.974   2.725  1.00  0.00    -0.376 OA
BRANCH  30  31
ATOM     31  C   UNL     1      -5.651  -0.347   1.444  1.00  0.00     0.202 C 
BRANCH  31  32
ATOM     32  C   UNL     1      -6.417   0.972   1.396  1.00  0.00     0.261 C 
BRANCH  32  33
ATOM     33  O   UNL     1      -5.764   2.000   2.155  1.00  0.00    -0.460 OA
BRANCH  33  34
ATOM     34  C   UNL     1      -6.243   2.159   3.406  1.00  0.00     0.338 C 
ATOM     35  O   UNL     1      -7.162   1.536   3.932  1.00  0.00    -0.246 OA
BRANCH  34  36
ATOM     36  C   UNL     1      -5.423   3.128   4.147  1.00  0.00     0.060 A 
ATOM     37  C   UNL     1      -5.091   2.824   5.473  1.00  0.00     0.016 A 
ATOM     38  C   UNL     1      -5.099   4.370   3.594  1.00  0.00     0.016 A 
ATOM     39  C   UNL     1      -4.517   3.796   6.282  1.00  0.00     0.010 A 
ATOM     40  C   UNL     1      -4.528   5.348   4.410  1.00  0.00     0.010 A 
ATOM     41  C   UNL     1      -4.298   5.081   5.770  1.00  0.00    -0.014 A 
BRANCH  41  42
ATOM     42  C   UNL     1      -4.062   6.191   6.719  1.00  0.00     0.031 A 
ATOM     43  C   UNL     1      -5.233   7.052   7.112  1.00  0.00     0.074 A 
ATOM     44  C   UNL     1      -2.853   6.378   7.272  1.00  0.00     0.049 A 
ATOM     45  N   UNL     1      -5.275   8.074   7.926  1.00  0.00    -0.248 NA
ATOM     46  C   UNL     1      -6.533   6.713   6.507  1.00  0.00     0.031 C 
ATOM     47  C   UNL     1      -1.669   5.561   7.010  1.00  0.00     0.029 A 
ATOM     48  N   UNL     1      -2.426   7.314   8.177  1.00  0.00    -0.354 N 
ATOM     49  C   UNL     1      -6.599   8.500   7.928  1.00  0.00     0.074 A 
ATOM     50  C   UNL     1      -7.321   7.653   7.006  1.00  0.00     0.031 C 
ATOM     51  C   UNL     1      -0.645   6.039   7.737  1.00  0.00     0.029 A 
ATOM     52  C   UNL     1      -1.091   7.214   8.480  1.00  0.00     0.049 A 
ATOM     53  H   UNL     1      -3.019   7.993   8.571  1.00  0.00     0.167 HD
ATOM     54  C   UNL     1      -7.163   9.499   8.647  1.00  0.00     0.037 A 
ATOM     55  C   UNL     1      -0.314   7.995   9.254  1.00  0.00     0.037 A 
ATOM     56  C   UNL     1      -6.431  10.331   9.566  1.00  0.00     0.049 A 
ATOM     57  C   UNL     1      -0.947   9.148   9.987  1.00  0.00     0.074 A 
ATOM     58  C   UNL     1      -6.903  11.362  10.357  1.00  0.00     0.029 A 
ATOM     59  N   UNL     1      -5.069  10.229   9.810  1.00  0.00    -0.354 N 
ATOM     60  N   UNL     1      -2.203   9.531   9.995  1.00  0.00    -0.248 NA
ATOM     61  C   UNL     1      -0.063   9.965  10.827  1.00  0.00     0.031 C 
ATOM     62  C   UNL     1      -5.816  11.920  11.039  1.00  0.00     0.029 A 
ATOM     63  C   UNL     1      -4.676  11.198  10.719  1.00  0.00     0.049 A 
ATOM     64  H   UNL     1      -4.469   9.566   9.399  1.00  0.00     0.167 HD
ATOM     65  C   UNL     1      -2.264  10.617  10.861  1.00  0.00     0.074 A 
ATOM     66  C   UNL     1      -0.922  10.816  11.371  1.00  0.00     0.031 C 
ATOM     67  C   UNL     1      -3.332  11.381  11.207  1.00  0.00     0.037 A 
BRANCH  54  68
ATOM     68  C   UNL     1      -8.630   9.761   8.445  1.00  0.00     0.058 A 
ATOM     69  C   UNL     1      -9.616   8.869   8.898  1.00  0.00     0.135 A 
ATOM     70  C   UNL     1      -9.059  10.936   7.804  1.00  0.00     0.135 A 
ATOM     71  F   UNL     1      -9.264   7.720   9.497  1.00  0.00    -0.206 F 
ATOM     72  C   UNL     1     -10.971   9.119   8.701  1.00  0.00     0.059 A 
ATOM     73  C   UNL     1     -10.409  11.220   7.623  1.00  0.00     0.059 A 
ATOM     74  F   UNL     1      -8.161  11.820   7.344  1.00  0.00    -0.206 F 
ATOM     75  C   UNL     1     -11.357  10.299   8.063  1.00  0.00     0.060 A 
BRANCH  75  76
ATOM     76  S   UNL     1     -13.119  10.613   7.824  1.00  0.00     0.124 S 
ATOM     77  O   UNL     1     -13.450   9.640   6.787  1.00  0.00    -0.237 OA
ATOM     78  O   UNL     1     -13.667  10.338   9.148  1.00  0.00    -0.237 OA
ATOM     79  O   UNL     1     -13.162  12.011   7.407  1.00  0.00    -0.744 OA
ENDBRANCH  75  76
ENDBRANCH  54  68
BRANCH  55  80
ATOM     80  C   UNL     1       1.142   7.717   9.366  1.00  0.00     0.058 A 
ATOM     81  C   UNL     1       1.707   7.264  10.566  1.00  0.00     0.135 A 
ATOM     82  C   UNL     1       1.998   7.893   8.266  1.00  0.00     0.135 A 
ATOM     83  F   UNL     1       0.931   7.083  11.646  1.00  0.00    -0.206 F 
ATOM     84  C   UNL     1       3.070   7.011  10.680  1.00  0.00     0.059 A 
ATOM     85  C   UNL     1       3.360   7.621   8.347  1.00  0.00     0.059 A 
ATOM     86  F   UNL     1       1.505   8.304   7.087  1.00  0.00    -0.206 F 
ATOM     87  C   UNL     1       3.888   7.190   9.562  1.00  0.00     0.060 A 
BRANCH  87  88
ATOM     88  S   UNL     1       5.646   6.809   9.710  1.00  0.00     0.124 S 
ATOM     89  O   UNL     1       6.113   7.899  10.558  1.00  0.00    -0.237 OA
ATOM     90  O   UNL     1       5.617   5.486  10.326  1.00  0.00    -0.237 OA
ATOM     91  O   UNL     1       6.113   6.838   8.327  1.00  0.00    -0.744 OA
ENDBRANCH  87  88
ENDBRANCH  55  80
BRANCH  67  92
ATOM     92  C   UNL     1      -3.091  12.482  12.203  1.00  0.00     0.058 A 
ATOM     93  C   UNL     1      -2.357  13.632  11.870  1.00  0.00     0.135 A 
ATOM     94  C   UNL     1      -3.621  12.396  13.501  1.00  0.00     0.135 A 
ATOM     95  F   UNL     1      -1.825  13.762  10.645  1.00  0.00    -0.206 F 
ATOM     96  C   UNL     1      -2.122  14.637  12.801  1.00  0.00     0.059 A 
ATOM     97  C   UNL     1      -3.427  13.405  14.438  1.00  0.00     0.059 A 
ATOM     98  F   UNL     1      -4.343  11.325  13.867  1.00  0.00    -0.206 F 
ATOM     99  C   UNL     1      -2.659  14.513  14.084  1.00  0.00     0.060 A 
BRANCH  99 100
ATOM    100  S   UNL     1      -2.349  15.826  15.282  1.00  0.00     0.124 S 
ATOM    101  O   UNL     1      -0.947  15.593  15.616  1.00  0.00    -0.237 OA
ATOM    102  O   UNL     1      -2.623  17.031  14.505  1.00  0.00    -0.237 OA
ATOM    103  O   UNL     1      -3.304  15.545  16.350  1.00  0.00    -0.744 OA
ENDBRANCH  99 100
ENDBRANCH  67  92
ENDBRANCH  41  42
ENDBRANCH  34  36
ENDBRANCH  33  34
ENDBRANCH  32  33
ENDBRANCH  31  32
ENDBRANCH  30  31
ENDBRANCH  29  30
ENDBRANCH   1  29
TORSDOF 25
