REMARK SMILES CC[NH2+]C(C)(C)C(=O)N[C@@](C)(C(=O)OCCOCCOCCOCCOC(=O)c1ccc(-c2c3nc(c(-c4c(F)cc(S(=O)(=O)[O-])cc4F)c4ccc([nH]4)c(-c4c(F)cc(S(=O)(=O)[O-])cc4F)c4nc(c(-c5c(F)cc(S(=O)(=O)[O-])cc5F)c5ccc2[nH]5)C=C4)C=C3)cc1)C(F)(F)F
REMARK SMILES IDX 19 1 18 2 17 3 16 4 15 5 14 6 12 7 13 8 10 9 11 10 9 11 7 12
REMARK SMILES IDX 8 13 4 15 5 16 6 17 3 18 2 21 1 22 95 23 96 24 97 25 98 26
REMARK SMILES IDX 20 27 21 28 22 29 23 30 24 31 25 32 26 33 27 34 28 35 29 36
REMARK SMILES IDX 30 37 94 38 31 39 93 40 32 41 33 42 34 43 87 44 35 45 92 46
REMARK SMILES IDX 86 47 88 48 36 49 91 50 85 51 84 52 37 54 71 55 50 56 70 57
REMARK SMILES IDX 51 58 54 59 69 60 89 61 52 62 53 63 68 65 90 66 55 67 38 68
REMARK SMILES IDX 39 69 48 70 40 71 41 72 47 73 49 74 42 75 43 76 44 77 45 78
REMARK SMILES IDX 46 79 72 80 73 81 82 82 74 83 75 84 81 85 83 86 76 87 77 88
REMARK SMILES IDX 78 89 79 90 80 91 56 92 57 93 66 94 58 95 59 96 65 97 67 98
REMARK SMILES IDX 60 99 61 100 62 101 63 102 64 103
REMARK H PARENT 9 14 3 19 3 20 88 53 54 64
REMARK Flexibility Score: inf
ROOT
ATOM      1  C   UNL     1      -1.881   4.229  -3.778  1.00  0.00     0.188 C 
ENDROOT
BRANCH   1   2
ATOM      2  C   UNL     1      -0.712   5.031  -4.376  1.00  0.00     0.188 C 
BRANCH   2   3
ATOM      3  O   UNL     1      -0.940   6.217  -5.125  1.00  0.00    -0.376 OA
BRANCH   3   4
ATOM      4  C   UNL     1      -2.098   6.360  -5.934  1.00  0.00     0.202 C 
BRANCH   4   5
ATOM      5  C   UNL     1      -2.606   5.213  -6.835  1.00  0.00     0.261 C 
BRANCH   5   6
ATOM      6  O   UNL     1      -2.122   3.889  -6.527  1.00  0.00    -0.461 OA
BRANCH   6   7
ATOM      7  C   UNL     1      -1.106   3.429  -7.296  1.00  0.00     0.341 C 
ATOM      8  O   UNL     1      -0.685   4.040  -8.271  1.00  0.00    -0.249 OA
BRANCH   7   9
ATOM      9  C   UNL     1      -0.590   2.029  -6.859  1.00  0.00     0.231 C 
ATOM     10  C   UNL     1      -1.181   1.056  -7.894  1.00  0.00     0.058 C 
BRANCH   9  11
ATOM     11  N   UNL     1      -1.150   1.528  -5.501  1.00  0.00    -0.328 N 
ATOM     12  C   UNL     1      -0.832   0.926  -4.306  1.00  0.00     0.281 C 
ATOM     13  O   UNL     1      -1.818   0.642  -3.612  1.00  0.00    -0.268 OA
ATOM     14  H   UNL     1      -2.116   1.714  -5.491  1.00  0.00     0.165 HD
BRANCH  12  15
ATOM     15  C   UNL     1       0.612   0.649  -3.781  1.00  0.00     0.169 C 
ATOM     16  C   UNL     1       1.384   1.968  -3.693  1.00  0.00     0.090 C 
ATOM     17  C   UNL     1       1.246  -0.396  -4.716  1.00  0.00     0.090 C 
BRANCH  15  18
ATOM     18  N   UNL     1       0.699  -0.046  -2.454  1.00  0.00    -0.334 N 
ATOM     19  H   UNL     1       0.165  -0.911  -2.541  1.00  0.00     0.347 HD
ATOM     20  H   UNL     1       1.704  -0.124  -2.300  1.00  0.00     0.347 HD
BRANCH  18  21
ATOM     21  C   UNL     1       0.229   0.617  -1.242  1.00  0.00     0.257 C 
ATOM     22  C   UNL     1       0.758  -0.159  -0.031  1.00  0.00     0.071 C 
ENDBRANCH  18  21
ENDBRANCH  15  18
ENDBRANCH  12  15
ENDBRANCH   9  11
BRANCH   9  23
ATOM     23  C   UNL     1       0.926   2.197  -7.105  1.00  0.00     0.422 C 
ATOM     24  F   UNL     1       1.454   3.251  -6.445  1.00  0.00    -0.168 F 
ATOM     25  F   UNL     1       1.634   1.113  -6.734  1.00  0.00    -0.168 F 
ATOM     26  F   UNL     1       1.224   2.369  -8.416  1.00  0.00    -0.168 F 
ENDBRANCH   9  23
ENDBRANCH   7   9
ENDBRANCH   6   7
ENDBRANCH   5   6
ENDBRANCH   4   5
ENDBRANCH   3   4
ENDBRANCH   2   3
ENDBRANCH   1   2
BRANCH   1  27
ATOM     27  O   UNL     1      -3.155   4.761  -4.067  1.00  0.00    -0.377 OA
BRANCH  27  28
ATOM     28  C   UNL     1      -3.765   5.469  -3.004  1.00  0.00     0.188 C 
BRANCH  28  29
ATOM     29  C   UNL     1      -2.865   6.473  -2.259  1.00  0.00     0.188 C 
BRANCH  29  30
ATOM     30  O   UNL     1      -1.662   5.903  -1.750  1.00  0.00    -0.376 OA
BRANCH  30  31
ATOM     31  C   UNL     1      -1.613   5.498  -0.389  1.00  0.00     0.202 C 
BRANCH  31  32
ATOM     32  C   UNL     1      -2.465   4.293   0.047  1.00  0.00     0.261 C 
BRANCH  32  33
ATOM     33  O   UNL     1      -3.876   4.370  -0.198  1.00  0.00    -0.460 OA
BRANCH  33  34
ATOM     34  C   UNL     1      -4.555   5.418   0.327  1.00  0.00     0.338 C 
ATOM     35  O   UNL     1      -4.115   6.280   1.050  1.00  0.00    -0.246 OA
BRANCH  34  36
ATOM     36  C   UNL     1      -5.884   5.454  -0.333  1.00  0.00     0.060 A 
ATOM     37  C   UNL     1      -6.261   6.616  -1.020  1.00  0.00     0.016 A 
ATOM     38  C   UNL     1      -6.732   4.344  -0.307  1.00  0.00     0.016 A 
ATOM     39  C   UNL     1      -7.501   6.683  -1.655  1.00  0.00     0.010 A 
ATOM     40  C   UNL     1      -7.988   4.424  -0.915  1.00  0.00     0.010 A 
ATOM     41  C   UNL     1      -8.391   5.607  -1.560  1.00  0.00    -0.014 A 
BRANCH  41  42
ATOM     42  C   UNL     1      -9.815   5.805  -1.924  1.00  0.00     0.031 A 
ATOM     43  C   UNL     1     -10.781   6.144  -0.821  1.00  0.00     0.074 A 
ATOM     44  C   UNL     1     -10.240   5.714  -3.196  1.00  0.00     0.049 A 
ATOM     45  N   UNL     1     -12.074   6.324  -0.873  1.00  0.00    -0.248 NA
ATOM     46  C   UNL     1     -10.204   6.299   0.525  1.00  0.00     0.031 C 
ATOM     47  C   UNL     1      -9.393   5.442  -4.355  1.00  0.00     0.029 A 
ATOM     48  N   UNL     1     -11.503   5.837  -3.722  1.00  0.00    -0.354 N 
ATOM     49  C   UNL     1     -12.467   6.601   0.432  1.00  0.00     0.074 A 
ATOM     50  C   UNL     1     -11.281   6.535   1.256  1.00  0.00     0.031 C 
ATOM     51  C   UNL     1     -10.163   5.405  -5.457  1.00  0.00     0.029 A 
ATOM     52  C   UNL     1     -11.560   5.617  -5.077  1.00  0.00     0.049 A 
ATOM     53  H   UNL     1     -12.293   6.062  -3.179  1.00  0.00     0.167 HD
ATOM     54  C   UNL     1     -13.704   6.892   0.899  1.00  0.00     0.037 A 
ATOM     55  C   UNL     1     -12.622   5.569  -5.907  1.00  0.00     0.037 A 
ATOM     56  C   UNL     1     -14.881   6.946   0.072  1.00  0.00     0.049 A 
ATOM     57  C   UNL     1     -14.003   5.814  -5.353  1.00  0.00     0.074 A 
ATOM     58  C   UNL     1     -16.179   7.245   0.443  1.00  0.00     0.029 A 
ATOM     59  N   UNL     1     -14.905   6.678  -1.289  1.00  0.00    -0.354 N 
ATOM     60  N   UNL     1     -14.362   6.099  -4.122  1.00  0.00    -0.248 NA
ATOM     61  C   UNL     1     -15.124   5.735  -6.300  1.00  0.00     0.031 C 
ATOM     62  C   UNL     1     -16.998   7.096  -0.681  1.00  0.00     0.029 A 
ATOM     63  C   UNL     1     -16.201   6.773  -1.768  1.00  0.00     0.049 A 
ATOM     64  H   UNL     1     -14.116   6.454  -1.835  1.00  0.00     0.167 HD
ATOM     65  C   UNL     1     -15.744   6.263  -4.155  1.00  0.00     0.074 A 
ATOM     66  C   UNL     1     -16.155   6.054  -5.528  1.00  0.00     0.031 C 
ATOM     67  C   UNL     1     -16.595   6.566  -3.141  1.00  0.00     0.037 A 
BRANCH  54  68
ATOM     68  C   UNL     1     -13.847   7.129   2.379  1.00  0.00     0.058 A 
ATOM     69  C   UNL     1     -13.304   8.261   3.008  1.00  0.00     0.135 A 
ATOM     70  C   UNL     1     -14.539   6.206   3.180  1.00  0.00     0.135 A 
ATOM     71  F   UNL     1     -12.614   9.166   2.296  1.00  0.00    -0.206 F 
ATOM     72  C   UNL     1     -13.408   8.450   4.383  1.00  0.00     0.059 A 
ATOM     73  C   UNL     1     -14.685   6.392   4.551  1.00  0.00     0.059 A 
ATOM     74  F   UNL     1     -15.075   5.104   2.632  1.00  0.00    -0.206 F 
ATOM     75  C   UNL     1     -14.099   7.507   5.146  1.00  0.00     0.060 A 
BRANCH  75  76
ATOM     76  S   UNL     1     -14.213   7.758   6.930  1.00  0.00     0.124 S 
ATOM     77  O   UNL     1     -12.841   7.487   7.350  1.00  0.00    -0.237 OA
ATOM     78  O   UNL     1     -14.639   9.151   7.021  1.00  0.00    -0.237 OA
ATOM     79  O   UNL     1     -15.204   6.773   7.351  1.00  0.00    -0.744 OA
ENDBRANCH  75  76
ENDBRANCH  54  68
BRANCH  55  80
ATOM     80  C   UNL     1     -12.421   5.272  -7.352  1.00  0.00     0.058 A 
ATOM     81  C   UNL     1     -12.641   6.251  -8.331  1.00  0.00     0.135 A 
ATOM     82  C   UNL     1     -11.991   4.006  -7.781  1.00  0.00     0.135 A 
ATOM     83  F   UNL     1     -13.069   7.472  -7.975  1.00  0.00    -0.206 F 
ATOM     84  C   UNL     1     -12.444   5.988  -9.683  1.00  0.00     0.059 A 
ATOM     85  C   UNL     1     -11.761   3.727  -9.124  1.00  0.00     0.059 A 
ATOM     86  F   UNL     1     -11.762   3.034  -6.884  1.00  0.00    -0.206 F 
ATOM     87  C   UNL     1     -11.994   4.724 -10.069  1.00  0.00     0.060 A 
BRANCH  87  88
ATOM     88  S   UNL     1     -11.668   4.420 -11.820  1.00  0.00     0.124 S 
ATOM     89  O   UNL     1     -13.017   4.406 -12.373  1.00  0.00    -0.237 OA
ATOM     90  O   UNL     1     -10.841   5.568 -12.178  1.00  0.00    -0.237 OA
ATOM     91  O   UNL     1     -10.975   3.135 -11.814  1.00  0.00    -0.744 OA
ENDBRANCH  87  88
ENDBRANCH  55  80
BRANCH  67  92
ATOM     92  C   UNL     1     -18.054   6.732  -3.478  1.00  0.00     0.058 A 
ATOM     93  C   UNL     1     -18.868   5.641  -3.821  1.00  0.00     0.135 A 
ATOM     94  C   UNL     1     -18.660   7.997  -3.395  1.00  0.00     0.135 A 
ATOM     95  F   UNL     1     -18.342   4.410  -3.920  1.00  0.00    -0.206 F 
ATOM     96  C   UNL     1     -20.223   5.802  -4.093  1.00  0.00     0.059 A 
ATOM     97  C   UNL     1     -20.019   8.176  -3.631  1.00  0.00     0.059 A 
ATOM     98  F   UNL     1     -17.933   9.075  -3.059  1.00  0.00    -0.206 F 
ATOM     99  C   UNL     1     -20.791   7.073  -3.992  1.00  0.00     0.060 A 
BRANCH  99 100
ATOM    100  S   UNL     1     -22.557   7.261  -4.315  1.00  0.00     0.124 S 
ATOM    101  O   UNL     1     -22.613   7.079  -5.761  1.00  0.00    -0.237 OA
ATOM    102  O   UNL     1     -23.136   6.185  -3.517  1.00  0.00    -0.237 OA
ATOM    103  O   UNL     1     -22.849   8.611  -3.841  1.00  0.00    -0.744 OA
ENDBRANCH  99 100
ENDBRANCH  67  92
ENDBRANCH  41  42
ENDBRANCH  34  36
ENDBRANCH  33  34
ENDBRANCH  32  33
ENDBRANCH  31  32
ENDBRANCH  30  31
ENDBRANCH  29  30
ENDBRANCH  28  29
ENDBRANCH  27  28
ENDBRANCH   1  27
TORSDOF 28
