REMARK SMILES CC1=C([C@H](NC(=O)[C@@H]2[C@H](C)c3cc(F)ccc3N2C)C(=O)OCCOCCOCCOCCOC(=O)c2ccc(-c3c4nc(c(-c5c(F)cc(S(=O)(=O)[O-])cc5F)c5ccc([nH]5)c(-c5c(F)cc(S(=O)(=O)[O-])cc5F)c5nc(c(-c6c(F)cc(S(=O)(=O)[O-])cc6F)c6ccc3[nH]6)C=C5)C=C4)cc2)[C@@H](C)N=N1
REMARK SMILES IDX 29 1 28 2 27 3 26 4 25 5 24 6 23 7 22 8 20 9 21 10 4 11 3 12
REMARK SMILES IDX 1 13 2 14 106 15 103 16 105 17 104 18 5 19 6 20 7 22 8 23
REMARK SMILES IDX 9 24 18 25 11 26 10 27 17 28 19 29 12 30 16 31 13 32 15 33
REMARK SMILES IDX 14 34 30 35 31 36 32 37 33 38 34 39 35 40 36 41 37 42 38 43
REMARK SMILES IDX 102 44 39 45 101 46 40 47 41 48 42 49 95 50 43 51 100 52
REMARK SMILES IDX 94 53 96 54 44 55 99 56 93 57 92 58 45 60 79 61 58 62 78 63
REMARK SMILES IDX 59 64 62 65 77 66 97 67 60 68 61 69 76 71 98 72 63 73 46 74
REMARK SMILES IDX 47 75 56 76 48 77 49 78 55 79 57 80 50 81 51 82 52 83 53 84
REMARK SMILES IDX 54 85 80 86 81 87 90 88 82 89 83 90 89 91 91 92 84 93 85 94
REMARK SMILES IDX 86 95 87 96 88 97 64 98 65 99 74 100 66 101 67 102 73 103
REMARK SMILES IDX 75 104 68 105 69 106 70 107 71 108 72 109
REMARK H PARENT 5 21 96 59 62 70
REMARK Flexibility Score: inf
ROOT
ATOM      1  C   UNL     1      -2.973   3.272  -0.967  1.00  0.00     0.188 C 
ENDROOT
BRANCH   1   2
ATOM      2  O   UNL     1      -1.715   2.683  -0.639  1.00  0.00    -0.377 OA
BRANCH   2   3
ATOM      3  C   UNL     1      -1.511   2.306   0.710  1.00  0.00     0.188 C 
BRANCH   3   4
ATOM      4  C   UNL     1      -1.337   3.455   1.709  1.00  0.00     0.188 C 
BRANCH   4   5
ATOM      5  O   UNL     1      -2.153   4.569   1.385  1.00  0.00    -0.376 OA
BRANCH   5   6
ATOM      6  C   UNL     1      -1.516   5.800   1.066  1.00  0.00     0.202 C 
BRANCH   6   7
ATOM      7  C   UNL     1      -0.693   5.916  -0.234  1.00  0.00     0.261 C 
BRANCH   7   8
ATOM      8  O   UNL     1       0.075   4.762  -0.605  1.00  0.00    -0.461 OA
BRANCH   8   9
ATOM      9  C   UNL     1       1.205   4.571   0.116  1.00  0.00     0.333 C 
ATOM     10  O   UNL     1       1.552   5.296   1.042  1.00  0.00    -0.249 OA
BRANCH   9  11
ATOM     11  C   UNL     1       1.980   3.300  -0.309  1.00  0.00     0.223 C 
BRANCH  11  12
ATOM     12  C   UNL     1       3.218   3.646  -1.052  1.00  0.00     0.012 C 
ATOM     13  C   UNL     1       4.472   4.972   0.717  1.00  0.00     0.069 C 
ATOM     14  C   UNL     1       4.288   4.319  -0.612  1.00  0.00     0.064 C 
ATOM     15  N   UNL     1       5.298   4.349  -1.539  1.00  0.00    -0.160 NA
ATOM     16  C   UNL     1       3.554   3.259  -2.451  1.00  0.00     0.156 C 
ATOM     17  N   UNL     1       4.942   3.766  -2.599  1.00  0.00    -0.181 NA
ATOM     18  C   UNL     1       2.677   3.884  -3.526  1.00  0.00     0.040 C 
ENDBRANCH  11  12
BRANCH  11  19
ATOM     19  N   UNL     1       1.218   2.308  -1.065  1.00  0.00    -0.337 N 
ATOM     20  C   UNL     1       1.388   0.945  -1.106  1.00  0.00     0.244 C 
ATOM     21  H   UNL     1       0.485   2.664  -1.618  1.00  0.00     0.164 HD
ATOM     22  O   UNL     1       0.569   0.282  -1.747  1.00  0.00    -0.273 OA
BRANCH  20  23
ATOM     23  C   UNL     1       2.560   0.303  -0.315  1.00  0.00     0.178 C 
ATOM     24  C   UNL     1       3.389  -0.781  -1.078  1.00  0.00     0.050 C 
ATOM     25  N   UNL     1       2.088  -0.331   0.950  1.00  0.00    -0.362 N 
ATOM     26  C   UNL     1       3.693  -1.740   0.043  1.00  0.00    -0.016 A 
ATOM     27  C   UNL     1       2.732  -1.504  -2.248  1.00  0.00     0.015 C 
ATOM     28  C   UNL     1       2.913  -1.433   1.163  1.00  0.00     0.041 A 
ATOM     29  C   UNL     1       1.611   0.434   2.077  1.00  0.00     0.144 C 
ATOM     30  C   UNL     1       4.598  -2.792   0.057  1.00  0.00     0.045 A 
ATOM     31  C   UNL     1       3.024  -2.193   2.318  1.00  0.00     0.029 A 
ATOM     32  C   UNL     1       4.708  -3.541   1.224  1.00  0.00     0.123 A 
ATOM     33  C   UNL     1       3.934  -3.252   2.350  1.00  0.00     0.041 A 
ATOM     34  F   UNL     1       5.574  -4.562   1.272  1.00  0.00    -0.207 F 
ENDBRANCH  20  23
ENDBRANCH  11  19
ENDBRANCH   9  11
ENDBRANCH   8   9
ENDBRANCH   7   8
ENDBRANCH   6   7
ENDBRANCH   5   6
ENDBRANCH   4   5
ENDBRANCH   3   4
ENDBRANCH   2   3
ENDBRANCH   1   2
BRANCH   1  35
ATOM     35  C   UNL     1      -4.173   3.085  -0.017  1.00  0.00     0.188 C 
BRANCH  35  36
ATOM     36  O   UNL     1      -4.351   1.732   0.388  1.00  0.00    -0.376 OA
BRANCH  36  37
ATOM     37  C   UNL     1      -5.420   1.031  -0.229  1.00  0.00     0.202 C 
BRANCH  37  38
ATOM     38  C   UNL     1      -5.203   0.730  -1.717  1.00  0.00     0.261 C 
BRANCH  38  39
ATOM     39  O   UNL     1      -5.244   1.903  -2.551  1.00  0.00    -0.460 OA
BRANCH  39  40
ATOM     40  C   UNL     1      -6.398   2.608  -2.612  1.00  0.00     0.338 C 
ATOM     41  O   UNL     1      -7.509   2.210  -2.302  1.00  0.00    -0.246 OA
BRANCH  40  42
ATOM     42  C   UNL     1      -6.004   4.035  -2.770  1.00  0.00     0.060 A 
ATOM     43  C   UNL     1      -4.863   4.384  -3.497  1.00  0.00     0.016 A 
ATOM     44  C   UNL     1      -6.622   4.982  -1.935  1.00  0.00     0.016 A 
ATOM     45  C   UNL     1      -4.287   5.635  -3.298  1.00  0.00     0.010 A 
ATOM     46  C   UNL     1      -6.042   6.242  -1.746  1.00  0.00     0.010 A 
ATOM     47  C   UNL     1      -4.852   6.563  -2.399  1.00  0.00    -0.014 A 
BRANCH  47  48
ATOM     48  C   UNL     1      -4.250   7.910  -2.387  1.00  0.00     0.031 A 
ATOM     49  C   UNL     1      -4.245   8.536  -3.737  1.00  0.00     0.074 A 
ATOM     50  C   UNL     1      -3.868   8.677  -1.342  1.00  0.00     0.049 A 
ATOM     51  N   UNL     1      -3.236   8.884  -4.466  1.00  0.00    -0.248 NA
ATOM     52  C   UNL     1      -5.554   8.676  -4.397  1.00  0.00     0.031 C 
ATOM     53  C   UNL     1      -4.152   8.451   0.074  1.00  0.00     0.029 A 
ATOM     54  N   UNL     1      -3.216   9.891  -1.340  1.00  0.00    -0.354 N 
ATOM     55  C   UNL     1      -3.794   9.487  -5.590  1.00  0.00     0.074 A 
ATOM     56  C   UNL     1      -5.201   9.182  -5.577  1.00  0.00     0.031 C 
ATOM     57  C   UNL     1      -3.853   9.571   0.771  1.00  0.00     0.029 A 
ATOM     58  C   UNL     1      -3.256  10.556  -0.120  1.00  0.00     0.049 A 
ATOM     59  H   UNL     1      -2.762  10.256  -2.134  1.00  0.00     0.167 HD
ATOM     60  C   UNL     1      -3.124  10.425  -6.308  1.00  0.00     0.037 A 
ATOM     61  C   UNL     1      -2.889  11.837   0.147  1.00  0.00     0.037 A 
ATOM     62  C   UNL     1      -1.718  10.439  -6.029  1.00  0.00     0.049 A 
ATOM     63  C   UNL     1      -1.950  12.318  -0.897  1.00  0.00     0.074 A 
ATOM     64  C   UNL     1      -0.596   9.745  -6.418  1.00  0.00     0.029 A 
ATOM     65  N   UNL     1      -1.372  11.200  -4.951  1.00  0.00    -0.354 N 
ATOM     66  N   UNL     1      -0.746  11.852  -1.080  1.00  0.00    -0.248 NA
ATOM     67  C   UNL     1      -2.423  13.243  -1.924  1.00  0.00     0.031 C 
ATOM     68  C   UNL     1       0.415  10.030  -5.452  1.00  0.00     0.029 A 
ATOM     69  C   UNL     1      -0.119  10.886  -4.495  1.00  0.00     0.049 A 
ATOM     70  H   UNL     1      -1.950  11.889  -4.551  1.00  0.00     0.167 HD
ATOM     71  C   UNL     1      -0.467  12.118  -2.403  1.00  0.00     0.074 A 
ATOM     72  C   UNL     1      -1.447  13.106  -2.823  1.00  0.00     0.031 C 
ATOM     73  C   UNL     1       0.267  11.250  -3.151  1.00  0.00     0.037 A 
BRANCH  60  74
ATOM     74  C   UNL     1      -3.802  11.638  -6.904  1.00  0.00     0.058 A 
ATOM     75  C   UNL     1      -3.116  12.426  -7.848  1.00  0.00     0.135 A 
ATOM     76  C   UNL     1      -4.971  12.214  -6.355  1.00  0.00     0.135 A 
ATOM     77  F   UNL     1      -1.975  11.986  -8.403  1.00  0.00    -0.206 F 
ATOM     78  C   UNL     1      -3.543  13.709  -8.195  1.00  0.00     0.059 A 
ATOM     79  C   UNL     1      -5.446  13.464  -6.730  1.00  0.00     0.059 A 
ATOM     80  F   UNL     1      -5.645  11.633  -5.354  1.00  0.00    -0.206 F 
ATOM     81  C   UNL     1      -4.705  14.222  -7.622  1.00  0.00     0.060 A 
BRANCH  81  82
ATOM     82  S   UNL     1      -5.215  15.907  -8.001  1.00  0.00     0.124 S 
ATOM     83  O   UNL     1      -4.220  16.682  -7.270  1.00  0.00    -0.237 OA
ATOM     84  O   UNL     1      -5.109  15.937  -9.456  1.00  0.00    -0.237 OA
ATOM     85  O   UNL     1      -6.577  15.969  -7.478  1.00  0.00    -0.744 OA
ENDBRANCH  81  82
ENDBRANCH  60  74
BRANCH  61  86
ATOM     86  C   UNL     1      -3.451  12.784   1.153  1.00  0.00     0.058 A 
ATOM     87  C   UNL     1      -2.786  13.986   1.474  1.00  0.00     0.135 A 
ATOM     88  C   UNL     1      -4.781  12.677   1.600  1.00  0.00     0.135 A 
ATOM     89  F   UNL     1      -1.519  14.186   1.080  1.00  0.00    -0.206 F 
ATOM     90  C   UNL     1      -3.425  15.042   2.131  1.00  0.00     0.059 A 
ATOM     91  C   UNL     1      -5.431  13.707   2.278  1.00  0.00     0.059 A 
ATOM     92  F   UNL     1      -5.527  11.602   1.307  1.00  0.00    -0.206 F 
ATOM     93  C   UNL     1      -4.758  14.901   2.508  1.00  0.00     0.060 A 
BRANCH  93  94
ATOM     94  S   UNL     1      -5.647  16.327   3.173  1.00  0.00     0.124 S 
ATOM     95  O   UNL     1      -5.006  16.503   4.471  1.00  0.00    -0.237 OA
ATOM     96  O   UNL     1      -5.366  17.355   2.177  1.00  0.00    -0.237 OA
ATOM     97  O   UNL     1      -7.034  15.868   3.218  1.00  0.00    -0.744 OA
ENDBRANCH  93  94
ENDBRANCH  61  86
BRANCH  73  98
ATOM     98  C   UNL     1       1.417  10.563  -2.493  1.00  0.00     0.058 A 
ATOM     99  C   UNL     1       1.325   9.657  -1.425  1.00  0.00     0.135 A 
ATOM    100  C   UNL     1       2.698  10.853  -2.991  1.00  0.00     0.135 A 
ATOM    101  F   UNL     1       0.131   9.257  -0.957  1.00  0.00    -0.206 F 
ATOM    102  C   UNL     1       2.468   9.114  -0.835  1.00  0.00     0.059 A 
ATOM    103  C   UNL     1       3.845  10.297  -2.445  1.00  0.00     0.059 A 
ATOM    104  F   UNL     1       2.845  11.682  -4.038  1.00  0.00    -0.206 F 
ATOM    105  C   UNL     1       3.723   9.445  -1.353  1.00  0.00     0.060 A 
BRANCH 105 106
ATOM    106  S   UNL     1       5.210   8.768  -0.594  1.00  0.00     0.124 S 
ATOM    107  O   UNL     1       4.951   8.931   0.833  1.00  0.00    -0.237 OA
ATOM    108  O   UNL     1       5.184   7.399  -1.089  1.00  0.00    -0.237 OA
ATOM    109  O   UNL     1       6.282   9.602  -1.129  1.00  0.00    -0.744 OA
ENDBRANCH 105 106
ENDBRANCH  73  98
ENDBRANCH  47  48
ENDBRANCH  40  42
ENDBRANCH  39  40
ENDBRANCH  38  39
ENDBRANCH  37  38
ENDBRANCH  36  37
ENDBRANCH  35  36
ENDBRANCH   1  35
TORSDOF 26
