REMARK SMILES CC(C)Oc1ccccc1NCc1cc(C(=O)OCCOCCOCCOCCOC(=O)c2ccc(-c3c4nc(c(-c5c(F)cc(S(=O)(=O)[O-])cc5F)c5ccc([nH]5)c(-c5c(F)cc(S(=O)(=O)[O-])cc5F)c5nc(c(-c6c(F)cc(S(=O)(=O)[O-])cc6F)c6ccc3[nH]6)C=C5)C=C4)cc2)cs1
REMARK SMILES IDX 23 1 22 2 21 3 20 4 19 5 18 6 16 7 17 8 15 9 13 10 14 11
REMARK SMILES IDX 100 12 99 13 12 14 11 15 10 17 5 18 6 19 7 20 9 21 8 22 4 23
REMARK SMILES IDX 2 24 1 25 3 26 24 27 25 28 26 29 27 30 28 31 29 32 30 33
REMARK SMILES IDX 31 34 32 35 33 36 34 37 98 38 35 39 97 40 36 41 37 42 38 43
REMARK SMILES IDX 91 44 39 45 96 46 90 47 92 48 40 49 95 50 89 51 88 52 41 54
REMARK SMILES IDX 75 55 54 56 74 57 55 58 58 59 73 60 93 61 56 62 57 63 72 65
REMARK SMILES IDX 94 66 59 67 42 68 43 69 52 70 44 71 45 72 51 73 53 74 46 75
REMARK SMILES IDX 47 76 48 77 49 78 50 79 76 80 77 81 86 82 78 83 79 84 85 85
REMARK SMILES IDX 87 86 80 87 81 88 82 89 83 90 84 91 60 92 61 93 70 94 62 95
REMARK SMILES IDX 63 96 69 97 71 98 64 99 65 100 66 101 67 102 68 103
REMARK H PARENT 11 16 92 53 58 64
REMARK Flexibility Score: inf
ROOT
ATOM      1  C   UNL     1       3.521   5.923   0.904  1.00  0.00     0.188 C 
ENDROOT
BRANCH   1   2
ATOM      2  C   UNL     1       4.928   6.310   0.422  1.00  0.00     0.188 C 
BRANCH   2   3
ATOM      3  O   UNL     1       5.076   7.703   0.155  1.00  0.00    -0.376 OA
BRANCH   3   4
ATOM      4  C   UNL     1       5.136   8.085  -1.213  1.00  0.00     0.202 C 
BRANCH   4   5
ATOM      5  C   UNL     1       3.800   8.055  -1.972  1.00  0.00     0.261 C 
BRANCH   5   6
ATOM      6  O   UNL     1       3.165   6.771  -2.075  1.00  0.00    -0.460 OA
BRANCH   6   7
ATOM      7  C   UNL     1       3.857   5.765  -2.663  1.00  0.00     0.339 C 
ATOM      8  O   UNL     1       4.968   5.880  -3.167  1.00  0.00    -0.246 OA
BRANCH   7   9
ATOM      9  C   UNL     1       3.169   4.485  -2.536  1.00  0.00     0.071 A 
ATOM     10  C   UNL     1       1.411   2.933  -2.368  1.00  0.00     0.025 A 
ATOM     11  C   UNL     1       1.755   4.272  -2.392  1.00  0.00     0.033 A 
ATOM     12  S   UNL     1       2.804   1.936  -2.392  1.00  0.00    -0.146 S 
ATOM     13  C   UNL     1       3.847   3.281  -2.511  1.00  0.00     0.080 A 
BRANCH  10  14
ATOM     14  C   UNL     1       0.034   2.324  -2.388  1.00  0.00     0.160 C 
BRANCH  14  15
ATOM     15  N   UNL     1      -0.310   1.529  -1.228  1.00  0.00    -0.377 N 
ATOM     16  H   UNL     1       0.208   0.701  -1.102  1.00  0.00     0.161 HD
BRANCH  15  17
ATOM     17  C   UNL     1      -1.275   1.791  -0.276  1.00  0.00     0.077 A 
ATOM     18  C   UNL     1      -1.527   0.841   0.738  1.00  0.00     0.142 A 
ATOM     19  C   UNL     1      -2.549   1.018   1.677  1.00  0.00     0.048 A 
ATOM     20  C   UNL     1      -3.303   2.187   1.665  1.00  0.00     0.004 A 
ATOM     21  C   UNL     1      -2.026   2.971  -0.239  1.00  0.00     0.029 A 
ATOM     22  C   UNL     1      -3.035   3.166   0.714  1.00  0.00     0.002 A 
BRANCH  18  23
ATOM     23  O   UNL     1      -0.856  -0.356   0.746  1.00  0.00    -0.489 OA
BRANCH  23  24
ATOM     24  C   UNL     1       0.350  -0.425   1.533  1.00  0.00     0.167 C 
ATOM     25  C   UNL     1       1.544  -0.553   0.590  1.00  0.00     0.052 C 
ATOM     26  C   UNL     1       0.601   0.663   2.579  1.00  0.00     0.052 C 
ENDBRANCH  23  24
ENDBRANCH  18  23
ENDBRANCH  15  17
ENDBRANCH  14  15
ENDBRANCH  10  14
ENDBRANCH   7   9
ENDBRANCH   6   7
ENDBRANCH   5   6
ENDBRANCH   4   5
ENDBRANCH   3   4
ENDBRANCH   2   3
ENDBRANCH   1   2
BRANCH   1  27
ATOM     27  O   UNL     1       2.571   6.969   0.827  1.00  0.00    -0.377 OA
BRANCH  27  28
ATOM     28  C   UNL     1       2.642   8.039   1.768  1.00  0.00     0.188 C 
BRANCH  28  29
ATOM     29  C   UNL     1       3.833   8.220   2.736  1.00  0.00     0.188 C 
BRANCH  29  30
ATOM     30  O   UNL     1       4.314   7.011   3.321  1.00  0.00    -0.376 OA
BRANCH  30  31
ATOM     31  C   UNL     1       4.048   6.839   4.707  1.00  0.00     0.202 C 
BRANCH  31  32
ATOM     32  C   UNL     1       2.626   6.343   4.987  1.00  0.00     0.261 C 
BRANCH  32  33
ATOM     33  O   UNL     1       1.592   7.279   4.647  1.00  0.00    -0.460 OA
BRANCH  33  34
ATOM     34  C   UNL     1       1.609   8.466   5.292  1.00  0.00     0.338 C 
ATOM     35  O   UNL     1       2.375   8.817   6.170  1.00  0.00    -0.246 OA
BRANCH  34  36
ATOM     36  C   UNL     1       0.637   9.353   4.627  1.00  0.00     0.060 A 
ATOM     37  C   UNL     1       1.071  10.599   4.158  1.00  0.00     0.016 A 
ATOM     38  C   UNL     1      -0.692   8.953   4.472  1.00  0.00     0.016 A 
ATOM     39  C   UNL     1       0.157  11.470   3.566  1.00  0.00     0.010 A 
ATOM     40  C   UNL     1      -1.607   9.831   3.893  1.00  0.00     0.010 A 
ATOM     41  C   UNL     1      -1.193  11.105   3.469  1.00  0.00    -0.014 A 
BRANCH  41  42
ATOM     42  C   UNL     1      -2.211  12.117   3.105  1.00  0.00     0.031 A 
ATOM     43  C   UNL     1      -2.913  12.850   4.214  1.00  0.00     0.074 A 
ATOM     44  C   UNL     1      -2.516  12.368   1.821  1.00  0.00     0.049 A 
ATOM     45  N   UNL     1      -3.865  13.742   4.147  1.00  0.00    -0.248 NA
ATOM     46  C   UNL     1      -2.483  12.528   5.585  1.00  0.00     0.031 C 
ATOM     47  C   UNL     1      -1.889  11.735   0.662  1.00  0.00     0.029 A 
ATOM     48  N   UNL     1      -3.446  13.220   1.280  1.00  0.00    -0.354 N 
ATOM     49  C   UNL     1      -4.150  14.088   5.462  1.00  0.00     0.074 A 
ATOM     50  C   UNL     1      -3.291  13.288   6.308  1.00  0.00     0.031 C 
ATOM     51  C   UNL     1      -2.463  12.214  -0.456  1.00  0.00     0.029 A 
ATOM     52  C   UNL     1      -3.512  13.165  -0.090  1.00  0.00     0.049 A 
ATOM     53  H   UNL     1      -4.012  13.814   1.824  1.00  0.00     0.167 HD
ATOM     54  C   UNL     1      -5.042  14.995   5.924  1.00  0.00     0.037 A 
ATOM     55  C   UNL     1      -4.337  13.799  -0.947  1.00  0.00     0.037 A 
ATOM     56  C   UNL     1      -5.904  15.778   5.080  1.00  0.00     0.049 A 
ATOM     57  C   UNL     1      -5.368  14.758  -0.408  1.00  0.00     0.074 A 
ATOM     58  C   UNL     1      -6.828  16.739   5.448  1.00  0.00     0.029 A 
ATOM     59  N   UNL     1      -5.958  15.678   3.698  1.00  0.00    -0.354 N 
ATOM     60  N   UNL     1      -5.602  15.105   0.836  1.00  0.00    -0.248 NA
ATOM     61  C   UNL     1      -6.246  15.411  -1.389  1.00  0.00     0.031 C 
ATOM     62  C   UNL     1      -7.473  17.190   4.291  1.00  0.00     0.029 A 
ATOM     63  C   UNL     1      -6.918  16.542   3.198  1.00  0.00     0.049 A 
ATOM     64  H   UNL     1      -5.397  15.081   3.152  1.00  0.00     0.167 HD
ATOM     65  C   UNL     1      -6.636  16.035   0.784  1.00  0.00     0.074 A 
ATOM     66  C   UNL     1      -6.978  16.200  -0.614  1.00  0.00     0.031 C 
ATOM     67  C   UNL     1      -7.244  16.695   1.802  1.00  0.00     0.037 A 
BRANCH  54  68
ATOM     68  C   UNL     1      -5.141  15.161   7.413  1.00  0.00     0.058 A 
ATOM     69  C   UNL     1      -4.132  15.798   8.152  1.00  0.00     0.135 A 
ATOM     70  C   UNL     1      -6.257  14.672   8.110  1.00  0.00     0.135 A 
ATOM     71  F   UNL     1      -3.034  16.264   7.536  1.00  0.00    -0.206 F 
ATOM     72  C   UNL     1      -4.209  15.914   9.536  1.00  0.00     0.059 A 
ATOM     73  C   UNL     1      -6.367  14.798   9.491  1.00  0.00     0.059 A 
ATOM     74  F   UNL     1      -7.247  14.050   7.451  1.00  0.00    -0.206 F 
ATOM     75  C   UNL     1      -5.328  15.405  10.197  1.00  0.00     0.060 A 
BRANCH  75  76
ATOM     76  S   UNL     1      -5.408  15.544  11.995  1.00  0.00     0.124 S 
ATOM     77  O   UNL     1      -4.464  14.509  12.408  1.00  0.00    -0.237 OA
ATOM     78  O   UNL     1      -4.977  16.920  12.223  1.00  0.00    -0.237 OA
ATOM     79  O   UNL     1      -6.810  15.271  12.295  1.00  0.00    -0.744 OA
ENDBRANCH  75  76
ENDBRANCH  54  68
BRANCH  55  80
ATOM     80  C   UNL     1      -4.222  13.548  -2.407  1.00  0.00     0.058 A 
ATOM     81  C   UNL     1      -3.705  14.525  -3.269  1.00  0.00     0.135 A 
ATOM     82  C   UNL     1      -4.615  12.323  -2.967  1.00  0.00     0.135 A 
ATOM     83  F   UNL     1      -3.328  15.717  -2.782  1.00  0.00    -0.206 F 
ATOM     84  C   UNL     1      -3.582  14.299  -4.636  1.00  0.00     0.059 A 
ATOM     85  C   UNL     1      -4.483  12.065  -4.328  1.00  0.00     0.059 A 
ATOM     86  F   UNL     1      -5.111  11.353  -2.182  1.00  0.00    -0.206 F 
ATOM     87  C   UNL     1      -3.970  13.063  -5.156  1.00  0.00     0.060 A 
BRANCH  87  88
ATOM     88  S   UNL     1      -3.742  12.754  -6.921  1.00  0.00     0.124 S 
ATOM     89  O   UNL     1      -4.822  13.544  -7.500  1.00  0.00    -0.237 OA
ATOM     90  O   UNL     1      -2.390  13.255  -7.148  1.00  0.00    -0.237 OA
ATOM     91  O   UNL     1      -3.890  11.305  -7.028  1.00  0.00    -0.744 OA
ENDBRANCH  87  88
ENDBRANCH  55  80
BRANCH  67  92
ATOM     92  C   UNL     1      -8.324  17.679   1.444  1.00  0.00     0.058 A 
ATOM     93  C   UNL     1      -9.600  17.258   1.039  1.00  0.00     0.135 A 
ATOM     94  C   UNL     1      -8.096  19.059   1.569  1.00  0.00     0.135 A 
ATOM     95  F   UNL     1      -9.867  15.950   0.899  1.00  0.00    -0.206 F 
ATOM     96  C   UNL     1     -10.608  18.173   0.752  1.00  0.00     0.059 A 
ATOM     97  C   UNL     1      -9.097  19.991   1.310  1.00  0.00     0.059 A 
ATOM     98  F   UNL     1      -6.896  19.514   1.964  1.00  0.00    -0.206 F 
ATOM     99  C   UNL     1     -10.347  19.538   0.891  1.00  0.00     0.060 A 
BRANCH  99 100
ATOM    100  S   UNL     1     -11.674  20.715   0.552  1.00  0.00     0.124 S 
ATOM    101  O   UNL     1     -11.706  20.709  -0.906  1.00  0.00    -0.237 OA
ATOM    102  O   UNL     1     -12.819  20.097   1.214  1.00  0.00    -0.237 OA
ATOM    103  O   UNL     1     -11.196  21.950   1.166  1.00  0.00    -0.744 OA
ENDBRANCH  99 100
ENDBRANCH  67  92
ENDBRANCH  41  42
ENDBRANCH  34  36
ENDBRANCH  33  34
ENDBRANCH  32  33
ENDBRANCH  31  32
ENDBRANCH  30  31
ENDBRANCH  29  30
ENDBRANCH  28  29
ENDBRANCH  27  28
ENDBRANCH   1  27
TORSDOF 28
