REMARK SMILES O=C(OCCOCCOCCOCCOC(=O)[C@@H]1C[NH2+]C[C@H](c2ccc(F)cc2)C1)c1ccc(-c2c3nc(c(-c4c(F)cc(S(=O)(=O)[O-])cc4F)c4ccc([nH]4)c(-c4c(F)cc(S(=O)(=O)[O-])cc4F)c4nc(c(-c5c(F)cc(S(=O)(=O)[O-])cc5F)c5ccc2[nH]5)C=C4)C=C3)cc1
REMARK SMILES IDX 8 1 7 2 6 3 5 4 4 5 3 6 2 7 1 8 31 9 32 10 96 11 33 12 95 13
REMARK SMILES IDX 34 14 35 15 36 16 89 17 37 18 94 19 88 20 90 21 38 22 93 23
REMARK SMILES IDX 87 24 86 25 39 27 73 28 52 29 72 30 53 31 56 32 71 33 91 34
REMARK SMILES IDX 54 35 55 36 70 38 92 39 57 40 40 41 41 42 50 43 42 44 43 45
REMARK SMILES IDX 49 46 51 47 44 48 45 49 46 50 47 51 48 52 74 53 75 54 84 55
REMARK SMILES IDX 76 56 77 57 83 58 85 59 78 60 79 61 80 62 81 63 82 64 58 65
REMARK SMILES IDX 59 66 68 67 60 68 61 69 67 70 69 71 62 72 63 73 64 74 65 75
REMARK SMILES IDX 66 76 9 77 10 78 11 79 12 80 13 81 14 82 15 83 16 84 17 85
REMARK SMILES IDX 18 86 19 87 30 88 20 89 22 90 21 91 23 94 24 95 29 96 25 97
REMARK SMILES IDX 28 98 26 99 27 100
REMARK H PARENT 90 26 56 37 20 92 20 93
REMARK Flexibility Score: inf
ROOT
ATOM      1  C   UNL     1       7.939  -0.240   8.800  1.00  0.00     0.188 C 
ENDROOT
BRANCH   1   2
ATOM      2  C   UNL     1       8.043   1.234   9.180  1.00  0.00     0.188 C 
BRANCH   2   3
ATOM      3  O   UNL     1       6.750   1.807   9.372  1.00  0.00    -0.376 OA
BRANCH   3   4
ATOM      4  C   UNL     1       6.528   3.075   8.753  1.00  0.00     0.202 C 
BRANCH   4   5
ATOM      5  C   UNL     1       7.146   4.256   9.497  1.00  0.00     0.261 C 
BRANCH   5   6
ATOM      6  O   UNL     1       8.310   3.898  10.254  1.00  0.00    -0.460 OA
BRANCH   6   7
ATOM      7  C   UNL     1       8.374   3.415  11.519  1.00  0.00     0.338 C 
ATOM      8  O   UNL     1       9.492   3.208  11.994  1.00  0.00    -0.246 OA
BRANCH   7   9
ATOM      9  C   UNL     1       7.187   3.088  12.375  1.00  0.00     0.060 A 
ATOM     10  C   UNL     1       5.904   2.791  11.915  1.00  0.00     0.016 A 
ATOM     11  C   UNL     1       7.419   2.977  13.757  1.00  0.00     0.016 A 
ATOM     12  C   UNL     1       4.891   2.378  12.762  1.00  0.00     0.010 A 
ATOM     13  C   UNL     1       6.401   2.581  14.631  1.00  0.00     0.010 A 
ATOM     14  C   UNL     1       5.135   2.281  14.123  1.00  0.00    -0.014 A 
BRANCH  14  15
ATOM     15  C   UNL     1       3.974   2.035  14.985  1.00  0.00     0.031 A 
ATOM     16  C   UNL     1       3.349   3.222  15.642  1.00  0.00     0.074 A 
ATOM     17  C   UNL     1       3.415   0.812  15.017  1.00  0.00     0.049 A 
ATOM     18  N   UNL     1       2.387   3.265  16.516  1.00  0.00    -0.248 NA
ATOM     19  C   UNL     1       3.863   4.548  15.243  1.00  0.00     0.031 C 
ATOM     20  C   UNL     1       3.871  -0.345  14.238  1.00  0.00     0.029 A 
ATOM     21  N   UNL     1       2.333   0.340  15.709  1.00  0.00    -0.354 N 
ATOM     22  C   UNL     1       2.208   4.612  16.803  1.00  0.00     0.074 A 
ATOM     23  C   UNL     1       3.141   5.362  15.998  1.00  0.00     0.031 C 
ATOM     24  C   UNL     1       3.078  -1.395  14.507  1.00  0.00     0.029 A 
ATOM     25  C   UNL     1       2.119  -1.007  15.534  1.00  0.00     0.049 A 
ATOM     26  H   UNL     1       1.764   0.909  16.276  1.00  0.00     0.167 HD
ATOM     27  C   UNL     1       1.343   5.151  17.684  1.00  0.00     0.037 A 
ATOM     28  C   UNL     1       1.283  -1.834  16.192  1.00  0.00     0.037 A 
ATOM     29  C   UNL     1       0.426   4.355  18.449  1.00  0.00     0.049 A 
ATOM     30  C   UNL     1       0.422  -1.224  17.269  1.00  0.00     0.074 A 
ATOM     31  C   UNL     1      -0.466   4.762  19.421  1.00  0.00     0.029 A 
ATOM     32  N   UNL     1       0.292   2.978  18.321  1.00  0.00    -0.354 N 
ATOM     33  N   UNL     1       0.303   0.041  17.604  1.00  0.00    -0.248 NA
ATOM     34  C   UNL     1      -0.389  -2.140  18.078  1.00  0.00     0.031 C 
ATOM     35  C   UNL     1      -1.100   3.622  19.919  1.00  0.00     0.029 A 
ATOM     36  C   UNL     1      -0.644   2.511  19.221  1.00  0.00     0.049 A 
ATOM     37  H   UNL     1       0.790   2.419  17.682  1.00  0.00     0.167 HD
ATOM     38  C   UNL     1      -0.594   0.074  18.662  1.00  0.00     0.074 A 
ATOM     39  C   UNL     1      -1.011  -1.296  18.892  1.00  0.00     0.031 C 
ATOM     40  C   UNL     1      -1.028   1.131  19.392  1.00  0.00     0.037 A 
BRANCH  27  41
ATOM     41  C   UNL     1       1.399   6.629  17.920  1.00  0.00     0.058 A 
ATOM     42  C   UNL     1       1.954   7.123  19.111  1.00  0.00     0.135 A 
ATOM     43  C   UNL     1       0.862   7.553  17.012  1.00  0.00     0.135 A 
ATOM     44  F   UNL     1       2.514   6.282  19.995  1.00  0.00    -0.206 F 
ATOM     45  C   UNL     1       1.933   8.478  19.416  1.00  0.00     0.059 A 
ATOM     46  C   UNL     1       0.847   8.918  17.288  1.00  0.00     0.059 A 
ATOM     47  F   UNL     1       0.364   7.135  15.837  1.00  0.00    -0.206 F 
ATOM     48  C   UNL     1       1.363   9.367  18.504  1.00  0.00     0.060 A 
BRANCH  48  49
ATOM     49  S   UNL     1       1.305  11.117  18.939  1.00  0.00     0.124 S 
ATOM     50  O   UNL     1       0.379  11.115  20.067  1.00  0.00    -0.237 OA
ATOM     51  O   UNL     1       2.701  11.398  19.261  1.00  0.00    -0.237 OA
ATOM     52  O   UNL     1       0.810  11.753  17.721  1.00  0.00    -0.744 OA
ENDBRANCH  48  49
ENDBRANCH  27  41
BRANCH  28  53
ATOM     53  C   UNL     1       1.305  -3.302  15.937  1.00  0.00     0.058 A 
ATOM     54  C   UNL     1       2.459  -4.063  16.193  1.00  0.00     0.135 A 
ATOM     55  C   UNL     1       0.179  -3.983  15.451  1.00  0.00     0.135 A 
ATOM     56  F   UNL     1       3.570  -3.471  16.660  1.00  0.00    -0.206 F 
ATOM     57  C   UNL     1       2.503  -5.434  15.963  1.00  0.00     0.059 A 
ATOM     58  C   UNL     1       0.188  -5.363  15.244  1.00  0.00     0.059 A 
ATOM     59  F   UNL     1      -0.954  -3.311  15.201  1.00  0.00    -0.206 F 
ATOM     60  C   UNL     1       1.359  -6.077  15.494  1.00  0.00     0.060 A 
BRANCH  60  61
ATOM     61  S   UNL     1       1.428  -7.866  15.254  1.00  0.00     0.124 S 
ATOM     62  O   UNL     1       2.314  -7.974  14.101  1.00  0.00    -0.237 OA
ATOM     63  O   UNL     1       1.976  -8.325  16.524  1.00  0.00    -0.237 OA
ATOM     64  O   UNL     1       0.031  -8.226  15.009  1.00  0.00    -0.744 OA
ENDBRANCH  60  61
ENDBRANCH  28  53
BRANCH  40  65
ATOM     65  C   UNL     1      -1.998   0.852  20.499  1.00  0.00     0.058 A 
ATOM     66  C   UNL     1      -3.331   1.277  20.393  1.00  0.00     0.135 A 
ATOM     67  C   UNL     1      -1.566   0.301  21.714  1.00  0.00     0.135 A 
ATOM     68  F   UNL     1      -3.781   1.819  19.250  1.00  0.00    -0.206 F 
ATOM     69  C   UNL     1      -4.195   1.206  21.476  1.00  0.00     0.059 A 
ATOM     70  C   UNL     1      -2.424   0.193  22.801  1.00  0.00     0.059 A 
ATOM     71  F   UNL     1      -0.301  -0.128  21.850  1.00  0.00    -0.206 F 
ATOM     72  C   UNL     1      -3.728   0.673  22.679  1.00  0.00     0.060 A 
BRANCH  72  73
ATOM     73  S   UNL     1      -4.854   0.630  24.086  1.00  0.00     0.124 S 
ATOM     74  O   UNL     1      -4.994   2.048  24.399  1.00  0.00    -0.237 OA
ATOM     75  O   UNL     1      -6.032  -0.015  23.515  1.00  0.00    -0.237 OA
ATOM     76  O   UNL     1      -4.130  -0.164  25.075  1.00  0.00    -0.744 OA
ENDBRANCH  72  73
ENDBRANCH  40  65
ENDBRANCH  14  15
ENDBRANCH   7   9
ENDBRANCH   6   7
ENDBRANCH   5   6
ENDBRANCH   4   5
ENDBRANCH   3   4
ENDBRANCH   2   3
ENDBRANCH   1   2
BRANCH   1  77
ATOM     77  O   UNL     1       7.249  -0.477   7.578  1.00  0.00    -0.377 OA
BRANCH  77  78
ATOM     78  C   UNL     1       5.949   0.090   7.478  1.00  0.00     0.188 C 
BRANCH  78  79
ATOM     79  C   UNL     1       4.870  -0.256   8.519  1.00  0.00     0.188 C 
BRANCH  79  80
ATOM     80  O   UNL     1       5.278  -1.204   9.487  1.00  0.00    -0.376 OA
BRANCH  80  81
ATOM     81  C   UNL     1       4.796  -2.525   9.253  1.00  0.00     0.202 C 
BRANCH  81  82
ATOM     82  C   UNL     1       5.439  -3.261   8.064  1.00  0.00     0.261 C 
BRANCH  82  83
ATOM     83  O   UNL     1       5.362  -2.587   6.782  1.00  0.00    -0.463 OA
BRANCH  83  84
ATOM     84  C   UNL     1       4.224  -2.645   6.050  1.00  0.00     0.314 C 
ATOM     85  O   UNL     1       3.223  -3.259   6.400  1.00  0.00    -0.252 OA
BRANCH  84  86
ATOM     86  C   UNL     1       4.261  -1.748   4.793  1.00  0.00     0.155 C 
ATOM     87  C   UNL     1       5.680  -1.447   4.270  1.00  0.00     0.275 C 
ATOM     88  C   UNL     1       3.409  -0.486   5.064  1.00  0.00     0.035 C 
ATOM     89  N   UNL     1       5.719  -0.371   3.268  1.00  0.00    -0.345 N 
ATOM     90  C   UNL     1       3.631   0.697   4.101  1.00  0.00     0.075 C 
ATOM     91  C   UNL     1       5.128   0.871   3.779  1.00  0.00     0.268 C 
ATOM     92  H   UNL     1       5.199  -0.670   2.443  1.00  0.00     0.346 HD
ATOM     93  H   UNL     1       6.696  -0.187   3.039  1.00  0.00     0.346 HD
BRANCH  90  94
ATOM     94  C   UNL     1       3.007   2.030   4.546  1.00  0.00    -0.039 A 
ATOM     95  C   UNL     1       2.815   3.040   3.581  1.00  0.00     0.007 A 
ATOM     96  C   UNL     1       2.605   2.309   5.867  1.00  0.00     0.007 A 
ATOM     97  C   UNL     1       2.237   4.269   3.919  1.00  0.00     0.039 A 
ATOM     98  C   UNL     1       2.023   3.538   6.204  1.00  0.00     0.039 A 
ATOM     99  C   UNL     1       1.842   4.505   5.227  1.00  0.00     0.123 A 
ATOM    100  F   UNL     1       1.279   5.677   5.548  1.00  0.00    -0.207 F 
ENDBRANCH  90  94
ENDBRANCH  84  86
ENDBRANCH  83  84
ENDBRANCH  82  83
ENDBRANCH  81  82
ENDBRANCH  80  81
ENDBRANCH  79  80
ENDBRANCH  78  79
ENDBRANCH  77  78
ENDBRANCH   1  77
TORSDOF 24
