REMARK SMILES Cc1ccc(C(=O)OCCOCCOCCOCCOC(=O)c2ccc(-c3c4nc(c(-c5c(F)cc(S(=O)(=O)[O-])cc5F)c5ccc([nH]5)c(-c5c(F)cc(S(=O)(=O)[O-])cc5F)c5nc(c(-c6c(F)cc(S(=O)(=O)[O-])cc6F)c6ccc3[nH]6)C=C5)C=C4)cc2)cc1O[C@@H](C)C(=O)N[C@@H]1CCS(=O)(=O)C1
REMARK SMILES IDX 13 1 12 2 11 3 10 4 9 5 8 6 6 7 7 8 5 9 1 10 2 11 3 12 90 13
REMARK SMILES IDX 4 14 89 15 91 16 92 17 93 18 94 19 95 20 96 21 97 23 98 24
REMARK SMILES IDX 103 25 99 26 100 27 101 28 102 29 14 30 15 31 16 32 17 33
REMARK SMILES IDX 18 34 19 35 20 36 21 37 22 38 23 39 24 40 88 41 25 42 87 43
REMARK SMILES IDX 26 44 27 45 28 46 81 47 29 48 86 49 80 50 82 51 30 52 85 53
REMARK SMILES IDX 79 54 78 55 31 57 65 58 44 59 64 60 45 61 48 62 63 63 83 64
REMARK SMILES IDX 46 65 47 66 62 68 84 69 49 70 32 71 33 72 42 73 34 74 35 75
REMARK SMILES IDX 41 76 43 77 36 78 37 79 38 80 39 81 40 82 66 83 67 84 76 85
REMARK SMILES IDX 68 86 69 87 75 88 77 89 70 90 71 91 72 92 73 93 74 94 50 95
REMARK SMILES IDX 51 96 60 97 52 98 53 99 59 100 61 101 54 102 55 103 56 104
REMARK SMILES IDX 57 105 58 106
REMARK H PARENT 96 22 82 56 48 67
REMARK Flexibility Score: inf
ROOT
ATOM      1  C   UNL     1      -2.987   0.796  -3.627  1.00  0.00     0.188 C 
ENDROOT
BRANCH   1   2
ATOM      2  C   UNL     1      -4.479   0.560  -3.232  1.00  0.00     0.188 C 
BRANCH   2   3
ATOM      3  O   UNL     1      -5.489   1.564  -2.547  1.00  0.00    -0.376 OA
BRANCH   3   4
ATOM      4  C   UNL     1      -6.193   1.606  -0.985  1.00  0.00     0.202 C 
BRANCH   4   5
ATOM      5  C   UNL     1      -5.770   1.116   0.758  1.00  0.00     0.261 C 
BRANCH   5   6
ATOM      6  O   UNL     1      -4.301   0.554   1.536  1.00  0.00    -0.460 OA
BRANCH   6   7
ATOM      7  C   UNL     1      -3.399  -0.577   1.693  1.00  0.00     0.338 C 
ATOM      8  O   UNL     1      -3.614  -1.685   1.170  1.00  0.00    -0.246 OA
BRANCH   7   9
ATOM      9  C   UNL     1      -1.789  -0.589   2.082  1.00  0.00     0.063 A 
ATOM     10  C   UNL     1       2.594  -1.293   1.831  1.00  0.00     0.048 C 
ATOM     11  C   UNL     1       1.130  -0.957   1.812  1.00  0.00    -0.009 A 
ATOM     12  C   UNL     1       0.228  -2.030   1.767  1.00  0.00     0.008 A 
ATOM     13  C   UNL     1       0.587   0.320   1.925  1.00  0.00     0.124 A 
ATOM     14  C   UNL     1      -1.167  -1.846   1.862  1.00  0.00     0.016 A 
ATOM     15  C   UNL     1      -0.847   0.467   2.213  1.00  0.00     0.062 A 
BRANCH  13  16
ATOM     16  O   UNL     1       1.261   1.494   1.692  1.00  0.00    -0.481 OA
BRANCH  16  17
ATOM     17  C   UNL     1       2.523   1.784   1.070  1.00  0.00     0.258 C 
ATOM     18  C   UNL     1       3.513   2.133   2.199  1.00  0.00     0.064 C 
BRANCH  17  19
ATOM     19  C   UNL     1       3.442   1.341  -0.211  1.00  0.00     0.261 C 
ATOM     20  O   UNL     1       4.560   1.848  -0.393  1.00  0.00    -0.271 OA
ATOM     21  N   UNL     1       3.041   0.502  -1.208  1.00  0.00    -0.349 N 
ATOM     22  H   UNL     1       3.726   0.250  -1.868  1.00  0.00     0.163 HD
BRANCH  21  23
ATOM     23  C   UNL     1       1.727  -0.057  -1.405  1.00  0.00     0.098 C 
ATOM     24  C   UNL     1       1.559  -0.856  -2.736  1.00  0.00     0.042 C 
ATOM     25  C   UNL     1       0.726   1.076  -1.410  1.00  0.00     0.161 C 
ATOM     26  C   UNL     1       0.431  -0.181  -3.538  1.00  0.00     0.139 C 
ATOM     27  S   UNL     1       0.645   1.534  -3.099  1.00  0.00     0.152 S 
ATOM     28  O   UNL     1       1.924   1.979  -3.557  1.00  0.00    -0.229 OA
ATOM     29  O   UNL     1      -0.546   2.362  -3.259  1.00  0.00    -0.229 OA
ENDBRANCH  21  23
ENDBRANCH  17  19
ENDBRANCH  16  17
ENDBRANCH  13  16
ENDBRANCH   7   9
ENDBRANCH   6   7
ENDBRANCH   5   6
ENDBRANCH   4   5
ENDBRANCH   3   4
ENDBRANCH   2   3
ENDBRANCH   1   2
BRANCH   1  30
ATOM     30  O   UNL     1      -2.649   1.458  -4.825  1.00  0.00    -0.377 OA
BRANCH  30  31
ATOM     31  C   UNL     1      -3.615   2.441  -5.126  1.00  0.00     0.188 C 
BRANCH  31  32
ATOM     32  C   UNL     1      -4.744   1.828  -5.954  1.00  0.00     0.188 C 
BRANCH  32  33
ATOM     33  O   UNL     1      -4.924   0.437  -5.793  1.00  0.00    -0.376 OA
BRANCH  33  34
ATOM     34  C   UNL     1      -4.118  -0.536  -6.404  1.00  0.00     0.202 C 
BRANCH  34  35
ATOM     35  C   UNL     1      -4.973  -1.002  -7.562  1.00  0.00     0.261 C 
BRANCH  35  36
ATOM     36  O   UNL     1      -6.170  -1.680  -7.062  1.00  0.00    -0.460 OA
BRANCH  36  37
ATOM     37  C   UNL     1      -7.137  -0.910  -6.459  1.00  0.00     0.338 C 
ATOM     38  O   UNL     1      -7.849  -0.121  -7.057  1.00  0.00    -0.246 OA
BRANCH  37  39
ATOM     39  C   UNL     1      -7.175  -1.175  -4.969  1.00  0.00     0.060 A 
ATOM     40  C   UNL     1      -7.785  -0.286  -4.084  1.00  0.00     0.016 A 
ATOM     41  C   UNL     1      -6.387  -2.186  -4.414  1.00  0.00     0.016 A 
ATOM     42  C   UNL     1      -7.435  -0.305  -2.704  1.00  0.00     0.010 A 
ATOM     43  C   UNL     1      -5.908  -2.072  -3.096  1.00  0.00     0.010 A 
ATOM     44  C   UNL     1      -6.286  -1.005  -2.246  1.00  0.00    -0.014 A 
BRANCH  44  45
ATOM     45  C   UNL     1      -5.160  -0.690  -0.969  1.00  0.00     0.031 A 
ATOM     46  C   UNL     1      -5.791  -1.696   0.124  1.00  0.00     0.074 A 
ATOM     47  C   UNL     1      -4.005   0.406  -0.851  1.00  0.00     0.049 A 
ATOM     48  N   UNL     1      -6.020  -1.462   1.391  1.00  0.00    -0.248 NA
ATOM     49  C   UNL     1      -6.554  -2.913  -0.266  1.00  0.00     0.031 C 
ATOM     50  C   UNL     1      -2.628   0.572  -0.299  1.00  0.00     0.029 A 
ATOM     51  N   UNL     1      -3.947   1.906  -1.125  1.00  0.00    -0.354 N 
ATOM     52  C   UNL     1      -6.374  -2.650   1.977  1.00  0.00     0.074 A 
ATOM     53  C   UNL     1      -7.011  -3.344   0.909  1.00  0.00     0.031 C 
ATOM     54  C   UNL     1      -2.373   1.842   0.187  1.00  0.00     0.029 A 
ATOM     55  C   UNL     1      -3.425   2.735  -0.159  1.00  0.00     0.049 A 
ATOM     56  H   UNL     1      -4.277   2.273  -1.977  1.00  0.00     0.167 HD
ATOM     57  C   UNL     1      -5.804  -3.032   3.162  1.00  0.00     0.037 A 
ATOM     58  C   UNL     1      -3.970   3.877   0.394  1.00  0.00     0.037 A 
ATOM     59  C   UNL     1      -5.130  -1.889   3.858  1.00  0.00     0.049 A 
ATOM     60  C   UNL     1      -4.272   3.772   1.935  1.00  0.00     0.074 A 
ATOM     61  C   UNL     1      -3.843  -1.679   4.339  1.00  0.00     0.029 A 
ATOM     62  N   UNL     1      -5.739  -0.619   3.940  1.00  0.00    -0.354 N 
ATOM     63  N   UNL     1      -4.131   2.684   2.666  1.00  0.00    -0.248 NA
ATOM     64  C   UNL     1      -4.852   4.852   2.753  1.00  0.00     0.031 C 
ATOM     65  C   UNL     1      -3.655  -0.290   4.611  1.00  0.00     0.029 A 
ATOM     66  C   UNL     1      -4.837   0.376   4.339  1.00  0.00     0.049 A 
ATOM     67  H   UNL     1      -6.689  -0.452   3.740  1.00  0.00     0.167 HD
ATOM     68  C   UNL     1      -4.855   2.795   3.854  1.00  0.00     0.074 A 
ATOM     69  C   UNL     1      -5.108   4.226   3.922  1.00  0.00     0.031 C 
ATOM     70  C   UNL     1      -5.277   1.742   4.656  1.00  0.00     0.037 A 
BRANCH  57  71
ATOM     71  C   UNL     1      -5.539  -4.543   3.463  1.00  0.00     0.058 A 
ATOM     72  C   UNL     1      -4.645  -4.935   4.486  1.00  0.00     0.135 A 
ATOM     73  C   UNL     1      -6.034  -5.658   2.730  1.00  0.00     0.135 A 
ATOM     74  F   UNL     1      -4.176  -4.055   5.378  1.00  0.00    -0.206 F 
ATOM     75  C   UNL     1      -4.202  -6.256   4.679  1.00  0.00     0.059 A 
ATOM     76  C   UNL     1      -5.611  -6.983   2.903  1.00  0.00     0.059 A 
ATOM     77  F   UNL     1      -7.003  -5.569   1.819  1.00  0.00    -0.206 F 
ATOM     78  C   UNL     1      -4.677  -7.276   3.870  1.00  0.00     0.060 A 
BRANCH  78  79
ATOM     79  S   UNL     1      -4.149  -8.975   4.148  1.00  0.00     0.124 S 
ATOM     80  O   UNL     1      -2.739  -8.921   3.777  1.00  0.00    -0.237 OA
ATOM     81  O   UNL     1      -4.429  -9.157   5.568  1.00  0.00    -0.237 OA
ATOM     82  O   UNL     1      -4.998  -9.751   3.246  1.00  0.00    -0.744 OA
ENDBRANCH  78  79
ENDBRANCH  57  71
BRANCH  58  83
ATOM     83  C   UNL     1      -4.717   4.776  -0.622  1.00  0.00     0.058 A 
ATOM     84  C   UNL     1      -3.939   5.223  -1.715  1.00  0.00     0.135 A 
ATOM     85  C   UNL     1      -6.111   4.877  -0.818  1.00  0.00     0.135 A 
ATOM     86  F   UNL     1      -2.609   5.328  -1.569  1.00  0.00    -0.206 F 
ATOM     87  C   UNL     1      -4.468   5.453  -2.992  1.00  0.00     0.059 A 
ATOM     88  C   UNL     1      -6.670   5.071  -2.107  1.00  0.00     0.059 A 
ATOM     89  F   UNL     1      -6.959   4.561   0.175  1.00  0.00    -0.206 F 
ATOM     90  C   UNL     1      -5.831   5.288  -3.203  1.00  0.00     0.060 A 
BRANCH  90  91
ATOM     91  S   UNL     1      -6.469   5.125  -4.905  1.00  0.00     0.124 S 
ATOM     92  O   UNL     1      -7.021   6.449  -5.162  1.00  0.00    -0.237 OA
ATOM     93  O   UNL     1      -5.275   4.794  -5.679  1.00  0.00    -0.237 OA
ATOM     94  O   UNL     1      -7.441   4.044  -4.780  1.00  0.00    -0.744 OA
ENDBRANCH  90  91
ENDBRANCH  58  83
BRANCH  70  95
ATOM     95  C   UNL     1      -6.099   1.829   5.957  1.00  0.00     0.058 A 
ATOM     96  C   UNL     1      -6.992   2.851   6.308  1.00  0.00     0.135 A 
ATOM     97  C   UNL     1      -6.038   0.759   6.904  1.00  0.00     0.135 A 
ATOM     98  F   UNL     1      -7.285   3.845   5.461  1.00  0.00    -0.206 F 
ATOM     99  C   UNL     1      -7.662   2.874   7.543  1.00  0.00     0.059 A 
ATOM    100  C   UNL     1      -6.749   0.725   8.095  1.00  0.00     0.059 A 
ATOM    101  F   UNL     1      -5.267  -0.321   6.726  1.00  0.00    -0.206 F 
ATOM    102  C   UNL     1      -7.518   1.815   8.436  1.00  0.00     0.060 A 
BRANCH 102 103
ATOM    103  S   UNL     1      -8.324   1.852  10.043  1.00  0.00     0.124 S 
ATOM    104  O   UNL     1      -7.413   2.704  10.801  1.00  0.00    -0.237 OA
ATOM    105  O   UNL     1      -9.625   2.433   9.732  1.00  0.00    -0.237 OA
ATOM    106  O   UNL     1      -8.352   0.449  10.446  1.00  0.00    -0.744 OA
ENDBRANCH 102 103
ENDBRANCH  70  95
ENDBRANCH  44  45
ENDBRANCH  37  39
ENDBRANCH  36  37
ENDBRANCH  35  36
ENDBRANCH  34  35
ENDBRANCH  33  34
ENDBRANCH  32  33
ENDBRANCH  31  32
ENDBRANCH  30  31
ENDBRANCH   1  30
TORSDOF 27
