REMARK SMILES C[C@@H]1CCC[C@@]1(C(=O)OCCOCCOCCOCCOC(=O)c1ccc(-c2c3nc(c(-c4c(F)cc(S(=O)(=O)[O-])cc4F)c4ccc([nH]4)c(-c4c(F)cc(S(=O)(=O)[O-])cc4F)c4nc(c(-c5c(F)cc(S(=O)(=O)[O-])cc5F)c5ccc2[nH]5)C=C4)C=C3)cc1)c1ccc(Cl)cc1Cl
REMARK SMILES IDX 16 1 15 2 14 3 13 4 12 5 11 6 10 7 9 8 7 9 8 10 6 11 1 12
REMARK SMILES IDX 2 13 3 14 4 15 5 16 90 17 91 18 96 19 92 20 95 21 97 22
REMARK SMILES IDX 93 23 94 24 17 25 18 26 19 27 20 28 21 29 22 30 23 31 24 32
REMARK SMILES IDX 25 33 89 34 26 35 88 36 27 37 28 38 29 39 82 40 30 41 87 42
REMARK SMILES IDX 81 43 83 44 31 45 86 46 80 47 79 48 32 50 66 51 45 52 65 53
REMARK SMILES IDX 46 54 49 55 64 56 84 57 47 58 48 59 63 61 85 62 50 63 33 64
REMARK SMILES IDX 34 65 43 66 35 67 36 68 42 69 44 70 37 71 38 72 39 73 40 74
REMARK SMILES IDX 41 75 67 76 68 77 77 78 69 79 70 80 76 81 78 82 71 83 72 84
REMARK SMILES IDX 73 85 74 86 75 87 51 88 52 89 61 90 53 91 54 92 60 93 62 94
REMARK SMILES IDX 55 95 56 96 57 97 58 98 59 99
REMARK H PARENT 83 49 49 60
REMARK Flexibility Score: inf
ROOT
ATOM      1  C   UNL     1       3.843   1.217  -1.390  1.00  0.00     0.188 C 
ENDROOT
BRANCH   1   2
ATOM      2  O   UNL     1       2.433   1.367  -1.568  1.00  0.00    -0.377 OA
BRANCH   2   3
ATOM      3  C   UNL     1       1.964   2.208  -2.608  1.00  0.00     0.188 C 
BRANCH   3   4
ATOM      4  C   UNL     1       1.968   3.695  -2.273  1.00  0.00     0.188 C 
BRANCH   4   5
ATOM      5  O   UNL     1       3.176   4.099  -1.659  1.00  0.00    -0.376 OA
BRANCH   5   6
ATOM      6  C   UNL     1       3.184   4.303  -0.245  1.00  0.00     0.202 C 
BRANCH   6   7
ATOM      7  C   UNL     1       1.975   4.001   0.657  1.00  0.00     0.261 C 
BRANCH   7   8
ATOM      8  O   UNL     1       1.535   2.623   0.835  1.00  0.00    -0.463 OA
BRANCH   8   9
ATOM      9  C   UNL     1       0.206   2.406   0.591  1.00  0.00     0.316 C 
ATOM     10  O   UNL     1      -0.483   3.211  -0.043  1.00  0.00    -0.251 OA
BRANCH   9  11
ATOM     11  C   UNL     1      -0.461   1.160   1.272  1.00  0.00     0.097 C 
ATOM     12  C   UNL     1       1.579  -0.395   0.551  1.00  0.00     0.009 C 
ATOM     13  C   UNL     1       0.346  -0.193   1.410  1.00  0.00     0.008 C 
ATOM     14  C   UNL     1      -0.621  -1.341   1.041  1.00  0.00     0.005 C 
ATOM     15  C   UNL     1      -1.643  -0.755   0.091  1.00  0.00     0.002 C 
ATOM     16  C   UNL     1      -1.580   0.759   0.236  1.00  0.00     0.024 C 
BRANCH  11  17
ATOM     17  C   UNL     1      -1.135   1.498   2.670  1.00  0.00    -0.012 A 
ATOM     18  C   UNL     1      -2.012   0.533   3.235  1.00  0.00     0.008 A 
ATOM     19  C   UNL     1      -0.927   2.642   3.477  1.00  0.00     0.046 A 
ATOM     20  C   UNL     1      -2.554   0.638   4.521  1.00  0.00     0.021 A 
ATOM     21  C   UNL     1      -1.478   2.749   4.771  1.00  0.00     0.041 A 
ATOM     22  Cl  UNL     1      -0.083   4.069   3.032  1.00  0.00    -0.084 Cl
ATOM     23  C   UNL     1      -2.271   1.745   5.293  1.00  0.00     0.042 A 
ATOM     24  Cl  UNL     1      -2.930   1.893   6.872  1.00  0.00    -0.084 Cl
ENDBRANCH  11  17
ENDBRANCH   9  11
ENDBRANCH   8   9
ENDBRANCH   7   8
ENDBRANCH   6   7
ENDBRANCH   5   6
ENDBRANCH   4   5
ENDBRANCH   3   4
ENDBRANCH   2   3
ENDBRANCH   1   2
BRANCH   1  25
ATOM     25  C   UNL     1       4.688   1.091  -2.653  1.00  0.00     0.188 C 
BRANCH  25  26
ATOM     26  O   UNL     1       4.238   0.157  -3.635  1.00  0.00    -0.376 OA
BRANCH  26  27
ATOM     27  C   UNL     1       3.582  -1.030  -3.195  1.00  0.00     0.202 C 
BRANCH  27  28
ATOM     28  C   UNL     1       4.501  -2.155  -2.725  1.00  0.00     0.261 C 
BRANCH  28  29
ATOM     29  O   UNL     1       5.051  -1.904  -1.421  1.00  0.00    -0.460 OA
BRANCH  29  30
ATOM     30  C   UNL     1       6.342  -1.497  -1.421  1.00  0.00     0.338 C 
ATOM     31  O   UNL     1       7.050  -1.308  -2.395  1.00  0.00    -0.246 OA
BRANCH  30  32
ATOM     32  C   UNL     1       6.796  -1.207  -0.048  1.00  0.00     0.060 A 
ATOM     33  C   UNL     1       7.577  -0.061   0.145  1.00  0.00     0.016 A 
ATOM     34  C   UNL     1       6.598  -2.118   0.995  1.00  0.00     0.016 A 
ATOM     35  C   UNL     1       8.245   0.129   1.352  1.00  0.00     0.010 A 
ATOM     36  C   UNL     1       7.272  -1.928   2.205  1.00  0.00     0.010 A 
ATOM     37  C   UNL     1       8.147  -0.838   2.362  1.00  0.00    -0.014 A 
BRANCH  37  38
ATOM     38  C   UNL     1       9.143  -0.826   3.460  1.00  0.00     0.031 A 
ATOM     39  C   UNL     1      10.366  -1.698   3.323  1.00  0.00     0.074 A 
ATOM     40  C   UNL     1       8.999  -0.015   4.521  1.00  0.00     0.049 A 
ATOM     41  N   UNL     1      11.376  -1.848   4.140  1.00  0.00    -0.248 NA
ATOM     42  C   UNL     1      10.460  -2.510   2.098  1.00  0.00     0.031 C 
ATOM     43  C   UNL     1       7.880   0.900   4.740  1.00  0.00     0.029 A 
ATOM     44  N   UNL     1       9.805   0.169   5.615  1.00  0.00    -0.354 N 
ATOM     45  C   UNL     1      12.221  -2.769   3.531  1.00  0.00     0.074 A 
ATOM     46  C   UNL     1      11.591  -3.170   2.292  1.00  0.00     0.031 C 
ATOM     47  C   UNL     1       8.069   1.547   5.904  1.00  0.00     0.029 A 
ATOM     48  C   UNL     1       9.309   1.077   6.519  1.00  0.00     0.049 A 
ATOM     49  H   UNL     1      10.659  -0.305   5.741  1.00  0.00     0.167 HD
ATOM     50  C   UNL     1      13.420  -3.232   3.958  1.00  0.00     0.037 A 
ATOM     51  C   UNL     1       9.800   1.473   7.710  1.00  0.00     0.037 A 
ATOM     52  C   UNL     1      14.043  -2.829   5.191  1.00  0.00     0.049 A 
ATOM     53  C   UNL     1      11.117   0.915   8.185  1.00  0.00     0.074 A 
ATOM     54  C   UNL     1      15.251  -3.242   5.723  1.00  0.00     0.029 A 
ATOM     55  N   UNL     1      13.502  -1.915   6.085  1.00  0.00    -0.354 N 
ATOM     56  N   UNL     1      11.907   0.047   7.597  1.00  0.00    -0.248 NA
ATOM     57  C   UNL     1      11.615   1.401   9.479  1.00  0.00     0.031 C 
ATOM     58  C   UNL     1      15.426  -2.603   6.956  1.00  0.00     0.029 A 
ATOM     59  C   UNL     1      14.348  -1.757   7.169  1.00  0.00     0.049 A 
ATOM     60  H   UNL     1      12.644  -1.448   5.965  1.00  0.00     0.167 HD
ATOM     61  C   UNL     1      13.011  -0.090   8.433  1.00  0.00     0.074 A 
ATOM     62  C   UNL     1      12.787   0.787   9.564  1.00  0.00     0.031 C 
ATOM     63  C   UNL     1      14.112  -0.867   8.278  1.00  0.00     0.037 A 
BRANCH  50  64
ATOM     64  C   UNL     1      14.117  -4.245   3.094  1.00  0.00     0.058 A 
ATOM     65  C   UNL     1      14.711  -3.891   1.872  1.00  0.00     0.135 A 
ATOM     66  C   UNL     1      14.198  -5.588   3.496  1.00  0.00     0.135 A 
ATOM     67  F   UNL     1      14.644  -2.625   1.430  1.00  0.00    -0.206 F 
ATOM     68  C   UNL     1      15.335  -4.837   1.065  1.00  0.00     0.059 A 
ATOM     69  C   UNL     1      14.838  -6.547   2.716  1.00  0.00     0.059 A 
ATOM     70  F   UNL     1      13.642  -5.982   4.652  1.00  0.00    -0.206 F 
ATOM     71  C   UNL     1      15.390  -6.165   1.494  1.00  0.00     0.060 A 
BRANCH  71  72
ATOM     72  S   UNL     1      16.195  -7.385   0.435  1.00  0.00     0.124 S 
ATOM     73  O   UNL     1      15.193  -7.567  -0.612  1.00  0.00    -0.237 OA
ATOM     74  O   UNL     1      17.415  -6.695   0.031  1.00  0.00    -0.237 OA
ATOM     75  O   UNL     1      16.390  -8.528   1.322  1.00  0.00    -0.744 OA
ENDBRANCH  71  72
ENDBRANCH  50  64
BRANCH  51  76
ATOM     76  C   UNL     1       9.045   2.454   8.534  1.00  0.00     0.058 A 
ATOM     77  C   UNL     1       9.511   3.764   8.713  1.00  0.00     0.135 A 
ATOM     78  C   UNL     1       7.839   2.097   9.156  1.00  0.00     0.135 A 
ATOM     79  F   UNL     1      10.664   4.149   8.145  1.00  0.00    -0.206 F 
ATOM     80  C   UNL     1       8.817   4.684   9.492  1.00  0.00     0.059 A 
ATOM     81  C   UNL     1       7.114   3.006   9.921  1.00  0.00     0.059 A 
ATOM     82  F   UNL     1       7.344   0.859   9.006  1.00  0.00    -0.206 F 
ATOM     83  C   UNL     1       7.617   4.295  10.092  1.00  0.00     0.060 A 
BRANCH  83  84
ATOM     84  S   UNL     1       6.696   5.510  11.060  1.00  0.00     0.124 S 
ATOM     85  O   UNL     1       7.491   5.576  12.281  1.00  0.00    -0.237 OA
ATOM     86  O   UNL     1       6.745   6.689  10.201  1.00  0.00    -0.237 OA
ATOM     87  O   UNL     1       5.377   4.898  11.196  1.00  0.00    -0.744 OA
ENDBRANCH  83  84
ENDBRANCH  51  76
BRANCH  63  88
ATOM     88  C   UNL     1      15.184  -0.762   9.327  1.00  0.00     0.058 A 
ATOM     89  C   UNL     1      15.026  -1.319  10.606  1.00  0.00     0.135 A 
ATOM     90  C   UNL     1      16.400  -0.126   9.033  1.00  0.00     0.135 A 
ATOM     91  F   UNL     1      13.881  -1.937  10.937  1.00  0.00    -0.206 F 
ATOM     92  C   UNL     1      16.025  -1.218  11.569  1.00  0.00     0.059 A 
ATOM     93  C   UNL     1      17.423  -0.036   9.972  1.00  0.00     0.059 A 
ATOM     94  F   UNL     1      16.607   0.410   7.820  1.00  0.00    -0.206 F 
ATOM     95  C   UNL     1      17.219  -0.571  11.243  1.00  0.00     0.060 A 
BRANCH  95  96
ATOM     96  S   UNL     1      18.514  -0.454  12.495  1.00  0.00     0.124 S 
ATOM     97  O   UNL     1      18.004   0.616  13.346  1.00  0.00    -0.237 OA
ATOM     98  O   UNL     1      18.506  -1.790  13.083  1.00  0.00    -0.237 OA
ATOM     99  O   UNL     1      19.707  -0.126  11.719  1.00  0.00    -0.744 OA
ENDBRANCH  95  96
ENDBRANCH  63  88
ENDBRANCH  37  38
ENDBRANCH  30  32
ENDBRANCH  29  30
ENDBRANCH  28  29
ENDBRANCH  27  28
ENDBRANCH  26  27
ENDBRANCH  25  26
ENDBRANCH   1  25
TORSDOF 24
