REMARK SMILES O=C(OCCOCCOCCOCCOC(=O)[C@H]1CC[C@@H]2CCCC[C@H]2N1C(=O)N1CCSCC1)c1ccc(-c2c3nc(c(-c4c(F)cc(S(=O)(=O)[O-])cc4F)c4ccc([nH]4)c(-c4c(F)cc(S(=O)(=O)[O-])cc4F)c4nc(c(-c5c(F)cc(S(=O)(=O)[O-])cc5F)c5ccc2[nH]5)C=C4)C=C3)cc1
REMARK SMILES IDX 8 1 7 2 6 3 5 4 4 5 3 6 2 7 1 8 36 9 37 10 101 11 38 12
REMARK SMILES IDX 100 13 39 14 40 15 41 16 94 17 42 18 99 19 93 20 95 21 43 22
REMARK SMILES IDX 98 23 92 24 91 25 44 27 78 28 57 29 77 30 58 31 61 32 76 33
REMARK SMILES IDX 96 34 59 35 60 36 75 38 97 39 62 40 45 41 46 42 55 43 47 44
REMARK SMILES IDX 48 45 54 46 56 47 49 48 50 49 51 50 52 51 53 52 79 53 80 54
REMARK SMILES IDX 89 55 81 56 82 57 88 58 90 59 83 60 84 61 85 62 86 63 87 64
REMARK SMILES IDX 63 65 64 66 73 67 65 68 66 69 72 70 74 71 67 72 68 73 69 74
REMARK SMILES IDX 70 75 71 76 9 77 10 78 11 79 12 80 13 81 14 82 15 83 16 84
REMARK SMILES IDX 17 85 18 86 19 87 27 88 20 89 26 90 21 91 25 92 22 93 24 94
REMARK SMILES IDX 23 95 28 96 29 97 30 98 31 99 35 100 32 101 34 102 33 103
REMARK H PARENT 95 26 61 37
REMARK Flexibility Score: inf
ROOT
ATOM      1  C   UNL     1       1.566   0.719  -3.209  1.00  0.00     0.188 C 
ENDROOT
BRANCH   1   2
ATOM      2  C   UNL     1       0.986  -0.090  -2.050  1.00  0.00     0.188 C 
BRANCH   2   3
ATOM      3  O   UNL     1       2.001  -0.799  -1.334  1.00  0.00    -0.376 OA
BRANCH   3   4
ATOM      4  C   UNL     1       1.697  -2.155  -0.997  1.00  0.00     0.202 C 
BRANCH   4   5
ATOM      5  C   UNL     1       0.903  -2.311   0.298  1.00  0.00     0.261 C 
BRANCH   5   6
ATOM      6  O   UNL     1       0.015  -1.210   0.526  1.00  0.00    -0.460 OA
BRANCH   6   7
ATOM      7  C   UNL     1       0.324   0.012   1.026  1.00  0.00     0.338 C 
ATOM      8  O   UNL     1      -0.556   0.874   1.003  1.00  0.00    -0.246 OA
BRANCH   7   9
ATOM      9  C   UNL     1       1.649   0.387   1.626  1.00  0.00     0.060 A 
ATOM     10  C   UNL     1       2.879  -0.240   1.399  1.00  0.00     0.016 A 
ATOM     11  C   UNL     1       1.638   1.505   2.479  1.00  0.00     0.016 A 
ATOM     12  C   UNL     1       4.037   0.162   2.052  1.00  0.00     0.010 A 
ATOM     13  C   UNL     1       2.795   1.922   3.140  1.00  0.00     0.010 A 
ATOM     14  C   UNL     1       3.984   1.211   2.962  1.00  0.00    -0.014 A 
BRANCH  14  15
ATOM     15  C   UNL     1       5.102   1.349   3.907  1.00  0.00     0.031 A 
ATOM     16  C   UNL     1       4.919   0.738   5.265  1.00  0.00     0.074 A 
ATOM     17  C   UNL     1       6.273   1.871   3.508  1.00  0.00     0.049 A 
ATOM     18  N   UNL     1       5.700   0.776   6.307  1.00  0.00    -0.248 NA
ATOM     19  C   UNL     1       3.680  -0.037   5.470  1.00  0.00     0.031 C 
ATOM     20  C   UNL     1       6.570   2.338   2.152  1.00  0.00     0.029 A 
ATOM     21  N   UNL     1       7.437   2.071   4.196  1.00  0.00    -0.354 N 
ATOM     22  C   UNL     1       5.031   0.068   7.299  1.00  0.00     0.074 A 
ATOM     23  C   UNL     1       3.782  -0.390   6.739  1.00  0.00     0.031 C 
ATOM     24  C   UNL     1       7.843   2.765   2.108  1.00  0.00     0.029 A 
ATOM     25  C   UNL     1       8.421   2.665   3.445  1.00  0.00     0.049 A 
ATOM     26  H   UNL     1       7.558   1.815   5.139  1.00  0.00     0.167 HD
ATOM     27  C   UNL     1       5.430  -0.164   8.570  1.00  0.00     0.037 A 
ATOM     28  C   UNL     1       9.634   3.111   3.823  1.00  0.00     0.037 A 
ATOM     29  C   UNL     1       6.684   0.315   9.082  1.00  0.00     0.049 A 
ATOM     30  C   UNL     1      10.018   2.941   5.270  1.00  0.00     0.074 A 
ATOM     31  C   UNL     1       7.193   0.223  10.361  1.00  0.00     0.029 A 
ATOM     32  N   UNL     1       7.631   0.987   8.316  1.00  0.00    -0.354 N 
ATOM     33  N   UNL     1       9.346   2.353   6.236  1.00  0.00    -0.248 NA
ATOM     34  C   UNL     1      11.305   3.505   5.688  1.00  0.00     0.031 C 
ATOM     35  C   UNL     1       8.427   0.882  10.380  1.00  0.00     0.029 A 
ATOM     36  C   UNL     1       8.715   1.335   9.098  1.00  0.00     0.049 A 
ATOM     37  H   UNL     1       7.542   1.186   7.356  1.00  0.00     0.167 HD
ATOM     38  C   UNL     1      10.136   2.461   7.373  1.00  0.00     0.074 A 
ATOM     39  C   UNL     1      11.342   3.161   6.968  1.00  0.00     0.031 C 
ATOM     40  C   UNL     1       9.895   2.029   8.637  1.00  0.00     0.037 A 
BRANCH  27  41
ATOM     41  C   UNL     1       4.459  -0.871   9.474  1.00  0.00     0.058 A 
ATOM     42  C   UNL     1       4.134  -2.229   9.315  1.00  0.00     0.135 A 
ATOM     43  C   UNL     1       3.778  -0.152  10.470  1.00  0.00     0.135 A 
ATOM     44  F   UNL     1       4.725  -2.958   8.354  1.00  0.00    -0.206 F 
ATOM     45  C   UNL     1       3.140  -2.835  10.080  1.00  0.00     0.059 A 
ATOM     46  C   UNL     1       2.801  -0.744  11.265  1.00  0.00     0.059 A 
ATOM     47  F   UNL     1       4.036   1.152  10.657  1.00  0.00    -0.206 F 
ATOM     48  C   UNL     1       2.473  -2.081  11.046  1.00  0.00     0.060 A 
BRANCH  48  49
ATOM     49  S   UNL     1       1.153  -2.864  11.999  1.00  0.00     0.124 S 
ATOM     50  O   UNL     1       0.090  -2.957  11.002  1.00  0.00    -0.237 OA
ATOM     51  O   UNL     1       1.762  -4.130  12.394  1.00  0.00    -0.237 OA
ATOM     52  O   UNL     1       0.912  -1.921  13.086  1.00  0.00    -0.744 OA
ENDBRANCH  48  49
ENDBRANCH  27  41
BRANCH  28  53
ATOM     53  C   UNL     1      10.523   3.793   2.842  1.00  0.00     0.058 A 
ATOM     54  C   UNL     1      11.739   3.225   2.436  1.00  0.00     0.135 A 
ATOM     55  C   UNL     1      10.157   5.021   2.264  1.00  0.00     0.135 A 
ATOM     56  F   UNL     1      12.142   2.059   2.962  1.00  0.00    -0.206 F 
ATOM     57  C   UNL     1      12.560   3.847   1.497  1.00  0.00     0.059 A 
ATOM     58  C   UNL     1      10.947   5.649   1.306  1.00  0.00     0.059 A 
ATOM     59  F   UNL     1       9.001   5.610   2.609  1.00  0.00    -0.206 F 
ATOM     60  C   UNL     1      12.152   5.058   0.934  1.00  0.00     0.060 A 
BRANCH  60  61
ATOM     61  S   UNL     1      13.196   5.833  -0.320  1.00  0.00     0.124 S 
ATOM     62  O   UNL     1      14.321   6.302   0.481  1.00  0.00    -0.237 OA
ATOM     63  O   UNL     1      13.473   4.719  -1.221  1.00  0.00    -0.237 OA
ATOM     64  O   UNL     1      12.338   6.877  -0.874  1.00  0.00    -0.744 OA
ENDBRANCH  60  61
ENDBRANCH  28  53
BRANCH  40  65
ATOM     65  C   UNL     1      10.972   2.271   9.653  1.00  0.00     0.058 A 
ATOM     66  C   UNL     1      11.206   3.545  10.189  1.00  0.00     0.135 A 
ATOM     67  C   UNL     1      11.724   1.194  10.149  1.00  0.00     0.135 A 
ATOM     68  F   UNL     1      10.513   4.605   9.741  1.00  0.00    -0.206 F 
ATOM     69  C   UNL     1      12.166   3.749  11.171  1.00  0.00     0.059 A 
ATOM     70  C   UNL     1      12.668   1.370  11.152  1.00  0.00     0.059 A 
ATOM     71  F   UNL     1      11.524  -0.046   9.675  1.00  0.00    -0.206 F 
ATOM     72  C   UNL     1      12.889   2.653  11.650  1.00  0.00     0.060 A 
BRANCH  72  73
ATOM     73  S   UNL     1      14.098   2.923  12.960  1.00  0.00     0.124 S 
ATOM     74  O   UNL     1      15.182   3.570  12.229  1.00  0.00    -0.237 OA
ATOM     75  O   UNL     1      13.364   3.773  13.892  1.00  0.00    -0.237 OA
ATOM     76  O   UNL     1      14.382   1.575  13.443  1.00  0.00    -0.744 OA
ENDBRANCH  72  73
ENDBRANCH  40  65
ENDBRANCH  14  15
ENDBRANCH   7   9
ENDBRANCH   6   7
ENDBRANCH   5   6
ENDBRANCH   4   5
ENDBRANCH   3   4
ENDBRANCH   2   3
ENDBRANCH   1   2
BRANCH   1  77
ATOM     77  O   UNL     1       2.093  -0.061  -4.278  1.00  0.00    -0.377 OA
BRANCH  77  78
ATOM     78  C   UNL     1       2.986  -1.100  -3.901  1.00  0.00     0.188 C 
BRANCH  78  79
ATOM     79  C   UNL     1       4.225  -0.739  -3.054  1.00  0.00     0.188 C 
BRANCH  79  80
ATOM     80  O   UNL     1       4.381   0.651  -2.815  1.00  0.00    -0.376 OA
BRANCH  80  81
ATOM     81  C   UNL     1       5.410   1.354  -3.500  1.00  0.00     0.202 C 
BRANCH  81  82
ATOM     82  C   UNL     1       5.444   1.254  -5.035  1.00  0.00     0.261 C 
BRANCH  82  83
ATOM     83  O   UNL     1       5.229  -0.090  -5.497  1.00  0.00    -0.462 OA
BRANCH  83  84
ATOM     84  C   UNL     1       6.234  -0.886  -5.957  1.00  0.00     0.329 C 
ATOM     85  O   UNL     1       7.351  -0.502  -6.269  1.00  0.00    -0.250 OA
BRANCH  84  86
ATOM     86  C   UNL     1       5.718  -2.347  -5.978  1.00  0.00     0.197 C 
ATOM     87  C   UNL     1       5.902  -3.074  -7.305  1.00  0.00     0.038 C 
ATOM     88  N   UNL     1       5.800  -3.284  -4.821  1.00  0.00    -0.308 N 
ATOM     89  C   UNL     1       4.784  -4.122  -7.431  1.00  0.00     0.008 C 
ATOM     90  C   UNL     1       4.748  -4.354  -4.863  1.00  0.00     0.091 C 
ATOM     91  C   UNL     1       4.791  -5.092  -6.236  1.00  0.00     0.012 C 
ATOM     92  C   UNL     1       4.724  -5.401  -3.726  1.00  0.00     0.025 C 
ATOM     93  C   UNL     1       3.623  -6.085  -6.365  1.00  0.00     0.006 C 
ATOM     94  C   UNL     1       3.609  -6.437  -3.881  1.00  0.00     0.002 C 
ATOM     95  C   UNL     1       3.645  -7.115  -5.243  1.00  0.00     0.000 C 
BRANCH  88  96
ATOM     96  C   UNL     1       6.761  -3.255  -3.816  1.00  0.00     0.321 C 
ATOM     97  O   UNL     1       6.682  -3.910  -2.778  1.00  0.00    -0.248 OA
ATOM     98  N   UNL     1       7.881  -2.458  -4.013  1.00  0.00    -0.323 N 
ATOM     99  C   UNL     1       9.128  -3.219  -3.933  1.00  0.00     0.132 C 
ATOM    100  C   UNL     1       7.953  -1.241  -3.195  1.00  0.00     0.132 C 
ATOM    101  C   UNL     1      10.336  -2.472  -4.482  1.00  0.00     0.091 C 
ATOM    102  C   UNL     1       9.043  -0.238  -3.580  1.00  0.00     0.091 C 
ATOM    103  S   UNL     1      10.700  -0.975  -3.517  1.00  0.00    -0.158 SA
ENDBRANCH  88  96
ENDBRANCH  84  86
ENDBRANCH  83  84
ENDBRANCH  82  83
ENDBRANCH  81  82
ENDBRANCH  80  81
ENDBRANCH  79  80
ENDBRANCH  78  79
ENDBRANCH  77  78
ENDBRANCH   1  77
TORSDOF 24
