REMARK SMILES Cc1cccc(OC2(C(=O)OCCOCCOCCOCCOC(=O)c3ccc(-c4c5nc(c(-c6c(F)cc(S(=O)(=O)[O-])cc6F)c6ccc([nH]6)c(-c6c(F)cc(S(=O)(=O)[O-])cc6F)c6nc(c(-c7c(F)cc(S(=O)(=O)[O-])cc7F)c7ccc4[nH]7)C=C6)C=C5)cc3)CCN(C(=O)c3cnc[nH]c3=O)CC2)c1
REMARK SMILES IDX 18 1 17 2 16 3 15 4 14 5 13 6 12 7 11 8 9 9 10 10 8 11 92 12
REMARK SMILES IDX 105 13 93 14 104 15 94 16 95 17 96 18 7 19 6 20 1 21 2 22
REMARK SMILES IDX 3 23 106 24 4 25 5 26 97 27 98 28 102 29 99 30 101 31 103 32
REMARK SMILES IDX 100 33 19 35 20 36 21 37 22 38 23 39 24 40 25 41 26 42 27 43
REMARK SMILES IDX 91 44 28 45 90 46 29 47 30 48 31 49 84 50 32 51 89 52 83 53
REMARK SMILES IDX 85 54 33 55 88 56 82 57 81 58 34 60 68 61 47 62 67 63 48 64
REMARK SMILES IDX 51 65 66 66 86 67 49 68 50 69 65 71 87 72 52 73 35 74 36 75
REMARK SMILES IDX 45 76 37 77 38 78 44 79 46 80 39 81 40 82 41 83 42 84 43 85
REMARK SMILES IDX 69 86 70 87 79 88 71 89 72 90 78 91 80 92 73 93 74 94 75 95
REMARK SMILES IDX 76 96 77 97 53 98 54 99 63 100 55 101 56 102 62 103 64 104
REMARK SMILES IDX 57 105 58 106 59 107 60 108 61 109
REMARK H PARENT 101 34 85 59 51 70
REMARK Flexibility Score: inf
ROOT
ATOM      1  C   UNL     1       5.210   3.375  -2.696  1.00  0.00     0.188 C 
ENDROOT
BRANCH   1   2
ATOM      2  O   UNL     1       4.488   3.487  -1.489  1.00  0.00    -0.377 OA
BRANCH   2   3
ATOM      3  C   UNL     1       3.075   3.521  -1.645  1.00  0.00     0.188 C 
BRANCH   3   4
ATOM      4  C   UNL     1       2.370   3.630  -3.101  1.00  0.00     0.188 C 
BRANCH   4   5
ATOM      5  O   UNL     1       1.571   4.830  -3.604  1.00  0.00    -0.376 OA
BRANCH   5   6
ATOM      6  C   UNL     1       0.068   5.030  -4.097  1.00  0.00     0.202 C 
BRANCH   6   7
ATOM      7  C   UNL     1      -1.680   4.803  -3.527  1.00  0.00     0.261 C 
BRANCH   7   8
ATOM      8  O   UNL     1      -2.554   3.709  -2.315  1.00  0.00    -0.460 OA
BRANCH   8   9
ATOM      9  C   UNL     1      -2.685   2.757  -1.148  1.00  0.00     0.350 C 
ATOM     10  O   UNL     1      -3.610   1.930  -1.234  1.00  0.00    -0.247 OA
BRANCH   9  11
ATOM     11  C   UNL     1      -1.779   2.695   0.431  1.00  0.00     0.209 C 
ATOM     12  C   UNL     1      -0.215   2.898   0.620  1.00  0.00     0.082 C 
ATOM     13  C   UNL     1      -2.529   3.633   1.488  1.00  0.00     0.082 C 
ATOM     14  C   UNL     1       0.361   3.189   1.997  1.00  0.00     0.124 C 
ATOM     15  C   UNL     1      -1.809   3.852   2.847  1.00  0.00     0.124 C 
ATOM     16  N   UNL     1      -0.410   4.199   2.671  1.00  0.00    -0.338 N 
ATOM     17  C   UNL     1       0.238   5.346   3.093  1.00  0.00     0.261 C 
ATOM     18  O   UNL     1       1.107   5.924   2.445  1.00  0.00    -0.269 OA
BRANCH  11  19
ATOM     19  O   UNL     1      -2.070   1.368   1.067  1.00  0.00    -0.475 OA
BRANCH  19  20
ATOM     20  C   UNL     1      -1.361   0.285   0.628  1.00  0.00     0.121 A 
ATOM     21  C   UNL     1       2.143  -1.120   0.991  1.00  0.00     0.044 C 
ATOM     22  C   UNL     1       0.697  -1.032   0.602  1.00  0.00    -0.047 A 
ATOM     23  C   UNL     1       0.083  -1.951  -0.241  1.00  0.00     0.003 A 
ATOM     24  C   UNL     1      -0.081   0.007   1.113  1.00  0.00     0.050 A 
ATOM     25  C   UNL     1      -1.255  -1.772  -0.614  1.00  0.00     0.004 A 
ATOM     26  C   UNL     1      -1.969  -0.640  -0.203  1.00  0.00     0.046 A 
ENDBRANCH  19  20
ENDBRANCH  11  19
BRANCH  17  27
ATOM     27  C   UNL     1       0.035   5.751   4.496  1.00  0.00     0.123 A 
ATOM     28  C   UNL     1      -0.369   6.995   4.795  1.00  0.00     0.132 A 
ATOM     29  C   UNL     1       0.563   4.937   5.608  1.00  0.00     0.263 A 
ATOM     30  N   UNL     1      -0.433   7.526   6.066  1.00  0.00    -0.246 NA
ATOM     31  N   UNL     1       0.527   5.534   6.837  1.00  0.00    -0.312 N 
ATOM     32  O   UNL     1       1.032   3.809   5.472  1.00  0.00    -0.269 OA
ATOM     33  C   UNL     1       0.028   6.788   7.018  1.00  0.00     0.199 A 
ATOM     34  H   UNL     1       0.872   5.042   7.617  1.00  0.00     0.171 HD
ENDBRANCH  17  27
ENDBRANCH   9  11
ENDBRANCH   8   9
ENDBRANCH   7   8
ENDBRANCH   6   7
ENDBRANCH   5   6
ENDBRANCH   4   5
ENDBRANCH   3   4
ENDBRANCH   2   3
ENDBRANCH   1   2
BRANCH   1  35
ATOM     35  C   UNL     1       5.331   1.943  -3.223  1.00  0.00     0.188 C 
BRANCH  35  36
ATOM     36  O   UNL     1       4.131   1.175  -3.072  1.00  0.00    -0.376 OA
BRANCH  36  37
ATOM     37  C   UNL     1       4.370  -0.208  -2.805  1.00  0.00     0.202 C 
BRANCH  37  38
ATOM     38  C   UNL     1       4.917  -0.979  -4.017  1.00  0.00     0.261 C 
BRANCH  38  39
ATOM     39  O   UNL     1       3.881  -1.269  -4.976  1.00  0.00    -0.460 OA
BRANCH  39  40
ATOM     40  C   UNL     1       3.576  -0.233  -5.801  1.00  0.00     0.338 C 
ATOM     41  O   UNL     1       4.316   0.209  -6.662  1.00  0.00    -0.246 OA
BRANCH  40  42
ATOM     42  C   UNL     1       2.268   0.346  -5.386  1.00  0.00     0.060 A 
ATOM     43  C   UNL     1       1.902   1.594  -5.858  1.00  0.00     0.016 A 
ATOM     44  C   UNL     1       1.519  -0.236  -4.354  1.00  0.00     0.016 A 
ATOM     45  C   UNL     1       0.898   2.296  -5.181  1.00  0.00     0.010 A 
ATOM     46  C   UNL     1       0.659   0.543  -3.573  1.00  0.00     0.010 A 
ATOM     47  C   UNL     1       0.395   1.870  -3.919  1.00  0.00    -0.014 A 
BRANCH  47  48
ATOM     48  C   UNL     1      -0.559   2.708  -2.975  1.00  0.00     0.031 A 
ATOM     49  C   UNL     1      -2.020   2.124  -3.866  1.00  0.00     0.074 A 
ATOM     50  C   UNL     1      -0.345   3.919  -1.895  1.00  0.00     0.049 A 
ATOM     51  N   UNL     1      -3.037   2.864  -4.226  1.00  0.00    -0.248 NA
ATOM     52  C   UNL     1      -2.183   0.849  -4.613  1.00  0.00     0.031 C 
ATOM     53  C   UNL     1      -1.389   4.888  -0.961  1.00  0.00     0.029 A 
ATOM     54  N   UNL     1       0.700   4.920  -1.551  1.00  0.00    -0.354 N 
ATOM     55  C   UNL     1      -4.084   2.142  -4.659  1.00  0.00     0.074 A 
ATOM     56  C   UNL     1      -3.435   0.938  -5.108  1.00  0.00     0.031 C 
ATOM     57  C   UNL     1      -0.899   5.964  -0.360  1.00  0.00     0.029 A 
ATOM     58  C   UNL     1       0.269   6.205  -1.079  1.00  0.00     0.049 A 
ATOM     59  H   UNL     1       1.657   4.707  -1.645  1.00  0.00     0.167 HD
ATOM     60  C   UNL     1      -5.353   2.608  -4.424  1.00  0.00     0.037 A 
ATOM     61  C   UNL     1       0.431   7.428  -1.679  1.00  0.00     0.037 A 
ATOM     62  C   UNL     1      -5.378   3.884  -3.609  1.00  0.00     0.049 A 
ATOM     63  C   UNL     1      -0.963   8.023  -2.110  1.00  0.00     0.074 A 
ATOM     64  C   UNL     1      -5.619   4.088  -2.254  1.00  0.00     0.029 A 
ATOM     65  N   UNL     1      -4.860   5.128  -4.053  1.00  0.00    -0.354 N 
ATOM     66  N   UNL     1      -2.028   7.288  -2.361  1.00  0.00    -0.248 NA
ATOM     67  C   UNL     1      -1.321   9.435  -2.164  1.00  0.00     0.031 C 
ATOM     68  C   UNL     1      -5.162   5.385  -1.871  1.00  0.00     0.029 A 
ATOM     69  C   UNL     1      -4.681   6.053  -2.990  1.00  0.00     0.049 A 
ATOM     70  H   UNL     1      -4.648   5.328  -4.994  1.00  0.00     0.167 HD
ATOM     71  C   UNL     1      -3.137   8.027  -2.710  1.00  0.00     0.074 A 
ATOM     72  C   UNL     1      -2.636   9.384  -2.481  1.00  0.00     0.031 C 
ATOM     73  C   UNL     1      -4.350   7.508  -3.165  1.00  0.00     0.037 A 
BRANCH  60  74
ATOM     74  C   UNL     1      -6.498   1.595  -4.552  1.00  0.00     0.058 A 
ATOM     75  C   UNL     1      -7.548   1.496  -3.617  1.00  0.00     0.135 A 
ATOM     76  C   UNL     1      -6.526   0.599  -5.557  1.00  0.00     0.135 A 
ATOM     77  F   UNL     1      -7.756   2.445  -2.696  1.00  0.00    -0.206 F 
ATOM     78  C   UNL     1      -8.442   0.412  -3.582  1.00  0.00     0.059 A 
ATOM     79  C   UNL     1      -7.366  -0.522  -5.512  1.00  0.00     0.059 A 
ATOM     80  F   UNL     1      -5.734   0.697  -6.637  1.00  0.00    -0.206 F 
ATOM     81  C   UNL     1      -8.313  -0.620  -4.504  1.00  0.00     0.060 A 
BRANCH  81  82
ATOM     82  S   UNL     1      -9.402  -2.059  -4.388  1.00  0.00     0.124 S 
ATOM     83  O   UNL     1      -9.188  -2.508  -3.015  1.00  0.00    -0.237 OA
ATOM     84  O   UNL     1     -10.711  -1.477  -4.667  1.00  0.00    -0.237 OA
ATOM     85  O   UNL     1      -8.889  -2.961  -5.416  1.00  0.00    -0.744 OA
ENDBRANCH  81  82
ENDBRANCH  60  74
BRANCH  61  86
ATOM     86  C   UNL     1       1.801   7.653  -2.239  1.00  0.00     0.058 A 
ATOM     87  C   UNL     1       2.897   7.404  -1.371  1.00  0.00     0.135 A 
ATOM     88  C   UNL     1       2.116   7.800  -3.593  1.00  0.00     0.135 A 
ATOM     89  F   UNL     1       2.691   7.328  -0.046  1.00  0.00    -0.206 F 
ATOM     90  C   UNL     1       4.189   7.146  -1.828  1.00  0.00     0.059 A 
ATOM     91  C   UNL     1       3.411   7.545  -4.079  1.00  0.00     0.059 A 
ATOM     92  F   UNL     1       1.153   8.089  -4.481  1.00  0.00    -0.206 F 
ATOM     93  C   UNL     1       4.434   7.184  -3.195  1.00  0.00     0.060 A 
BRANCH  93  94
ATOM     94  S   UNL     1       6.063   6.724  -3.850  1.00  0.00     0.124 S 
ATOM     95  O   UNL     1       6.521   7.976  -4.440  1.00  0.00    -0.237 OA
ATOM     96  O   UNL     1       6.803   6.287  -2.669  1.00  0.00    -0.237 OA
ATOM     97  O   UNL     1       5.742   5.663  -4.800  1.00  0.00    -0.744 OA
ENDBRANCH  93  94
ENDBRANCH  61  86
BRANCH  73  98
ATOM     98  C   UNL     1      -5.497   8.371  -3.716  1.00  0.00     0.058 A 
ATOM     99  C   UNL     1      -5.323   9.617  -4.342  1.00  0.00     0.135 A 
ATOM    100  C   UNL     1      -6.834   7.882  -3.743  1.00  0.00     0.135 A 
ATOM    101  F   UNL     1      -4.107  10.152  -4.509  1.00  0.00    -0.206 F 
ATOM    102  C   UNL     1      -6.387  10.350  -4.881  1.00  0.00     0.059 A 
ATOM    103  C   UNL     1      -7.895   8.562  -4.339  1.00  0.00     0.059 A 
ATOM    104  F   UNL     1      -7.175   6.705  -3.200  1.00  0.00    -0.206 F 
ATOM    105  C   UNL     1      -7.668   9.811  -4.885  1.00  0.00     0.060 A 
BRANCH 105 106
ATOM    106  S   UNL     1      -9.018  10.698  -5.682  1.00  0.00     0.124 S 
ATOM    107  O   UNL     1      -9.514  11.523  -4.585  1.00  0.00    -0.237 OA
ATOM    108  O   UNL     1      -8.339  11.418  -6.755  1.00  0.00    -0.237 OA
ATOM    109  O   UNL     1      -9.908   9.628  -6.122  1.00  0.00    -0.744 OA
ENDBRANCH 105 106
ENDBRANCH  73  98
ENDBRANCH  47  48
ENDBRANCH  40  42
ENDBRANCH  39  40
ENDBRANCH  38  39
ENDBRANCH  37  38
ENDBRANCH  36  37
ENDBRANCH  35  36
ENDBRANCH   1  35
TORSDOF 26
