REMARK SMILES CC1(C)[C@H](O)CC[C@]2(C)[C@@H]1CC[C@@]1(C)Oc3oc(C(=O)OCCOCCOCCOCCOC(=O)c4ccc(-c5c6nc(c(-c7c(F)cc(S(=O)(=O)[O-])cc7F)c7ccc([nH]7)c(-c7c(F)cc(S(=O)(=O)[O-])cc7F)c7nc(c(-c8c(F)cc(S(=O)(=O)[O-])cc8F)c8ccc5[nH]8)C=C7)C=C6)cc4)cc(=O)c3C[C@H]21
REMARK SMILES IDX 28 1 27 2 26 3 25 4 24 5 23 6 22 7 21 8 19 9 20 10 18 11
REMARK SMILES IDX 1 12 2 13 3 14 4 15 10 16 6 17 8 18 11 19 7 20 9 21 107 22
REMARK SMILES IDX 12 23 13 24 106 25 14 26 15 27 105 28 16 29 103 30 17 31
REMARK SMILES IDX 102 32 104 33 5 34 29 36 30 37 31 38 32 39 33 40 34 41 35 42
REMARK SMILES IDX 36 43 37 44 101 45 38 46 100 47 39 48 40 49 41 50 94 51
REMARK SMILES IDX 42 52 99 53 93 54 95 55 43 56 98 57 92 58 91 59 44 61 78 62
REMARK SMILES IDX 57 63 77 64 58 65 61 66 76 67 96 68 59 69 60 70 75 72 97 73
REMARK SMILES IDX 62 74 45 75 46 76 55 77 47 78 48 79 54 80 56 81 49 82 50 83
REMARK SMILES IDX 51 84 52 85 53 86 79 87 80 88 89 89 81 90 82 91 88 92 90 93
REMARK SMILES IDX 83 94 84 95 85 96 86 97 87 98 63 99 64 100 73 101 65 102
REMARK SMILES IDX 66 103 72 104 74 105 67 106 68 107 69 108 70 109 71 110
REMARK H PARENT 5 35 95 60 61 71
REMARK Flexibility Score: inf
ROOT
ATOM      1  C   UNL     1       6.837   9.032  -5.384  1.00  0.00     0.188 C 
ENDROOT
BRANCH   1   2
ATOM      2  O   UNL     1       5.614   8.293  -5.407  1.00  0.00    -0.377 OA
BRANCH   2   3
ATOM      3  C   UNL     1       5.625   7.135  -6.229  1.00  0.00     0.188 C 
BRANCH   3   4
ATOM      4  C   UNL     1       5.104   7.434  -7.649  1.00  0.00     0.188 C 
BRANCH   4   5
ATOM      5  O   UNL     1       5.013   8.824  -7.931  1.00  0.00    -0.376 OA
BRANCH   5   6
ATOM      6  C   UNL     1       3.803   9.536  -7.714  1.00  0.00     0.202 C 
BRANCH   6   7
ATOM      7  C   UNL     1       2.951   9.348  -6.457  1.00  0.00     0.261 C 
BRANCH   7   8
ATOM      8  O   UNL     1       2.764   8.005  -6.020  1.00  0.00    -0.457 OA
BRANCH   8   9
ATOM      9  C   UNL     1       2.095   7.044  -6.720  1.00  0.00     0.374 C 
ATOM     10  O   UNL     1       1.501   7.175  -7.752  1.00  0.00    -0.242 OA
BRANCH   9  11
ATOM     11  C   UNL     1       2.435   5.756  -6.008  1.00  0.00     0.219 A 
ATOM     12  C   UNL     1       1.616  -2.419  -1.240  1.00  0.00     0.014 C 
ATOM     13  C   UNL     1       0.927  -1.434  -2.231  1.00  0.00    -0.006 C 
ATOM     14  C   UNL     1      -0.396  -2.118  -2.647  1.00  0.00     0.014 C 
ATOM     15  C   UNL     1       0.491  -0.164  -1.236  1.00  0.00     0.120 C 
ATOM     16  C   UNL     1       2.066  -0.996  -3.491  1.00  0.00     0.004 C 
ATOM     17  C   UNL     1       1.613   0.809  -0.917  1.00  0.00     0.033 C 
ATOM     18  C   UNL     1       2.075   0.521  -3.413  1.00  0.00    -0.022 C 
ATOM     19  C   UNL     1       2.175  -1.419  -4.993  1.00  0.00     0.009 C 
ATOM     20  C   UNL     1       2.653   0.683  -1.965  1.00  0.00     0.010 C 
ATOM     21  C   UNL     1       0.600   0.838  -3.959  1.00  0.00     0.012 C 
ATOM     22  C   UNL     1       2.847   1.454  -4.328  1.00  0.00     0.044 C 
ATOM     23  C   UNL     1       2.751  -0.335  -6.068  1.00  0.00     0.049 C 
ATOM     24  C   UNL     1       3.504   0.979  -5.589  1.00  0.00     0.113 C 
ATOM     25  C   UNL     1       3.609   2.582  -3.674  1.00  0.00     0.055 C 
ATOM     26  C   UNL     1       5.007   0.691  -5.452  1.00  0.00     0.057 C 
ATOM     27  O   UNL     1       3.368   2.165  -6.537  1.00  0.00    -0.458 OA
ATOM     28  C   UNL     1       3.579   3.685  -4.641  1.00  0.00     0.081 A 
ATOM     29  C   UNL     1       3.346   3.499  -5.955  1.00  0.00     0.292 A 
ATOM     30  C   UNL     1       3.338   4.960  -3.955  1.00  0.00     0.192 A 
ATOM     31  O   UNL     1       2.866   4.605  -6.713  1.00  0.00    -0.418 OA
ATOM     32  C   UNL     1       2.550   5.923  -4.682  1.00  0.00     0.107 A 
ATOM     33  O   UNL     1       3.701   5.178  -2.807  1.00  0.00    -0.289 OA
BRANCH  15  34
ATOM     34  O   UNL     1      -0.651   0.568  -1.702  1.00  0.00    -0.393 OA
ATOM     35  H   UNL     1      -0.427   1.026  -2.526  1.00  0.00     0.210 HD
ENDBRANCH  15  34
ENDBRANCH   9  11
ENDBRANCH   8   9
ENDBRANCH   7   8
ENDBRANCH   6   7
ENDBRANCH   5   6
ENDBRANCH   4   5
ENDBRANCH   3   4
ENDBRANCH   2   3
ENDBRANCH   1   2
BRANCH   1  36
ATOM     36  C   UNL     1       7.590   9.255  -6.716  1.00  0.00     0.188 C 
BRANCH  36  37
ATOM     37  O   UNL     1       7.894   8.039  -7.401  1.00  0.00    -0.376 OA
BRANCH  37  38
ATOM     38  C   UNL     1       9.250   7.624  -7.430  1.00  0.00     0.202 C 
BRANCH  38  39
ATOM     39  C   UNL     1       9.758   7.016  -6.118  1.00  0.00     0.261 C 
BRANCH  39  40
ATOM     40  O   UNL     1       9.724   7.890  -4.981  1.00  0.00    -0.460 OA
BRANCH  40  41
ATOM     41  C   UNL     1      10.435   9.037  -5.060  1.00  0.00     0.338 C 
ATOM     42  O   UNL     1      11.147   9.406  -5.974  1.00  0.00    -0.246 OA
BRANCH  41  43
ATOM     43  C   UNL     1      10.049   9.860  -3.900  1.00  0.00     0.060 A 
ATOM     44  C   UNL     1       9.406  11.086  -4.110  1.00  0.00     0.016 A 
ATOM     45  C   UNL     1      10.320   9.405  -2.608  1.00  0.00     0.016 A 
ATOM     46  C   UNL     1       9.048  11.874  -3.018  1.00  0.00     0.010 A 
ATOM     47  C   UNL     1       9.992  10.210  -1.518  1.00  0.00     0.010 A 
ATOM     48  C   UNL     1       9.384  11.460  -1.723  1.00  0.00    -0.014 A 
BRANCH  48  49
ATOM     49  C   UNL     1       9.323  12.433  -0.610  1.00  0.00     0.031 A 
ATOM     50  C   UNL     1      10.541  13.277  -0.356  1.00  0.00     0.074 A 
ATOM     51  C   UNL     1       8.220  12.572   0.145  1.00  0.00     0.049 A 
ATOM     52  N   UNL     1      10.741  14.190   0.556  1.00  0.00    -0.248 NA
ATOM     53  C   UNL     1      11.687  13.063  -1.258  1.00  0.00     0.031 C 
ATOM     54  C   UNL     1       6.972  11.834  -0.035  1.00  0.00     0.029 A 
ATOM     55  N   UNL     1       7.980  13.389   1.221  1.00  0.00    -0.354 N 
ATOM     56  C   UNL     1      12.023  14.673   0.326  1.00  0.00     0.074 A 
ATOM     57  C   UNL     1      12.572  13.925  -0.782  1.00  0.00     0.031 C 
ATOM     58  C   UNL     1       6.096  12.229   0.907  1.00  0.00     0.029 A 
ATOM     59  C   UNL     1       6.729  13.227   1.768  1.00  0.00     0.049 A 
ATOM     60  H   UNL     1       8.641  14.030   1.569  1.00  0.00     0.167 HD
ATOM     61  C   UNL     1      12.679  15.664   0.972  1.00  0.00     0.037 A 
ATOM     62  C   UNL     1       6.172  13.814   2.847  1.00  0.00     0.037 A 
ATOM     63  C   UNL     1      12.139  16.383   2.092  1.00  0.00     0.049 A 
ATOM     64  C   UNL     1       6.964  14.838   3.621  1.00  0.00     0.074 A 
ATOM     65  C   UNL     1      12.726  17.400   2.823  1.00  0.00     0.029 A 
ATOM     66  N   UNL     1      10.892  16.151   2.654  1.00  0.00    -0.354 N 
ATOM     67  N   UNL     1       8.165  15.309   3.377  1.00  0.00    -0.248 NA
ATOM     68  C   UNL     1       6.329  15.410   4.818  1.00  0.00     0.031 C 
ATOM     69  C   UNL     1      11.854  17.749   3.858  1.00  0.00     0.029 A 
ATOM     70  C   UNL     1      10.702  16.986   3.741  1.00  0.00     0.049 A 
ATOM     71  H   UNL     1      10.240  15.490   2.328  1.00  0.00     0.167 HD
ATOM     72  C   UNL     1       8.418  16.248   4.373  1.00  0.00     0.074 A 
ATOM     73  C   UNL     1       7.242  16.284   5.219  1.00  0.00     0.031 C 
ATOM     74  C   UNL     1       9.521  17.012   4.569  1.00  0.00     0.037 A 
BRANCH  61  75
ATOM     75  C   UNL     1      14.056  16.014   0.487  1.00  0.00     0.058 A 
ATOM     76  C   UNL     1      14.252  16.691  -0.727  1.00  0.00     0.135 A 
ATOM     77  C   UNL     1      15.187  15.698   1.254  1.00  0.00     0.135 A 
ATOM     78  F   UNL     1      13.204  16.993  -1.511  1.00  0.00    -0.206 F 
ATOM     79  C   UNL     1      15.525  17.030  -1.171  1.00  0.00     0.059 A 
ATOM     80  C   UNL     1      16.469  16.050   0.841  1.00  0.00     0.059 A 
ATOM     81  F   UNL     1      15.054  15.041   2.417  1.00  0.00    -0.206 F 
ATOM     82  C   UNL     1      16.627  16.708  -0.378  1.00  0.00     0.060 A 
BRANCH  82  83
ATOM     83  S   UNL     1      18.270  17.169  -0.965  1.00  0.00     0.124 S 
ATOM     84  O   UNL     1      18.442  16.262  -2.096  1.00  0.00    -0.237 OA
ATOM     85  O   UNL     1      18.094  18.578  -1.303  1.00  0.00    -0.237 OA
ATOM     86  O   UNL     1      19.130  16.906   0.185  1.00  0.00    -0.744 OA
ENDBRANCH  82  83
ENDBRANCH  61  75
BRANCH  62  87
ATOM     87  C   UNL     1       4.788  13.454   3.257  1.00  0.00     0.058 A 
ATOM     88  C   UNL     1       3.734  14.369   3.118  1.00  0.00     0.135 A 
ATOM     89  C   UNL     1       4.488  12.189   3.786  1.00  0.00     0.135 A 
ATOM     90  F   UNL     1       3.972  15.597   2.632  1.00  0.00    -0.206 F 
ATOM     91  C   UNL     1       2.433  14.046   3.492  1.00  0.00     0.059 A 
ATOM     92  C   UNL     1       3.191  11.834   4.146  1.00  0.00     0.059 A 
ATOM     93  F   UNL     1       5.459  11.276   3.938  1.00  0.00    -0.206 F 
ATOM     94  C   UNL     1       2.170  12.772   3.999  1.00  0.00     0.060 A 
BRANCH  94  95
ATOM     95  S   UNL     1       0.466  12.348   4.424  1.00  0.00     0.124 S 
ATOM     96  O   UNL     1       0.237  13.186   5.595  1.00  0.00    -0.237 OA
ATOM     97  O   UNL     1      -0.253  12.732   3.213  1.00  0.00    -0.237 OA
ATOM     98  O   UNL     1       0.530  10.912   4.678  1.00  0.00    -0.744 OA
ENDBRANCH  94  95
ENDBRANCH  62  87
BRANCH  74  99
ATOM     99  C   UNL     1       9.522  17.970   5.728  1.00  0.00     0.058 A 
ATOM    100  C   UNL     1       9.684  17.522   7.048  1.00  0.00     0.135 A 
ATOM    101  C   UNL     1       9.475  19.356   5.506  1.00  0.00     0.135 A 
ATOM    102  F   UNL     1       9.729  16.207   7.315  1.00  0.00    -0.206 F 
ATOM    103  C   UNL     1       9.797  18.416   8.108  1.00  0.00     0.059 A 
ATOM    104  C   UNL     1       9.613  20.268   6.548  1.00  0.00     0.059 A 
ATOM    105  F   UNL     1       9.333  19.836   4.260  1.00  0.00    -0.206 F 
ATOM    106  C   UNL     1       9.772  19.787   7.846  1.00  0.00     0.060 A 
BRANCH 106 107
ATOM    107  S   UNL     1       9.993  20.932   9.225  1.00  0.00     0.124 S 
ATOM    108  O   UNL     1       8.738  20.768   9.950  1.00  0.00    -0.237 OA
ATOM    109  O   UNL     1      11.180  20.396   9.885  1.00  0.00    -0.237 OA
ATOM    110  O   UNL     1      10.176  22.224   8.571  1.00  0.00    -0.744 OA
ENDBRANCH 106 107
ENDBRANCH  74  99
ENDBRANCH  48  49
ENDBRANCH  41  43
ENDBRANCH  40  41
ENDBRANCH  39  40
ENDBRANCH  38  39
ENDBRANCH  37  38
ENDBRANCH  36  37
ENDBRANCH   1  36
TORSDOF 24
