REMARK SMILES Cn1ccnc1[C@@H]1[C@@H](C(=O)OCCOCCOCCOCCOC(=O)c2ccc(-c3c4nc(c(-c5c(F)cc(S(=O)(=O)[O-])cc5F)c5ccc([nH]5)c(-c5c(F)cc(S(=O)(=O)[O-])cc5F)c5nc(c(-c6c(F)cc(S(=O)(=O)[O-])cc6F)c6ccc3[nH]6)C=C5)C=C4)cc2)CC(=O)N1CCCOC1CCCCC1
REMARK SMILES IDX 16 1 15 2 14 3 13 4 12 5 11 6 9 7 10 8 8 9 7 10 95 11 92 12
REMARK SMILES IDX 93 13 94 14 6 15 1 16 2 17 3 18 4 19 5 20 96 21 97 22 98 23
REMARK SMILES IDX 99 24 100 25 101 26 105 27 102 28 104 29 103 30 17 31 18 32
REMARK SMILES IDX 19 33 20 34 21 35 22 36 23 37 24 38 25 39 26 40 27 41 91 42
REMARK SMILES IDX 28 43 90 44 29 45 30 46 31 47 84 48 32 49 89 50 83 51 85 52
REMARK SMILES IDX 33 53 88 54 82 55 81 56 34 58 68 59 47 60 67 61 48 62 51 63
REMARK SMILES IDX 66 64 86 65 49 66 50 67 65 69 87 70 52 71 35 72 36 73 45 74
REMARK SMILES IDX 37 75 38 76 44 77 46 78 39 79 40 80 41 81 42 82 43 83 69 84
REMARK SMILES IDX 70 85 79 86 71 87 72 88 78 89 80 90 73 91 74 92 75 93 76 94
REMARK SMILES IDX 77 95 53 96 54 97 63 98 55 99 56 100 62 101 64 102 57 103
REMARK SMILES IDX 58 104 59 105 60 106 61 107
REMARK H PARENT 85 57 51 68
REMARK Flexibility Score: inf
ROOT
ATOM      1  C   UNL     1       1.700   5.844  -2.881  1.00  0.00     0.188 C 
ENDROOT
BRANCH   1   2
ATOM      2  C   UNL     1       1.700   4.975  -4.145  1.00  0.00     0.188 C 
BRANCH   2   3
ATOM      3  O   UNL     1       0.570   4.781  -4.984  1.00  0.00    -0.376 OA
BRANCH   3   4
ATOM      4  C   UNL     1      -0.774   5.031  -4.601  1.00  0.00     0.202 C 
BRANCH   4   5
ATOM      5  C   UNL     1      -1.460   4.207  -3.503  1.00  0.00     0.261 C 
BRANCH   5   6
ATOM      6  O   UNL     1      -0.826   4.242  -2.223  1.00  0.00    -0.463 OA
BRANCH   6   7
ATOM      7  C   UNL     1       0.135   3.315  -2.070  1.00  0.00     0.312 C 
ATOM      8  O   UNL     1       0.469   2.488  -2.915  1.00  0.00    -0.252 OA
BRANCH   7   9
ATOM      9  C   UNL     1       0.749   3.303  -0.706  1.00  0.00     0.139 C 
ATOM     10  C   UNL     1      -0.235   2.589   0.192  1.00  0.00     0.166 C 
ATOM     11  N   UNL     1       0.248   2.915   1.535  1.00  0.00    -0.331 N 
ATOM     12  C   UNL     1       1.153   4.532   0.069  1.00  0.00     0.118 C 
ATOM     13  C   UNL     1       1.131   4.011   1.471  1.00  0.00     0.224 C 
ATOM     14  O   UNL     1       1.733   4.522   2.402  1.00  0.00    -0.275 OA
BRANCH  10  15
ATOM     15  C   UNL     1      -0.424   1.145  -0.270  1.00  0.00     0.132 A 
ATOM     16  C   UNL     1       1.877   0.207  -1.127  1.00  0.00     0.151 C 
ATOM     17  N   UNL     1       0.460   0.226  -0.849  1.00  0.00    -0.336 N 
ATOM     18  C   UNL     1      -0.285  -0.860  -1.268  1.00  0.00     0.107 A 
ATOM     19  C   UNL     1      -1.587  -0.536  -1.030  1.00  0.00     0.131 A 
ATOM     20  N   UNL     1      -1.662   0.690  -0.441  1.00  0.00    -0.239 NA
ENDBRANCH  10  15
BRANCH  11  21
ATOM     21  C   UNL     1      -0.397   2.777   2.846  1.00  0.00     0.122 C 
BRANCH  21  22
ATOM     22  C   UNL     1      -1.526   1.816   3.196  1.00  0.00     0.050 C 
BRANCH  22  23
ATOM     23  C   UNL     1      -1.548   0.341   2.807  1.00  0.00     0.162 C 
BRANCH  23  24
ATOM     24  O   UNL     1      -0.570  -0.523   3.395  1.00  0.00    -0.378 OA
BRANCH  24  25
ATOM     25  C   UNL     1       0.592  -0.759   2.587  1.00  0.00     0.118 C 
ATOM     26  C   UNL     1       1.584   0.353   2.863  1.00  0.00     0.032 C 
ATOM     27  C   UNL     1       1.205  -2.122   2.900  1.00  0.00     0.032 C 
ATOM     28  C   UNL     1       3.010   0.192   2.403  1.00  0.00     0.003 C 
ATOM     29  C   UNL     1       2.586  -2.273   2.256  1.00  0.00     0.003 C 
ATOM     30  C   UNL     1       3.549  -1.181   2.715  1.00  0.00     0.000 C 
ENDBRANCH  24  25
ENDBRANCH  23  24
ENDBRANCH  22  23
ENDBRANCH  21  22
ENDBRANCH  11  21
ENDBRANCH   7   9
ENDBRANCH   6   7
ENDBRANCH   5   6
ENDBRANCH   4   5
ENDBRANCH   3   4
ENDBRANCH   2   3
ENDBRANCH   1   2
BRANCH   1  31
ATOM     31  O   UNL     1       0.476   6.451  -2.543  1.00  0.00    -0.377 OA
BRANCH  31  32
ATOM     32  C   UNL     1       0.263   7.784  -2.992  1.00  0.00     0.188 C 
BRANCH  32  33
ATOM     33  C   UNL     1       0.916   8.196  -4.326  1.00  0.00     0.188 C 
BRANCH  33  34
ATOM     34  O   UNL     1       2.297   7.877  -4.421  1.00  0.00    -0.376 OA
BRANCH  34  35
ATOM     35  C   UNL     1       3.268   8.837  -4.030  1.00  0.00     0.202 C 
BRANCH  35  36
ATOM     36  C   UNL     1       3.265   9.363  -2.583  1.00  0.00     0.261 C 
BRANCH  36  37
ATOM     37  O   UNL     1       2.065   9.999  -2.118  1.00  0.00    -0.460 OA
BRANCH  37  38
ATOM     38  C   UNL     1       1.562  11.020  -2.839  1.00  0.00     0.338 C 
ATOM     39  O   UNL     1       2.064  11.534  -3.829  1.00  0.00    -0.246 OA
BRANCH  38  40
ATOM     40  C   UNL     1       0.183  11.270  -2.372  1.00  0.00     0.060 A 
ATOM     41  C   UNL     1      -0.872  11.160  -3.289  1.00  0.00     0.016 A 
ATOM     42  C   UNL     1      -0.072  11.608  -1.041  1.00  0.00     0.016 A 
ATOM     43  C   UNL     1      -2.179  11.430  -2.888  1.00  0.00     0.010 A 
ATOM     44  C   UNL     1      -1.380  11.909  -0.648  1.00  0.00     0.010 A 
ATOM     45  C   UNL     1      -2.432  11.858  -1.580  1.00  0.00    -0.014 A 
BRANCH  45  46
ATOM     46  C   UNL     1      -3.747  12.462  -1.258  1.00  0.00     0.031 A 
ATOM     47  C   UNL     1      -3.865  13.962  -1.290  1.00  0.00     0.074 A 
ATOM     48  C   UNL     1      -4.821  11.700  -0.985  1.00  0.00     0.049 A 
ATOM     49  N   UNL     1      -4.892  14.721  -1.013  1.00  0.00    -0.248 NA
ATOM     50  C   UNL     1      -2.657  14.706  -1.688  1.00  0.00     0.031 C 
ATOM     51  C   UNL     1      -4.841  10.239  -0.975  1.00  0.00     0.029 A 
ATOM     52  N   UNL     1      -6.104  12.058  -0.655  1.00  0.00    -0.354 N 
ATOM     53  C   UNL     1      -4.453  16.029  -1.191  1.00  0.00     0.074 A 
ATOM     54  C   UNL     1      -3.060  15.962  -1.573  1.00  0.00     0.031 C 
ATOM     55  C   UNL     1      -6.075   9.823  -0.637  1.00  0.00     0.029 A 
ATOM     56  C   UNL     1      -6.920  10.988  -0.374  1.00  0.00     0.049 A 
ATOM     57  H   UNL     1      -6.412  12.992  -0.623  1.00  0.00     0.167 HD
ATOM     58  C   UNL     1      -5.152  17.180  -1.054  1.00  0.00     0.037 A 
ATOM     59  C   UNL     1      -8.193  10.956   0.070  1.00  0.00     0.037 A 
ATOM     60  C   UNL     1      -6.538  17.236  -0.673  1.00  0.00     0.049 A 
ATOM     61  C   UNL     1      -8.930  12.255   0.287  1.00  0.00     0.074 A 
ATOM     62  C   UNL     1      -7.344  18.352  -0.526  1.00  0.00     0.029 A 
ATOM     63  N   UNL     1      -7.322  16.133  -0.366  1.00  0.00    -0.354 N 
ATOM     64  N   UNL     1      -8.513  13.484   0.091  1.00  0.00    -0.248 NA
ATOM     65  C   UNL     1     -10.311  12.163   0.781  1.00  0.00     0.031 C 
ATOM     66  C   UNL     1      -8.595  17.928  -0.068  1.00  0.00     0.029 A 
ATOM     67  C   UNL     1      -8.593  16.544   0.002  1.00  0.00     0.049 A 
ATOM     68  H   UNL     1      -7.020  15.197  -0.404  1.00  0.00     0.167 HD
ATOM     69  C   UNL     1      -9.590  14.308   0.409  1.00  0.00     0.074 A 
ATOM     70  C   UNL     1     -10.679  13.436   0.796  1.00  0.00     0.031 C 
ATOM     71  C   UNL     1      -9.671  15.662   0.380  1.00  0.00     0.037 A 
BRANCH  58  72
ATOM     72  C   UNL     1      -4.418  18.474  -1.282  1.00  0.00     0.058 A 
ATOM     73  C   UNL     1      -3.994  18.876  -2.558  1.00  0.00     0.135 A 
ATOM     74  C   UNL     1      -4.168  19.343  -0.207  1.00  0.00     0.135 A 
ATOM     75  F   UNL     1      -4.187  18.075  -3.619  1.00  0.00    -0.206 F 
ATOM     76  C   UNL     1      -3.327  20.081  -2.757  1.00  0.00     0.059 A 
ATOM     77  C   UNL     1      -3.531  20.566  -0.387  1.00  0.00     0.059 A 
ATOM     78  F   UNL     1      -4.546  19.006   1.037  1.00  0.00    -0.206 F 
ATOM     79  C   UNL     1      -3.103  20.921  -1.665  1.00  0.00     0.060 A 
BRANCH  79  80
ATOM     80  S   UNL     1      -2.250  22.487  -1.943  1.00  0.00     0.124 S 
ATOM     81  O   UNL     1      -0.893  22.032  -2.229  1.00  0.00    -0.237 OA
ATOM     82  O   UNL     1      -2.983  23.043  -3.075  1.00  0.00    -0.237 OA
ATOM     83  O   UNL     1      -2.419  23.197  -0.679  1.00  0.00    -0.744 OA
ENDBRANCH  79  80
ENDBRANCH  58  72
BRANCH  59  84
ATOM     84  C   UNL     1      -8.848   9.652   0.362  1.00  0.00     0.058 A 
ATOM     85  C   UNL     1      -9.927   9.190  -0.406  1.00  0.00     0.135 A 
ATOM     86  C   UNL     1      -8.413   8.844   1.425  1.00  0.00     0.135 A 
ATOM     87  F   UNL     1     -10.391   9.930  -1.425  1.00  0.00    -0.206 F 
ATOM     88  C   UNL     1     -10.561   7.984  -0.124  1.00  0.00     0.059 A 
ATOM     89  C   UNL     1      -9.011   7.620   1.709  1.00  0.00     0.059 A 
ATOM     90  F   UNL     1      -7.380   9.235   2.188  1.00  0.00    -0.206 F 
ATOM     91  C   UNL     1     -10.091   7.203   0.934  1.00  0.00     0.060 A 
BRANCH  91  92
ATOM     92  S   UNL     1     -10.891   5.617   1.260  1.00  0.00     0.124 S 
ATOM     93  O   UNL     1     -12.178   6.041   1.797  1.00  0.00    -0.237 OA
ATOM     94  O   UNL     1     -10.920   5.013  -0.068  1.00  0.00    -0.237 OA
ATOM     95  O   UNL     1      -9.989   4.976   2.213  1.00  0.00    -0.744 OA
ENDBRANCH  91  92
ENDBRANCH  59  84
BRANCH  71  96
ATOM     96  C   UNL     1     -10.992  16.291   0.737  1.00  0.00     0.058 A 
ATOM     97  C   UNL     1     -11.484  16.292   2.052  1.00  0.00     0.135 A 
ATOM     98  C   UNL     1     -11.751  16.952  -0.244  1.00  0.00     0.135 A 
ATOM     99  F   UNL     1     -10.803  15.673   3.029  1.00  0.00    -0.206 F 
ATOM    100  C   UNL     1     -12.694  16.900   2.376  1.00  0.00     0.059 A 
ATOM    101  C   UNL     1     -12.945  17.595   0.064  1.00  0.00     0.059 A 
ATOM    102  F   UNL     1     -11.322  16.995  -1.516  1.00  0.00    -0.206 F 
ATOM    103  C   UNL     1     -13.416  17.552   1.375  1.00  0.00     0.060 A 
BRANCH 103 104
ATOM    104  S   UNL     1     -14.969  18.361   1.815  1.00  0.00     0.124 S 
ATOM    105  O   UNL     1     -15.842  17.215   2.047  1.00  0.00    -0.237 OA
ATOM    106  O   UNL     1     -14.596  19.125   3.001  1.00  0.00    -0.237 OA
ATOM    107  O   UNL     1     -15.283  19.161   0.635  1.00  0.00    -0.744 OA
ENDBRANCH 103 104
ENDBRANCH  71  96
ENDBRANCH  45  46
ENDBRANCH  38  40
ENDBRANCH  37  38
ENDBRANCH  36  37
ENDBRANCH  35  36
ENDBRANCH  34  35
ENDBRANCH  33  34
ENDBRANCH  32  33
ENDBRANCH  31  32
ENDBRANCH   1  31
TORSDOF 29
