REMARK SMILES CCN1C(=O)/C(=C/c2ccccc2O[C@H](C)C(=O)OCCOCCOCCOCCOC(=O)c2ccc(-c3c4nc(c(-c5c(F)cc(S(=O)(=O)[O-])cc5F)c5ccc([nH]5)c(-c5c(F)cc(S(=O)(=O)[O-])cc5F)c5nc(c(-c6c(F)cc(S(=O)(=O)[O-])cc6F)c6ccc3[nH]6)C=C5)C=C4)cc2)S/C1=[NH+]\c1ccc(C)cc1O
REMARK SMILES IDX 24 1 23 2 22 3 21 4 20 5 19 6 17 7 18 8 15 9 16 10 14 11
REMARK SMILES IDX 13 12 8 13 9 14 10 15 12 16 11 17 7 18 3 19 4 20 101 21 5 22
REMARK SMILES IDX 6 23 100 24 102 25 2 27 1 28 103 29 104 30 109 31 105 32
REMARK SMILES IDX 108 33 106 34 107 35 110 36 25 38 26 39 27 40 28 41 29 42
REMARK SMILES IDX 30 43 31 44 32 45 33 46 34 47 35 48 99 49 36 50 98 51 37 52
REMARK SMILES IDX 38 53 39 54 92 55 40 56 97 57 91 58 93 59 41 60 96 61 90 62
REMARK SMILES IDX 89 63 42 65 76 66 55 67 75 68 56 69 59 70 74 71 94 72 57 73
REMARK SMILES IDX 58 74 73 76 95 77 60 78 43 79 44 80 53 81 45 82 46 83 52 84
REMARK SMILES IDX 54 85 47 86 48 87 49 88 50 89 51 90 77 91 78 92 87 93 79 94
REMARK SMILES IDX 80 95 86 96 88 97 81 98 82 99 83 100 84 101 85 102 61 103
REMARK SMILES IDX 62 104 71 105 63 106 64 107 70 108 72 109 65 110 66 111
REMARK SMILES IDX 67 112 68 113 69 114
REMARK H PARENT 102 26 110 37 93 64 59 75
REMARK Flexibility Score: inf
ROOT
ATOM      1  C   UNL     1       6.389   3.183  -3.684  1.00  0.00     0.188 C 
ENDROOT
BRANCH   1   2
ATOM      2  C   UNL     1       6.671   2.095  -2.635  1.00  0.00     0.188 C 
BRANCH   2   3
ATOM      3  O   UNL     1       6.599   0.710  -2.935  1.00  0.00    -0.376 OA
BRANCH   3   4
ATOM      4  C   UNL     1       5.670   0.169  -3.861  1.00  0.00     0.202 C 
BRANCH   4   5
ATOM      5  C   UNL     1       4.166   0.463  -3.784  1.00  0.00     0.261 C 
BRANCH   5   6
ATOM      6  O   UNL     1       3.790   1.834  -3.621  1.00  0.00    -0.461 OA
BRANCH   6   7
ATOM      7  C   UNL     1       3.581   2.224  -2.341  1.00  0.00     0.347 C 
ATOM      8  O   UNL     1       3.786   1.520  -1.355  1.00  0.00    -0.248 OA
BRANCH   7   9
ATOM      9  C   UNL     1       2.932   3.589  -2.239  1.00  0.00     0.279 C 
ATOM     10  C   UNL     1       3.541   4.864  -2.808  1.00  0.00     0.066 C 
BRANCH   9  11
ATOM     11  O   UNL     1       1.587   3.293  -2.570  1.00  0.00    -0.478 OA
BRANCH  11  12
ATOM     12  C   UNL     1       0.952   3.715  -3.691  1.00  0.00     0.127 A 
ATOM     13  C   UNL     1      -0.440   3.844  -3.515  1.00  0.00     0.018 A 
ATOM     14  C   UNL     1      -1.234   4.228  -4.594  1.00  0.00     0.012 A 
ATOM     15  C   UNL     1      -0.640   4.500  -5.831  1.00  0.00     0.001 A 
ATOM     16  C   UNL     1       1.534   3.936  -4.936  1.00  0.00     0.047 A 
ATOM     17  C   UNL     1       0.737   4.354  -6.002  1.00  0.00     0.004 A 
BRANCH  13  18
ATOM     18  C   UNL     1      -1.022   3.478  -2.206  1.00  0.00     0.036 C 
ATOM     19  N   UNL     1      -0.667   4.335   1.300  1.00  0.00    -0.186 N 
ATOM     20  C   UNL     1      -1.058   3.482   0.281  1.00  0.00     0.348 C 
ATOM     21  C   UNL     1      -0.078   5.517   0.906  1.00  0.00     0.324 C 
ATOM     22  O   UNL     1      -1.611   2.398   0.393  1.00  0.00    -0.240 OA
ATOM     23  C   UNL     1      -0.712   4.073  -1.042  1.00  0.00     0.110 C 
ATOM     24  S   UNL     1       0.174   5.526  -0.815  1.00  0.00     0.007 SA
ATOM     25  N   UNL     1       0.164   6.482   1.732  1.00  0.00    -0.231 N 
ATOM     26  H   UNL     1      -0.032   6.341   2.687  1.00  0.00     0.313 HD
BRANCH  19  27
ATOM     27  C   UNL     1      -0.890   4.082   2.722  1.00  0.00     0.244 C 
ATOM     28  C   UNL     1      -1.611   2.805   3.122  1.00  0.00     0.055 C 
ENDBRANCH  19  27
BRANCH  25  29
ATOM     29  C   UNL     1       0.696   7.729   1.333  1.00  0.00     0.167 A 
ATOM     30  C   UNL     1       1.852   8.189   1.976  1.00  0.00     0.056 A 
ATOM     31  C   UNL     1       0.069   8.606   0.429  1.00  0.00     0.162 A 
ATOM     32  C   UNL     1       2.385   9.457   1.694  1.00  0.00     0.008 A 
ATOM     33  C   UNL     1       0.607   9.854   0.123  1.00  0.00     0.054 A 
ATOM     34  C   UNL     1       1.774  10.291   0.751  1.00  0.00    -0.047 A 
ATOM     35  C   UNL     1       2.322  11.655   0.458  1.00  0.00     0.044 C 
BRANCH  31  36
ATOM     36  O   UNL     1      -1.115   8.314  -0.194  1.00  0.00    -0.504 OA
ATOM     37  H   UNL     1      -1.538   7.493  -0.037  1.00  0.00     0.293 HD
ENDBRANCH  31  36
ENDBRANCH  25  29
ENDBRANCH  13  18
ENDBRANCH  11  12
ENDBRANCH   9  11
ENDBRANCH   7   9
ENDBRANCH   6   7
ENDBRANCH   5   6
ENDBRANCH   4   5
ENDBRANCH   3   4
ENDBRANCH   2   3
ENDBRANCH   1   2
BRANCH   1  38
ATOM     38  O   UNL     1       5.877   2.733  -4.917  1.00  0.00    -0.377 OA
BRANCH  38  39
ATOM     39  C   UNL     1       6.816   2.517  -5.962  1.00  0.00     0.188 C 
BRANCH  39  40
ATOM     40  C   UNL     1       8.222   2.019  -5.572  1.00  0.00     0.188 C 
BRANCH  40  41
ATOM     41  O   UNL     1       8.839   2.768  -4.533  1.00  0.00    -0.376 OA
BRANCH  41  42
ATOM     42  C   UNL     1       9.713   3.836  -4.868  1.00  0.00     0.202 C 
BRANCH  42  43
ATOM     43  C   UNL     1       9.150   5.035  -5.650  1.00  0.00     0.261 C 
BRANCH  43  44
ATOM     44  O   UNL     1       8.551   4.764  -6.925  1.00  0.00    -0.460 OA
BRANCH  44  45
ATOM     45  C   UNL     1       9.282   4.094  -7.846  1.00  0.00     0.338 C 
ATOM     46  O   UNL     1      10.436   3.744  -7.748  1.00  0.00    -0.246 OA
BRANCH  45  47
ATOM     47  C   UNL     1       8.354   3.674  -8.923  1.00  0.00     0.060 A 
ATOM     48  C   UNL     1       8.209   2.308  -9.202  1.00  0.00     0.016 A 
ATOM     49  C   UNL     1       7.626   4.623  -9.642  1.00  0.00     0.016 A 
ATOM     50  C   UNL     1       7.362   1.889 -10.230  1.00  0.00     0.010 A 
ATOM     51  C   UNL     1       6.800   4.205 -10.688  1.00  0.00     0.010 A 
ATOM     52  C   UNL     1       6.691   2.839 -11.009  1.00  0.00    -0.014 A 
BRANCH  52  53
ATOM     53  C   UNL     1       6.052   2.435 -12.285  1.00  0.00     0.031 A 
ATOM     54  C   UNL     1       6.824   2.646 -13.560  1.00  0.00     0.074 A 
ATOM     55  C   UNL     1       4.821   1.894 -12.317  1.00  0.00     0.049 A 
ATOM     56  N   UNL     1       6.447   2.471 -14.798  1.00  0.00    -0.248 NA
ATOM     57  C   UNL     1       8.208   3.129 -13.414  1.00  0.00     0.031 C 
ATOM     58  C   UNL     1       3.997   1.595 -11.149  1.00  0.00     0.029 A 
ATOM     59  N   UNL     1       4.043   1.518 -13.384  1.00  0.00    -0.354 N 
ATOM     60  C   UNL     1       7.538   2.835 -15.579  1.00  0.00     0.074 A 
ATOM     61  C   UNL     1       8.583   3.266 -14.676  1.00  0.00     0.031 C 
ATOM     62  C   UNL     1       2.816   1.101 -11.564  1.00  0.00     0.029 A 
ATOM     63  C   UNL     1       2.787   1.088 -13.026  1.00  0.00     0.049 A 
ATOM     64  H   UNL     1       4.355   1.552 -14.318  1.00  0.00     0.167 HD
ATOM     65  C   UNL     1       7.660   2.808 -16.927  1.00  0.00     0.037 A 
ATOM     66  C   UNL     1       1.728   0.756 -13.793  1.00  0.00     0.037 A 
ATOM     67  C   UNL     1       6.615   2.377 -17.817  1.00  0.00     0.049 A 
ATOM     68  C   UNL     1       1.860   0.807 -15.296  1.00  0.00     0.074 A 
ATOM     69  C   UNL     1       6.644   2.294 -19.198  1.00  0.00     0.029 A 
ATOM     70  N   UNL     1       5.351   1.968 -17.418  1.00  0.00    -0.354 N 
ATOM     71  N   UNL     1       2.902   1.133 -16.024  1.00  0.00    -0.248 NA
ATOM     72  C   UNL     1       0.672   0.444 -16.083  1.00  0.00     0.031 C 
ATOM     73  C   UNL     1       5.378   1.895 -19.637  1.00  0.00     0.029 A 
ATOM     74  C   UNL     1       4.581   1.660 -18.527  1.00  0.00     0.049 A 
ATOM     75  H   UNL     1       5.046   1.905 -16.484  1.00  0.00     0.167 HD
ATOM     76  C   UNL     1       2.506   0.980 -17.350  1.00  0.00     0.074 A 
ATOM     77  C   UNL     1       1.132   0.526 -17.324  1.00  0.00     0.031 C 
ATOM     78  C   UNL     1       3.217   1.193 -18.486  1.00  0.00     0.037 A 
BRANCH  65  79
ATOM     79  C   UNL     1       8.954   3.289 -17.524  1.00  0.00     0.058 A 
ATOM     80  C   UNL     1      10.147   2.561 -17.397  1.00  0.00     0.135 A 
ATOM     81  C   UNL     1       8.989   4.479 -18.269  1.00  0.00     0.135 A 
ATOM     82  F   UNL     1      10.176   1.428 -16.677  1.00  0.00    -0.206 F 
ATOM     83  C   UNL     1      11.334   3.006 -17.970  1.00  0.00     0.059 A 
ATOM     84  C   UNL     1      10.158   4.927 -18.877  1.00  0.00     0.059 A 
ATOM     85  F   UNL     1       7.879   5.218 -18.417  1.00  0.00    -0.206 F 
ATOM     86  C   UNL     1      11.328   4.189 -18.712  1.00  0.00     0.060 A 
BRANCH  86  87
ATOM     87  S   UNL     1      12.874   4.742 -19.462  1.00  0.00     0.124 S 
ATOM     88  O   UNL     1      13.638   5.150 -18.287  1.00  0.00    -0.237 OA
ATOM     89  O   UNL     1      13.342   3.535 -20.135  1.00  0.00    -0.237 OA
ATOM     90  O   UNL     1      12.456   5.827 -20.344  1.00  0.00    -0.744 OA
ENDBRANCH  86  87
ENDBRANCH  65  79
BRANCH  66  91
ATOM     91  C   UNL     1       0.438   0.370 -13.158  1.00  0.00     0.058 A 
ATOM     92  C   UNL     1      -0.066  -0.934 -13.268  1.00  0.00     0.135 A 
ATOM     93  C   UNL     1      -0.326   1.304 -12.439  1.00  0.00     0.135 A 
ATOM     94  F   UNL     1       0.618  -1.861 -13.956  1.00  0.00    -0.206 F 
ATOM     95  C   UNL     1      -1.286  -1.296 -12.705  1.00  0.00     0.059 A 
ATOM     96  C   UNL     1      -1.534   0.959 -11.842  1.00  0.00     0.059 A 
ATOM     97  F   UNL     1       0.111   2.565 -12.297  1.00  0.00    -0.206 F 
ATOM     98  C   UNL     1      -2.012  -0.342 -11.990  1.00  0.00     0.060 A 
BRANCH  98  99
ATOM     99  S   UNL     1      -3.574  -0.833 -11.227  1.00  0.00     0.124 S 
ATOM    100  O   UNL     1      -4.431  -0.998 -12.395  1.00  0.00    -0.237 OA
ATOM    101  O   UNL     1      -3.199  -2.060 -10.531  1.00  0.00    -0.237 OA
ATOM    102  O   UNL     1      -3.895   0.298 -10.363  1.00  0.00    -0.744 OA
ENDBRANCH  98  99
ENDBRANCH  66  91
BRANCH  78 103
ATOM    103  C   UNL     1       2.548   0.892 -19.802  1.00  0.00     0.058 A 
ATOM    104  C   UNL     1       1.524   1.700 -20.319  1.00  0.00     0.135 A 
ATOM    105  C   UNL     1       2.995  -0.182 -20.591  1.00  0.00     0.135 A 
ATOM    106  F   UNL     1       1.055   2.736 -19.605  1.00  0.00    -0.206 F 
ATOM    107  C   UNL     1       0.952   1.442 -21.561  1.00  0.00     0.059 A 
ATOM    108  C   UNL     1       2.461  -0.438 -21.850  1.00  0.00     0.059 A 
ATOM    109  F   UNL     1       3.981  -0.981 -20.151  1.00  0.00    -0.206 F 
ATOM    110  C   UNL     1       1.432   0.375 -22.323  1.00  0.00     0.060 A 
BRANCH 110 111
ATOM    111  S   UNL     1       0.713   0.083 -23.953  1.00  0.00     0.124 S 
ATOM    112  O   UNL     1      -0.609  -0.426 -23.605  1.00  0.00    -0.237 OA
ATOM    113  O   UNL     1       0.744   1.414 -24.550  1.00  0.00    -0.237 OA
ATOM    114  O   UNL     1       1.620  -0.890 -24.556  1.00  0.00    -0.744 OA
ENDBRANCH 110 111
ENDBRANCH  78 103
ENDBRANCH  52  53
ENDBRANCH  45  47
ENDBRANCH  44  45
ENDBRANCH  43  44
ENDBRANCH  42  43
ENDBRANCH  41  42
ENDBRANCH  40  41
ENDBRANCH  39  40
ENDBRANCH  38  39
ENDBRANCH   1  38
TORSDOF 29
