REMARK SMILES O=C(OCCOCCOCCOCCOC(=O)c1sccc1S(=O)(=O)Nc1ccc(Cn2cncn2)cc1)c1ccc(-c2c3nc(c(-c4c(F)cc(S(=O)(=O)[O-])cc4F)c4ccc([nH]4)c(-c4c(F)cc(S(=O)(=O)[O-])cc4F)c4nc(c(-c5c(F)cc(S(=O)(=O)[O-])cc5F)c5ccc2[nH]5)C=C4)C=C3)cc1
REMARK SMILES IDX 10 1 9 2 8 3 7 4 6 5 5 6 4 7 3 8 2 9 1 10 39 11 40 12 104 13
REMARK SMILES IDX 41 14 103 15 42 16 43 17 44 18 97 19 45 20 102 21 96 22
REMARK SMILES IDX 98 23 46 24 101 25 95 26 94 27 47 29 81 30 60 31 80 32 61 33
REMARK SMILES IDX 64 34 79 35 99 36 62 37 63 38 78 40 100 41 65 42 48 43 49 44
REMARK SMILES IDX 58 45 50 46 51 47 57 48 59 49 52 50 53 51 54 52 55 53 56 54
REMARK SMILES IDX 82 55 83 56 92 57 84 58 85 59 91 60 93 61 86 62 87 63 88 64
REMARK SMILES IDX 89 65 90 66 66 67 67 68 76 69 68 70 69 71 75 72 77 73 70 74
REMARK SMILES IDX 71 75 72 76 73 77 74 78 11 79 12 80 13 81 14 82 15 83 16 84
REMARK SMILES IDX 17 85 18 86 19 87 22 88 20 89 21 90 23 91 24 92 25 93 26 94
REMARK SMILES IDX 27 96 28 97 38 98 29 99 37 100 30 101 31 102 32 103 33 104
REMARK SMILES IDX 36 105 34 106 35 107
REMARK H PARENT 98 28 64 39 26 95
REMARK Flexibility Score: inf
ROOT
ATOM      1  C   UNL     1       4.114   0.915  -2.492  1.00  0.00     0.188 C 
ENDROOT
BRANCH   1   2
ATOM      2  O   UNL     1       2.752   0.586  -2.350  1.00  0.00    -0.377 OA
BRANCH   2   3
ATOM      3  C   UNL     1       2.119   0.577  -1.075  1.00  0.00     0.188 C 
BRANCH   3   4
ATOM      4  C   UNL     1       2.781   1.083   0.221  1.00  0.00     0.188 C 
BRANCH   4   5
ATOM      5  O   UNL     1       3.518   0.150   0.998  1.00  0.00    -0.376 OA
BRANCH   5   6
ATOM      6  C   UNL     1       4.734  -0.368   0.515  1.00  0.00     0.202 C 
BRANCH   6   7
ATOM      7  C   UNL     1       4.657  -1.817   0.013  1.00  0.00     0.261 C 
BRANCH   7   8
ATOM      8  O   UNL     1       3.398  -2.274  -0.521  1.00  0.00    -0.460 OA
BRANCH   8   9
ATOM      9  C   UNL     1       2.265  -2.578   0.169  1.00  0.00     0.338 C 
ATOM     10  O   UNL     1       1.316  -3.116  -0.394  1.00  0.00    -0.246 OA
BRANCH   9  11
ATOM     11  C   UNL     1       2.071  -2.060   1.539  1.00  0.00     0.060 A 
ATOM     12  C   UNL     1       3.000  -2.284   2.554  1.00  0.00     0.016 A 
ATOM     13  C   UNL     1       0.916  -1.290   1.784  1.00  0.00     0.016 A 
ATOM     14  C   UNL     1       2.800  -1.710   3.798  1.00  0.00     0.010 A 
ATOM     15  C   UNL     1       0.701  -0.732   3.039  1.00  0.00     0.010 A 
ATOM     16  C   UNL     1       1.626  -0.990   4.053  1.00  0.00    -0.014 A 
BRANCH  16  17
ATOM     17  C   UNL     1       1.284  -0.860   5.464  1.00  0.00     0.031 A 
ATOM     18  C   UNL     1       2.020   0.090   6.332  1.00  0.00     0.074 A 
ATOM     19  C   UNL     1       0.434  -1.770   5.982  1.00  0.00     0.049 A 
ATOM     20  N   UNL     1       2.886  -0.189   7.256  1.00  0.00    -0.248 NA
ATOM     21  C   UNL     1       1.778   1.525   6.151  1.00  0.00     0.031 C 
ATOM     22  C   UNL     1      -0.499  -2.636   5.249  1.00  0.00     0.029 A 
ATOM     23  N   UNL     1       0.194  -2.075   7.287  1.00  0.00    -0.354 N 
ATOM     24  C   UNL     1       3.140   1.009   7.922  1.00  0.00     0.074 A 
ATOM     25  C   UNL     1       2.522   2.045   7.131  1.00  0.00     0.031 C 
ATOM     26  C   UNL     1      -1.335  -3.227   6.123  1.00  0.00     0.029 A 
ATOM     27  C   UNL     1      -0.914  -2.884   7.468  1.00  0.00     0.049 A 
ATOM     28  H   UNL     1       0.753  -1.752   8.029  1.00  0.00     0.167 HD
ATOM     29  C   UNL     1       3.666   1.041   9.179  1.00  0.00     0.037 A 
ATOM     30  C   UNL     1      -1.507  -3.200   8.639  1.00  0.00     0.037 A 
ATOM     31  C   UNL     1       4.327  -0.192   9.523  1.00  0.00     0.049 A 
ATOM     32  C   UNL     1      -0.492  -3.080   9.712  1.00  0.00     0.074 A 
ATOM     33  C   UNL     1       5.385  -0.913   9.006  1.00  0.00     0.029 A 
ATOM     34  N   UNL     1       3.722  -1.024  10.432  1.00  0.00    -0.354 N 
ATOM     35  N   UNL     1       0.536  -3.875   9.842  1.00  0.00    -0.248 NA
ATOM     36  C   UNL     1      -0.408  -1.833  10.457  1.00  0.00     0.031 C 
ATOM     37  C   UNL     1       5.097  -2.278   9.299  1.00  0.00     0.029 A 
ATOM     38  C   UNL     1       3.880  -2.309   9.981  1.00  0.00     0.049 A 
ATOM     39  H   UNL     1       3.260  -0.749  11.257  1.00  0.00     0.167 HD
ATOM     40  C   UNL     1       1.548  -3.073  10.347  1.00  0.00     0.074 A 
ATOM     41  C   UNL     1       0.874  -1.873  10.826  1.00  0.00     0.031 C 
ATOM     42  C   UNL     1       2.862  -3.334  10.082  1.00  0.00     0.037 A 
BRANCH  29  43
ATOM     43  C   UNL     1       3.301   2.068  10.230  1.00  0.00     0.058 A 
ATOM     44  C   UNL     1       4.038   2.134  11.433  1.00  0.00     0.135 A 
ATOM     45  C   UNL     1       2.077   2.772  10.229  1.00  0.00     0.135 A 
ATOM     46  F   UNL     1       5.217   1.502  11.548  1.00  0.00    -0.206 F 
ATOM     47  C   UNL     1       3.549   2.768  12.578  1.00  0.00     0.059 A 
ATOM     48  C   UNL     1       1.595   3.455  11.342  1.00  0.00     0.059 A 
ATOM     49  F   UNL     1       1.242   2.742   9.183  1.00  0.00    -0.206 F 
ATOM     50  C   UNL     1       2.310   3.400  12.528  1.00  0.00     0.060 A 
BRANCH  50  51
ATOM     51  S   UNL     1       1.590   4.067  14.039  1.00  0.00     0.124 S 
ATOM     52  O   UNL     1       1.171   2.846  14.718  1.00  0.00    -0.237 OA
ATOM     53  O   UNL     1       2.718   4.775  14.634  1.00  0.00    -0.237 OA
ATOM     54  O   UNL     1       0.512   4.920  13.546  1.00  0.00    -0.744 OA
ENDBRANCH  50  51
ENDBRANCH  29  43
BRANCH  30  55
ATOM     55  C   UNL     1      -2.971  -3.251   8.863  1.00  0.00     0.058 A 
ATOM     56  C   UNL     1      -3.515  -3.827  10.019  1.00  0.00     0.135 A 
ATOM     57  C   UNL     1      -3.864  -2.518   8.048  1.00  0.00     0.135 A 
ATOM     58  F   UNL     1      -2.730  -4.509  10.866  1.00  0.00    -0.206 F 
ATOM     59  C   UNL     1      -4.861  -3.665  10.362  1.00  0.00     0.059 A 
ATOM     60  C   UNL     1      -5.210  -2.363   8.356  1.00  0.00     0.059 A 
ATOM     61  F   UNL     1      -3.438  -1.850   6.966  1.00  0.00    -0.206 F 
ATOM     62  C   UNL     1      -5.698  -2.920   9.529  1.00  0.00     0.060 A 
BRANCH  62  63
ATOM     63  S   UNL     1      -7.394  -2.576  10.041  1.00  0.00     0.124 S 
ATOM     64  O   UNL     1      -8.014  -3.892   9.928  1.00  0.00    -0.237 OA
ATOM     65  O   UNL     1      -7.209  -2.071  11.397  1.00  0.00    -0.237 OA
ATOM     66  O   UNL     1      -7.850  -1.587   9.068  1.00  0.00    -0.744 OA
ENDBRANCH  62  63
ENDBRANCH  30  55
BRANCH  42  67
ATOM     67  C   UNL     1       3.226  -4.701   9.569  1.00  0.00     0.058 A 
ATOM     68  C   UNL     1       2.841  -5.188   8.308  1.00  0.00     0.135 A 
ATOM     69  C   UNL     1       4.128  -5.480  10.311  1.00  0.00     0.135 A 
ATOM     70  F   UNL     1       2.068  -4.453   7.495  1.00  0.00    -0.206 F 
ATOM     71  C   UNL     1       3.302  -6.413   7.823  1.00  0.00     0.059 A 
ATOM     72  C   UNL     1       4.623  -6.693   9.834  1.00  0.00     0.059 A 
ATOM     73  F   UNL     1       4.587  -5.037  11.493  1.00  0.00    -0.206 F 
ATOM     74  C   UNL     1       4.197  -7.158   8.592  1.00  0.00     0.060 A 
BRANCH  74  75
ATOM     75  S   UNL     1       4.879  -8.687   7.911  1.00  0.00     0.124 S 
ATOM     76  O   UNL     1       3.771  -9.620   8.079  1.00  0.00    -0.237 OA
ATOM     77  O   UNL     1       5.191  -8.313   6.533  1.00  0.00    -0.237 OA
ATOM     78  O   UNL     1       6.046  -8.943   8.752  1.00  0.00    -0.744 OA
ENDBRANCH  74  75
ENDBRANCH  42  67
ENDBRANCH  16  17
ENDBRANCH   9  11
ENDBRANCH   8   9
ENDBRANCH   7   8
ENDBRANCH   6   7
ENDBRANCH   5   6
ENDBRANCH   4   5
ENDBRANCH   3   4
ENDBRANCH   2   3
ENDBRANCH   1   2
BRANCH   1  79
ATOM     79  C   UNL     1       4.491   2.320  -2.021  1.00  0.00     0.188 C 
BRANCH  79  80
ATOM     80  O   UNL     1       3.363   3.159  -1.783  1.00  0.00    -0.376 OA
BRANCH  80  81
ATOM     81  C   UNL     1       2.742   3.813  -2.874  1.00  0.00     0.202 C 
BRANCH  81  82
ATOM     82  C   UNL     1       1.897   3.018  -3.881  1.00  0.00     0.261 C 
BRANCH  82  83
ATOM     83  O   UNL     1       2.493   2.417  -5.058  1.00  0.00    -0.459 OA
BRANCH  83  84
ATOM     84  C   UNL     1       3.800   2.496  -5.351  1.00  0.00     0.349 C 
ATOM     85  O   UNL     1       4.677   3.035  -4.681  1.00  0.00    -0.245 OA
BRANCH  84  86
ATOM     86  C   UNL     1       4.090   1.840  -6.577  1.00  0.00     0.133 A 
ATOM     87  S   UNL     1       4.584   0.201  -6.516  1.00  0.00    -0.136 S 
ATOM     88  C   UNL     1       4.178   2.369  -7.843  1.00  0.00     0.113 A 
ATOM     89  C   UNL     1       4.884   0.167  -8.195  1.00  0.00     0.067 A 
ATOM     90  C   UNL     1       4.615   1.382  -8.789  1.00  0.00     0.035 A 
BRANCH  88  91
ATOM     91  S   UNL     1       3.798   4.002  -8.299  1.00  0.00     0.263 S 
ATOM     92  O   UNL     1       5.022   4.494  -8.889  1.00  0.00    -0.201 OA
ATOM     93  O   UNL     1       2.605   3.815  -9.097  1.00  0.00    -0.201 OA
BRANCH  91  94
ATOM     94  N   UNL     1       3.325   4.984  -7.031  1.00  0.00    -0.280 N 
ATOM     95  H   UNL     1       2.356   5.106  -6.908  1.00  0.00     0.180 HD
BRANCH  94  96
ATOM     96  C   UNL     1       4.180   5.667  -6.106  1.00  0.00     0.049 A 
ATOM     97  C   UNL     1       3.541   6.442  -5.124  1.00  0.00     0.027 A 
ATOM     98  C   UNL     1       5.530   5.379  -5.939  1.00  0.00     0.027 A 
ATOM     99  C   UNL     1       4.184   6.762  -3.914  1.00  0.00     0.008 A 
ATOM    100  C   UNL     1       6.165   5.674  -4.723  1.00  0.00     0.008 A 
ATOM    101  C   UNL     1       5.471   6.276  -3.657  1.00  0.00    -0.026 A 
BRANCH 101 102
ATOM    102  C   UNL     1       6.051   6.076  -2.267  1.00  0.00     0.181 C 
BRANCH 102 103
ATOM    103  N   UNL     1       5.543   6.920  -1.198  1.00  0.00    -0.249 N 
ATOM    104  C   UNL     1       4.432   6.707  -0.435  1.00  0.00     0.220 A 
ATOM    105  N   UNL     1       6.340   7.848  -0.626  1.00  0.00    -0.160 NA
ATOM    106  N   UNL     1       4.451   7.507   0.606  1.00  0.00    -0.224 NA
ATOM    107  C   UNL     1       5.641   8.159   0.469  1.00  0.00     0.246 A 
ENDBRANCH 102 103
ENDBRANCH 101 102
ENDBRANCH  94  96
ENDBRANCH  91  94
ENDBRANCH  88  91
ENDBRANCH  84  86
ENDBRANCH  83  84
ENDBRANCH  82  83
ENDBRANCH  81  82
ENDBRANCH  80  81
ENDBRANCH  79  80
ENDBRANCH   1  79
TORSDOF 28
