REMARK SMILES O=C1O[C@@H](c2ccc(O)c(O)c2)[C@H](C(=O)OCCOCCOCCOCCOC(=O)c2ccc(-c3c4nc(c(-c5c(F)cc(S(=O)(=O)[O-])cc5F)c5ccc([nH]5)c(-c5c(F)cc(S(=O)(=O)[O-])cc5F)c5nc(c(-c6c(F)cc(S(=O)(=O)[O-])cc6F)c6ccc3[nH]6)C=C5)C=C4)cc2)/C1=C\c1ccc(O)c(O)c1
REMARK SMILES IDX 23 1 22 2 21 3 20 4 19 5 18 6 17 7 16 8 14 9 15 10 13 11
REMARK SMILES IDX 1 12 2 13 3 14 97 15 4 16 98 17 5 18 6 19 12 20 7 21 10 22
REMARK SMILES IDX 8 23 11 24 9 26 99 28 100 29 106 30 101 31 104 32 102 33
REMARK SMILES IDX 105 34 103 36 24 38 25 39 26 40 27 41 28 42 29 43 30 44
REMARK SMILES IDX 31 45 32 46 96 47 33 48 95 49 34 50 35 51 36 52 89 53 37 54
REMARK SMILES IDX 94 55 88 56 90 57 38 58 93 59 87 60 86 61 39 63 73 64 52 65
REMARK SMILES IDX 72 66 53 67 56 68 71 69 91 70 54 71 55 72 70 74 92 75 57 76
REMARK SMILES IDX 40 77 41 78 50 79 42 80 43 81 49 82 51 83 44 84 45 85 46 86
REMARK SMILES IDX 47 87 48 88 74 89 75 90 84 91 76 92 77 93 83 94 85 95 78 96
REMARK SMILES IDX 79 97 80 98 81 99 82 100 58 101 59 102 68 103 60 104 61 105
REMARK SMILES IDX 67 106 69 107 62 108 63 109 64 110 65 111 66 112
REMARK H PARENT 11 25 9 27 105 35 103 37 90 62 56 73
REMARK Flexibility Score: inf
ROOT
ATOM      1  C   UNL     1       4.437   4.012   2.588  1.00  0.00     0.188 C 
ENDROOT
BRANCH   1   2
ATOM      2  O   UNL     1       3.788   3.232   1.583  1.00  0.00    -0.377 OA
BRANCH   2   3
ATOM      3  C   UNL     1       2.462   3.575   1.236  1.00  0.00     0.188 C 
BRANCH   3   4
ATOM      4  C   UNL     1       1.402   3.395   2.341  1.00  0.00     0.188 C 
BRANCH   4   5
ATOM      5  O   UNL     1       1.964   3.326   3.640  1.00  0.00    -0.376 OA
BRANCH   5   6
ATOM      6  C   UNL     1       1.994   2.096   4.335  1.00  0.00     0.202 C 
BRANCH   6   7
ATOM      7  C   UNL     1       2.631   0.859   3.684  1.00  0.00     0.261 C 
BRANCH   7   8
ATOM      8  O   UNL     1       2.396   0.702   2.278  1.00  0.00    -0.463 OA
BRANCH   8   9
ATOM      9  C   UNL     1       1.169   0.264   1.892  1.00  0.00     0.317 C 
ATOM     10  O   UNL     1       0.291  -0.114   2.652  1.00  0.00    -0.251 OA
BRANCH   9  11
ATOM     11  C   UNL     1       1.057   0.394   0.379  1.00  0.00     0.182 C 
ATOM     12  O   UNL     1      -1.978  -1.228  -0.410  1.00  0.00    -0.247 OA
ATOM     13  C   UNL     1      -0.818  -0.871  -0.269  1.00  0.00     0.335 C 
ATOM     14  O   UNL     1       0.272  -1.686  -0.313  1.00  0.00    -0.453 OA
ATOM     15  C   UNL     1      -0.354   0.518  -0.062  1.00  0.00     0.056 C 
ATOM     16  C   UNL     1       1.489  -0.918  -0.235  1.00  0.00     0.226 C 
ATOM     17  C   UNL     1      -1.161   1.557  -0.350  1.00  0.00     0.020 C 
BRANCH  16  18
ATOM     18  C   UNL     1       2.165  -0.768  -1.597  1.00  0.00    -0.002 A 
ATOM     19  C   UNL     1       3.286   0.078  -1.758  1.00  0.00     0.012 A 
ATOM     20  C   UNL     1       1.731  -1.513  -2.703  1.00  0.00     0.057 A 
ATOM     21  C   UNL     1       3.934   0.198  -2.994  1.00  0.00     0.050 A 
ATOM     22  C   UNL     1       2.384  -1.393  -3.923  1.00  0.00     0.157 A 
ATOM     23  C   UNL     1       3.477  -0.545  -4.072  1.00  0.00     0.157 A 
BRANCH  22  24
ATOM     24  O   UNL     1       1.950  -2.138  -4.982  1.00  0.00    -0.504 OA
ATOM     25  H   UNL     1       2.380  -2.067  -5.812  1.00  0.00     0.293 HD
ENDBRANCH  22  24
BRANCH  23  26
ATOM     26  O   UNL     1       4.076  -0.491  -5.300  1.00  0.00    -0.504 OA
ATOM     27  H   UNL     1       4.815   0.070  -5.436  1.00  0.00     0.293 HD
ENDBRANCH  23  26
ENDBRANCH  16  18
BRANCH  17  28
ATOM     28  C   UNL     1      -0.867   3.000  -0.335  1.00  0.00    -0.021 A 
ATOM     29  C   UNL     1      -0.011   3.583  -1.285  1.00  0.00     0.012 A 
ATOM     30  C   UNL     1      -1.537   3.836   0.571  1.00  0.00     0.058 A 
ATOM     31  C   UNL     1       0.196   4.972  -1.317  1.00  0.00     0.051 A 
ATOM     32  C   UNL     1      -1.317   5.212   0.541  1.00  0.00     0.157 A 
ATOM     33  C   UNL     1      -0.458   5.780  -0.395  1.00  0.00     0.157 A 
BRANCH  32  34
ATOM     34  O   UNL     1      -1.945   6.009   1.457  1.00  0.00    -0.504 OA
ATOM     35  H   UNL     1      -1.805   6.935   1.446  1.00  0.00     0.293 HD
ENDBRANCH  32  34
BRANCH  33  36
ATOM     36  O   UNL     1      -0.288   7.137  -0.366  1.00  0.00    -0.504 OA
ATOM     37  H   UNL     1       0.283   7.551  -0.983  1.00  0.00     0.293 HD
ENDBRANCH  33  36
ENDBRANCH  17  28
ENDBRANCH   9  11
ENDBRANCH   8   9
ENDBRANCH   7   8
ENDBRANCH   6   7
ENDBRANCH   5   6
ENDBRANCH   4   5
ENDBRANCH   3   4
ENDBRANCH   2   3
ENDBRANCH   1   2
BRANCH   1  38
ATOM     38  C   UNL     1       3.801   5.290   3.210  1.00  0.00     0.188 C 
BRANCH  38  39
ATOM     39  O   UNL     1       2.707   5.858   2.507  1.00  0.00    -0.376 OA
BRANCH  39  40
ATOM     40  C   UNL     1       2.901   7.066   1.796  1.00  0.00     0.202 C 
BRANCH  40  41
ATOM     41  C   UNL     1       3.837   7.001   0.582  1.00  0.00     0.261 C 
BRANCH  41  42
ATOM     42  O   UNL     1       5.153   6.505   0.852  1.00  0.00    -0.460 OA
BRANCH  42  43
ATOM     43  C   UNL     1       5.907   7.237   1.704  1.00  0.00     0.338 C 
ATOM     44  O   UNL     1       5.607   8.292   2.231  1.00  0.00    -0.246 OA
BRANCH  43  45
ATOM     45  C   UNL     1       7.082   6.417   2.054  1.00  0.00     0.060 A 
ATOM     46  C   UNL     1       7.277   6.039   3.390  1.00  0.00     0.016 A 
ATOM     47  C   UNL     1       7.954   5.986   1.053  1.00  0.00     0.016 A 
ATOM     48  C   UNL     1       8.357   5.231   3.733  1.00  0.00     0.010 A 
ATOM     49  C   UNL     1       9.057   5.211   1.403  1.00  0.00     0.010 A 
ATOM     50  C   UNL     1       9.276   4.856   2.747  1.00  0.00    -0.014 A 
BRANCH  50  51
ATOM     51  C   UNL     1      10.591   4.306   3.140  1.00  0.00     0.031 A 
ATOM     52  C   UNL     1      11.737   5.271   3.255  1.00  0.00     0.074 A 
ATOM     53  C   UNL     1      10.764   2.995   3.375  1.00  0.00     0.049 A 
ATOM     54  N   UNL     1      13.004   5.033   3.454  1.00  0.00    -0.248 NA
ATOM     55  C   UNL     1      11.404   6.700   3.114  1.00  0.00     0.031 C 
ATOM     56  C   UNL     1       9.710   1.983   3.349  1.00  0.00     0.029 A 
ATOM     57  N   UNL     1      11.905   2.289   3.662  1.00  0.00    -0.354 N 
ATOM     58  C   UNL     1      13.623   6.277   3.447  1.00  0.00     0.074 A 
ATOM     59  C   UNL     1      12.598   7.265   3.200  1.00  0.00     0.031 C 
ATOM     60  C   UNL     1      10.260   0.778   3.584  1.00  0.00     0.029 A 
ATOM     61  C   UNL     1      11.707   0.931   3.733  1.00  0.00     0.049 A 
ATOM     62  H   UNL     1      12.781   2.715   3.804  1.00  0.00     0.167 HD
ATOM     63  C   UNL     1      14.931   6.566   3.632  1.00  0.00     0.037 A 
ATOM     64  C   UNL     1      12.601  -0.069   3.864  1.00  0.00     0.037 A 
ATOM     65  C   UNL     1      15.939   5.569   3.872  1.00  0.00     0.049 A 
ATOM     66  C   UNL     1      14.067   0.269   3.984  1.00  0.00     0.074 A 
ATOM     67  C   UNL     1      17.293   5.752   4.085  1.00  0.00     0.029 A 
ATOM     68  N   UNL     1      15.704   4.202   3.918  1.00  0.00    -0.354 N 
ATOM     69  N   UNL     1      14.644   1.448   3.990  1.00  0.00    -0.248 NA
ATOM     70  C   UNL     1      15.004  -0.856   4.113  1.00  0.00     0.031 C 
ATOM     71  C   UNL     1      17.887   4.492   4.197  1.00  0.00     0.029 A 
ATOM     72  C   UNL     1      16.893   3.527   4.127  1.00  0.00     0.049 A 
ATOM     73  H   UNL     1      14.822   3.776   3.818  1.00  0.00     0.167 HD
ATOM     74  C   UNL     1      16.004   1.208   4.160  1.00  0.00     0.074 A 
ATOM     75  C   UNL     1      16.164  -0.228   4.255  1.00  0.00     0.031 C 
ATOM     76  C   UNL     1      17.028   2.095   4.238  1.00  0.00     0.037 A 
BRANCH  63  77
ATOM     77  C   UNL     1      15.348   8.007   3.542  1.00  0.00     0.058 A 
ATOM     78  C   UNL     1      14.987   8.949   4.519  1.00  0.00     0.135 A 
ATOM     79  C   UNL     1      16.145   8.446   2.472  1.00  0.00     0.135 A 
ATOM     80  F   UNL     1      14.206   8.590   5.550  1.00  0.00    -0.206 F 
ATOM     81  C   UNL     1      15.383  10.279   4.426  1.00  0.00     0.059 A 
ATOM     82  C   UNL     1      16.578   9.764   2.375  1.00  0.00     0.059 A 
ATOM     83  F   UNL     1      16.509   7.590   1.504  1.00  0.00    -0.206 F 
ATOM     84  C   UNL     1      16.181  10.676   3.351  1.00  0.00     0.060 A 
BRANCH  84  85
ATOM     85  S   UNL     1      16.694  12.403   3.252  1.00  0.00     0.124 S 
ATOM     86  O   UNL     1      15.433  13.063   2.926  1.00  0.00    -0.237 OA
ATOM     87  O   UNL     1      17.209  12.651   4.595  1.00  0.00    -0.237 OA
ATOM     88  O   UNL     1      17.693  12.402   2.189  1.00  0.00    -0.744 OA
ENDBRANCH  84  85
ENDBRANCH  63  77
BRANCH  64  89
ATOM     89  C   UNL     1      12.141  -1.485   3.864  1.00  0.00     0.058 A 
ATOM     90  C   UNL     1      12.242  -2.281   5.014  1.00  0.00     0.135 A 
ATOM     91  C   UNL     1      11.593  -2.071   2.711  1.00  0.00     0.135 A 
ATOM     92  F   UNL     1      12.771  -1.772   6.137  1.00  0.00    -0.206 F 
ATOM     93  C   UNL     1      11.829  -3.610   5.020  1.00  0.00     0.059 A 
ATOM     94  C   UNL     1      11.145  -3.389   2.701  1.00  0.00     0.059 A 
ATOM     95  F   UNL     1      11.466  -1.352   1.585  1.00  0.00    -0.206 F 
ATOM     96  C   UNL     1      11.276  -4.153   3.859  1.00  0.00     0.060 A 
BRANCH  96  97
ATOM     97  S   UNL     1      10.695  -5.862   3.896  1.00  0.00     0.124 S 
ATOM     98  O   UNL     1      11.952  -6.598   3.970  1.00  0.00    -0.237 OA
ATOM     99  O   UNL     1       9.873  -5.877   5.101  1.00  0.00    -0.237 OA
ATOM    100  O   UNL     1       9.959  -5.993   2.642  1.00  0.00    -0.744 OA
ENDBRANCH  96  97
ENDBRANCH  64  89
BRANCH  76 101
ATOM    101  C   UNL     1      18.411   1.557   4.491  1.00  0.00     0.058 A 
ATOM    102  C   UNL     1      19.139   0.884   3.499  1.00  0.00     0.135 A 
ATOM    103  C   UNL     1      19.052   1.815   5.715  1.00  0.00     0.135 A 
ATOM    104  F   UNL     1      18.571   0.607   2.314  1.00  0.00    -0.206 F 
ATOM    105  C   UNL     1      20.453   0.479   3.713  1.00  0.00     0.059 A 
ATOM    106  C   UNL     1      20.374   1.447   5.939  1.00  0.00     0.059 A 
ATOM    107  F   UNL     1      18.403   2.465   6.694  1.00  0.00    -0.206 F 
ATOM    108  C   UNL     1      21.065   0.775   4.933  1.00  0.00     0.060 A 
BRANCH 108 109
ATOM    109  S   UNL     1      22.793   0.308   5.168  1.00  0.00     0.124 S 
ATOM    110  O   UNL     1      22.694  -1.144   5.271  1.00  0.00    -0.237 OA
ATOM    111  O   UNL     1      23.420   0.817   3.952  1.00  0.00    -0.237 OA
ATOM    112  O   UNL     1      23.169   0.999   6.397  1.00  0.00    -0.744 OA
ENDBRANCH 108 109
ENDBRANCH  76 101
ENDBRANCH  50  51
ENDBRANCH  43  45
ENDBRANCH  42  43
ENDBRANCH  41  42
ENDBRANCH  40  41
ENDBRANCH  39  40
ENDBRANCH  38  39
ENDBRANCH   1  38
TORSDOF 29
