REMARK SMILES CC1=C(C)C[C@@H](C(=O)OCCOCCOCCOCCOC(=O)c2ccc(-c3c4nc(c(-c5c(F)cc(S(=O)(=O)[O-])cc5F)c5ccc([nH]5)c(-c5c(F)cc(S(=O)(=O)[O-])cc5F)c5nc(c(-c6c(F)cc(S(=O)(=O)[O-])cc6F)c6ccc3[nH]6)C=C5)C=C4)cc2)[C@@H](C(=O)N2CCN(c3cccc(C(F)(F)F)c3)CC2)C1
REMARK SMILES IDX 15 1 14 2 13 3 12 4 11 5 10 6 9 7 7 8 8 9 6 10 1 11 2 12
REMARK SMILES IDX 3 13 109 14 4 15 5 16 90 17 91 18 92 19 93 20 94 21 108 22
REMARK SMILES IDX 95 23 107 24 96 25 97 26 98 27 106 28 99 29 101 30 100 31
REMARK SMILES IDX 102 32 103 33 104 34 105 35 16 36 17 37 18 38 19 39 20 40
REMARK SMILES IDX 21 41 22 42 23 43 24 44 25 45 89 46 26 47 88 48 27 49 28 50
REMARK SMILES IDX 29 51 82 52 30 53 87 54 81 55 83 56 31 57 86 58 80 59 79 60
REMARK SMILES IDX 32 62 66 63 45 64 65 65 46 66 49 67 64 68 84 69 47 70 48 71
REMARK SMILES IDX 63 73 85 74 50 75 33 76 34 77 43 78 35 79 36 80 42 81 44 82
REMARK SMILES IDX 37 83 38 84 39 85 40 86 41 87 67 88 68 89 77 90 69 91 70 92
REMARK SMILES IDX 76 93 78 94 71 95 72 96 73 97 74 98 75 99 51 100 52 101
REMARK SMILES IDX 61 102 53 103 54 104 60 105 62 106 55 107 56 108 57 109
REMARK SMILES IDX 58 110 59 111
REMARK H PARENT 83 61 49 72
REMARK Flexibility Score: inf
ROOT
ATOM      1  O   UNL     1       2.452  -0.157   7.637  1.00  0.00    -0.377 OA
ENDROOT
BRANCH   1   2
ATOM      2  C   UNL     1       1.224  -0.596   7.069  1.00  0.00     0.188 C 
BRANCH   2   3
ATOM      3  C   UNL     1       1.127  -2.069   6.670  1.00  0.00     0.188 C 
BRANCH   3   4
ATOM      4  O   UNL     1       2.293  -2.863   6.839  1.00  0.00    -0.376 OA
BRANCH   4   5
ATOM      5  C   UNL     1       3.330  -2.620   5.893  1.00  0.00     0.202 C 
BRANCH   5   6
ATOM      6  C   UNL     1       3.155  -3.379   4.566  1.00  0.00     0.261 C 
BRANCH   6   7
ATOM      7  O   UNL     1       2.199  -2.775   3.656  1.00  0.00    -0.463 OA
BRANCH   7   8
ATOM      8  C   UNL     1       0.971  -3.340   3.584  1.00  0.00     0.310 C 
ATOM      9  O   UNL     1       0.608  -4.290   4.271  1.00  0.00    -0.252 OA
BRANCH   8  10
ATOM     10  C   UNL     1       0.101  -2.789   2.463  1.00  0.00     0.116 C 
ATOM     11  C   UNL     1       1.243  -0.080  -0.868  1.00  0.00     0.039 C 
ATOM     12  C   UNL     1       0.758  -1.098   0.128  1.00  0.00    -0.074 C 
ATOM     13  C   UNL     1       1.179  -2.377   0.150  1.00  0.00    -0.073 C 
ATOM     14  C   UNL     1      -0.346  -0.656   1.046  1.00  0.00     0.045 C 
ATOM     15  C   UNL     1       2.143  -2.970  -0.844  1.00  0.00     0.039 C 
ATOM     16  C   UNL     1       0.607  -3.366   1.131  1.00  0.00     0.046 C 
ATOM     17  C   UNL     1      -0.350  -1.312   2.435  1.00  0.00     0.097 C 
BRANCH  17  18
ATOM     18  C   UNL     1       0.102  -0.352   3.540  1.00  0.00     0.227 C 
ATOM     19  O   UNL     1      -0.543  -0.282   4.587  1.00  0.00    -0.275 OA
ATOM     20  N   UNL     1       1.118   0.532   3.238  1.00  0.00    -0.339 N 
ATOM     21  C   UNL     1       2.444   0.372   3.830  1.00  0.00     0.141 C 
ATOM     22  C   UNL     1       0.782   1.952   3.100  1.00  0.00     0.141 C 
ATOM     23  C   UNL     1       3.534   1.017   2.972  1.00  0.00     0.138 C 
ATOM     24  C   UNL     1       1.823   2.676   2.227  1.00  0.00     0.138 C 
ATOM     25  N   UNL     1       3.190   2.423   2.720  1.00  0.00    -0.368 N 
BRANCH  25  26
ATOM     26  C   UNL     1       4.179   3.294   2.288  1.00  0.00     0.037 A 
ATOM     27  C   UNL     1       5.290   2.875   1.554  1.00  0.00     0.026 A 
ATOM     28  C   UNL     1       4.083   4.656   2.601  1.00  0.00     0.039 A 
ATOM     29  C   UNL     1       6.255   3.788   1.132  1.00  0.00     0.003 A 
ATOM     30  C   UNL     1       5.061   5.585   2.215  1.00  0.00     0.058 A 
ATOM     31  C   UNL     1       6.153   5.135   1.472  1.00  0.00     0.013 A 
BRANCH  30  32
ATOM     32  C   UNL     1       4.946   7.032   2.614  1.00  0.00     0.416 C 
ATOM     33  F   UNL     1       5.876   7.412   3.525  1.00  0.00    -0.166 F 
ATOM     34  F   UNL     1       5.063   7.882   1.558  1.00  0.00    -0.166 F 
ATOM     35  F   UNL     1       3.737   7.326   3.184  1.00  0.00    -0.166 F 
ENDBRANCH  30  32
ENDBRANCH  25  26
ENDBRANCH  17  18
ENDBRANCH   8  10
ENDBRANCH   7   8
ENDBRANCH   6   7
ENDBRANCH   5   6
ENDBRANCH   4   5
ENDBRANCH   3   4
ENDBRANCH   2   3
ENDBRANCH   1   2
BRANCH   1  36
ATOM     36  C   UNL     1       2.603  -0.461   9.022  1.00  0.00     0.188 C 
BRANCH  36  37
ATOM     37  C   UNL     1       1.772   0.448   9.940  1.00  0.00     0.188 C 
BRANCH  37  38
ATOM     38  O   UNL     1       0.379   0.221   9.736  1.00  0.00    -0.376 OA
BRANCH  38  39
ATOM     39  C   UNL     1      -0.425   1.396   9.649  1.00  0.00     0.202 C 
BRANCH  39  40
ATOM     40  C   UNL     1      -0.302   2.264   8.376  1.00  0.00     0.261 C 
BRANCH  40  41
ATOM     41  O   UNL     1       1.028   2.490   7.874  1.00  0.00    -0.460 OA
BRANCH  41  42
ATOM     42  C   UNL     1       1.658   3.591   8.334  1.00  0.00     0.338 C 
ATOM     43  O   UNL     1       1.262   4.341   9.208  1.00  0.00    -0.246 OA
BRANCH  42  44
ATOM     44  C   UNL     1       2.903   3.823   7.570  1.00  0.00     0.060 A 
ATOM     45  C   UNL     1       4.100   3.184   7.916  1.00  0.00     0.016 A 
ATOM     46  C   UNL     1       2.903   4.838   6.615  1.00  0.00     0.016 A 
ATOM     47  C   UNL     1       5.316   3.615   7.354  1.00  0.00     0.010 A 
ATOM     48  C   UNL     1       4.112   5.251   6.049  1.00  0.00     0.010 A 
ATOM     49  C   UNL     1       5.338   4.681   6.444  1.00  0.00    -0.014 A 
BRANCH  49  50
ATOM     50  C   UNL     1       6.603   5.362   6.029  1.00  0.00     0.031 A 
ATOM     51  C   UNL     1       6.856   6.768   6.526  1.00  0.00     0.074 A 
ATOM     52  C   UNL     1       7.483   4.805   5.174  1.00  0.00     0.049 A 
ATOM     53  N   UNL     1       7.767   7.635   6.163  1.00  0.00    -0.248 NA
ATOM     54  C   UNL     1       5.943   7.262   7.571  1.00  0.00     0.031 C 
ATOM     55  C   UNL     1       7.410   3.451   4.631  1.00  0.00     0.029 A 
ATOM     56  N   UNL     1       8.595   5.347   4.567  1.00  0.00    -0.354 N 
ATOM     57  C   UNL     1       7.525   8.779   6.917  1.00  0.00     0.074 A 
ATOM     58  C   UNL     1       6.353   8.511   7.723  1.00  0.00     0.031 C 
ATOM     59  C   UNL     1       8.398   3.286   3.731  1.00  0.00     0.029 A 
ATOM     60  C   UNL     1       9.148   4.535   3.604  1.00  0.00     0.049 A 
ATOM     61  H   UNL     1       8.960   6.232   4.800  1.00  0.00     0.167 HD
ATOM     62  C   UNL     1       8.225   9.939   6.960  1.00  0.00     0.037 A 
ATOM     63  C   UNL     1      10.100   4.787   2.682  1.00  0.00     0.037 A 
ATOM     64  C   UNL     1       9.392  10.209   6.164  1.00  0.00     0.049 A 
ATOM     65  C   UNL     1      10.767   6.131   2.631  1.00  0.00     0.074 A 
ATOM     66  C   UNL     1      10.235  11.306   6.210  1.00  0.00     0.029 A 
ATOM     67  N   UNL     1       9.869   9.381   5.159  1.00  0.00    -0.354 N 
ATOM     68  N   UNL     1      10.546   7.191   3.368  1.00  0.00    -0.248 NA
ATOM     69  C   UNL     1      11.829   6.303   1.627  1.00  0.00     0.031 C 
ATOM     70  C   UNL     1      11.196  11.163   5.203  1.00  0.00     0.029 A 
ATOM     71  C   UNL     1      10.979   9.954   4.561  1.00  0.00     0.049 A 
ATOM     72  H   UNL     1       9.476   8.514   4.908  1.00  0.00     0.167 HD
ATOM     73  C   UNL     1      11.482   8.135   2.961  1.00  0.00     0.074 A 
ATOM     74  C   UNL     1      12.236   7.541   1.876  1.00  0.00     0.031 C 
ATOM     75  C   UNL     1      11.723   9.364   3.478  1.00  0.00     0.037 A 
BRANCH  62  76
ATOM     76  C   UNL     1       7.739  11.001   7.907  1.00  0.00     0.058 A 
ATOM     77  C   UNL     1       7.829  10.840   9.300  1.00  0.00     0.135 A 
ATOM     78  C   UNL     1       7.172  12.191   7.423  1.00  0.00     0.135 A 
ATOM     79  F   UNL     1       8.356   9.720   9.819  1.00  0.00    -0.206 F 
ATOM     80  C   UNL     1       7.324  11.794  10.178  1.00  0.00     0.059 A 
ATOM     81  C   UNL     1       6.688  13.172   8.283  1.00  0.00     0.059 A 
ATOM     82  F   UNL     1       7.070  12.403   6.101  1.00  0.00    -0.206 F 
ATOM     83  C   UNL     1       6.745  12.952   9.659  1.00  0.00     0.060 A 
BRANCH  83  84
ATOM     84  S   UNL     1       6.062  14.167  10.806  1.00  0.00     0.124 S 
ATOM     85  O   UNL     1       4.800  13.535  11.180  1.00  0.00    -0.237 OA
ATOM     86  O   UNL     1       7.077  14.218  11.854  1.00  0.00    -0.237 OA
ATOM     87  O   UNL     1       5.944  15.373   9.993  1.00  0.00    -0.744 OA
ENDBRANCH  83  84
ENDBRANCH  62  76
BRANCH  63  88
ATOM     88  C   UNL     1      10.453   3.758   1.671  1.00  0.00     0.058 A 
ATOM     89  C   UNL     1      11.380   2.746   1.944  1.00  0.00     0.135 A 
ATOM     90  C   UNL     1       9.863   3.783   0.399  1.00  0.00     0.135 A 
ATOM     91  F   UNL     1      12.008   2.714   3.129  1.00  0.00    -0.206 F 
ATOM     92  C   UNL     1      11.673   1.760   1.007  1.00  0.00     0.059 A 
ATOM     93  C   UNL     1      10.121   2.797  -0.546  1.00  0.00     0.059 A 
ATOM     94  F   UNL     1       9.026   4.777   0.068  1.00  0.00    -0.206 F 
ATOM     95  C   UNL     1      11.025   1.784  -0.230  1.00  0.00     0.060 A 
BRANCH  95  96
ATOM     96  S   UNL     1      11.293   0.436  -1.403  1.00  0.00     0.124 S 
ATOM     97  O   UNL     1      12.432   0.932  -2.165  1.00  0.00    -0.237 OA
ATOM     98  O   UNL     1      11.556  -0.702  -0.527  1.00  0.00    -0.237 OA
ATOM     99  O   UNL     1      10.022   0.379  -2.120  1.00  0.00    -0.744 OA
ENDBRANCH  95  96
ENDBRANCH  63  88
BRANCH  75 100
ATOM    100  C   UNL     1      12.908  10.118   2.943  1.00  0.00     0.058 A 
ATOM    101  C   UNL     1      12.887  10.768   1.702  1.00  0.00     0.135 A 
ATOM    102  C   UNL     1      14.076  10.214   3.718  1.00  0.00     0.135 A 
ATOM    103  F   UNL     1      11.802  10.691   0.915  1.00  0.00    -0.206 F 
ATOM    104  C   UNL     1      13.991  11.480   1.240  1.00  0.00     0.059 A 
ATOM    105  C   UNL     1      15.181  10.938   3.286  1.00  0.00     0.059 A 
ATOM    106  F   UNL     1      14.146   9.608   4.914  1.00  0.00    -0.206 F 
ATOM    107  C   UNL     1      15.133  11.561   2.041  1.00  0.00     0.060 A 
BRANCH 107 108
ATOM    108  S   UNL     1      16.546  12.518   1.452  1.00  0.00     0.124 S 
ATOM    109  O   UNL     1      17.117  11.618   0.456  1.00  0.00    -0.237 OA
ATOM    110  O   UNL     1      15.913  13.724   0.928  1.00  0.00    -0.237 OA
ATOM    111  O   UNL     1      17.348  12.713   2.656  1.00  0.00    -0.744 OA
ENDBRANCH 107 108
ENDBRANCH  75 100
ENDBRANCH  49  50
ENDBRANCH  42  44
ENDBRANCH  41  42
ENDBRANCH  40  41
ENDBRANCH  39  40
ENDBRANCH  38  39
ENDBRANCH  37  38
ENDBRANCH  36  37
ENDBRANCH   1  36
TORSDOF 26
