REMARK SMILES C[C@H]1OCC[C@@H]1C(=O)Nc1ccc(Cl)c(C(=O)OCCOCCOCCOCCOC(=O)c2ccc(-c3c4nc(c(-c5c(F)cc(S(=O)(=O)[O-])cc5F)c5ccc([nH]5)c(-c5c(F)cc(S(=O)(=O)[O-])cc5F)c5nc(c(-c6c(F)cc(S(=O)(=O)[O-])cc6F)c6ccc3[nH]6)C=C5)C=C4)cc2)c1
REMARK SMILES IDX 25 1 24 2 23 3 22 4 21 5 20 6 19 7 18 8 16 9 17 10 15 11
REMARK SMILES IDX 10 12 11 13 99 14 12 15 13 16 14 17 9 18 7 19 8 20 6 22 1 23
REMARK SMILES IDX 2 24 3 25 4 26 5 27 26 28 27 29 28 30 29 31 30 32 31 33
REMARK SMILES IDX 32 34 33 35 34 36 98 37 35 38 97 39 36 40 37 41 38 42 91 43
REMARK SMILES IDX 39 44 96 45 90 46 92 47 40 48 95 49 89 50 88 51 41 53 75 54
REMARK SMILES IDX 54 55 74 56 55 57 58 58 73 59 93 60 56 61 57 62 72 64 94 65
REMARK SMILES IDX 59 66 42 67 43 68 52 69 44 70 45 71 51 72 53 73 46 74 47 75
REMARK SMILES IDX 48 76 49 77 50 78 76 79 77 80 86 81 78 82 79 83 85 84 87 85
REMARK SMILES IDX 80 86 81 87 82 88 83 89 84 90 60 91 61 92 70 93 62 94 63 95
REMARK SMILES IDX 69 96 71 97 64 98 65 99 66 100 67 101 68 102
REMARK H PARENT 9 21 92 52 58 63
REMARK Flexibility Score: inf
ROOT
ATOM      1  C   UNL     1      -2.626   2.273   8.527  1.00  0.00     0.188 C 
ENDROOT
BRANCH   1   2
ATOM      2  O   UNL     1      -2.101   2.058   7.221  1.00  0.00    -0.377 OA
BRANCH   2   3
ATOM      3  C   UNL     1      -1.788   0.731   6.855  1.00  0.00     0.188 C 
BRANCH   3   4
ATOM      4  C   UNL     1      -0.327   0.326   7.140  1.00  0.00     0.188 C 
BRANCH   4   5
ATOM      5  O   UNL     1       0.453   1.006   8.109  1.00  0.00    -0.376 OA
BRANCH   5   6
ATOM      6  C   UNL     1       0.689   2.407   8.062  1.00  0.00     0.202 C 
BRANCH   6   7
ATOM      7  C   UNL     1       0.773   3.248   6.777  1.00  0.00     0.261 C 
BRANCH   7   8
ATOM      8  O   UNL     1      -0.005   2.783   5.680  1.00  0.00    -0.460 OA
BRANCH   8   9
ATOM      9  C   UNL     1       0.660   2.236   4.643  1.00  0.00     0.339 C 
ATOM     10  O   UNL     1       1.866   2.094   4.531  1.00  0.00    -0.246 OA
BRANCH   9  11
ATOM     11  C   UNL     1      -0.328   1.534   3.801  1.00  0.00     0.080 A 
ATOM     12  C   UNL     1      -0.947  -0.578   2.797  1.00  0.00     0.042 A 
ATOM     13  C   UNL     1      -2.185  -0.046   2.446  1.00  0.00     0.028 A 
ATOM     14  C   UNL     1      -0.046   0.184   3.533  1.00  0.00     0.043 A 
ATOM     15  C   UNL     1      -2.472   1.293   2.720  1.00  0.00     0.023 A 
ATOM     16  C   UNL     1      -1.532   2.100   3.369  1.00  0.00     0.055 A 
ATOM     17  Cl  UNL     1      -1.928   3.764   3.585  1.00  0.00    -0.083 Cl
BRANCH  12  18
ATOM     18  N   UNL     1      -0.599  -1.878   2.433  1.00  0.00    -0.326 N 
ATOM     19  C   UNL     1      -0.205  -2.323   1.200  1.00  0.00     0.230 C 
ATOM     20  O   UNL     1       0.060  -3.526   1.088  1.00  0.00    -0.274 OA
ATOM     21  H   UNL     1      -0.641  -2.555   3.146  1.00  0.00     0.169 HD
BRANCH  19  22
ATOM     22  C   UNL     1      -0.018  -1.402  -0.010  1.00  0.00     0.110 C 
ATOM     23  C   UNL     1       2.053  -0.070  -0.659  1.00  0.00     0.039 C 
ATOM     24  C   UNL     1       0.863  -0.192   0.282  1.00  0.00     0.127 C 
ATOM     25  O   UNL     1       0.039   0.972   0.143  1.00  0.00    -0.378 OA
ATOM     26  C   UNL     1      -1.084   0.649  -0.676  1.00  0.00     0.161 C 
ATOM     27  C   UNL     1      -1.292  -0.850  -0.611  1.00  0.00     0.044 C 
ENDBRANCH  19  22
ENDBRANCH  12  18
ENDBRANCH   9  11
ENDBRANCH   8   9
ENDBRANCH   7   8
ENDBRANCH   6   7
ENDBRANCH   5   6
ENDBRANCH   4   5
ENDBRANCH   3   4
ENDBRANCH   2   3
ENDBRANCH   1   2
BRANCH   1  28
ATOM     28  C   UNL     1      -2.208   1.344   9.691  1.00  0.00     0.188 C 
BRANCH  28  29
ATOM     29  O   UNL     1      -2.157  -0.037   9.358  1.00  0.00    -0.376 OA
BRANCH  29  30
ATOM     30  C   UNL     1      -3.190  -0.885   9.831  1.00  0.00     0.202 C 
BRANCH  30  31
ATOM     31  C   UNL     1      -4.581  -0.678   9.214  1.00  0.00     0.261 C 
BRANCH  31  32
ATOM     32  O   UNL     1      -5.121   0.644   9.342  1.00  0.00    -0.460 OA
BRANCH  32  33
ATOM     33  C   UNL     1      -5.372   1.072  10.602  1.00  0.00     0.338 C 
ATOM     34  O   UNL     1      -5.220   0.446  11.628  1.00  0.00    -0.246 OA
BRANCH  33  35
ATOM     35  C   UNL     1      -5.681   2.517  10.533  1.00  0.00     0.060 A 
ATOM     36  C   UNL     1      -4.883   3.407  11.262  1.00  0.00     0.016 A 
ATOM     37  C   UNL     1      -6.749   2.986   9.765  1.00  0.00     0.016 A 
ATOM     38  C   UNL     1      -5.182   4.769  11.261  1.00  0.00     0.010 A 
ATOM     39  C   UNL     1      -7.057   4.349   9.779  1.00  0.00     0.010 A 
ATOM     40  C   UNL     1      -6.298   5.240  10.558  1.00  0.00    -0.014 A 
BRANCH  40  41
ATOM     41  C   UNL     1      -6.778   6.624  10.799  1.00  0.00     0.031 A 
ATOM     42  C   UNL     1      -7.924   6.828  11.755  1.00  0.00     0.074 A 
ATOM     43  C   UNL     1      -6.183   7.680  10.218  1.00  0.00     0.049 A 
ATOM     44  N   UNL     1      -8.517   7.935  12.116  1.00  0.00    -0.248 NA
ATOM     45  C   UNL     1      -8.475   5.617  12.388  1.00  0.00     0.031 C 
ATOM     46  C   UNL     1      -5.045   7.612   9.302  1.00  0.00     0.029 A 
ATOM     47  N   UNL     1      -6.459   9.022  10.311  1.00  0.00    -0.354 N 
ATOM     48  C   UNL     1      -9.512   7.557  13.011  1.00  0.00     0.074 A 
ATOM     49  C   UNL     1      -9.466   6.115  13.112  1.00  0.00     0.031 C 
ATOM     50  C   UNL     1      -4.725   8.858   8.910  1.00  0.00     0.029 A 
ATOM     51  C   UNL     1      -5.654   9.808   9.521  1.00  0.00     0.049 A 
ATOM     52  H   UNL     1      -7.168   9.386  10.889  1.00  0.00     0.167 HD
ATOM     53  C   UNL     1     -10.378   8.341  13.695  1.00  0.00     0.037 A 
ATOM     54  C   UNL     1      -5.679  11.139   9.303  1.00  0.00     0.037 A 
ATOM     55  C   UNL     1     -10.416   9.777  13.590  1.00  0.00     0.049 A 
ATOM     56  C   UNL     1      -6.695  11.986  10.029  1.00  0.00     0.074 A 
ATOM     57  C   UNL     1     -11.242  10.664  14.258  1.00  0.00     0.029 A 
ATOM     58  N   UNL     1      -9.603  10.535  12.761  1.00  0.00    -0.354 N 
ATOM     59  N   UNL     1      -7.609  11.619  10.897  1.00  0.00    -0.248 NA
ATOM     60  C   UNL     1      -6.678  13.429   9.753  1.00  0.00     0.031 C 
ATOM     61  C   UNL     1     -10.971  11.952  13.786  1.00  0.00     0.029 A 
ATOM     62  C   UNL     1      -9.928  11.877  12.877  1.00  0.00     0.049 A 
ATOM     63  H   UNL     1      -8.899  10.173  12.175  1.00  0.00     0.167 HD
ATOM     64  C   UNL     1      -8.252  12.789  11.293  1.00  0.00     0.074 A 
ATOM     65  C   UNL     1      -7.612  13.875  10.581  1.00  0.00     0.031 C 
ATOM     66  C   UNL     1      -9.277  12.950  12.167  1.00  0.00     0.037 A 
BRANCH  53  67
ATOM     67  C   UNL     1     -11.375   7.666  14.597  1.00  0.00     0.058 A 
ATOM     68  C   UNL     1     -10.991   7.043  15.795  1.00  0.00     0.135 A 
ATOM     69  C   UNL     1     -12.743   7.684  14.279  1.00  0.00     0.135 A 
ATOM     70  F   UNL     1      -9.694   6.976  16.138  1.00  0.00    -0.206 F 
ATOM     71  C   UNL     1     -11.925   6.447  16.637  1.00  0.00     0.059 A 
ATOM     72  C   UNL     1     -13.697   7.121  15.121  1.00  0.00     0.059 A 
ATOM     73  F   UNL     1     -13.165   8.260  13.143  1.00  0.00    -0.206 F 
ATOM     74  C   UNL     1     -13.277   6.496  16.293  1.00  0.00     0.060 A 
BRANCH  74  75
ATOM     75  S   UNL     1     -14.477   5.739  17.409  1.00  0.00     0.124 S 
ATOM     76  O   UNL     1     -14.191   4.319  17.226  1.00  0.00    -0.237 OA
ATOM     77  O   UNL     1     -14.097   6.300  18.701  1.00  0.00    -0.237 OA
ATOM     78  O   UNL     1     -15.762   6.191  16.885  1.00  0.00    -0.744 OA
ENDBRANCH  74  75
ENDBRANCH  53  67
BRANCH  54  79
ATOM     79  C   UNL     1      -4.723  11.758   8.343  1.00  0.00     0.058 A 
ATOM     80  C   UNL     1      -3.723  12.642   8.776  1.00  0.00     0.135 A 
ATOM     81  C   UNL     1      -4.804  11.491   6.967  1.00  0.00     0.135 A 
ATOM     82  F   UNL     1      -3.610  12.941  10.079  1.00  0.00    -0.206 F 
ATOM     83  C   UNL     1      -2.853  13.256   7.880  1.00  0.00     0.059 A 
ATOM     84  C   UNL     1      -3.926  12.068   6.055  1.00  0.00     0.059 A 
ATOM     85  F   UNL     1      -5.737  10.647   6.499  1.00  0.00    -0.206 F 
ATOM     86  C   UNL     1      -2.961  12.960   6.520  1.00  0.00     0.060 A 
BRANCH  86  87
ATOM     87  S   UNL     1      -1.804  13.734   5.370  1.00  0.00     0.124 S 
ATOM     88  O   UNL     1      -2.268  15.117   5.373  1.00  0.00    -0.237 OA
ATOM     89  O   UNL     1      -0.520  13.489   6.020  1.00  0.00    -0.237 OA
ATOM     90  O   UNL     1      -2.021  12.998   4.128  1.00  0.00    -0.744 OA
ENDBRANCH  86  87
ENDBRANCH  54  79
BRANCH  66  91
ATOM     91  C   UNL     1      -9.745  14.356  12.443  1.00  0.00     0.058 A 
ATOM     92  C   UNL     1     -10.434  15.114  11.484  1.00  0.00     0.135 A 
ATOM     93  C   UNL     1      -9.537  14.937  13.706  1.00  0.00     0.135 A 
ATOM     94  F   UNL     1     -10.660  14.610  10.259  1.00  0.00    -0.206 F 
ATOM     95  C   UNL     1     -10.870  16.408  11.754  1.00  0.00     0.059 A 
ATOM     96  C   UNL     1      -9.994  16.215  14.009  1.00  0.00     0.059 A 
ATOM     97  F   UNL     1      -8.896  14.253  14.668  1.00  0.00    -0.206 F 
ATOM     98  C   UNL     1     -10.645  16.950  13.021  1.00  0.00     0.060 A 
BRANCH  98  99
ATOM     99  S   UNL     1     -11.232  18.622  13.363  1.00  0.00     0.124 S 
ATOM    100  O   UNL     1     -10.296  19.427  12.584  1.00  0.00    -0.237 OA
ATOM    101  O   UNL     1     -12.602  18.581  12.862  1.00  0.00    -0.237 OA
ATOM    102  O   UNL     1     -11.103  18.739  14.812  1.00  0.00    -0.744 OA
ENDBRANCH  98  99
ENDBRANCH  66  91
ENDBRANCH  40  41
ENDBRANCH  33  35
ENDBRANCH  32  33
ENDBRANCH  31  32
ENDBRANCH  30  31
ENDBRANCH  29  30
ENDBRANCH  28  29
ENDBRANCH   1  28
TORSDOF 25
