REMARK SMILES Cc1ccc(OCCNc2ccc(Cl)cc2C(=O)OCCOCCOCCOCCOC(=O)c2ccc(-c3c4nc(c(-c5c(F)cc(S(=O)(=O)[O-])cc5F)c5ccc([nH]5)c(-c5c(F)cc(S(=O)(=O)[O-])cc5F)c5nc(c(-c6c(F)cc(S(=O)(=O)[O-])cc6F)c6ccc3[nH]6)C=C5)C=C4)cc2)cc1C
REMARK SMILES IDX 24 1 23 2 22 3 21 4 20 5 19 6 17 7 18 8 16 9 10 10 11 11
REMARK SMILES IDX 12 12 15 13 13 14 14 15 9 16 8 18 7 19 6 20 5 21 1 22 2 23
REMARK SMILES IDX 3 24 101 25 4 26 100 27 102 28 25 29 26 30 27 31 28 32 29 33
REMARK SMILES IDX 30 34 31 35 32 36 33 37 34 38 35 39 99 40 36 41 98 42 37 43
REMARK SMILES IDX 38 44 39 45 92 46 40 47 97 48 91 49 93 50 41 51 96 52 90 53
REMARK SMILES IDX 89 54 42 56 76 57 55 58 75 59 56 60 59 61 74 62 94 63 57 64
REMARK SMILES IDX 58 65 73 67 95 68 60 69 43 70 44 71 53 72 45 73 46 74 52 75
REMARK SMILES IDX 54 76 47 77 48 78 49 79 50 80 51 81 77 82 78 83 87 84 79 85
REMARK SMILES IDX 80 86 86 87 88 88 81 89 82 90 83 91 84 92 85 93 61 94 62 95
REMARK SMILES IDX 71 96 63 97 64 98 70 99 72 100 65 101 66 102 67 103 68 104
REMARK SMILES IDX 69 105
REMARK H PARENT 9 17 93 55 59 66
REMARK Flexibility Score: inf
ROOT
ATOM      1  C   UNL     1      -3.430   3.018  -2.238  1.00  0.00     0.188 C 
ENDROOT
BRANCH   1   2
ATOM      2  C   UNL     1      -2.274   3.933  -2.712  1.00  0.00     0.188 C 
BRANCH   2   3
ATOM      3  O   UNL     1      -1.142   3.363  -3.337  1.00  0.00    -0.376 OA
BRANCH   3   4
ATOM      4  C   UNL     1      -0.124   2.681  -2.631  1.00  0.00     0.202 C 
BRANCH   4   5
ATOM      5  C   UNL     1      -0.077   2.578  -1.106  1.00  0.00     0.261 C 
BRANCH   5   6
ATOM      6  O   UNL     1      -1.349   2.626  -0.441  1.00  0.00    -0.460 OA
BRANCH   6   7
ATOM      7  C   UNL     1      -1.422   3.315   0.726  1.00  0.00     0.340 C 
ATOM      8  O   UNL     1      -0.487   3.877   1.277  1.00  0.00    -0.246 OA
BRANCH   7   9
ATOM      9  C   UNL     1      -2.835   3.562   1.142  1.00  0.00     0.084 A 
ATOM     10  C   UNL     1      -3.782   2.623   1.645  1.00  0.00     0.049 A 
ATOM     11  C   UNL     1      -5.009   3.139   2.099  1.00  0.00     0.028 A 
ATOM     12  C   UNL     1      -5.318   4.500   2.017  1.00  0.00     0.022 A 
ATOM     13  C   UNL     1      -3.170   4.926   1.028  1.00  0.00     0.038 A 
ATOM     14  C   UNL     1      -4.403   5.385   1.464  1.00  0.00     0.042 A 
ATOM     15  Cl  UNL     1      -4.777   7.058   1.353  1.00  0.00    -0.084 Cl
BRANCH  10  16
ATOM     16  N   UNL     1      -3.515   1.298   1.946  1.00  0.00    -0.381 N 
ATOM     17  H   UNL     1      -2.748   1.128   2.539  1.00  0.00     0.160 HD
BRANCH  16  18
ATOM     18  C   UNL     1      -4.260   0.110   1.471  1.00  0.00     0.154 C 
BRANCH  18  19
ATOM     19  C   UNL     1      -3.630  -0.613   0.239  1.00  0.00     0.250 C 
BRANCH  19  20
ATOM     20  O   UNL     1      -2.595  -1.604   0.490  1.00  0.00    -0.492 OA
BRANCH  20  21
ATOM     21  C   UNL     1      -1.303  -1.176   0.618  1.00  0.00     0.119 A 
ATOM     22  C   UNL     1       2.679   0.498   0.889  1.00  0.00     0.044 C 
ATOM     23  C   UNL     1       1.357  -0.211   0.904  1.00  0.00    -0.048 A 
ATOM     24  C   UNL     1       0.286   0.520   1.362  1.00  0.00     0.007 A 
ATOM     25  C   UNL     1       1.111  -1.500   0.394  1.00  0.00    -0.045 A 
ATOM     26  C   UNL     1      -0.991   0.067   1.105  1.00  0.00     0.047 A 
ATOM     27  C   UNL     1      -0.225  -1.997   0.311  1.00  0.00     0.050 A 
ATOM     28  C   UNL     1       2.245  -2.380  -0.044  1.00  0.00     0.045 C 
ENDBRANCH  20  21
ENDBRANCH  19  20
ENDBRANCH  18  19
ENDBRANCH  16  18
ENDBRANCH  10  16
ENDBRANCH   7   9
ENDBRANCH   6   7
ENDBRANCH   5   6
ENDBRANCH   4   5
ENDBRANCH   3   4
ENDBRANCH   2   3
ENDBRANCH   1   2
BRANCH   1  29
ATOM     29  O   UNL     1      -3.878   1.969  -3.075  1.00  0.00    -0.377 OA
BRANCH  29  30
ATOM     30  C   UNL     1      -2.893   1.029  -3.459  1.00  0.00     0.188 C 
BRANCH  30  31
ATOM     31  C   UNL     1      -2.392   1.222  -4.902  1.00  0.00     0.188 C 
BRANCH  31  32
ATOM     32  O   UNL     1      -2.913   2.234  -5.754  1.00  0.00    -0.376 OA
BRANCH  32  33
ATOM     33  C   UNL     1      -4.235   2.717  -5.595  1.00  0.00     0.202 C 
BRANCH  33  34
ATOM     34  C   UNL     1      -5.443   1.759  -5.565  1.00  0.00     0.261 C 
BRANCH  34  35
ATOM     35  O   UNL     1      -5.210   0.416  -5.129  1.00  0.00    -0.460 OA
BRANCH  35  36
ATOM     36  C   UNL     1      -4.848  -0.449  -6.107  1.00  0.00     0.338 C 
ATOM     37  O   UNL     1      -4.707  -0.209  -7.287  1.00  0.00    -0.246 OA
BRANCH  36  38
ATOM     38  C   UNL     1      -4.505  -1.745  -5.483  1.00  0.00     0.060 A 
ATOM     39  C   UNL     1      -3.212  -2.252  -5.664  1.00  0.00     0.016 A 
ATOM     40  C   UNL     1      -5.463  -2.479  -4.781  1.00  0.00     0.016 A 
ATOM     41  C   UNL     1      -2.878  -3.508  -5.169  1.00  0.00     0.010 A 
ATOM     42  C   UNL     1      -5.138  -3.756  -4.316  1.00  0.00     0.010 A 
ATOM     43  C   UNL     1      -3.856  -4.288  -4.543  1.00  0.00    -0.014 A 
BRANCH  43  44
ATOM     44  C   UNL     1      -3.596  -5.731  -4.333  1.00  0.00     0.031 A 
ATOM     45  C   UNL     1      -4.129  -6.702  -5.352  1.00  0.00     0.074 A 
ATOM     46  C   UNL     1      -2.865  -6.161  -3.291  1.00  0.00     0.049 A 
ATOM     47  N   UNL     1      -4.072  -8.008  -5.363  1.00  0.00    -0.248 NA
ATOM     48  C   UNL     1      -4.824  -6.121  -6.513  1.00  0.00     0.031 C 
ATOM     49  C   UNL     1      -2.255  -5.305  -2.274  1.00  0.00     0.029 A 
ATOM     50  N   UNL     1      -2.520  -7.434  -2.913  1.00  0.00    -0.354 N 
ATOM     51  C   UNL     1      -4.732  -8.404  -6.521  1.00  0.00     0.074 A 
ATOM     52  C   UNL     1      -5.207  -7.204  -7.172  1.00  0.00     0.031 C 
ATOM     53  C   UNL     1      -1.622  -6.081  -1.377  1.00  0.00     0.029 A 
ATOM     54  C   UNL     1      -1.813  -7.486  -1.736  1.00  0.00     0.049 A 
ATOM     55  H   UNL     1      -2.756  -8.234  -3.436  1.00  0.00     0.167 HD
ATOM     56  C   UNL     1      -4.919  -9.656  -7.000  1.00  0.00     0.037 A 
ATOM     57  C   UNL     1      -1.397  -8.549  -1.019  1.00  0.00     0.037 A 
ATOM     58  C   UNL     1      -4.436 -10.843  -6.343  1.00  0.00     0.049 A 
ATOM     59  C   UNL     1      -1.680  -9.938  -1.536  1.00  0.00     0.074 A 
ATOM     60  C   UNL     1      -4.557 -12.159  -6.750  1.00  0.00     0.029 A 
ATOM     61  N   UNL     1      -3.749 -10.858  -5.138  1.00  0.00    -0.354 N 
ATOM     62  N   UNL     1      -2.291 -10.302  -2.639  1.00  0.00    -0.248 NA
ATOM     63  C   UNL     1      -1.214 -11.062  -0.712  1.00  0.00     0.031 C 
ATOM     64  C   UNL     1      -3.997 -12.974  -5.762  1.00  0.00     0.029 A 
ATOM     65  C   UNL     1      -3.465 -12.163  -4.772  1.00  0.00     0.049 A 
ATOM     66  H   UNL     1      -3.500 -10.059  -4.620  1.00  0.00     0.167 HD
ATOM     67  C   UNL     1      -2.253 -11.693  -2.657  1.00  0.00     0.074 A 
ATOM     68  C   UNL     1      -1.550 -12.104  -1.460  1.00  0.00     0.031 C 
ATOM     69  C   UNL     1      -2.752 -12.554  -3.580  1.00  0.00     0.037 A 
BRANCH  56  70
ATOM     70  C   UNL     1      -5.702  -9.811  -8.274  1.00  0.00     0.058 A 
ATOM     71  C   UNL     1      -5.188  -9.412  -9.518  1.00  0.00     0.135 A 
ATOM     72  C   UNL     1      -6.973 -10.410  -8.255  1.00  0.00     0.135 A 
ATOM     73  F   UNL     1      -3.988  -8.814  -9.594  1.00  0.00    -0.206 F 
ATOM     74  C   UNL     1      -5.913  -9.582 -10.694  1.00  0.00     0.059 A 
ATOM     75  C   UNL     1      -7.702 -10.619  -9.421  1.00  0.00     0.059 A 
ATOM     76  F   UNL     1      -7.516 -10.805  -7.093  1.00  0.00    -0.206 F 
ATOM     77  C   UNL     1      -7.168 -10.192 -10.636  1.00  0.00     0.060 A 
BRANCH  77  78
ATOM     78  S   UNL     1      -8.084 -10.427 -12.173  1.00  0.00     0.124 S 
ATOM     79  O   UNL     1      -8.454  -9.054 -12.505  1.00  0.00    -0.237 OA
ATOM     80  O   UNL     1      -7.083 -11.041 -13.040  1.00  0.00    -0.237 OA
ATOM     81  O   UNL     1      -9.189 -11.296 -11.782  1.00  0.00    -0.744 OA
ENDBRANCH  77  78
ENDBRANCH  56  70
BRANCH  57  82
ATOM     82  C   UNL     1      -0.688  -8.346   0.273  1.00  0.00     0.058 A 
ATOM     83  C   UNL     1       0.660  -8.703   0.428  1.00  0.00     0.135 A 
ATOM     84  C   UNL     1      -1.348  -7.799   1.386  1.00  0.00     0.135 A 
ATOM     85  F   UNL     1       1.333  -9.240  -0.601  1.00  0.00    -0.206 F 
ATOM     86  C   UNL     1       1.322  -8.545   1.641  1.00  0.00     0.059 A 
ATOM     87  C   UNL     1      -0.699  -7.601   2.600  1.00  0.00     0.059 A 
ATOM     88  F   UNL     1      -2.636  -7.433   1.291  1.00  0.00    -0.206 F 
ATOM     89  C   UNL     1       0.634  -7.989   2.721  1.00  0.00     0.060 A 
BRANCH  89  90
ATOM     90  S   UNL     1       1.516  -7.755   4.279  1.00  0.00     0.124 S 
ATOM     91  O   UNL     1       1.673  -9.130   4.738  1.00  0.00    -0.237 OA
ATOM     92  O   UNL     1       2.736  -7.085   3.840  1.00  0.00    -0.237 OA
ATOM     93  O   UNL     1       0.602  -6.929   5.063  1.00  0.00    -0.744 OA
ENDBRANCH  89  90
ENDBRANCH  57  82
BRANCH  69  94
ATOM     94  C   UNL     1      -2.518 -14.025  -3.363  1.00  0.00     0.058 A 
ATOM     95  C   UNL     1      -3.179 -14.742  -2.352  1.00  0.00     0.135 A 
ATOM     96  C   UNL     1      -1.665 -14.741  -4.221  1.00  0.00     0.135 A 
ATOM     97  F   UNL     1      -4.002 -14.108  -1.502  1.00  0.00    -0.206 F 
ATOM     98  C   UNL     1      -2.981 -16.109  -2.183  1.00  0.00     0.059 A 
ATOM     99  C   UNL     1      -1.480 -16.113  -4.091  1.00  0.00     0.059 A 
ATOM    100  F   UNL     1      -1.018 -14.108  -5.213  1.00  0.00    -0.206 F 
ATOM    101  C   UNL     1      -2.133 -16.787  -3.061  1.00  0.00     0.060 A 
BRANCH 101 102
ATOM    102  S   UNL     1      -1.913 -18.566  -2.850  1.00  0.00     0.124 S 
ATOM    103  O   UNL     1      -1.111 -18.622  -1.633  1.00  0.00    -0.237 OA
ATOM    104  O   UNL     1      -3.290 -19.037  -2.725  1.00  0.00    -0.237 OA
ATOM    105  O   UNL     1      -1.227 -18.973  -4.073  1.00  0.00    -0.744 OA
ENDBRANCH 101 102
ENDBRANCH  69  94
ENDBRANCH  43  44
ENDBRANCH  36  38
ENDBRANCH  35  36
ENDBRANCH  34  35
ENDBRANCH  33  34
ENDBRANCH  32  33
ENDBRANCH  31  32
ENDBRANCH  30  31
ENDBRANCH  29  30
ENDBRANCH   1  29
TORSDOF 28
