REMARK SMILES O=C(Cc1cncnc1N1CCC2(CC1)OCCC[C@@H]2O)OCCOCCOCCOCCOC(=O)c1ccc(-c2c3nc(c(-c4c(F)cc(S(=O)(=O)[O-])cc4F)c4ccc([nH]4)c(-c4c(F)cc(S(=O)(=O)[O-])cc4F)c4nc(c(-c5c(F)cc(S(=O)(=O)[O-])cc5F)c5ccc2[nH]5)C=C4)C=C3)cc1
REMARK SMILES IDX 28 1 27 2 26 3 25 4 24 5 23 6 22 7 2 8 1 9 3 10 4 11 5 12
REMARK SMILES IDX 9 13 6 14 8 15 7 16 10 17 11 18 15 19 12 20 14 21 13 22
REMARK SMILES IDX 16 23 20 24 17 25 19 26 18 27 21 28 29 30 30 31 31 32 32 33
REMARK SMILES IDX 33 34 34 35 35 36 36 37 37 38 38 39 102 40 39 41 101 42
REMARK SMILES IDX 40 43 41 44 42 45 95 46 43 47 100 48 94 49 96 50 44 51 99 52
REMARK SMILES IDX 93 53 92 54 45 56 79 57 58 58 78 59 59 60 62 61 77 62 97 63
REMARK SMILES IDX 60 64 61 65 76 67 98 68 63 69 46 70 47 71 56 72 48 73 49 74
REMARK SMILES IDX 55 75 57 76 50 77 51 78 52 79 53 80 54 81 80 82 81 83 90 84
REMARK SMILES IDX 82 85 83 86 89 87 91 88 84 89 85 90 86 91 87 92 88 93 64 94
REMARK SMILES IDX 65 95 74 96 66 97 67 98 73 99 75 100 68 101 69 102 70 103
REMARK SMILES IDX 71 104 72 105
REMARK H PARENT 21 29 96 55 62 66
REMARK Flexibility Score: inf
ROOT
ATOM      1  O   UNL     1       2.740   0.065   3.748  1.00  0.00    -0.377 OA
ENDROOT
BRANCH   1   2
ATOM      2  C   UNL     1       2.121  -0.610   2.666  1.00  0.00     0.188 C 
BRANCH   2   3
ATOM      3  C   UNL     1       2.660  -2.013   2.269  1.00  0.00     0.188 C 
BRANCH   3   4
ATOM      4  O   UNL     1       4.043  -2.332   2.296  1.00  0.00    -0.376 OA
BRANCH   4   5
ATOM      5  C   UNL     1       5.015  -1.813   1.409  1.00  0.00     0.202 C 
BRANCH   5   6
ATOM      6  C   UNL     1       4.646  -1.149   0.095  1.00  0.00     0.261 C 
BRANCH   6   7
ATOM      7  O   UNL     1       3.385  -0.476   0.158  1.00  0.00    -0.463 OA
BRANCH   7   8
ATOM      8  C   UNL     1       2.338  -0.683  -0.680  1.00  0.00     0.310 C 
ATOM      9  O   UNL     1       1.198  -0.344  -0.363  1.00  0.00    -0.252 OA
BRANCH   8  10
ATOM     10  C   UNL     1       2.596  -1.419  -1.950  1.00  0.00     0.163 C 
BRANCH  10  11
ATOM     11  C   UNL     1       3.716  -0.871  -2.781  1.00  0.00     0.024 A 
ATOM     12  C   UNL     1       4.484  -1.770  -3.502  1.00  0.00     0.121 A 
ATOM     13  C   UNL     1       4.098   0.473  -2.837  1.00  0.00     0.135 A 
ATOM     14  N   UNL     1       5.567  -1.425  -4.204  1.00  0.00    -0.244 NA
ATOM     15  N   UNL     1       5.184   0.845  -3.528  1.00  0.00    -0.219 NA
ATOM     16  C   UNL     1       5.861  -0.118  -4.177  1.00  0.00     0.224 A 
BRANCH  13  17
ATOM     17  N   UNL     1       3.371   1.435  -2.145  1.00  0.00    -0.356 N 
ATOM     18  C   UNL     1       2.499   2.276  -2.960  1.00  0.00     0.121 C 
ATOM     19  C   UNL     1       4.055   2.234  -1.118  1.00  0.00     0.121 C 
ATOM     20  C   UNL     1       1.366   2.788  -2.071  1.00  0.00     0.060 C 
ATOM     21  C   UNL     1       3.003   2.675  -0.092  1.00  0.00     0.060 C 
ATOM     22  C   UNL     1       1.829   3.443  -0.738  1.00  0.00     0.097 C 
ATOM     23  O   UNL     1       2.373   4.757  -0.965  1.00  0.00    -0.372 OA
ATOM     24  C   UNL     1       0.611   3.477   0.246  1.00  0.00     0.146 C 
ATOM     25  C   UNL     1       1.458   5.800  -1.275  1.00  0.00     0.161 C 
ATOM     26  C   UNL     1      -0.398   4.555  -0.146  1.00  0.00     0.037 C 
ATOM     27  C   UNL     1       0.307   5.897  -0.285  1.00  0.00     0.031 C 
BRANCH  24  28
ATOM     28  O   UNL     1       1.026   3.721   1.595  1.00  0.00    -0.390 OA
ATOM     29  H   UNL     1       1.442   4.595   1.651  1.00  0.00     0.211 HD
ENDBRANCH  24  28
ENDBRANCH  13  17
ENDBRANCH  10  11
ENDBRANCH   8  10
ENDBRANCH   7   8
ENDBRANCH   6   7
ENDBRANCH   5   6
ENDBRANCH   4   5
ENDBRANCH   3   4
ENDBRANCH   2   3
ENDBRANCH   1   2
BRANCH   1  30
ATOM     30  C   UNL     1       4.044   0.543   3.466  1.00  0.00     0.188 C 
BRANCH  30  31
ATOM     31  C   UNL     1       5.135  -0.141   4.309  1.00  0.00     0.188 C 
BRANCH  31  32
ATOM     32  O   UNL     1       4.892  -1.370   4.975  1.00  0.00    -0.376 OA
BRANCH  32  33
ATOM     33  C   UNL     1       3.663  -1.554   5.665  1.00  0.00     0.202 C 
BRANCH  33  34
ATOM     34  C   UNL     1       3.139  -0.517   6.681  1.00  0.00     0.261 C 
BRANCH  34  35
ATOM     35  O   UNL     1       3.429   0.863   6.424  1.00  0.00    -0.460 OA
BRANCH  35  36
ATOM     36  C   UNL     1       4.535   1.339   7.048  1.00  0.00     0.338 C 
ATOM     37  O   UNL     1       5.272   0.733   7.801  1.00  0.00    -0.246 OA
BRANCH  36  38
ATOM     38  C   UNL     1       4.845   2.683   6.516  1.00  0.00     0.060 A 
ATOM     39  C   UNL     1       6.073   2.878   5.864  1.00  0.00     0.016 A 
ATOM     40  C   UNL     1       3.972   3.751   6.722  1.00  0.00     0.016 A 
ATOM     41  C   UNL     1       6.449   4.145   5.440  1.00  0.00     0.010 A 
ATOM     42  C   UNL     1       4.374   5.034   6.345  1.00  0.00     0.010 A 
ATOM     43  C   UNL     1       5.631   5.235   5.745  1.00  0.00    -0.014 A 
BRANCH  43  44
ATOM     44  C   UNL     1       6.218   6.591   5.696  1.00  0.00     0.031 A 
ATOM     45  C   UNL     1       6.803   7.142   6.968  1.00  0.00     0.074 A 
ATOM     46  C   UNL     1       6.271   7.288   4.550  1.00  0.00     0.049 A 
ATOM     47  N   UNL     1       7.305   8.323   7.208  1.00  0.00    -0.248 NA
ATOM     48  C   UNL     1       6.818   6.233   8.128  1.00  0.00     0.031 C 
ATOM     49  C   UNL     1       5.800   6.814   3.250  1.00  0.00     0.029 A 
ATOM     50  N   UNL     1       6.738   8.552   4.304  1.00  0.00    -0.354 N 
ATOM     51  C   UNL     1       7.678   8.306   8.547  1.00  0.00     0.074 A 
ATOM     52  C   UNL     1       7.324   7.007   9.074  1.00  0.00     0.031 C 
ATOM     53  C   UNL     1       5.983   7.790   2.342  1.00  0.00     0.029 A 
ATOM     54  C   UNL     1       6.544   8.964   3.009  1.00  0.00     0.049 A 
ATOM     55  H   UNL     1       7.171   9.111   4.989  1.00  0.00     0.167 HD
ATOM     56  C   UNL     1       8.264   9.288   9.270  1.00  0.00     0.037 A 
ATOM     57  C   UNL     1       6.763  10.168   2.443  1.00  0.00     0.037 A 
ATOM     58  C   UNL     1       8.604  10.577   8.728  1.00  0.00     0.049 A 
ATOM     59  C   UNL     1       7.339  11.276   3.287  1.00  0.00     0.074 A 
ATOM     60  C   UNL     1       9.206  11.646   9.365  1.00  0.00     0.029 A 
ATOM     61  N   UNL     1       8.361  10.973   7.420  1.00  0.00    -0.354 N 
ATOM     62  N   UNL     1       7.692  11.255   4.552  1.00  0.00    -0.248 NA
ATOM     63  C   UNL     1       7.547  12.573   2.629  1.00  0.00     0.031 C 
ATOM     64  C   UNL     1       9.272  12.709   8.458  1.00  0.00     0.029 A 
ATOM     65  C   UNL     1       8.773  12.281   7.237  1.00  0.00     0.049 A 
ATOM     66  H   UNL     1       7.955  10.406   6.725  1.00  0.00     0.167 HD
ATOM     67  C   UNL     1       8.190  12.524   4.832  1.00  0.00     0.074 A 
ATOM     68  C   UNL     1       8.102  13.284   3.602  1.00  0.00     0.031 C 
ATOM     69  C   UNL     1       8.679  13.017   5.999  1.00  0.00     0.037 A 
BRANCH  56  70
ATOM     70  C   UNL     1       8.527   9.019  10.727  1.00  0.00     0.058 A 
ATOM     71  C   UNL     1       9.498   8.099  11.153  1.00  0.00     0.135 A 
ATOM     72  C   UNL     1       7.798   9.702  11.714  1.00  0.00     0.135 A 
ATOM     73  F   UNL     1      10.209   7.400  10.254  1.00  0.00    -0.206 F 
ATOM     74  C   UNL     1       9.718   7.845  12.504  1.00  0.00     0.059 A 
ATOM     75  C   UNL     1       8.022   9.487  13.071  1.00  0.00     0.059 A 
ATOM     76  F   UNL     1       6.851  10.587  11.365  1.00  0.00    -0.206 F 
ATOM     77  C   UNL     1       8.975   8.546  13.455  1.00  0.00     0.060 A 
BRANCH  77  78
ATOM     78  S   UNL     1       9.274   8.209  15.203  1.00  0.00     0.124 S 
ATOM     79  O   UNL     1       8.701   6.874  15.346  1.00  0.00    -0.237 OA
ATOM     80  O   UNL     1      10.729   8.285  15.290  1.00  0.00    -0.237 OA
ATOM     81  O   UNL     1       8.552   9.277  15.886  1.00  0.00    -0.744 OA
ENDBRANCH  77  78
ENDBRANCH  56  70
BRANCH  57  82
ATOM     82  C   UNL     1       6.419  10.388   1.013  1.00  0.00     0.058 A 
ATOM     83  C   UNL     1       7.416  10.598   0.049  1.00  0.00     0.135 A 
ATOM     84  C   UNL     1       5.083  10.380   0.578  1.00  0.00     0.135 A 
ATOM     85  F   UNL     1       8.706  10.628   0.416  1.00  0.00    -0.206 F 
ATOM     86  C   UNL     1       7.104  10.800  -1.292  1.00  0.00     0.059 A 
ATOM     87  C   UNL     1       4.747  10.551  -0.761  1.00  0.00     0.059 A 
ATOM     88  F   UNL     1       4.090  10.179   1.457  1.00  0.00    -0.206 F 
ATOM     89  C   UNL     1       5.765  10.769  -1.688  1.00  0.00     0.060 A 
BRANCH  89  90
ATOM     90  S   UNL     1       5.375  10.978  -3.439  1.00  0.00     0.124 S 
ATOM     91  O   UNL     1       5.670  12.392  -3.640  1.00  0.00    -0.237 OA
ATOM     92  O   UNL     1       6.296  10.038  -4.072  1.00  0.00    -0.237 OA
ATOM     93  O   UNL     1       3.964  10.610  -3.517  1.00  0.00    -0.744 OA
ENDBRANCH  89  90
ENDBRANCH  57  82
BRANCH  69  94
ATOM     94  C   UNL     1       9.195  14.431   5.995  1.00  0.00     0.058 A 
ATOM     95  C   UNL     1       8.333  15.535   5.905  1.00  0.00     0.135 A 
ATOM     96  C   UNL     1      10.569  14.684   6.146  1.00  0.00     0.135 A 
ATOM     97  F   UNL     1       7.012  15.351   5.755  1.00  0.00    -0.206 F 
ATOM     98  C   UNL     1       8.817  16.839   5.939  1.00  0.00     0.059 A 
ATOM     99  C   UNL     1      11.071  15.979   6.216  1.00  0.00     0.059 A 
ATOM    100  F   UNL     1      11.437  13.665   6.250  1.00  0.00    -0.206 F 
ATOM    101  C   UNL     1      10.188  17.051   6.098  1.00  0.00     0.060 A 
BRANCH 101 102
ATOM    102  S   UNL     1      10.797  18.748   6.176  1.00  0.00     0.124 S 
ATOM    103  O   UNL     1      10.642  19.180   4.791  1.00  0.00    -0.237 OA
ATOM    104  O   UNL     1       9.888  19.362   7.138  1.00  0.00    -0.237 OA
ATOM    105  O   UNL     1      12.175  18.596   6.634  1.00  0.00    -0.744 OA
ENDBRANCH 101 102
ENDBRANCH  69  94
ENDBRANCH  43  44
ENDBRANCH  36  38
ENDBRANCH  35  36
ENDBRANCH  34  35
ENDBRANCH  33  34
ENDBRANCH  32  33
ENDBRANCH  31  32
ENDBRANCH  30  31
ENDBRANCH   1  30
TORSDOF 26
