REMARK SMILES COc1ccccc1Nc1nc(OCC(=O)OCCOCCOCCOCCOC(=O)c2ccc(-c3c4nc(c(-c5c(F)cc(S(=O)(=O)[O-])cc5F)c5ccc([nH]5)c(-c5c(F)cc(S(=O)(=O)[O-])cc5F)c5nc(c(-c6c(F)cc(S(=O)(=O)[O-])cc6F)c6ccc3[nH]6)C=C5)C=C4)cc2)cc(-c2ccc(C)cc2)n1
REMARK SMILES IDX 22 1 21 2 20 3 19 4 18 5 17 6 15 7 16 8 14 9 13 10 12 11
REMARK SMILES IDX 10 12 11 13 107 14 99 15 98 16 9 17 8 19 3 20 4 21 5 22 7 23
REMARK SMILES IDX 6 24 2 25 1 26 100 27 101 28 106 29 102 30 105 31 103 32
REMARK SMILES IDX 104 33 23 34 24 35 25 36 26 37 27 38 28 39 29 40 30 41 31 42
REMARK SMILES IDX 32 43 33 44 97 45 34 46 96 47 35 48 36 49 37 50 90 51 38 52
REMARK SMILES IDX 95 53 89 54 91 55 39 56 94 57 88 58 87 59 40 61 74 62 53 63
REMARK SMILES IDX 73 64 54 65 57 66 72 67 92 68 55 69 56 70 71 72 93 73 58 74
REMARK SMILES IDX 41 75 42 76 51 77 43 78 44 79 50 80 52 81 45 82 46 83 47 84
REMARK SMILES IDX 48 85 49 86 75 87 76 88 85 89 77 90 78 91 84 92 86 93 79 94
REMARK SMILES IDX 80 95 81 96 82 97 83 98 59 99 60 100 69 101 61 102 62 103
REMARK SMILES IDX 68 104 70 105 63 106 64 107 65 108 66 109 67 110
REMARK H PARENT 9 18 91 60 57 71
REMARK Flexibility Score: inf
ROOT
ATOM      1  C   UNL     1       7.167  -1.326  -4.375  1.00  0.00     0.188 C 
ENDROOT
BRANCH   1   2
ATOM      2  C   UNL     1       8.183  -0.167  -4.439  1.00  0.00     0.188 C 
BRANCH   2   3
ATOM      3  O   UNL     1       9.336  -0.185  -5.266  1.00  0.00    -0.376 OA
BRANCH   3   4
ATOM      4  C   UNL     1       9.901  -1.444  -5.577  1.00  0.00     0.202 C 
BRANCH   4   5
ATOM      5  C   UNL     1      10.297  -2.360  -4.401  1.00  0.00     0.261 C 
BRANCH   5   6
ATOM      6  O   UNL     1       9.564  -2.158  -3.165  1.00  0.00    -0.461 OA
BRANCH   6   7
ATOM      7  C   UNL     1      10.111  -1.330  -2.237  1.00  0.00     0.344 C 
ATOM      8  O   UNL     1      11.258  -0.897  -2.294  1.00  0.00    -0.248 OA
BRANCH   7   9
ATOM      9  C   UNL     1       9.145  -0.949  -1.070  1.00  0.00     0.353 C 
BRANCH   9  10
ATOM     10  O   UNL     1       7.728  -1.041  -1.119  1.00  0.00    -0.466 OA
BRANCH  10  11
ATOM     11  C   UNL     1       6.893   0.040  -1.261  1.00  0.00     0.219 A 
ATOM     12  C   UNL     1       4.641   0.579  -1.504  1.00  0.00     0.231 A 
ATOM     13  N   UNL     1       5.596  -0.290  -1.118  1.00  0.00    -0.177 NA
ATOM     14  N   UNL     1       4.927   1.774  -2.042  1.00  0.00    -0.212 NA
ATOM     15  C   UNL     1       6.241   2.122  -2.143  1.00  0.00     0.080 A 
ATOM     16  C   UNL     1       7.261   1.292  -1.684  1.00  0.00     0.097 A 
BRANCH  12  17
ATOM     17  N   UNL     1       3.332   0.135  -1.270  1.00  0.00    -0.321 N 
ATOM     18  H   UNL     1       3.206  -0.203  -0.354  1.00  0.00     0.170 HD
BRANCH  17  19
ATOM     19  C   UNL     1       2.152   0.061  -2.041  1.00  0.00     0.083 A 
ATOM     20  C   UNL     1       1.091  -0.752  -1.587  1.00  0.00     0.142 A 
ATOM     21  C   UNL     1       0.013  -1.109  -2.404  1.00  0.00     0.048 A 
ATOM     22  C   UNL     1      -0.088  -0.558  -3.673  1.00  0.00     0.004 A 
ATOM     23  C   UNL     1       1.929   0.734  -3.234  1.00  0.00     0.030 A 
ATOM     24  C   UNL     1       0.843   0.402  -4.067  1.00  0.00     0.002 A 
BRANCH  20  25
ATOM     25  O   UNL     1       1.067  -1.210  -0.289  1.00  0.00    -0.495 OA
ATOM     26  C   UNL     1       0.793  -0.103   0.582  1.00  0.00     0.278 C 
ENDBRANCH  20  25
ENDBRANCH  17  19
ENDBRANCH  12  17
BRANCH  15  27
ATOM     27  C   UNL     1       6.528   3.329  -2.974  1.00  0.00     0.000 A 
ATOM     28  C   UNL     1       5.676   4.445  -3.001  1.00  0.00     0.010 A 
ATOM     29  C   UNL     1       7.612   3.354  -3.875  1.00  0.00     0.010 A 
ATOM     30  C   UNL     1       5.846   5.477  -3.944  1.00  0.00     0.004 A 
ATOM     31  C   UNL     1       7.752   4.346  -4.852  1.00  0.00     0.004 A 
ATOM     32  C   UNL     1       6.847   5.401  -4.917  1.00  0.00    -0.051 A 
ATOM     33  C   UNL     1       6.982   6.431  -6.000  1.00  0.00     0.044 C 
ENDBRANCH  15  27
ENDBRANCH  10  11
ENDBRANCH   9  10
ENDBRANCH   7   9
ENDBRANCH   6   7
ENDBRANCH   5   6
ENDBRANCH   4   5
ENDBRANCH   3   4
ENDBRANCH   2   3
ENDBRANCH   1   2
BRANCH   1  34
ATOM     34  O   UNL     1       7.286  -2.248  -5.446  1.00  0.00    -0.377 OA
BRANCH  34  35
ATOM     35  C   UNL     1       6.268  -2.109  -6.422  1.00  0.00     0.188 C 
BRANCH  35  36
ATOM     36  C   UNL     1       6.315  -0.803  -7.240  1.00  0.00     0.188 C 
BRANCH  36  37
ATOM     37  O   UNL     1       6.475   0.361  -6.447  1.00  0.00    -0.376 OA
BRANCH  37  38
ATOM     38  C   UNL     1       5.393   1.259  -6.303  1.00  0.00     0.202 C 
BRANCH  38  39
ATOM     39  C   UNL     1       4.223   0.789  -5.453  1.00  0.00     0.261 C 
BRANCH  39  40
ATOM     40  O   UNL     1       3.805  -0.555  -5.662  1.00  0.00    -0.460 OA
BRANCH  40  41
ATOM     41  C   UNL     1       2.962  -0.782  -6.684  1.00  0.00     0.338 C 
ATOM     42  O   UNL     1       2.507   0.035  -7.467  1.00  0.00    -0.246 OA
BRANCH  41  43
ATOM     43  C   UNL     1       2.868  -2.243  -6.814  1.00  0.00     0.060 A 
ATOM     44  C   UNL     1       3.419  -2.828  -7.960  1.00  0.00     0.016 A 
ATOM     45  C   UNL     1       2.340  -3.026  -5.782  1.00  0.00     0.016 A 
ATOM     46  C   UNL     1       3.409  -4.208  -8.097  1.00  0.00     0.010 A 
ATOM     47  C   UNL     1       2.289  -4.408  -5.939  1.00  0.00     0.010 A 
ATOM     48  C   UNL     1       2.786  -4.990  -7.117  1.00  0.00    -0.014 A 
BRANCH  48  49
ATOM     49  C   UNL     1       2.407  -6.370  -7.468  1.00  0.00     0.031 A 
ATOM     50  C   UNL     1       1.047  -6.567  -8.073  1.00  0.00     0.074 A 
ATOM     51  C   UNL     1       3.266  -7.386  -7.292  1.00  0.00     0.049 A 
ATOM     52  N   UNL     1       0.459  -7.666  -8.456  1.00  0.00    -0.248 NA
ATOM     53  C   UNL     1       0.237  -5.350  -8.276  1.00  0.00     0.031 C 
ATOM     54  C   UNL     1       4.621  -7.263  -6.755  1.00  0.00     0.029 A 
ATOM     55  N   UNL     1       3.120  -8.723  -7.542  1.00  0.00    -0.354 N 
ATOM     56  C   UNL     1      -0.783  -7.275  -8.942  1.00  0.00     0.074 A 
ATOM     57  C   UNL     1      -0.883  -5.844  -8.778  1.00  0.00     0.031 C 
ATOM     58  C   UNL     1       5.178  -8.485  -6.698  1.00  0.00     0.029 A 
ATOM     59  C   UNL     1       4.208  -9.472  -7.164  1.00  0.00     0.049 A 
ATOM     60  H   UNL     1       2.314  -9.111  -7.952  1.00  0.00     0.167 HD
ATOM     61  C   UNL     1      -1.750  -8.050  -9.483  1.00  0.00     0.037 A 
ATOM     62  C   UNL     1       4.374 -10.809  -7.177  1.00  0.00     0.037 A 
ATOM     63  C   UNL     1      -1.626  -9.476  -9.610  1.00  0.00     0.049 A 
ATOM     64  C   UNL     1       3.251 -11.661  -7.712  1.00  0.00     0.074 A 
ATOM     65  C   UNL     1      -2.534 -10.378 -10.130  1.00  0.00     0.029 A 
ATOM     66  N   UNL     1      -0.519 -10.207  -9.196  1.00  0.00    -0.354 N 
ATOM     67  N   UNL     1       2.084 -11.285  -8.185  1.00  0.00    -0.248 NA
ATOM     68  C   UNL     1       3.466 -13.113  -7.726  1.00  0.00     0.031 C 
ATOM     69  C   UNL     1      -1.999 -11.661  -9.978  1.00  0.00     0.029 A 
ATOM     70  C   UNL     1      -0.729 -11.553  -9.430  1.00  0.00     0.049 A 
ATOM     71  H   UNL     1       0.294  -9.823  -8.796  1.00  0.00     0.167 HD
ATOM     72  C   UNL     1       1.441 -12.450  -8.589  1.00  0.00     0.074 A 
ATOM     73  C   UNL     1       2.353 -13.542  -8.306  1.00  0.00     0.031 C 
ATOM     74  C   UNL     1       0.215 -12.608  -9.150  1.00  0.00     0.037 A 
BRANCH  61  75
ATOM     75  C   UNL     1      -3.018  -7.377  -9.931  1.00  0.00     0.058 A 
ATOM     76  C   UNL     1      -3.050  -6.516 -11.041  1.00  0.00     0.135 A 
ATOM     77  C   UNL     1      -4.223  -7.606  -9.249  1.00  0.00     0.135 A 
ATOM     78  F   UNL     1      -1.923  -6.236 -11.714  1.00  0.00    -0.206 F 
ATOM     79  C   UNL     1      -4.227  -5.892 -11.446  1.00  0.00     0.059 A 
ATOM     80  C   UNL     1      -5.418  -7.016  -9.654  1.00  0.00     0.059 A 
ATOM     81  F   UNL     1      -4.249  -8.406  -8.172  1.00  0.00    -0.206 F 
ATOM     82  C   UNL     1      -5.407  -6.152 -10.748  1.00  0.00     0.060 A 
BRANCH  82  83
ATOM     83  S   UNL     1      -6.928  -5.350 -11.297  1.00  0.00     0.124 S 
ATOM     84  O   UNL     1      -6.679  -3.962 -10.922  1.00  0.00    -0.237 OA
ATOM     85  O   UNL     1      -6.925  -5.629 -12.730  1.00  0.00    -0.237 OA
ATOM     86  O   UNL     1      -7.968  -6.029 -10.531  1.00  0.00    -0.744 OA
ENDBRANCH  82  83
ENDBRANCH  61  75
BRANCH  62  87
ATOM     87  C   UNL     1       5.636 -11.410  -6.668  1.00  0.00     0.058 A 
ATOM     88  C   UNL     1       6.530 -12.062  -7.529  1.00  0.00     0.135 A 
ATOM     89  C   UNL     1       5.980 -11.335  -5.308  1.00  0.00     0.135 A 
ATOM     90  F   UNL     1       6.248 -12.164  -8.837  1.00  0.00    -0.206 F 
ATOM     91  C   UNL     1       7.710 -12.633  -7.061  1.00  0.00     0.059 A 
ATOM     92  C   UNL     1       7.166 -11.874  -4.820  1.00  0.00     0.059 A 
ATOM     93  F   UNL     1       5.166 -10.711  -4.442  1.00  0.00    -0.206 F 
ATOM     94  C   UNL     1       8.020 -12.532  -5.703  1.00  0.00     0.060 A 
BRANCH  94  95
ATOM     95  S   UNL     1       9.570 -13.248  -5.115  1.00  0.00     0.124 S 
ATOM     96  O   UNL     1       9.297 -14.676  -5.230  1.00  0.00    -0.237 OA
ATOM     97  O   UNL     1      10.537 -12.704  -6.063  1.00  0.00    -0.237 OA
ATOM     98  O   UNL     1       9.682 -12.736  -3.752  1.00  0.00    -0.744 OA
ENDBRANCH  94  95
ENDBRANCH  62  87
BRANCH  74  99
ATOM     99  C   UNL     1      -0.186 -13.999  -9.551  1.00  0.00     0.058 A 
ATOM    100  C   UNL     1      -0.528 -14.976  -8.605  1.00  0.00     0.135 A 
ATOM    101  C   UNL     1      -0.306 -14.327 -10.912  1.00  0.00     0.135 A 
ATOM    102  F   UNL     1      -0.425 -14.713  -7.293  1.00  0.00    -0.206 F 
ATOM    103  C   UNL     1      -0.955 -16.241  -8.995  1.00  0.00     0.059 A 
ATOM    104  C   UNL     1      -0.764 -15.573 -11.324  1.00  0.00     0.059 A 
ATOM    105  F   UNL     1      -0.003 -13.421 -11.856  1.00  0.00    -0.206 F 
ATOM    106  C   UNL     1      -1.077 -16.526 -10.357  1.00  0.00     0.060 A 
BRANCH 106 107
ATOM    107  S   UNL     1      -1.682 -18.154 -10.846  1.00  0.00     0.124 S 
ATOM    108  O   UNL     1      -0.541 -19.002 -10.519  1.00  0.00    -0.237 OA
ATOM    109  O   UNL     1      -2.858 -18.316  -9.997  1.00  0.00    -0.237 OA
ATOM    110  O   UNL     1      -1.961 -17.999 -12.271  1.00  0.00    -0.744 OA
ENDBRANCH 106 107
ENDBRANCH  74  99
ENDBRANCH  48  49
ENDBRANCH  41  43
ENDBRANCH  40  41
ENDBRANCH  39  40
ENDBRANCH  38  39
ENDBRANCH  37  38
ENDBRANCH  36  37
ENDBRANCH  35  36
ENDBRANCH  34  35
ENDBRANCH   1  34
TORSDOF 29
