REMARK SMILES CC(=O)NNC(=O)C[NH2+][C@@](C)(C(=O)OCCOCCOCCOCCOC(=O)c1ccc(-c2c3nc(c(-c4c(F)cc(S(=O)(=O)[O-])cc4F)c4ccc([nH]4)c(-c4c(F)cc(S(=O)(=O)[O-])cc4F)c4nc(c(-c5c(F)cc(S(=O)(=O)[O-])cc5F)c5ccc2[nH]5)C=C4)C=C3)cc1)C(F)(F)F
REMARK SMILES IDX 19 1 18 2 17 3 16 4 15 5 14 6 12 7 13 8 10 9 11 10 9 11 8 14
REMARK SMILES IDX 6 15 5 16 7 18 4 19 1 20 2 21 3 22 95 24 96 25 97 26 98 27
REMARK SMILES IDX 20 28 21 29 22 30 23 31 24 32 25 33 26 34 27 35 28 36 29 37
REMARK SMILES IDX 30 38 94 39 31 40 93 41 32 42 33 43 34 44 87 45 35 46 92 47
REMARK SMILES IDX 86 48 88 49 36 50 91 51 85 52 84 53 37 55 71 56 50 57 70 58
REMARK SMILES IDX 51 59 54 60 69 61 89 62 52 63 53 64 68 66 90 67 55 68 38 69
REMARK SMILES IDX 39 70 48 71 40 72 41 73 47 74 49 75 42 76 43 77 44 78 45 79
REMARK SMILES IDX 46 80 72 81 73 82 82 83 74 84 75 85 81 86 83 87 76 88 77 89
REMARK SMILES IDX 78 90 79 91 80 92 56 93 57 94 66 95 58 96 59 97 65 98 67 99
REMARK SMILES IDX 60 100 61 101 62 102 63 103 64 104
REMARK H PARENT 9 12 9 13 5 17 4 23 88 54 54 65
REMARK Flexibility Score: inf
ROOT
ATOM      1  C   UNL     1       1.976   5.182  -1.749  1.00  0.00     0.188 C 
ENDROOT
BRANCH   1   2
ATOM      2  C   UNL     1       1.135   6.300  -2.386  1.00  0.00     0.188 C 
BRANCH   2   3
ATOM      3  O   UNL     1       1.706   7.203  -3.320  1.00  0.00    -0.376 OA
BRANCH   3   4
ATOM      4  C   UNL     1       2.955   7.833  -3.078  1.00  0.00     0.202 C 
BRANCH   4   5
ATOM      5  C   UNL     1       3.424   8.321  -1.692  1.00  0.00     0.261 C 
BRANCH   5   6
ATOM      6  O   UNL     1       2.978   7.586  -0.541  1.00  0.00    -0.458 OA
BRANCH   6   7
ATOM      7  C   UNL     1       1.960   8.140   0.165  1.00  0.00     0.377 C 
ATOM      8  O   UNL     1       1.471   9.228  -0.121  1.00  0.00    -0.244 OA
BRANCH   7   9
ATOM      9  C   UNL     1       1.523   7.313   1.394  1.00  0.00     0.287 C 
ATOM     10  C   UNL     1       1.957   8.146   2.606  1.00  0.00     0.103 C 
BRANCH   9  11
ATOM     11  N   UNL     1       2.192   5.949   1.463  1.00  0.00    -0.317 N 
ATOM     12  H   UNL     1       2.118   5.512   0.544  1.00  0.00     0.347 HD
ATOM     13  H   UNL     1       3.156   6.116   1.752  1.00  0.00     0.347 HD
BRANCH  11  14
ATOM     14  C   UNL     1       1.613   5.029   2.458  1.00  0.00     0.364 C 
BRANCH  14  15
ATOM     15  C   UNL     1       2.338   3.676   2.460  1.00  0.00     0.293 C 
ATOM     16  N   UNL     1       1.857   2.632   1.704  1.00  0.00    -0.263 N 
ATOM     17  H   UNL     1       2.295   1.757   1.813  1.00  0.00     0.191 HD
ATOM     18  O   UNL     1       3.341   3.496   3.154  1.00  0.00    -0.267 OA
BRANCH  16  19
ATOM     19  N   UNL     1       0.803   2.709   0.797  1.00  0.00    -0.268 N 
ATOM     20  C   UNL     1       0.961   0.293   0.277  1.00  0.00     0.116 C 
ATOM     21  C   UNL     1       0.345   1.649   0.052  1.00  0.00     0.235 C 
ATOM     22  O   UNL     1      -0.543   1.818  -0.783  1.00  0.00    -0.274 OA
ATOM     23  H   UNL     1       0.357   3.580   0.682  1.00  0.00     0.191 HD
ENDBRANCH  16  19
ENDBRANCH  14  15
ENDBRANCH  11  14
ENDBRANCH   9  11
BRANCH   9  24
ATOM     24  C   UNL     1      -0.023   7.261   1.278  1.00  0.00     0.455 C 
ATOM     25  F   UNL     1      -0.418   6.385   0.318  1.00  0.00    -0.164 F 
ATOM     26  F   UNL     1      -0.568   6.806   2.440  1.00  0.00    -0.164 F 
ATOM     27  F   UNL     1      -0.621   8.441   1.030  1.00  0.00    -0.164 F 
ENDBRANCH   9  24
ENDBRANCH   7   9
ENDBRANCH   6   7
ENDBRANCH   5   6
ENDBRANCH   4   5
ENDBRANCH   3   4
ENDBRANCH   2   3
ENDBRANCH   1   2
BRANCH   1  28
ATOM     28  O   UNL     1       3.371   5.343  -1.902  1.00  0.00    -0.377 OA
BRANCH  28  29
ATOM     29  C   UNL     1       3.982   4.636  -2.973  1.00  0.00     0.188 C 
BRANCH  29  30
ATOM     30  C   UNL     1       3.188   4.465  -4.285  1.00  0.00     0.188 C 
BRANCH  30  31
ATOM     31  O   UNL     1       1.863   3.980  -4.111  1.00  0.00    -0.376 OA
BRANCH  31  32
ATOM     32  C   UNL     1       1.610   2.591  -4.264  1.00  0.00     0.202 C 
BRANCH  32  33
ATOM     33  C   UNL     1       2.266   1.621  -3.268  1.00  0.00     0.261 C 
BRANCH  33  34
ATOM     34  O   UNL     1       3.698   1.643  -3.183  1.00  0.00    -0.460 OA
BRANCH  34  35
ATOM     35  C   UNL     1       4.402   1.419  -4.311  1.00  0.00     0.338 C 
ATOM     36  O   UNL     1       3.956   1.118  -5.406  1.00  0.00    -0.246 OA
BRANCH  35  37
ATOM     37  C   UNL     1       5.803   1.811  -4.048  1.00  0.00     0.060 A 
ATOM     38  C   UNL     1       6.395   2.787  -4.860  1.00  0.00     0.016 A 
ATOM     39  C   UNL     1       6.524   1.231  -3.001  1.00  0.00     0.016 A 
ATOM     40  C   UNL     1       7.725   3.153  -4.657  1.00  0.00     0.010 A 
ATOM     41  C   UNL     1       7.863   1.581  -2.812  1.00  0.00     0.010 A 
ATOM     42  C   UNL     1       8.480   2.513  -3.666  1.00  0.00    -0.014 A 
BRANCH  42  43
ATOM     43  C   UNL     1       9.957   2.651  -3.670  1.00  0.00     0.031 A 
ATOM     44  C   UNL     1      10.765   1.563  -4.325  1.00  0.00     0.074 A 
ATOM     45  C   UNL     1      10.566   3.724  -3.135  1.00  0.00     0.049 A 
ATOM     46  N   UNL     1      12.062   1.428  -4.412  1.00  0.00    -0.248 NA
ATOM     47  C   UNL     1      10.003   0.477  -4.966  1.00  0.00     0.031 C 
ATOM     48  C   UNL     1       9.887   4.859  -2.514  1.00  0.00     0.029 A 
ATOM     49  N   UNL     1      11.900   4.024  -3.022  1.00  0.00    -0.354 N 
ATOM     50  C   UNL     1      12.271   0.244  -5.110  1.00  0.00     0.074 A 
ATOM     51  C   UNL     1      10.970  -0.321  -5.391  1.00  0.00     0.031 C 
ATOM     52  C   UNL     1      10.813   5.727  -2.067  1.00  0.00     0.029 A 
ATOM     53  C   UNL     1      12.146   5.192  -2.340  1.00  0.00     0.049 A 
ATOM     54  H   UNL     1      12.614   3.457  -3.394  1.00  0.00     0.167 HD
ATOM     55  C   UNL     1      13.443  -0.317  -5.493  1.00  0.00     0.037 A 
ATOM     56  C   UNL     1      13.314   5.748  -1.957  1.00  0.00     0.037 A 
ATOM     57  C   UNL     1      14.734   0.250  -5.203  1.00  0.00     0.049 A 
ATOM     58  C   UNL     1      14.609   5.067  -2.327  1.00  0.00     0.074 A 
ATOM     59  C   UNL     1      15.982  -0.234  -5.551  1.00  0.00     0.029 A 
ATOM     60  N   UNL     1      14.943   1.421  -4.489  1.00  0.00    -0.354 N 
ATOM     61  N   UNL     1      14.796   3.957  -3.003  1.00  0.00    -0.248 NA
ATOM     62  C   UNL     1      15.853   5.716  -1.888  1.00  0.00     0.031 C 
ATOM     63  C   UNL     1      16.947   0.613  -4.997  1.00  0.00     0.029 A 
ATOM     64  C   UNL     1      16.301   1.662  -4.363  1.00  0.00     0.049 A 
ATOM     65  H   UNL     1      14.231   1.996  -4.127  1.00  0.00     0.167 HD
ATOM     66  C   UNL     1      16.175   3.792  -3.096  1.00  0.00     0.074 A 
ATOM     67  C   UNL     1      16.774   4.923  -2.417  1.00  0.00     0.031 C 
ATOM     68  C   UNL     1      16.882   2.799  -3.691  1.00  0.00     0.037 A 
BRANCH  55  69
ATOM     69  C   UNL     1      13.380  -1.621  -6.239  1.00  0.00     0.058 A 
ATOM     70  C   UNL     1      12.890  -1.702  -7.553  1.00  0.00     0.135 A 
ATOM     71  C   UNL     1      13.842  -2.805  -5.641  1.00  0.00     0.135 A 
ATOM     72  F   UNL     1      12.415  -0.606  -8.166  1.00  0.00    -0.206 F 
ATOM     73  C   UNL     1      12.836  -2.912  -8.237  1.00  0.00     0.059 A 
ATOM     74  C   UNL     1      13.828  -4.021  -6.317  1.00  0.00     0.059 A 
ATOM     75  F   UNL     1      14.315  -2.788  -4.385  1.00  0.00    -0.206 F 
ATOM     76  C   UNL     1      13.310  -4.067  -7.611  1.00  0.00     0.060 A 
BRANCH  76  77
ATOM     77  S   UNL     1      13.241  -5.627  -8.515  1.00  0.00     0.124 S 
ATOM     78  O   UNL     1      11.805  -5.889  -8.534  1.00  0.00    -0.237 OA
ATOM     79  O   UNL     1      13.836  -5.268  -9.799  1.00  0.00    -0.237 OA
ATOM     80  O   UNL     1      14.033  -6.535  -7.691  1.00  0.00    -0.744 OA
ENDBRANCH  76  77
ENDBRANCH  55  69
BRANCH  56  81
ATOM     81  C   UNL     1      13.315   7.006  -1.162  1.00  0.00     0.058 A 
ATOM     82  C   UNL     1      13.807   8.207  -1.695  1.00  0.00     0.135 A 
ATOM     83  C   UNL     1      12.826   7.031   0.154  1.00  0.00     0.135 A 
ATOM     84  F   UNL     1      14.300   8.235  -2.943  1.00  0.00    -0.206 F 
ATOM     85  C   UNL     1      13.827   9.383  -0.951  1.00  0.00     0.059 A 
ATOM     86  C   UNL     1      12.807   8.200   0.908  1.00  0.00     0.059 A 
ATOM     87  F   UNL     1      12.337   5.912   0.711  1.00  0.00    -0.206 F 
ATOM     88  C   UNL     1      13.319   9.370   0.350  1.00  0.00     0.060 A 
BRANCH  88  89
ATOM     89  S   UNL     1      13.299  10.914   1.287  1.00  0.00     0.124 S 
ATOM     90  O   UNL     1      14.717  11.108   1.565  1.00  0.00    -0.237 OA
ATOM     91  O   UNL     1      12.701  11.842   0.333  1.00  0.00    -0.237 OA
ATOM     92  O   UNL     1      12.467  10.594   2.443  1.00  0.00    -0.744 OA
ENDBRANCH  88  89
ENDBRANCH  56  81
BRANCH  68  93
ATOM     93  C   UNL     1      18.384   2.904  -3.678  1.00  0.00     0.058 A 
ATOM     94  C   UNL     1      19.133   2.720  -2.506  1.00  0.00     0.135 A 
ATOM     95  C   UNL     1      19.088   3.133  -4.873  1.00  0.00     0.135 A 
ATOM     96  F   UNL     1      18.513   2.502  -1.335  1.00  0.00    -0.206 F 
ATOM     97  C   UNL     1      20.523   2.785  -2.513  1.00  0.00     0.059 A 
ATOM     98  C   UNL     1      20.478   3.169  -4.910  1.00  0.00     0.059 A 
ATOM     99  F   UNL     1      18.423   3.303  -6.027  1.00  0.00    -0.206 F 
ATOM    100  C   UNL     1      21.187   3.006  -3.721  1.00  0.00     0.060 A 
BRANCH 100 101
ATOM    101  S   UNL     1      22.992   3.053  -3.721  1.00  0.00     0.124 S 
ATOM    102  O   UNL     1      23.253   4.325  -3.056  1.00  0.00    -0.237 OA
ATOM    103  O   UNL     1      23.334   1.857  -2.958  1.00  0.00    -0.237 OA
ATOM    104  O   UNL     1      23.334   3.005  -5.139  1.00  0.00    -0.744 OA
ENDBRANCH 100 101
ENDBRANCH  68  93
ENDBRANCH  42  43
ENDBRANCH  35  37
ENDBRANCH  34  35
ENDBRANCH  33  34
ENDBRANCH  32  33
ENDBRANCH  31  32
ENDBRANCH  30  31
ENDBRANCH  29  30
ENDBRANCH  28  29
ENDBRANCH   1  28
TORSDOF 28
