REMARK SMILES CC(C)n1c([C@H](O)CC(=O)OCCOCCOCCOCCOC(=O)c2ccc(-c3c4nc(c(-c5c(F)cc(S(=O)(=O)[O-])cc5F)c5ccc([nH]5)c(-c5c(F)cc(S(=O)(=O)[O-])cc5F)c5nc(c(-c6c(F)cc(S(=O)(=O)[O-])cc6F)c6ccc3[nH]6)C=C5)C=C4)cc2)nc2cc(Cl)ccc21
REMARK SMILES IDX 17 1 16 2 15 3 14 4 13 5 12 6 11 7 9 8 10 9 8 10 6 11 5 12
REMARK SMILES IDX 4 13 99 14 92 15 93 16 98 17 94 18 97 19 95 20 96 21 2 22
REMARK SMILES IDX 1 23 3 24 7 25 18 27 19 28 20 29 21 30 22 31 23 32 24 33
REMARK SMILES IDX 25 34 26 35 27 36 91 37 28 38 90 39 29 40 30 41 31 42 84 43
REMARK SMILES IDX 32 44 89 45 83 46 85 47 33 48 88 49 82 50 81 51 34 53 68 54
REMARK SMILES IDX 47 55 67 56 48 57 51 58 66 59 86 60 49 61 50 62 65 64 87 65
REMARK SMILES IDX 52 66 35 67 36 68 45 69 37 70 38 71 44 72 46 73 39 74 40 75
REMARK SMILES IDX 41 76 42 77 43 78 69 79 70 80 79 81 71 82 72 83 78 84 80 85
REMARK SMILES IDX 73 86 74 87 75 88 76 89 77 90 53 91 54 92 63 93 55 94 56 95
REMARK SMILES IDX 62 96 64 97 57 98 58 99 59 100 60 101 61 102
REMARK H PARENT 7 26 85 52 51 63
REMARK Flexibility Score: inf
ROOT
ATOM      1  O   UNL     1       0.496  -1.221  -2.061  1.00  0.00    -0.377 OA
ENDROOT
BRANCH   1   2
ATOM      2  C   UNL     1       0.961  -2.542  -1.891  1.00  0.00     0.188 C 
BRANCH   2   3
ATOM      3  C   UNL     1       0.654  -3.536  -3.014  1.00  0.00     0.188 C 
BRANCH   3   4
ATOM      4  O   UNL     1       0.830  -3.102  -4.341  1.00  0.00    -0.376 OA
BRANCH   4   5
ATOM      5  C   UNL     1      -0.161  -2.370  -5.051  1.00  0.00     0.202 C 
BRANCH   5   6
ATOM      6  C   UNL     1      -1.597  -2.026  -4.609  1.00  0.00     0.261 C 
BRANCH   6   7
ATOM      7  O   UNL     1      -1.891  -1.991  -3.212  1.00  0.00    -0.463 OA
BRANCH   7   8
ATOM      8  C   UNL     1      -2.522  -3.097  -2.739  1.00  0.00     0.308 C 
ATOM      9  O   UNL     1      -2.715  -4.114  -3.397  1.00  0.00    -0.252 OA
BRANCH   8  10
ATOM     10  C   UNL     1      -2.845  -3.021  -1.271  1.00  0.00     0.162 C 
BRANCH  10  11
ATOM     11  C   UNL     1      -2.412  -1.746  -0.540  1.00  0.00     0.191 C 
BRANCH  11  12
ATOM     12  C   UNL     1      -2.445  -1.957   0.960  1.00  0.00     0.139 A 
ATOM     13  N   UNL     1      -2.485  -0.988   1.955  1.00  0.00    -0.323 N 
ATOM     14  C   UNL     1      -2.678  -1.649   3.164  1.00  0.00     0.069 A 
ATOM     15  N   UNL     1      -2.389  -3.162   1.509  1.00  0.00    -0.230 NA
ATOM     16  C   UNL     1      -2.584  -2.996   2.843  1.00  0.00     0.090 A 
ATOM     17  C   UNL     1      -2.913  -1.214   4.477  1.00  0.00     0.030 A 
ATOM     18  C   UNL     1      -2.701  -3.974   3.839  1.00  0.00     0.051 A 
ATOM     19  C   UNL     1      -3.053  -2.200   5.462  1.00  0.00     0.023 A 
ATOM     20  C   UNL     1      -2.944  -3.555   5.146  1.00  0.00     0.043 A 
ATOM     21  Cl  UNL     1      -3.123  -4.733   6.392  1.00  0.00    -0.084 Cl
BRANCH  13  22
ATOM     22  C   UNL     1      -2.294   0.459   1.863  1.00  0.00     0.083 C 
ATOM     23  C   UNL     1      -1.055   0.891   1.076  1.00  0.00     0.031 C 
ATOM     24  C   UNL     1      -3.557   1.235   1.490  1.00  0.00     0.031 C 
ENDBRANCH  13  22
ENDBRANCH  11  12
BRANCH  11  25
ATOM     25  O   UNL     1      -3.288  -0.673  -0.854  1.00  0.00    -0.385 OA
ATOM     26  H   UNL     1      -4.187  -0.894  -0.564  1.00  0.00     0.211 HD
ENDBRANCH  11  25
ENDBRANCH  10  11
ENDBRANCH   8  10
ENDBRANCH   7   8
ENDBRANCH   6   7
ENDBRANCH   5   6
ENDBRANCH   4   5
ENDBRANCH   3   4
ENDBRANCH   2   3
ENDBRANCH   1   2
BRANCH   1  27
ATOM     27  C   UNL     1       1.207  -0.325  -2.902  1.00  0.00     0.188 C 
BRANCH  27  28
ATOM     28  C   UNL     1       2.594  -0.702  -3.446  1.00  0.00     0.188 C 
BRANCH  28  29
ATOM     29  O   UNL     1       3.479  -1.172  -2.435  1.00  0.00    -0.376 OA
BRANCH  29  30
ATOM     30  C   UNL     1       4.449  -0.254  -1.947  1.00  0.00     0.202 C 
BRANCH  30  31
ATOM     31  C   UNL     1       3.889   0.906  -1.113  1.00  0.00     0.261 C 
BRANCH  31  32
ATOM     32  O   UNL     1       3.111   1.837  -1.883  1.00  0.00    -0.460 OA
BRANCH  32  33
ATOM     33  C   UNL     1       3.757   2.598  -2.805  1.00  0.00     0.338 C 
ATOM     34  O   UNL     1       4.940   2.831  -2.851  1.00  0.00    -0.246 OA
BRANCH  33  35
ATOM     35  C   UNL     1       2.789   2.758  -3.927  1.00  0.00     0.060 A 
ATOM     36  C   UNL     1       1.423   2.936  -3.688  1.00  0.00     0.016 A 
ATOM     37  C   UNL     1       3.247   2.420  -5.209  1.00  0.00     0.016 A 
ATOM     38  C   UNL     1       0.514   2.657  -4.705  1.00  0.00     0.010 A 
ATOM     39  C   UNL     1       2.332   2.132  -6.222  1.00  0.00     0.010 A 
ATOM     40  C   UNL     1       0.962   2.212  -5.962  1.00  0.00    -0.014 A 
BRANCH  40  41
ATOM     41  C   UNL     1      -0.045   2.059  -7.023  1.00  0.00     0.031 A 
ATOM     42  C   UNL     1      -0.734   3.338  -7.357  1.00  0.00     0.074 A 
ATOM     43  C   UNL     1      -0.277   0.973  -7.790  1.00  0.00     0.049 A 
ATOM     44  N   UNL     1      -1.992   3.627  -7.294  1.00  0.00    -0.248 NA
ATOM     45  C   UNL     1       0.134   4.476  -7.699  1.00  0.00     0.031 C 
ATOM     46  C   UNL     1       0.508  -0.258  -7.859  1.00  0.00     0.029 A 
ATOM     47  N   UNL     1      -1.233   0.785  -8.756  1.00  0.00    -0.354 N 
ATOM     48  C   UNL     1      -2.098   4.931  -7.776  1.00  0.00     0.074 A 
ATOM     49  C   UNL     1      -0.758   5.450  -7.854  1.00  0.00     0.031 C 
ATOM     50  C   UNL     1       0.100  -0.989  -8.920  1.00  0.00     0.029 A 
ATOM     51  C   UNL     1      -1.007  -0.315  -9.579  1.00  0.00     0.049 A 
ATOM     52  H   UNL     1      -2.013   1.377  -8.859  1.00  0.00     0.167 HD
ATOM     53  C   UNL     1      -3.257   5.429  -8.284  1.00  0.00     0.037 A 
ATOM     54  C   UNL     1      -1.615  -0.605 -10.761  1.00  0.00     0.037 A 
ATOM     55  C   UNL     1      -4.404   4.692  -7.829  1.00  0.00     0.049 A 
ATOM     56  C   UNL     1      -2.898   0.143 -10.807  1.00  0.00     0.074 A 
ATOM     57  C   UNL     1      -4.929   4.385  -6.588  1.00  0.00     0.029 A 
ATOM     58  N   UNL     1      -5.053   3.869  -8.716  1.00  0.00    -0.354 N 
ATOM     59  N   UNL     1      -3.930  -0.106 -10.048  1.00  0.00    -0.248 NA
ATOM     60  C   UNL     1      -2.910   1.442 -11.463  1.00  0.00     0.031 C 
ATOM     61  C   UNL     1      -5.495   3.086  -6.732  1.00  0.00     0.029 A 
ATOM     62  C   UNL     1      -5.304   2.693  -8.057  1.00  0.00     0.049 A 
ATOM     63  H   UNL     1      -5.293   4.082  -9.647  1.00  0.00     0.167 HD
ATOM     64  C   UNL     1      -4.503   1.133  -9.807  1.00  0.00     0.074 A 
ATOM     65  C   UNL     1      -3.898   2.029 -10.786  1.00  0.00     0.031 C 
ATOM     66  C   UNL     1      -5.210   1.382  -8.666  1.00  0.00     0.037 A 
BRANCH  53  67
ATOM     67  C   UNL     1      -3.303   6.383  -9.456  1.00  0.00     0.058 A 
ATOM     68  C   UNL     1      -4.525   6.984  -9.818  1.00  0.00     0.135 A 
ATOM     69  C   UNL     1      -2.259   6.511 -10.403  1.00  0.00     0.135 A 
ATOM     70  F   UNL     1      -5.588   6.917  -9.000  1.00  0.00    -0.206 F 
ATOM     71  C   UNL     1      -4.720   7.591 -11.059  1.00  0.00     0.059 A 
ATOM     72  C   UNL     1      -2.414   7.166 -11.618  1.00  0.00     0.059 A 
ATOM     73  F   UNL     1      -1.069   5.919 -10.245  1.00  0.00    -0.206 F 
ATOM     74  C   UNL     1      -3.661   7.657 -11.960  1.00  0.00     0.060 A 
BRANCH  74  75
ATOM     75  S   UNL     1      -3.944   8.301 -13.617  1.00  0.00     0.124 S 
ATOM     76  O   UNL     1      -4.779   7.253 -14.191  1.00  0.00    -0.237 OA
ATOM     77  O   UNL     1      -4.608   9.570 -13.339  1.00  0.00    -0.237 OA
ATOM     78  O   UNL     1      -2.597   8.411 -14.168  1.00  0.00    -0.744 OA
ENDBRANCH  74  75
ENDBRANCH  53  67
BRANCH  54  79
ATOM     79  C   UNL     1      -1.022  -1.252 -11.972  1.00  0.00     0.058 A 
ATOM     80  C   UNL     1      -1.815  -1.620 -13.079  1.00  0.00     0.135 A 
ATOM     81  C   UNL     1       0.371  -1.292 -12.186  1.00  0.00     0.135 A 
ATOM     82  F   UNL     1      -3.154  -1.590 -12.993  1.00  0.00    -0.206 F 
ATOM     83  C   UNL     1      -1.261  -1.957 -14.323  1.00  0.00     0.059 A 
ATOM     84  C   UNL     1       0.945  -1.649 -13.404  1.00  0.00     0.059 A 
ATOM     85  F   UNL     1       1.235  -0.888 -11.244  1.00  0.00    -0.206 F 
ATOM     86  C   UNL     1       0.124  -1.950 -14.480  1.00  0.00     0.060 A 
BRANCH  86  87
ATOM     87  S   UNL     1       0.851  -2.201 -16.116  1.00  0.00     0.124 S 
ATOM     88  O   UNL     1       0.537  -3.601 -16.377  1.00  0.00    -0.237 OA
ATOM     89  O   UNL     1       0.132  -1.223 -16.924  1.00  0.00    -0.237 OA
ATOM     90  O   UNL     1       2.268  -1.909 -15.906  1.00  0.00    -0.744 OA
ENDBRANCH  86  87
ENDBRANCH  54  79
BRANCH  66  91
ATOM     91  C   UNL     1      -5.667   0.222  -7.821  1.00  0.00     0.058 A 
ATOM     92  C   UNL     1      -4.794  -0.675  -7.180  1.00  0.00     0.135 A 
ATOM     93  C   UNL     1      -7.029   0.146  -7.480  1.00  0.00     0.135 A 
ATOM     94  F   UNL     1      -3.468  -0.609  -7.366  1.00  0.00    -0.206 F 
ATOM     95  C   UNL     1      -5.258  -1.607  -6.252  1.00  0.00     0.059 A 
ATOM     96  C   UNL     1      -7.505  -0.748  -6.524  1.00  0.00     0.059 A 
ATOM     97  F   UNL     1      -7.906   1.009  -8.021  1.00  0.00    -0.206 F 
ATOM     98  C   UNL     1      -6.609  -1.617  -5.910  1.00  0.00     0.060 A 
BRANCH  98  99
ATOM     99  S   UNL     1      -7.143  -2.677  -4.548  1.00  0.00     0.124 S 
ATOM    100  O   UNL     1      -7.062  -4.004  -5.146  1.00  0.00    -0.237 OA
ATOM    101  O   UNL     1      -6.149  -2.373  -3.519  1.00  0.00    -0.237 OA
ATOM    102  O   UNL     1      -8.494  -2.202  -4.259  1.00  0.00    -0.744 OA
ENDBRANCH  98  99
ENDBRANCH  66  91
ENDBRANCH  40  41
ENDBRANCH  33  35
ENDBRANCH  32  33
ENDBRANCH  31  32
ENDBRANCH  30  31
ENDBRANCH  29  30
ENDBRANCH  28  29
ENDBRANCH  27  28
ENDBRANCH   1  27
TORSDOF 27
