REMARK SMILES Cc1cc(C(=O)OCCOCCOCCOCCOC(=O)c2ccc(-c3c4nc(c(-c5c(F)cc(S(=O)(=O)[O-])cc5F)c5ccc([nH]5)c(-c5c(F)cc(S(=O)(=O)[O-])cc5F)c5nc(c(-c6c(F)cc(S(=O)(=O)[O-])cc6F)c6ccc3[nH]6)C=C5)C=C4)cc2)cc(S(=O)(=O)N[C@@H](C)CC(C)C)c1C
REMARK SMILES IDX 12 1 11 2 10 3 9 4 8 5 7 6 5 7 6 8 4 9 1 10 2 11 3 12 100 13
REMARK SMILES IDX 89 14 101 15 88 16 90 17 91 18 92 19 93 20 94 22 95 23 96 24
REMARK SMILES IDX 97 25 98 26 99 27 13 28 14 29 15 30 16 31 17 32 18 33 19 34
REMARK SMILES IDX 20 35 21 36 22 37 23 38 87 39 24 40 86 41 25 42 26 43 27 44
REMARK SMILES IDX 80 45 28 46 85 47 79 48 81 49 29 50 84 51 78 52 77 53 30 55
REMARK SMILES IDX 64 56 43 57 63 58 44 59 47 60 62 61 82 62 45 63 46 64 61 66
REMARK SMILES IDX 83 67 48 68 31 69 32 70 41 71 33 72 34 73 40 74 42 75 35 76
REMARK SMILES IDX 36 77 37 78 38 79 39 80 65 81 66 82 75 83 67 84 68 85 74 86
REMARK SMILES IDX 76 87 69 88 70 89 71 90 72 91 73 92 49 93 50 94 59 95 51 96
REMARK SMILES IDX 52 97 58 98 60 99 53 100 54 101 55 102 56 103 57 104
REMARK H PARENT 93 21 81 54 47 65
REMARK Flexibility Score: inf
ROOT
ATOM      1  C   UNL     1      -3.164   1.578  -2.020  1.00  0.00     0.188 C 
ENDROOT
BRANCH   1   2
ATOM      2  C   UNL     1      -4.349   1.098  -1.164  1.00  0.00     0.188 C 
BRANCH   2   3
ATOM      3  O   UNL     1      -5.288   2.098  -0.809  1.00  0.00    -0.376 OA
BRANCH   3   4
ATOM      4  C   UNL     1      -5.389   2.449   0.561  1.00  0.00     0.202 C 
BRANCH   4   5
ATOM      5  C   UNL     1      -4.171   3.163   1.158  1.00  0.00     0.261 C 
BRANCH   5   6
ATOM      6  O   UNL     1      -2.927   2.460   1.016  1.00  0.00    -0.460 OA
BRANCH   6   7
ATOM      7  C   UNL     1      -2.780   1.303   1.699  1.00  0.00     0.338 C 
ATOM      8  O   UNL     1      -3.590   0.789   2.451  1.00  0.00    -0.246 OA
BRANCH   7   9
ATOM      9  C   UNL     1      -1.554   0.628   1.202  1.00  0.00     0.061 A 
ATOM     10  C   UNL     1       1.911   1.578  -0.023  1.00  0.00     0.044 C 
ATOM     11  C   UNL     1       0.721   0.723   0.333  1.00  0.00    -0.046 A 
ATOM     12  C   UNL     1      -0.426   1.364   0.829  1.00  0.00     0.019 A 
ATOM     13  C   UNL     1       0.738  -0.689   0.221  1.00  0.00    -0.028 A 
ATOM     14  C   UNL     1      -0.451  -1.411   0.503  1.00  0.00     0.086 A 
ATOM     15  C   UNL     1       2.010  -1.403  -0.167  1.00  0.00     0.046 C 
ATOM     16  C   UNL     1      -1.571  -0.759   1.031  1.00  0.00     0.037 A 
BRANCH  14  17
ATOM     17  S   UNL     1      -0.556  -3.168   0.186  1.00  0.00     0.241 S 
ATOM     18  O   UNL     1       0.170  -3.479  -1.016  1.00  0.00    -0.207 OA
ATOM     19  O   UNL     1      -0.238  -3.824   1.443  1.00  0.00    -0.207 OA
BRANCH  17  20
ATOM     20  N   UNL     1      -2.178  -3.522  -0.086  1.00  0.00    -0.208 NA
ATOM     21  H   UNL     1      -2.684  -3.065   0.673  1.00  0.00     0.141 HD
BRANCH  20  22
ATOM     22  C   UNL     1      -2.930  -3.194  -1.311  1.00  0.00     0.067 C 
ATOM     23  C   UNL     1      -2.281  -3.769  -2.571  1.00  0.00     0.025 C 
BRANCH  22  24
ATOM     24  C   UNL     1      -4.355  -3.801  -1.206  1.00  0.00     0.022 C 
BRANCH  24  25
ATOM     25  C   UNL     1      -5.201  -3.416   0.025  1.00  0.00    -0.016 C 
ATOM     26  C   UNL     1      -5.432  -1.917   0.127  1.00  0.00     0.007 C 
ATOM     27  C   UNL     1      -6.557  -4.125  -0.030  1.00  0.00     0.007 C 
ENDBRANCH  24  25
ENDBRANCH  22  24
ENDBRANCH  20  22
ENDBRANCH  17  20
ENDBRANCH  14  17
ENDBRANCH   7   9
ENDBRANCH   6   7
ENDBRANCH   5   6
ENDBRANCH   4   5
ENDBRANCH   3   4
ENDBRANCH   2   3
ENDBRANCH   1   2
BRANCH   1  28
ATOM     28  O   UNL     1      -3.051   2.949  -2.357  1.00  0.00    -0.377 OA
BRANCH  28  29
ATOM     29  C   UNL     1      -4.218   3.690  -2.693  1.00  0.00     0.188 C 
BRANCH  29  30
ATOM     30  C   UNL     1      -5.397   3.018  -3.436  1.00  0.00     0.188 C 
BRANCH  30  31
ATOM     31  O   UNL     1      -5.163   1.676  -3.844  1.00  0.00    -0.376 OA
BRANCH  31  32
ATOM     32  C   UNL     1      -5.034   1.458  -5.240  1.00  0.00     0.202 C 
BRANCH  32  33
ATOM     33  C   UNL     1      -3.735   1.990  -5.858  1.00  0.00     0.261 C 
BRANCH  33  34
ATOM     34  O   UNL     1      -3.511   3.400  -5.708  1.00  0.00    -0.460 OA
BRANCH  34  35
ATOM     35  C   UNL     1      -4.401   4.234  -6.292  1.00  0.00     0.338 C 
ATOM     36  O   UNL     1      -5.373   3.923  -6.956  1.00  0.00    -0.246 OA
BRANCH  35  37
ATOM     37  C   UNL     1      -4.101   5.601  -5.819  1.00  0.00     0.060 A 
ATOM     38  C   UNL     1      -5.090   6.322  -5.136  1.00  0.00     0.016 A 
ATOM     39  C   UNL     1      -2.834   6.153  -6.024  1.00  0.00     0.016 A 
ATOM     40  C   UNL     1      -4.819   7.611  -4.676  1.00  0.00     0.010 A 
ATOM     41  C   UNL     1      -2.573   7.452  -5.585  1.00  0.00     0.010 A 
ATOM     42  C   UNL     1      -3.573   8.197  -4.936  1.00  0.00    -0.014 A 
BRANCH  42  43
ATOM     43  C   UNL     1      -3.379   9.651  -4.720  1.00  0.00     0.031 A 
ATOM     44  C   UNL     1      -3.560  10.569  -5.898  1.00  0.00     0.074 A 
ATOM     45  C   UNL     1      -3.057  10.149  -3.513  1.00  0.00     0.049 A 
ATOM     46  N   UNL     1      -3.391  11.862  -5.978  1.00  0.00    -0.248 NA
ATOM     47  C   UNL     1      -3.987   9.938  -7.159  1.00  0.00     0.031 C 
ATOM     48  C   UNL     1      -2.888   9.365  -2.290  1.00  0.00     0.029 A 
ATOM     49  N   UNL     1      -2.801  11.440  -3.123  1.00  0.00    -0.354 N 
ATOM     50  C   UNL     1      -3.685  12.199  -7.294  1.00  0.00     0.074 A 
ATOM     51  C   UNL     1      -4.013  10.973  -7.985  1.00  0.00     0.031 C 
ATOM     52  C   UNL     1      -2.542  10.192  -1.287  1.00  0.00     0.029 A 
ATOM     53  C   UNL     1      -2.433  11.557  -1.803  1.00  0.00     0.049 A 
ATOM     54  H   UNL     1      -2.875  12.211  -3.731  1.00  0.00     0.167 HD
ATOM     55  C   UNL     1      -3.691  13.423  -7.872  1.00  0.00     0.037 A 
ATOM     56  C   UNL     1      -2.030  12.637  -1.103  1.00  0.00     0.037 A 
ATOM     57  C   UNL     1      -3.358  14.640  -7.181  1.00  0.00     0.049 A 
ATOM     58  C   UNL     1      -1.972  13.981  -1.789  1.00  0.00     0.074 A 
ATOM     59  C   UNL     1      -3.349  15.933  -7.673  1.00  0.00     0.029 A 
ATOM     60  N   UNL     1      -2.967  14.714  -5.852  1.00  0.00    -0.354 N 
ATOM     61  N   UNL     1      -2.282  14.293  -3.026  1.00  0.00    -0.248 NA
ATOM     62  C   UNL     1      -1.511  15.122  -0.983  1.00  0.00     0.031 C 
ATOM     63  C   UNL     1      -2.900  16.783  -6.657  1.00  0.00     0.029 A 
ATOM     64  C   UNL     1      -2.687  16.027  -5.515  1.00  0.00     0.049 A 
ATOM     65  H   UNL     1      -2.898  13.947  -5.240  1.00  0.00     0.167 HD
ATOM     66  C   UNL     1      -2.082  15.666  -3.136  1.00  0.00     0.074 A 
ATOM     67  C   UNL     1      -1.635  16.127  -1.839  1.00  0.00     0.031 C 
ATOM     68  C   UNL     1      -2.253  16.473  -4.214  1.00  0.00     0.037 A 
BRANCH  55  69
ATOM     69  C   UNL     1      -4.045  13.502  -9.330  1.00  0.00     0.058 A 
ATOM     70  C   UNL     1      -5.356  13.286  -9.786  1.00  0.00     0.135 A 
ATOM     71  C   UNL     1      -3.067  13.831 -10.282  1.00  0.00     0.135 A 
ATOM     72  F   UNL     1      -6.325  12.947  -8.921  1.00  0.00    -0.206 F 
ATOM     73  C   UNL     1      -5.679  13.373 -11.135  1.00  0.00     0.059 A 
ATOM     74  C   UNL     1      -3.374  13.951 -11.634  1.00  0.00     0.059 A 
ATOM     75  F   UNL     1      -1.797  14.040  -9.902  1.00  0.00    -0.206 F 
ATOM     76  C   UNL     1      -4.681  13.709 -12.052  1.00  0.00     0.060 A 
BRANCH  76  77
ATOM     77  S   UNL     1      -5.122  13.832 -13.798  1.00  0.00     0.124 S 
ATOM     78  O   UNL     1      -5.331  12.430 -14.146  1.00  0.00    -0.237 OA
ATOM     79  O   UNL     1      -6.323  14.661 -13.757  1.00  0.00    -0.237 OA
ATOM     80  O   UNL     1      -3.951  14.460 -14.402  1.00  0.00    -0.744 OA
ENDBRANCH  76  77
ENDBRANCH  55  69
BRANCH  56  81
ATOM     81  C   UNL     1      -1.631  12.500   0.325  1.00  0.00     0.058 A 
ATOM     82  C   UNL     1      -2.392  13.077   1.352  1.00  0.00     0.135 A 
ATOM     83  C   UNL     1      -0.466  11.806   0.689  1.00  0.00     0.135 A 
ATOM     84  F   UNL     1      -3.506  13.764   1.056  1.00  0.00    -0.206 F 
ATOM     85  C   UNL     1      -2.006  12.986   2.686  1.00  0.00     0.059 A 
ATOM     86  C   UNL     1      -0.074  11.678   2.018  1.00  0.00     0.059 A 
ATOM     87  F   UNL     1       0.296  11.229  -0.254  1.00  0.00    -0.206 F 
ATOM     88  C   UNL     1      -0.845  12.282   3.009  1.00  0.00     0.060 A 
BRANCH  88  89
ATOM     89  S   UNL     1      -0.376  12.134   4.747  1.00  0.00     0.124 S 
ATOM     90  O   UNL     1       0.082  13.486   5.044  1.00  0.00    -0.237 OA
ATOM     91  O   UNL     1      -1.634  11.734   5.370  1.00  0.00    -0.237 OA
ATOM     92  O   UNL     1       0.660  11.106   4.728  1.00  0.00    -0.744 OA
ENDBRANCH  88  89
ENDBRANCH  56  81
BRANCH  68  93
ATOM     93  C   UNL     1      -1.996  17.945  -4.034  1.00  0.00     0.058 A 
ATOM     94  C   UNL     1      -0.697  18.459  -3.894  1.00  0.00     0.135 A 
ATOM     95  C   UNL     1      -3.061  18.861  -4.071  1.00  0.00     0.135 A 
ATOM     96  F   UNL     1       0.356  17.628  -3.847  1.00  0.00    -0.206 F 
ATOM     97  C   UNL     1      -0.465  19.826  -3.776  1.00  0.00     0.059 A 
ATOM     98  C   UNL     1      -2.850  20.233  -3.985  1.00  0.00     0.059 A 
ATOM     99  F   UNL     1      -4.323  18.425  -4.216  1.00  0.00    -0.206 F 
ATOM    100  C   UNL     1      -1.548  20.706  -3.827  1.00  0.00     0.060 A 
BRANCH 100 101
ATOM    101  S   UNL     1      -1.228  22.479  -3.713  1.00  0.00     0.124 S 
ATOM    102  O   UNL     1      -0.884  22.627  -2.303  1.00  0.00    -0.237 OA
ATOM    103  O   UNL     1      -0.129  22.659  -4.657  1.00  0.00    -0.237 OA
ATOM    104  O   UNL     1      -2.496  23.080  -4.116  1.00  0.00    -0.744 OA
ENDBRANCH 100 101
ENDBRANCH  68  93
ENDBRANCH  42  43
ENDBRANCH  35  37
ENDBRANCH  34  35
ENDBRANCH  33  34
ENDBRANCH  32  33
ENDBRANCH  31  32
ENDBRANCH  30  31
ENDBRANCH  29  30
ENDBRANCH  28  29
ENDBRANCH   1  28
TORSDOF 28
