REMARK SMILES Cc1cccc(C(=O)Nc2cc(C(=O)OCCOCCOCCOCCOC(=O)c3ccc(-c4c5nc(c(-c6c(F)cc(S(=O)(=O)[O-])cc6F)c6ccc([nH]6)c(-c6c(F)cc(S(=O)(=O)[O-])cc6F)c6nc(c(-c7c(F)cc(S(=O)(=O)[O-])cc7F)c7ccc4[nH]7)C=C6)C=C5)cc3)ccc2N2CC[NH+](CC(=O)NC(C)(C)C)CC2)c1
REMARK SMILES IDX 20 1 19 2 18 3 17 4 16 5 15 6 13 7 14 8 12 9 10 10 11 11
REMARK SMILES IDX 98 12 97 13 96 14 9 15 7 16 8 17 6 19 1 20 2 21 3 22 113 23
REMARK SMILES IDX 4 24 5 25 99 26 100 27 112 28 101 29 111 30 102 31 103 33
REMARK SMILES IDX 104 34 105 35 106 36 107 38 108 39 109 40 110 41 21 42 22 43
REMARK SMILES IDX 23 44 24 45 25 46 26 47 27 48 28 49 29 50 30 51 31 52 95 53
REMARK SMILES IDX 32 54 94 55 33 56 34 57 35 58 88 59 36 60 93 61 87 62 89 63
REMARK SMILES IDX 37 64 92 65 86 66 85 67 38 69 72 70 51 71 71 72 52 73 55 74
REMARK SMILES IDX 70 75 90 76 53 77 54 78 69 80 91 81 56 82 39 83 40 84 49 85
REMARK SMILES IDX 41 86 42 87 48 88 50 89 43 90 44 91 45 92 46 93 47 94 73 95
REMARK SMILES IDX 74 96 83 97 75 98 76 99 82 100 84 101 77 102 78 103 79 104
REMARK SMILES IDX 80 105 81 106 57 107 58 108 67 109 59 110 60 111 66 112
REMARK SMILES IDX 68 113 61 114 62 115 63 116 64 117 65 118
REMARK H PARENT 9 18 102 32 106 37 89 68 55 79
REMARK Flexibility Score: inf
ROOT
ATOM      1  C   UNL     1       4.375   4.511  -3.428  1.00  0.00     0.188 C 
ENDROOT
BRANCH   1   2
ATOM      2  C   UNL     1       5.760   3.764  -3.997  1.00  0.00     0.188 C 
BRANCH   2   3
ATOM      3  O   UNL     1       6.472   2.121  -4.040  1.00  0.00    -0.376 OA
BRANCH   3   4
ATOM      4  C   UNL     1       5.921   0.474  -3.738  1.00  0.00     0.202 C 
BRANCH   4   5
ATOM      5  C   UNL     1       4.722  -0.160  -2.428  1.00  0.00     0.261 C 
BRANCH   5   6
ATOM      6  O   UNL     1       4.028   0.819  -1.061  1.00  0.00    -0.460 OA
BRANCH   6   7
ATOM      7  C   UNL     1       4.170   1.985  -0.163  1.00  0.00     0.338 C 
ATOM      8  O   UNL     1       5.172   2.237   0.516  1.00  0.00    -0.246 OA
BRANCH   7   9
ATOM      9  C   UNL     1       3.131   3.171   0.081  1.00  0.00     0.062 A 
ATOM     10  C   UNL     1       0.956   4.354  -0.032  1.00  0.00     0.065 A 
ATOM     11  C   UNL     1       1.892   3.450  -0.507  1.00  0.00     0.044 A 
ATOM     12  C   UNL     1       1.363   5.366   0.834  1.00  0.00     0.061 A 
ATOM     13  C   UNL     1       2.669   5.285   1.320  1.00  0.00     0.029 A 
ATOM     14  C   UNL     1       3.501   4.177   1.003  1.00  0.00     0.018 A 
BRANCH  10  15
ATOM     15  N   UNL     1      -0.389   4.308  -0.479  1.00  0.00    -0.320 N 
ATOM     16  C   UNL     1      -1.389   3.354  -0.286  1.00  0.00     0.255 C 
ATOM     17  O   UNL     1      -2.541   3.671  -0.609  1.00  0.00    -0.269 OA
ATOM     18  H   UNL     1      -0.665   5.083  -1.019  1.00  0.00     0.170 HD
BRANCH  16  19
ATOM     19  C   UNL     1      -1.230   2.031   0.405  1.00  0.00     0.040 A 
ATOM     20  C   UNL     1       1.251   0.096   2.470  1.00  0.00     0.044 C 
ATOM     21  C   UNL     1      -0.031   0.428   1.786  1.00  0.00    -0.050 A 
ATOM     22  C   UNL     1      -0.957  -0.570   1.485  1.00  0.00     0.003 A 
ATOM     23  C   UNL     1      -0.197   1.729   1.286  1.00  0.00     0.017 A 
ATOM     24  C   UNL     1      -2.067  -0.256   0.712  1.00  0.00     0.001 A 
ATOM     25  C   UNL     1      -2.200   1.033   0.175  1.00  0.00     0.014 A 
ENDBRANCH  16  19
ENDBRANCH  10  15
BRANCH  12  26
ATOM     26  N   UNL     1       0.412   6.286   1.263  1.00  0.00    -0.359 N 
ATOM     27  C   UNL     1       0.744   7.650   1.681  1.00  0.00     0.178 C 
ATOM     28  C   UNL     1      -0.587   5.635   2.103  1.00  0.00     0.178 C 
ATOM     29  C   UNL     1      -0.556   8.459   2.006  1.00  0.00     0.284 C 
ATOM     30  C   UNL     1      -1.875   6.451   2.132  1.00  0.00     0.284 C 
ATOM     31  N   UNL     1      -1.677   7.781   2.708  1.00  0.00    -0.324 N 
ATOM     32  H   UNL     1      -2.496   8.364   2.538  1.00  0.00     0.348 HD
BRANCH  31  33
ATOM     33  C   UNL     1      -1.639   7.774   4.186  1.00  0.00     0.363 C 
BRANCH  33  34
ATOM     34  C   UNL     1      -0.512   6.989   4.855  1.00  0.00     0.275 C 
ATOM     35  O   UNL     1       0.610   7.506   4.952  1.00  0.00    -0.268 OA
ATOM     36  N   UNL     1      -0.638   5.740   5.388  1.00  0.00    -0.347 N 
ATOM     37  H   UNL     1       0.184   5.501   5.874  1.00  0.00     0.164 HD
BRANCH  36  38
ATOM     38  C   UNL     1      -1.621   4.617   5.474  1.00  0.00     0.032 C 
ATOM     39  C   UNL     1      -1.440   3.585   4.342  1.00  0.00     0.034 C 
ATOM     40  C   UNL     1      -1.295   3.861   6.780  1.00  0.00     0.034 C 
ATOM     41  C   UNL     1      -3.086   5.052   5.535  1.00  0.00     0.034 C 
ENDBRANCH  36  38
ENDBRANCH  33  34
ENDBRANCH  31  33
ENDBRANCH  12  26
ENDBRANCH   7   9
ENDBRANCH   6   7
ENDBRANCH   5   6
ENDBRANCH   4   5
ENDBRANCH   3   4
ENDBRANCH   2   3
ENDBRANCH   1   2
BRANCH   1  42
ATOM     42  O   UNL     1       2.991   4.267  -3.699  1.00  0.00    -0.377 OA
BRANCH  42  43
ATOM     43  C   UNL     1       2.318   4.501  -4.928  1.00  0.00     0.188 C 
BRANCH  43  44
ATOM     44  C   UNL     1       2.799   5.598  -5.851  1.00  0.00     0.188 C 
BRANCH  44  45
ATOM     45  O   UNL     1       4.203   5.480  -6.023  1.00  0.00    -0.376 OA
BRANCH  45  46
ATOM     46  C   UNL     1       4.793   6.518  -6.783  1.00  0.00     0.202 C 
BRANCH  46  47
ATOM     47  C   UNL     1       4.470   6.416  -8.277  1.00  0.00     0.261 C 
BRANCH  47  48
ATOM     48  O   UNL     1       5.093   5.253  -8.866  1.00  0.00    -0.460 OA
BRANCH  48  49
ATOM     49  C   UNL     1       4.264   4.199  -9.132  1.00  0.00     0.338 C 
ATOM     50  O   UNL     1       3.561   4.136 -10.145  1.00  0.00    -0.246 OA
BRANCH  49  51
ATOM     51  C   UNL     1       4.388   3.175  -8.068  1.00  0.00     0.060 A 
ATOM     52  C   UNL     1       3.413   2.297  -7.625  1.00  0.00     0.016 A 
ATOM     53  C   UNL     1       5.559   3.096  -7.391  1.00  0.00     0.016 A 
ATOM     54  C   UNL     1       3.460   1.709  -6.298  1.00  0.00     0.010 A 
ATOM     55  C   UNL     1       5.567   2.465  -6.139  1.00  0.00     0.010 A 
ATOM     56  C   UNL     1       4.428   2.034  -5.329  1.00  0.00    -0.014 A 
BRANCH  56  57
ATOM     57  C   UNL     1       4.218   1.956  -3.466  1.00  0.00     0.031 A 
ATOM     58  C   UNL     1       5.720   2.070  -2.141  1.00  0.00     0.074 A 
ATOM     59  C   UNL     1       2.853   1.555  -3.219  1.00  0.00     0.049 A 
ATOM     60  N   UNL     1       6.124   1.008  -1.369  1.00  0.00    -0.248 NA
ATOM     61  C   UNL     1       7.185   2.805  -2.008  1.00  0.00     0.031 C 
ATOM     62  C   UNL     1       2.035   1.256  -2.011  1.00  0.00     0.029 A 
ATOM     63  N   UNL     1       1.859   1.133  -4.139  1.00  0.00    -0.354 N 
ATOM     64  C   UNL     1       7.273   1.021  -0.644  1.00  0.00     0.074 A 
ATOM     65  C   UNL     1       8.004   2.063  -1.243  1.00  0.00     0.031 C 
ATOM     66  C   UNL     1       0.790   0.852  -2.202  1.00  0.00     0.029 A 
ATOM     67  C   UNL     1       0.819   0.405  -3.519  1.00  0.00     0.049 A 
ATOM     68  H   UNL     1       1.890   1.327  -5.104  1.00  0.00     0.167 HD
ATOM     69  C   UNL     1       7.503   0.205   0.431  1.00  0.00     0.037 A 
ATOM     70  C   UNL     1       0.641  -0.934  -3.649  1.00  0.00     0.037 A 
ATOM     71  C   UNL     1       6.293  -0.459   0.957  1.00  0.00     0.049 A 
ATOM     72  C   UNL     1       1.241  -1.846  -2.526  1.00  0.00     0.074 A 
ATOM     73  C   UNL     1       5.498  -0.173   2.052  1.00  0.00     0.029 A 
ATOM     74  N   UNL     1       5.577  -1.431   0.252  1.00  0.00    -0.354 N 
ATOM     75  N   UNL     1       2.189  -1.529  -1.649  1.00  0.00    -0.248 NA
ATOM     76  C   UNL     1       0.754  -3.200  -2.293  1.00  0.00     0.031 C 
ATOM     77  C   UNL     1       4.316  -0.946   1.970  1.00  0.00     0.029 A 
ATOM     78  C   UNL     1       4.273  -1.610   0.748  1.00  0.00     0.049 A 
ATOM     79  H   UNL     1       5.946  -1.935  -0.508  1.00  0.00     0.167 HD
ATOM     80  C   UNL     1       2.450  -2.583  -0.782  1.00  0.00     0.074 A 
ATOM     81  C   UNL     1       1.508  -3.603  -1.254  1.00  0.00     0.031 C 
ATOM     82  C   UNL     1       3.358  -2.672   0.265  1.00  0.00     0.037 A 
BRANCH  69  83
ATOM     83  C   UNL     1       8.803   0.412   1.197  1.00  0.00     0.058 A 
ATOM     84  C   UNL     1       8.848   0.688   2.576  1.00  0.00     0.135 A 
ATOM     85  C   UNL     1      10.055   0.457   0.540  1.00  0.00     0.135 A 
ATOM     86  F   UNL     1       7.767   0.575   3.354  1.00  0.00    -0.206 F 
ATOM     87  C   UNL     1      10.009   1.123   3.223  1.00  0.00     0.059 A 
ATOM     88  C   UNL     1      11.224   0.923   1.158  1.00  0.00     0.059 A 
ATOM     89  F   UNL     1      10.157   0.089  -0.749  1.00  0.00    -0.206 F 
ATOM     90  C   UNL     1      11.183   1.284   2.499  1.00  0.00     0.060 A 
BRANCH  90  91
ATOM     91  S   UNL     1      12.621   1.991   3.334  1.00  0.00     0.124 S 
ATOM     92  O   UNL     1      12.094   3.253   3.846  1.00  0.00    -0.237 OA
ATOM     93  O   UNL     1      12.921   0.977   4.340  1.00  0.00    -0.237 OA
ATOM     94  O   UNL     1      13.607   2.123   2.265  1.00  0.00    -0.744 OA
ENDBRANCH  90  91
ENDBRANCH  69  83
BRANCH  70  95
ATOM     95  C   UNL     1       0.010  -1.113  -4.988  1.00  0.00     0.058 A 
ATOM     96  C   UNL     1      -1.136  -0.292  -5.237  1.00  0.00     0.135 A 
ATOM     97  C   UNL     1       0.860  -1.354  -6.069  1.00  0.00     0.135 A 
ATOM     98  F   UNL     1      -1.987  -0.010  -4.233  1.00  0.00    -0.206 F 
ATOM     99  C   UNL     1      -1.250   0.476  -6.393  1.00  0.00     0.059 A 
ATOM    100  C   UNL     1       0.733  -0.626  -7.259  1.00  0.00     0.059 A 
ATOM    101  F   UNL     1       1.946  -2.120  -5.897  1.00  0.00    -0.206 F 
ATOM    102  C   UNL     1      -0.267   0.349  -7.368  1.00  0.00     0.060 A 
BRANCH 102 103
ATOM    103  S   UNL     1      -0.200   1.613  -8.666  1.00  0.00     0.124 S 
ATOM    104  O   UNL     1      -1.580   1.668  -9.132  1.00  0.00    -0.237 OA
ATOM    105  O   UNL     1       0.255   2.774  -7.903  1.00  0.00    -0.237 OA
ATOM    106  O   UNL     1       0.762   1.054  -9.608  1.00  0.00    -0.744 OA
ENDBRANCH 102 103
ENDBRANCH  70  95
BRANCH  82 107
ATOM    107  C   UNL     1       3.440  -3.918   1.121  1.00  0.00     0.058 A 
ATOM    108  C   UNL     1       2.335  -4.505   1.755  1.00  0.00     0.135 A 
ATOM    109  C   UNL     1       4.711  -4.435   1.460  1.00  0.00     0.135 A 
ATOM    110  F   UNL     1       1.099  -4.010   1.579  1.00  0.00    -0.206 F 
ATOM    111  C   UNL     1       2.475  -5.615   2.588  1.00  0.00     0.059 A 
ATOM    112  C   UNL     1       4.879  -5.486   2.348  1.00  0.00     0.059 A 
ATOM    113  F   UNL     1       5.831  -3.932   0.917  1.00  0.00    -0.206 F 
ATOM    114  C   UNL     1       3.752  -6.106   2.866  1.00  0.00     0.060 A 
BRANCH 114 115
ATOM    115  S   UNL     1       3.944  -7.582   3.878  1.00  0.00     0.124 S 
ATOM    116  O   UNL     1       2.878  -7.436   4.865  1.00  0.00    -0.237 OA
ATOM    117  O   UNL     1       3.745  -8.633   2.884  1.00  0.00    -0.237 OA
ATOM    118  O   UNL     1       5.300  -7.460   4.404  1.00  0.00    -0.744 OA
ENDBRANCH 114 115
ENDBRANCH  82 107
ENDBRANCH  56  57
ENDBRANCH  49  51
ENDBRANCH  48  49
ENDBRANCH  47  48
ENDBRANCH  46  47
ENDBRANCH  45  46
ENDBRANCH  44  45
ENDBRANCH  43  44
ENDBRANCH  42  43
ENDBRANCH   1  42
TORSDOF 29
