REMARK SMILES Cc1ccc(S(=O)(=O)n2cc(C(=O)C(=O)NCC(=O)OCCOCCOCCOCCOC(=O)c3ccc(-c4c5nc(c(-c6c(F)cc(S(=O)(=O)[O-])cc6F)c6ccc([nH]6)c(-c6c(F)cc(S(=O)(=O)[O-])cc6F)c6nc(c(-c7c(F)cc(S(=O)(=O)[O-])cc7F)c7ccc4[nH]7)C=C6)C=C5)cc3)c3ccccc32)cc1
REMARK SMILES IDX 25 1 24 2 23 3 22 4 21 5 20 6 18 7 19 8 17 9 16 10 14 11
REMARK SMILES IDX 15 12 12 14 13 15 11 16 9 17 10 18 106 19 101 20 105 21
REMARK SMILES IDX 102 22 104 23 103 24 6 25 7 26 8 27 5 28 1 29 2 30 3 31
REMARK SMILES IDX 108 32 4 33 107 34 26 35 27 36 28 37 29 38 30 39 31 40 32 41
REMARK SMILES IDX 33 42 34 43 35 44 36 45 100 46 37 47 99 48 38 49 39 50 40 51
REMARK SMILES IDX 93 52 41 53 98 54 92 55 94 56 42 57 97 58 91 59 90 60 43 62
REMARK SMILES IDX 77 63 56 64 76 65 57 66 60 67 75 68 95 69 58 70 59 71 74 73
REMARK SMILES IDX 96 74 61 75 44 76 45 77 54 78 46 79 47 80 53 81 55 82 48 83
REMARK SMILES IDX 49 84 50 85 51 86 52 87 78 88 79 89 88 90 80 91 81 92 87 93
REMARK SMILES IDX 89 94 82 95 83 96 84 97 85 98 86 99 62 100 63 101 72 102
REMARK SMILES IDX 64 103 65 104 71 105 73 106 66 107 67 108 68 109 69 110
REMARK SMILES IDX 70 111
REMARK H PARENT 16 13 94 61 60 72
REMARK Flexibility Score: inf
ROOT
ATOM      1  C   UNL     1      -8.579   4.789   5.506  1.00  0.00     0.188 C 
ENDROOT
BRANCH   1   2
ATOM      2  C   UNL     1      -8.613   6.276   5.899  1.00  0.00     0.188 C 
BRANCH   2   3
ATOM      3  O   UNL     1      -9.816   7.014   5.746  1.00  0.00    -0.376 OA
BRANCH   3   4
ATOM      4  C   UNL     1     -10.140   7.416   4.415  1.00  0.00     0.202 C 
BRANCH   4   5
ATOM      5  C   UNL     1      -9.128   8.316   3.713  1.00  0.00     0.261 C 
BRANCH   5   6
ATOM      6  O   UNL     1      -8.028   7.514   3.264  1.00  0.00    -0.462 OA
BRANCH   6   7
ATOM      7  C   UNL     1      -6.793   8.043   3.410  1.00  0.00     0.325 C 
ATOM      8  O   UNL     1      -6.540   9.201   3.717  1.00  0.00    -0.250 OA
BRANCH   7   9
ATOM      9  C   UNL     1      -5.714   6.984   3.196  1.00  0.00     0.239 C 
BRANCH   9  10
ATOM     10  N   UNL     1      -6.169   5.598   3.310  1.00  0.00    -0.338 N 
ATOM     11  C   UNL     1      -6.105   4.515   2.477  1.00  0.00     0.292 C 
ATOM     12  O   UNL     1      -6.413   3.402   2.888  1.00  0.00    -0.265 OA
ATOM     13  H   UNL     1      -6.616   5.404   4.166  1.00  0.00     0.164 HD
BRANCH  11  14
ATOM     14  C   UNL     1      -5.601   4.690   1.051  1.00  0.00     0.252 C 
ATOM     15  O   UNL     1      -5.727   5.802   0.543  1.00  0.00    -0.283 OA
BRANCH  14  16
ATOM     16  C   UNL     1      -4.952   3.597   0.318  1.00  0.00     0.054 A 
ATOM     17  N   UNL     1      -4.110   1.626  -0.311  1.00  0.00    -0.240 N 
ATOM     18  C   UNL     1      -4.776   2.276   0.700  1.00  0.00     0.117 A 
ATOM     19  C   UNL     1      -3.810   2.489  -1.344  1.00  0.00     0.065 A 
ATOM     20  C   UNL     1      -4.338   3.730  -0.971  1.00  0.00     0.012 A 
ATOM     21  C   UNL     1      -3.104   2.326  -2.551  1.00  0.00     0.028 A 
ATOM     22  C   UNL     1      -4.172   4.830  -1.839  1.00  0.00     0.011 A 
ATOM     23  C   UNL     1      -2.928   3.445  -3.371  1.00  0.00     0.002 A 
ATOM     24  C   UNL     1      -3.459   4.681  -3.026  1.00  0.00     0.001 A 
BRANCH  17  25
ATOM     25  S   UNL     1      -3.556   0.017  -0.193  1.00  0.00     0.268 S 
ATOM     26  O   UNL     1      -3.844  -0.588  -1.491  1.00  0.00    -0.201 OA
ATOM     27  O   UNL     1      -4.080  -0.517   1.038  1.00  0.00    -0.201 OA
BRANCH  25  28
ATOM     28  C   UNL     1      -1.786   0.063  -0.030  1.00  0.00     0.088 A 
ATOM     29  C   UNL     1       2.514  -0.041   0.030  1.00  0.00     0.044 C 
ATOM     30  C   UNL     1       1.014  -0.003   0.039  1.00  0.00    -0.051 A 
ATOM     31  C   UNL     1       0.283  -1.194  -0.039  1.00  0.00     0.005 A 
ATOM     32  C   UNL     1       0.329   1.216   0.120  1.00  0.00     0.005 A 
ATOM     33  C   UNL     1      -1.112  -1.164  -0.080  1.00  0.00     0.022 A 
ATOM     34  C   UNL     1      -1.068   1.252   0.099  1.00  0.00     0.022 A 
ENDBRANCH  25  28
ENDBRANCH  17  25
ENDBRANCH  14  16
ENDBRANCH  11  14
ENDBRANCH   9  10
ENDBRANCH   7   9
ENDBRANCH   6   7
ENDBRANCH   5   6
ENDBRANCH   4   5
ENDBRANCH   3   4
ENDBRANCH   2   3
ENDBRANCH   1   2
BRANCH   1  35
ATOM     35  O   UNL     1      -8.927   4.489   4.168  1.00  0.00    -0.377 OA
BRANCH  35  36
ATOM     36  C   UNL     1     -10.096   3.684   3.930  1.00  0.00     0.188 C 
BRANCH  36  37
ATOM     37  C   UNL     1     -10.855   3.108   5.121  1.00  0.00     0.188 C 
BRANCH  37  38
ATOM     38  O   UNL     1     -11.303   4.212   5.912  1.00  0.00    -0.376 OA
BRANCH  38  39
ATOM     39  C   UNL     1     -11.457   3.985   7.301  1.00  0.00     0.202 C 
BRANCH  39  40
ATOM     40  C   UNL     1     -12.389   2.825   7.633  1.00  0.00     0.261 C 
BRANCH  40  41
ATOM     41  O   UNL     1     -13.782   3.214   7.529  1.00  0.00    -0.460 OA
BRANCH  41  42
ATOM     42  C   UNL     1     -14.490   2.863   6.413  1.00  0.00     0.338 C 
ATOM     43  O   UNL     1     -15.297   1.947   6.409  1.00  0.00    -0.246 OA
BRANCH  42  44
ATOM     44  C   UNL     1     -14.349   3.834   5.289  1.00  0.00     0.060 A 
ATOM     45  C   UNL     1     -14.607   3.475   3.958  1.00  0.00     0.016 A 
ATOM     46  C   UNL     1     -13.864   5.102   5.545  1.00  0.00     0.016 A 
ATOM     47  C   UNL     1     -14.179   4.292   2.885  1.00  0.00     0.010 A 
ATOM     48  C   UNL     1     -13.357   5.849   4.494  1.00  0.00     0.010 A 
ATOM     49  C   UNL     1     -13.464   5.456   3.146  1.00  0.00    -0.014 A 
BRANCH  49  50
ATOM     50  C   UNL     1     -12.697   6.299   2.185  1.00  0.00     0.031 A 
ATOM     51  C   UNL     1     -12.805   7.803   2.334  1.00  0.00     0.074 A 
ATOM     52  C   UNL     1     -11.660   5.768   1.480  1.00  0.00     0.049 A 
ATOM     53  N   UNL     1     -11.990   8.676   1.848  1.00  0.00    -0.248 NA
ATOM     54  C   UNL     1     -13.861   8.452   3.117  1.00  0.00     0.031 C 
ATOM     55  C   UNL     1     -10.380   6.436   1.199  1.00  0.00     0.029 A 
ATOM     56  N   UNL     1     -11.431   4.499   0.959  1.00  0.00    -0.354 N 
ATOM     57  C   UNL     1     -12.244   9.923   2.403  1.00  0.00     0.074 A 
ATOM     58  C   UNL     1     -13.437   9.722   3.183  1.00  0.00     0.031 C 
ATOM     59  C   UNL     1      -9.544   5.633   0.528  1.00  0.00     0.029 A 
ATOM     60  C   UNL     1     -10.345   4.538   0.060  1.00  0.00     0.049 A 
ATOM     61  H   UNL     1     -11.950   3.694   1.184  1.00  0.00     0.167 HD
ATOM     62  C   UNL     1     -11.355  10.943   2.176  1.00  0.00     0.037 A 
ATOM     63  C   UNL     1     -10.536   4.336  -1.281  1.00  0.00     0.037 A 
ATOM     64  C   UNL     1     -10.419  10.552   1.106  1.00  0.00     0.049 A 
ATOM     65  C   UNL     1     -10.411   5.628  -2.093  1.00  0.00     0.074 A 
ATOM     66  C   UNL     1      -9.046  10.413   1.000  1.00  0.00     0.029 A 
ATOM     67  N   UNL     1     -10.945  10.051  -0.085  1.00  0.00    -0.354 N 
ATOM     68  N   UNL     1     -10.566   6.830  -1.583  1.00  0.00    -0.248 NA
ATOM     69  C   UNL     1      -9.973   5.693  -3.488  1.00  0.00     0.031 C 
ATOM     70  C   UNL     1      -8.764   9.733  -0.218  1.00  0.00     0.029 A 
ATOM     71  C   UNL     1      -9.960   9.535  -0.891  1.00  0.00     0.049 A 
ATOM     72  H   UNL     1     -11.902  10.066  -0.318  1.00  0.00     0.167 HD
ATOM     73  C   UNL     1     -10.248   7.789  -2.512  1.00  0.00     0.074 A 
ATOM     74  C   UNL     1      -9.888   7.022  -3.688  1.00  0.00     0.031 C 
ATOM     75  C   UNL     1     -10.270   9.134  -2.255  1.00  0.00     0.037 A 
BRANCH  62  76
ATOM     76  C   UNL     1     -11.195  12.274   2.943  1.00  0.00     0.058 A 
ATOM     77  C   UNL     1     -10.158  13.181   2.596  1.00  0.00     0.135 A 
ATOM     78  C   UNL     1     -11.941  12.695   4.069  1.00  0.00     0.135 A 
ATOM     79  F   UNL     1      -9.377  12.979   1.526  1.00  0.00    -0.206 F 
ATOM     80  C   UNL     1      -9.855  14.346   3.314  1.00  0.00     0.059 A 
ATOM     81  C   UNL     1     -11.682  13.885   4.782  1.00  0.00     0.059 A 
ATOM     82  F   UNL     1     -12.953  11.971   4.556  1.00  0.00    -0.206 F 
ATOM     83  C   UNL     1     -10.623  14.698   4.409  1.00  0.00     0.060 A 
BRANCH  83  84
ATOM     84  S   UNL     1     -10.237  16.230   5.287  1.00  0.00     0.124 S 
ATOM     85  O   UNL     1      -8.938  15.927   5.880  1.00  0.00    -0.237 OA
ATOM     86  O   UNL     1     -10.225  17.214   4.209  1.00  0.00    -0.237 OA
ATOM     87  O   UNL     1     -11.338  16.366   6.238  1.00  0.00    -0.744 OA
ENDBRANCH  83  84
ENDBRANCH  62  76
BRANCH  63  88
ATOM     88  C   UNL     1     -11.340   3.085  -1.498  1.00  0.00     0.058 A 
ATOM     89  C   UNL     1     -10.658   1.920  -1.063  1.00  0.00     0.135 A 
ATOM     90  C   UNL     1     -12.726   3.131  -1.269  1.00  0.00     0.135 A 
ATOM     91  F   UNL     1      -9.340   1.796  -1.297  1.00  0.00    -0.206 F 
ATOM     92  C   UNL     1     -11.236   1.038  -0.152  1.00  0.00     0.059 A 
ATOM     93  C   UNL     1     -13.332   2.240  -0.371  1.00  0.00     0.059 A 
ATOM     94  F   UNL     1     -13.442   4.182  -1.695  1.00  0.00    -0.206 F 
ATOM     95  C   UNL     1     -12.550   1.262   0.252  1.00  0.00     0.060 A 
BRANCH  95  96
ATOM     96  S   UNL     1     -13.108   0.454   1.776  1.00  0.00     0.124 S 
ATOM     97  O   UNL     1     -13.028  -0.959   1.426  1.00  0.00    -0.237 OA
ATOM     98  O   UNL     1     -12.116   0.933   2.737  1.00  0.00    -0.237 OA
ATOM     99  O   UNL     1     -14.454   0.982   1.958  1.00  0.00    -0.744 OA
ENDBRANCH  95  96
ENDBRANCH  63  88
BRANCH  75 100
ATOM    100  C   UNL     1     -10.525  10.246  -3.270  1.00  0.00     0.058 A 
ATOM    101  C   UNL     1     -10.968  10.025  -4.583  1.00  0.00     0.135 A 
ATOM    102  C   UNL     1     -10.518  11.617  -2.873  1.00  0.00     0.135 A 
ATOM    103  F   UNL     1     -11.142   8.793  -5.075  1.00  0.00    -0.206 F 
ATOM    104  C   UNL     1     -11.309  11.066  -5.448  1.00  0.00     0.059 A 
ATOM    105  C   UNL     1     -10.919  12.664  -3.699  1.00  0.00     0.059 A 
ATOM    106  F   UNL     1     -10.153  12.006  -1.644  1.00  0.00    -0.206 F 
ATOM    107  C   UNL     1     -11.287  12.380  -4.998  1.00  0.00     0.060 A 
BRANCH 107 108
ATOM    108  S   UNL     1     -11.783  13.694  -6.120  1.00  0.00     0.124 S 
ATOM    109  O   UNL     1     -10.617  13.781  -6.994  1.00  0.00    -0.237 OA
ATOM    110  O   UNL     1     -12.989  13.142  -6.731  1.00  0.00    -0.237 OA
ATOM    111  O   UNL     1     -11.999  14.837  -5.241  1.00  0.00    -0.744 OA
ENDBRANCH 107 108
ENDBRANCH  75 100
ENDBRANCH  49  50
ENDBRANCH  42  44
ENDBRANCH  41  42
ENDBRANCH  40  41
ENDBRANCH  39  40
ENDBRANCH  38  39
ENDBRANCH  37  38
ENDBRANCH  36  37
ENDBRANCH  35  36
ENDBRANCH   1  35
TORSDOF 28
