REMARK SMILES O=C(CCc1nc(-c2ccccc2)c(-c2ccccc2)o1)OCCOCCOCCOCCOC(=O)c1ccc(-c2c3nc(c(-c4c(F)cc(S(=O)(=O)[O-])cc4F)c4ccc([nH]4)c(-c4c(F)cc(S(=O)(=O)[O-])cc4F)c4nc(c(-c5c(F)cc(S(=O)(=O)[O-])cc5F)c5ccc2[nH]5)C=C4)C=C3)cc1
REMARK SMILES IDX 28 1 27 2 26 3 25 4 24 5 23 6 22 7 2 8 1 9 3 10 4 11 5 12
REMARK SMILES IDX 6 13 21 14 7 15 14 16 8 17 9 18 13 19 10 20 12 21 11 22
REMARK SMILES IDX 15 23 16 24 20 25 17 26 19 27 18 28 29 29 30 30 31 31 32 32
REMARK SMILES IDX 33 33 34 34 35 35 36 36 37 37 38 38 102 39 39 40 101 41
REMARK SMILES IDX 40 42 41 43 42 44 95 45 43 46 100 47 94 48 96 49 44 50 99 51
REMARK SMILES IDX 93 52 92 53 45 55 79 56 58 57 78 58 59 59 62 60 77 61 97 62
REMARK SMILES IDX 60 63 61 64 76 66 98 67 63 68 46 69 47 70 56 71 48 72 49 73
REMARK SMILES IDX 55 74 57 75 50 76 51 77 52 78 53 79 54 80 80 81 81 82 90 83
REMARK SMILES IDX 82 84 83 85 89 86 91 87 84 88 85 89 86 90 87 91 88 92 64 93
REMARK SMILES IDX 65 94 74 95 66 96 67 97 73 98 75 99 68 100 69 101 70 102
REMARK SMILES IDX 71 103 72 104
REMARK H PARENT 96 54 62 65
REMARK Flexibility Score: inf
ROOT
ATOM      1  O   UNL     1       2.978  -0.370   2.823  1.00  0.00    -0.377 OA
ENDROOT
BRANCH   1   2
ATOM      2  C   UNL     1       1.935  -1.220   2.368  1.00  0.00     0.188 C 
BRANCH   2   3
ATOM      3  C   UNL     1       2.108  -1.666   0.909  1.00  0.00     0.188 C 
BRANCH   3   4
ATOM      4  O   UNL     1       3.415  -1.665   0.355  1.00  0.00    -0.376 OA
BRANCH   4   5
ATOM      5  C   UNL     1       4.185  -0.469   0.380  1.00  0.00     0.202 C 
BRANCH   5   6
ATOM      6  C   UNL     1       3.479   0.884   0.305  1.00  0.00     0.261 C 
BRANCH   6   7
ATOM      7  O   UNL     1       2.316   0.996  -0.527  1.00  0.00    -0.463 OA
BRANCH   7   8
ATOM      8  C   UNL     1       2.245   0.811  -1.853  1.00  0.00     0.306 C 
ATOM      9  O   UNL     1       1.293   1.280  -2.478  1.00  0.00    -0.252 OA
BRANCH   8  10
ATOM     10  C   UNL     1       3.254  -0.054  -2.554  1.00  0.00     0.132 C 
BRANCH  10  11
ATOM     11  C   UNL     1       4.406   0.692  -3.212  1.00  0.00     0.109 C 
BRANCH  11  12
ATOM     12  C   UNL     1       5.396   1.299  -2.278  1.00  0.00     0.196 A 
ATOM     13  N   UNL     1       6.384   0.733  -1.606  1.00  0.00    -0.213 NA
ATOM     14  O   UNL     1       5.225   2.630  -2.013  1.00  0.00    -0.440 OA
ATOM     15  C   UNL     1       6.833   1.735  -0.764  1.00  0.00     0.117 A 
ATOM     16  C   UNL     1       6.164   2.909  -1.056  1.00  0.00     0.162 A 
BRANCH  15  17
ATOM     17  C   UNL     1       7.772   1.554   0.333  1.00  0.00     0.004 A 
ATOM     18  C   UNL     1       7.483   2.066   1.612  1.00  0.00     0.010 A 
ATOM     19  C   UNL     1       8.992   0.904   0.132  1.00  0.00     0.010 A 
ATOM     20  C   UNL     1       8.419   1.989   2.647  1.00  0.00     0.001 A 
ATOM     21  C   UNL     1       9.931   0.829   1.170  1.00  0.00     0.001 A 
ATOM     22  C   UNL     1       9.650   1.383   2.420  1.00  0.00     0.000 A 
ENDBRANCH  15  17
BRANCH  16  23
ATOM     23  C   UNL     1       6.188   4.263  -0.546  1.00  0.00     0.020 A 
ATOM     24  C   UNL     1       5.038   4.836   0.013  1.00  0.00     0.012 A 
ATOM     25  C   UNL     1       7.387   4.984  -0.546  1.00  0.00     0.012 A 
ATOM     26  C   UNL     1       5.093   6.115   0.569  1.00  0.00     0.001 A 
ATOM     27  C   UNL     1       7.435   6.267  -0.002  1.00  0.00     0.001 A 
ATOM     28  C   UNL     1       6.289   6.830   0.556  1.00  0.00     0.000 A 
ENDBRANCH  16  23
ENDBRANCH  11  12
ENDBRANCH  10  11
ENDBRANCH   8  10
ENDBRANCH   7   8
ENDBRANCH   6   7
ENDBRANCH   5   6
ENDBRANCH   4   5
ENDBRANCH   3   4
ENDBRANCH   2   3
ENDBRANCH   1   2
BRANCH   1  29
ATOM     29  C   UNL     1       3.924  -0.964   3.709  1.00  0.00     0.188 C 
BRANCH  29  30
ATOM     30  C   UNL     1       4.666  -2.229   3.216  1.00  0.00     0.188 C 
BRANCH  30  31
ATOM     31  O   UNL     1       3.768  -3.191   2.689  1.00  0.00    -0.376 OA
BRANCH  31  32
ATOM     32  C   UNL     1       3.456  -4.344   3.440  1.00  0.00     0.202 C 
BRANCH  32  33
ATOM     33  C   UNL     1       2.825  -4.200   4.836  1.00  0.00     0.261 C 
BRANCH  33  34
ATOM     34  O   UNL     1       3.280  -3.117   5.655  1.00  0.00    -0.460 OA
BRANCH  34  35
ATOM     35  C   UNL     1       4.503  -3.230   6.217  1.00  0.00     0.338 C 
ATOM     36  O   UNL     1       5.242  -4.199   6.142  1.00  0.00    -0.246 OA
BRANCH  35  37
ATOM     37  C   UNL     1       4.910  -1.895   6.730  1.00  0.00     0.060 A 
ATOM     38  C   UNL     1       6.183  -1.416   6.390  1.00  0.00     0.016 A 
ATOM     39  C   UNL     1       4.051  -1.108   7.507  1.00  0.00     0.016 A 
ATOM     40  C   UNL     1       6.637  -0.202   6.903  1.00  0.00     0.010 A 
ATOM     41  C   UNL     1       4.513   0.103   8.038  1.00  0.00     0.010 A 
ATOM     42  C   UNL     1       5.834   0.520   7.795  1.00  0.00    -0.014 A 
BRANCH  42  43
ATOM     43  C   UNL     1       6.501   1.475   8.717  1.00  0.00     0.031 A 
ATOM     44  C   UNL     1       6.931   0.942  10.063  1.00  0.00     0.074 A 
ATOM     45  C   UNL     1       6.800   2.736   8.358  1.00  0.00     0.049 A 
ATOM     46  N   UNL     1       7.571   1.539  11.034  1.00  0.00    -0.248 NA
ATOM     47  C   UNL     1       6.593  -0.465  10.348  1.00  0.00     0.031 C 
ATOM     48  C   UNL     1       6.481   3.352   7.072  1.00  0.00     0.029 A 
ATOM     49  N   UNL     1       7.451   3.725   9.053  1.00  0.00    -0.354 N 
ATOM     50  C   UNL     1       7.703   0.586  12.039  1.00  0.00     0.074 A 
ATOM     51  C   UNL     1       7.045  -0.615  11.581  1.00  0.00     0.031 C 
ATOM     52  C   UNL     1       6.939   4.617   7.070  1.00  0.00     0.029 A 
ATOM     53  C   UNL     1       7.563   4.907   8.361  1.00  0.00     0.049 A 
ATOM     54  H   UNL     1       7.806   3.599   9.963  1.00  0.00     0.167 HD
ATOM     55  C   UNL     1       8.329   0.693  13.234  1.00  0.00     0.037 A 
ATOM     56  C   UNL     1       8.101   6.086   8.736  1.00  0.00     0.037 A 
ATOM     57  C   UNL     1       8.987   1.889  13.685  1.00  0.00     0.049 A 
ATOM     58  C   UNL     1       8.744   6.202  10.098  1.00  0.00     0.074 A 
ATOM     59  C   UNL     1       9.661   2.104  14.873  1.00  0.00     0.029 A 
ATOM     60  N   UNL     1       9.046   3.075  12.969  1.00  0.00    -0.354 N 
ATOM     61  N   UNL     1       8.880   5.288  11.031  1.00  0.00    -0.248 NA
ATOM     62  C   UNL     1       9.319   7.507  10.452  1.00  0.00     0.031 C 
ATOM     63  C   UNL     1      10.079   3.438  14.900  1.00  0.00     0.029 A 
ATOM     64  C   UNL     1       9.727   4.034  13.698  1.00  0.00     0.049 A 
ATOM     65  H   UNL     1       8.661   3.214  12.073  1.00  0.00     0.167 HD
ATOM     66  C   UNL     1       9.594   5.895  12.061  1.00  0.00     0.074 A 
ATOM     67  C   UNL     1       9.864   7.252  11.634  1.00  0.00     0.031 C 
ATOM     68  C   UNL     1       9.999   5.376  13.248  1.00  0.00     0.037 A 
BRANCH  55  69
ATOM     69  C   UNL     1       8.295  -0.502  14.147  1.00  0.00     0.058 A 
ATOM     70  C   UNL     1       9.007  -1.679  13.862  1.00  0.00     0.135 A 
ATOM     71  C   UNL     1       7.542  -0.465  15.332  1.00  0.00     0.135 A 
ATOM     72  F   UNL     1       9.722  -1.781  12.730  1.00  0.00    -0.206 F 
ATOM     73  C   UNL     1       8.951  -2.785  14.705  1.00  0.00     0.059 A 
ATOM     74  C   UNL     1       7.498  -1.547  16.205  1.00  0.00     0.059 A 
ATOM     75  F   UNL     1       6.834   0.631  15.648  1.00  0.00    -0.206 F 
ATOM     76  C   UNL     1       8.194  -2.708  15.876  1.00  0.00     0.060 A 
BRANCH  76  77
ATOM     77  S   UNL     1       8.137  -4.148  16.963  1.00  0.00     0.124 S 
ATOM     78  O   UNL     1       7.311  -5.067  16.186  1.00  0.00    -0.237 OA
ATOM     79  O   UNL     1       9.546  -4.506  17.079  1.00  0.00    -0.237 OA
ATOM     80  O   UNL     1       7.522  -3.630  18.181  1.00  0.00    -0.744 OA
ENDBRANCH  76  77
ENDBRANCH  55  69
BRANCH  56  81
ATOM     81  C   UNL     1       8.070   7.253   7.811  1.00  0.00     0.058 A 
ATOM     82  C   UNL     1       9.246   7.768   7.246  1.00  0.00     0.135 A 
ATOM     83  C   UNL     1       6.860   7.888   7.486  1.00  0.00     0.135 A 
ATOM     84  F   UNL     1      10.431   7.208   7.536  1.00  0.00    -0.206 F 
ATOM     85  C   UNL     1       9.229   8.878   6.405  1.00  0.00     0.059 A 
ATOM     86  C   UNL     1       6.814   8.980   6.625  1.00  0.00     0.059 A 
ATOM     87  F   UNL     1       5.704   7.433   7.994  1.00  0.00    -0.206 F 
ATOM     88  C   UNL     1       8.005   9.474   6.097  1.00  0.00     0.060 A 
BRANCH  88  89
ATOM     89  S   UNL     1       7.988  10.879   4.961  1.00  0.00     0.124 S 
ATOM     90  O   UNL     1       8.582  11.928   5.781  1.00  0.00    -0.237 OA
ATOM     91  O   UNL     1       8.807  10.388   3.857  1.00  0.00    -0.237 OA
ATOM     92  O   UNL     1       6.571  11.043   4.652  1.00  0.00    -0.744 OA
ENDBRANCH  88  89
ENDBRANCH  56  81
BRANCH  68  93
ATOM     93  C   UNL     1      10.836   6.252  14.143  1.00  0.00     0.058 A 
ATOM     94  C   UNL     1      10.304   7.366  14.811  1.00  0.00     0.135 A 
ATOM     95  C   UNL     1      12.189   5.943  14.364  1.00  0.00     0.135 A 
ATOM     96  F   UNL     1       9.017   7.706  14.639  1.00  0.00    -0.206 F 
ATOM     97  C   UNL     1      11.093   8.167  15.630  1.00  0.00     0.059 A 
ATOM     98  C   UNL     1      12.988   6.709  15.206  1.00  0.00     0.059 A 
ATOM     99  F   UNL     1      12.746   4.877  13.766  1.00  0.00    -0.206 F 
ATOM    100  C   UNL     1      12.436   7.832  15.819  1.00  0.00     0.060 A 
BRANCH 100 101
ATOM    101  S   UNL     1      13.450   8.878  16.884  1.00  0.00     0.124 S 
ATOM    102  O   UNL     1      13.640  10.055  16.043  1.00  0.00    -0.237 OA
ATOM    103  O   UNL     1      12.592   9.063  18.050  1.00  0.00    -0.237 OA
ATOM    104  O   UNL     1      14.645   8.072  17.114  1.00  0.00    -0.744 OA
ENDBRANCH 100 101
ENDBRANCH  68  93
ENDBRANCH  42  43
ENDBRANCH  35  37
ENDBRANCH  34  35
ENDBRANCH  33  34
ENDBRANCH  32  33
ENDBRANCH  31  32
ENDBRANCH  30  31
ENDBRANCH  29  30
ENDBRANCH   1  29
TORSDOF 27
