REMARK SMILES C[C@@H](CCO)Sc1cc(C(=O)OCCOCCOCCOCCOC(=O)c2ccc(-c3c4nc(c(-c5c(F)cc(S(=O)(=O)[O-])cc5F)c5ccc([nH]5)c(-c5c(F)cc(S(=O)(=O)[O-])cc5F)c5nc(c(-c6c(F)cc(S(=O)(=O)[O-])cc6F)c6ccc3[nH]6)C=C5)C=C4)cc2)c2ccccc2n1
REMARK SMILES IDX 17 1 16 2 15 3 14 4 13 5 12 6 10 7 11 8 9 9 7 10 8 11 99 12
REMARK SMILES IDX 98 13 93 14 97 15 94 16 96 17 95 18 6 19 2 20 1 21 3 22 4 23
REMARK SMILES IDX 5 24 18 26 19 27 20 28 21 29 22 30 23 31 24 32 25 33 26 34
REMARK SMILES IDX 27 35 28 36 92 37 29 38 91 39 30 40 31 41 32 42 85 43 33 44
REMARK SMILES IDX 90 45 84 46 86 47 34 48 89 49 83 50 82 51 35 53 69 54 48 55
REMARK SMILES IDX 68 56 49 57 52 58 67 59 87 60 50 61 51 62 66 64 88 65 53 66
REMARK SMILES IDX 36 67 37 68 46 69 38 70 39 71 45 72 47 73 40 74 41 75 42 76
REMARK SMILES IDX 43 77 44 78 70 79 71 80 80 81 72 82 73 83 79 84 81 85 74 86
REMARK SMILES IDX 75 87 76 88 77 89 78 90 54 91 55 92 64 93 56 94 57 95 63 96
REMARK SMILES IDX 65 97 58 98 59 99 60 100 61 101 62 102
REMARK H PARENT 5 25 86 52 52 63
REMARK Flexibility Score: inf
ROOT
ATOM      1  C   UNL     1      -2.356   5.380   2.784  1.00  0.00     0.188 C 
ENDROOT
BRANCH   1   2
ATOM      2  C   UNL     1      -0.852   5.557   3.059  1.00  0.00     0.188 C 
BRANCH   2   3
ATOM      3  O   UNL     1      -0.400   6.905   3.005  1.00  0.00    -0.376 OA
BRANCH   3   4
ATOM      4  C   UNL     1       0.524   7.200   1.966  1.00  0.00     0.202 C 
BRANCH   4   5
ATOM      5  C   UNL     1      -0.088   7.334   0.564  1.00  0.00     0.261 C 
BRANCH   5   6
ATOM      6  O   UNL     1      -0.918   6.231   0.167  1.00  0.00    -0.460 OA
BRANCH   6   7
ATOM      7  C   UNL     1      -0.278   5.140  -0.292  1.00  0.00     0.338 C 
ATOM      8  O   UNL     1       0.930   4.986  -0.383  1.00  0.00    -0.246 OA
BRANCH   7   9
ATOM      9  C   UNL     1      -1.232   4.021  -0.432  1.00  0.00     0.072 A 
ATOM     10  C   UNL     1      -1.674   1.777   0.265  1.00  0.00     0.098 A 
ATOM     11  C   UNL     1      -0.917   2.917   0.350  1.00  0.00     0.052 A 
ATOM     12  N   UNL     1      -2.722   1.691  -0.577  1.00  0.00    -0.241 NA
ATOM     13  C   UNL     1      -3.060   2.773  -1.318  1.00  0.00     0.072 A 
ATOM     14  C   UNL     1      -2.361   4.000  -1.261  1.00  0.00     0.015 A 
ATOM     15  C   UNL     1      -4.151   2.681  -2.174  1.00  0.00     0.029 A 
ATOM     16  C   UNL     1      -2.819   5.104  -2.018  1.00  0.00     0.011 A 
ATOM     17  C   UNL     1      -4.593   3.770  -2.932  1.00  0.00     0.002 A 
ATOM     18  C   UNL     1      -3.937   4.989  -2.838  1.00  0.00     0.001 A 
BRANCH  10  19
ATOM     19  S   UNL     1      -1.389   0.409   1.377  1.00  0.00    -0.103 SA
BRANCH  19  20
ATOM     20  C   UNL     1       0.374  -0.084   1.103  1.00  0.00     0.052 C 
ATOM     21  C   UNL     1       0.909   0.172  -0.304  1.00  0.00     0.020 C 
BRANCH  20  22
ATOM     22  C   UNL     1       1.361   0.317   2.227  1.00  0.00     0.043 C 
BRANCH  22  23
ATOM     23  C   UNL     1       1.583   1.797   2.511  1.00  0.00     0.157 C 
BRANCH  23  24
ATOM     24  O   UNL     1       0.513   2.364   3.258  1.00  0.00    -0.396 OA
ATOM     25  H   UNL     1      -0.310   2.290   2.750  1.00  0.00     0.210 HD
ENDBRANCH  23  24
ENDBRANCH  22  23
ENDBRANCH  20  22
ENDBRANCH  19  20
ENDBRANCH  10  19
ENDBRANCH   7   9
ENDBRANCH   6   7
ENDBRANCH   5   6
ENDBRANCH   4   5
ENDBRANCH   3   4
ENDBRANCH   2   3
ENDBRANCH   1   2
BRANCH   1  26
ATOM     26  O   UNL     1      -3.075   6.479   2.256  1.00  0.00    -0.377 OA
BRANCH  26  27
ATOM     27  C   UNL     1      -3.029   7.734   2.927  1.00  0.00     0.188 C 
BRANCH  27  28
ATOM     28  C   UNL     1      -2.706   7.829   4.435  1.00  0.00     0.188 C 
BRANCH  28  29
ATOM     29  O   UNL     1      -2.898   6.630   5.174  1.00  0.00    -0.376 OA
BRANCH  29  30
ATOM     30  C   UNL     1      -4.043   6.591   6.015  1.00  0.00     0.202 C 
BRANCH  30  31
ATOM     31  C   UNL     1      -5.370   6.444   5.264  1.00  0.00     0.261 C 
BRANCH  31  32
ATOM     32  O   UNL     1      -5.728   7.560   4.433  1.00  0.00    -0.460 OA
BRANCH  32  33
ATOM     33  C   UNL     1      -5.865   8.768   5.023  1.00  0.00     0.338 C 
ATOM     34  O   UNL     1      -5.764   9.031   6.208  1.00  0.00    -0.246 OA
BRANCH  33  35
ATOM     35  C   UNL     1      -5.976   9.764   3.942  1.00  0.00     0.060 A 
ATOM     36  C   UNL     1      -5.012  10.776   3.838  1.00  0.00     0.016 A 
ATOM     37  C   UNL     1      -7.004   9.659   3.003  1.00  0.00     0.016 A 
ATOM     38  C   UNL     1      -5.079  11.692   2.788  1.00  0.00     0.010 A 
ATOM     39  C   UNL     1      -7.082  10.590   1.968  1.00  0.00     0.010 A 
ATOM     40  C   UNL     1      -6.130  11.618   1.864  1.00  0.00    -0.014 A 
BRANCH  40  41
ATOM     41  C   UNL     1      -6.345  12.695   0.871  1.00  0.00     0.031 A 
ATOM     42  C   UNL     1      -7.289  13.809   1.221  1.00  0.00     0.074 A 
ATOM     43  C   UNL     1      -5.748  12.661  -0.333  1.00  0.00     0.049 A 
ATOM     44  N   UNL     1      -7.724  14.791   0.479  1.00  0.00    -0.248 NA
ATOM     45  C   UNL     1      -7.816  13.808   2.596  1.00  0.00     0.031 C 
ATOM     46  C   UNL     1      -4.780  11.657  -0.769  1.00  0.00     0.029 A 
ATOM     47  N   UNL     1      -5.889  13.490  -1.418  1.00  0.00    -0.354 N 
ATOM     48  C   UNL     1      -8.577  15.527   1.292  1.00  0.00     0.074 A 
ATOM     49  C   UNL     1      -8.617  14.861   2.577  1.00  0.00     0.031 C 
ATOM     50  C   UNL     1      -4.426  11.919  -2.040  1.00  0.00     0.029 A 
ATOM     51  C   UNL     1      -5.174  13.082  -2.518  1.00  0.00     0.049 A 
ATOM     52  H   UNL     1      -6.449  14.299  -1.409  1.00  0.00     0.167 HD
ATOM     53  C   UNL     1      -9.261  16.656   0.996  1.00  0.00     0.037 A 
ATOM     54  C   UNL     1      -5.154  13.573  -3.774  1.00  0.00     0.037 A 
ATOM     55  C   UNL     1      -9.239  17.295  -0.292  1.00  0.00     0.049 A 
ATOM     56  C   UNL     1      -6.019  14.758  -4.118  1.00  0.00     0.074 A 
ATOM     57  C   UNL     1      -9.884  18.452  -0.691  1.00  0.00     0.029 A 
ATOM     58  N   UNL     1      -8.550  16.819  -1.398  1.00  0.00    -0.354 N 
ATOM     59  N   UNL     1      -6.800  15.465  -3.335  1.00  0.00    -0.248 NA
ATOM     60  C   UNL     1      -6.014  15.203  -5.519  1.00  0.00     0.031 C 
ATOM     61  C   UNL     1      -9.629  18.645  -2.053  1.00  0.00     0.029 A 
ATOM     62  C   UNL     1      -8.787  17.635  -2.492  1.00  0.00     0.049 A 
ATOM     63  H   UNL     1      -7.977  16.018  -1.405  1.00  0.00     0.167 HD
ATOM     64  C   UNL     1      -7.368  16.445  -4.144  1.00  0.00     0.074 A 
ATOM     65  C   UNL     1      -6.832  16.248  -5.476  1.00  0.00     0.031 C 
ATOM     66  C   UNL     1      -8.252  17.419  -3.815  1.00  0.00     0.037 A 
BRANCH  53  67
ATOM     67  C   UNL     1     -10.120  17.240   2.081  1.00  0.00     0.058 A 
ATOM     68  C   UNL     1      -9.560  17.872   3.203  1.00  0.00     0.135 A 
ATOM     69  C   UNL     1     -11.519  17.155   2.005  1.00  0.00     0.135 A 
ATOM     70  F   UNL     1      -8.227  17.962   3.334  1.00  0.00    -0.206 F 
ATOM     71  C   UNL     1     -10.357  18.364   4.231  1.00  0.00     0.059 A 
ATOM     72  C   UNL     1     -12.336  17.664   3.010  1.00  0.00     0.059 A 
ATOM     73  F   UNL     1     -12.104  16.557   0.956  1.00  0.00    -0.206 F 
ATOM     74  C   UNL     1     -11.744  18.248   4.129  1.00  0.00     0.060 A 
BRANCH  74  75
ATOM     75  S   UNL     1     -12.764  18.863   5.485  1.00  0.00     0.124 S 
ATOM     76  O   UNL     1     -12.540  17.840   6.502  1.00  0.00    -0.237 OA
ATOM     77  O   UNL     1     -12.168  20.168   5.758  1.00  0.00    -0.237 OA
ATOM     78  O   UNL     1     -14.106  18.898   4.913  1.00  0.00    -0.744 OA
ENDBRANCH  74  75
ENDBRANCH  53  67
BRANCH  54  79
ATOM     79  C   UNL     1      -4.303  12.927  -4.808  1.00  0.00     0.058 A 
ATOM     80  C   UNL     1      -3.161  13.571  -5.305  1.00  0.00     0.135 A 
ATOM     81  C   UNL     1      -4.604  11.650  -5.308  1.00  0.00     0.135 A 
ATOM     82  F   UNL     1      -2.843  14.800  -4.872  1.00  0.00    -0.206 F 
ATOM     83  C   UNL     1      -2.343  12.972  -6.257  1.00  0.00     0.059 A 
ATOM     84  C   UNL     1      -3.789  11.021  -6.244  1.00  0.00     0.059 A 
ATOM     85  F   UNL     1      -5.685  10.990  -4.863  1.00  0.00    -0.206 F 
ATOM     86  C   UNL     1      -2.661  11.691  -6.714  1.00  0.00     0.060 A 
BRANCH  86  87
ATOM     87  S   UNL     1      -1.548  10.890  -7.890  1.00  0.00     0.124 S 
ATOM     88  O   UNL     1      -1.824  11.636  -9.112  1.00  0.00    -0.237 OA
ATOM     89  O   UNL     1      -0.243  11.121  -7.280  1.00  0.00    -0.237 OA
ATOM     90  O   UNL     1      -1.998   9.501  -7.883  1.00  0.00    -0.744 OA
ENDBRANCH  86  87
ENDBRANCH  54  79
BRANCH  66  91
ATOM     91  C   UNL     1      -8.702  18.354  -4.904  1.00  0.00     0.058 A 
ATOM     92  C   UNL     1      -9.622  17.948  -5.883  1.00  0.00     0.135 A 
ATOM     93  C   UNL     1      -8.276  19.692  -4.918  1.00  0.00     0.135 A 
ATOM     94  F   UNL     1     -10.053  16.677  -5.919  1.00  0.00    -0.206 F 
ATOM     95  C   UNL     1     -10.102  18.835  -6.841  1.00  0.00     0.059 A 
ATOM     96  C   UNL     1      -8.761  20.602  -5.853  1.00  0.00     0.059 A 
ATOM     97  F   UNL     1      -7.403  20.134  -3.999  1.00  0.00    -0.206 F 
ATOM     98  C   UNL     1      -9.672  20.163  -6.813  1.00  0.00     0.060 A 
BRANCH  98  99
ATOM     99  S   UNL     1     -10.353  21.319  -8.022  1.00  0.00     0.124 S 
ATOM    100  O   UNL     1      -9.677  20.898  -9.245  1.00  0.00    -0.237 OA
ATOM    101  O   UNL     1     -11.783  21.031  -7.957  1.00  0.00    -0.237 OA
ATOM    102  O   UNL     1      -9.959  22.625  -7.504  1.00  0.00    -0.744 OA
ENDBRANCH  98  99
ENDBRANCH  66  91
ENDBRANCH  40  41
ENDBRANCH  33  35
ENDBRANCH  32  33
ENDBRANCH  31  32
ENDBRANCH  30  31
ENDBRANCH  29  30
ENDBRANCH  28  29
ENDBRANCH  27  28
ENDBRANCH  26  27
ENDBRANCH   1  26
TORSDOF 28
