REMARK SMILES CC1(C)[C@@]2(C(=O)OCCOCCOCCOCCOC(=O)c3ccc(-c4c5nc(c(-c6c(F)cc(S(=O)(=O)[O-])cc6F)c6ccc([nH]6)c(-c6c(F)cc(S(=O)(=O)[O-])cc6F)c6nc(c(-c7c(F)cc(S(=O)(=O)[O-])cc7F)c7ccc4[nH]7)C=C6)C=C5)cc3)CC[C@]1(C)/C(=N/NC(=O)c1ccc(Cl)cc1)C2
REMARK SMILES IDX 14 1 13 2 12 3 11 4 10 5 9 6 8 7 7 8 5 9 6 10 4 11 1 12 2 13
REMARK SMILES IDX 3 14 90 15 88 16 104 17 89 18 91 19 92 20 93 21 94 22 95 23
REMARK SMILES IDX 96 25 97 26 98 27 103 28 99 29 102 30 100 31 101 32 15 33
REMARK SMILES IDX 16 34 17 35 18 36 19 37 20 38 21 39 22 40 23 41 87 42 24 43
REMARK SMILES IDX 86 44 25 45 26 46 27 47 80 48 28 49 85 50 79 51 81 52 29 53
REMARK SMILES IDX 84 54 78 55 77 56 30 58 64 59 43 60 63 61 44 62 47 63 62 64
REMARK SMILES IDX 82 65 45 66 46 67 61 69 83 70 48 71 31 72 32 73 41 74 33 75
REMARK SMILES IDX 34 76 40 77 42 78 35 79 36 80 37 81 38 82 39 83 65 84 66 85
REMARK SMILES IDX 75 86 67 87 68 88 74 89 76 90 69 91 70 92 71 93 72 94 73 95
REMARK SMILES IDX 49 96 50 97 59 98 51 99 52 100 58 101 60 102 53 103 54 104
REMARK SMILES IDX 55 105 56 106 57 107
REMARK H PARENT 94 24 81 57 47 68
REMARK Flexibility Score: inf
ROOT
ATOM      1  C   UNL     1      -2.798  -2.034   5.800  1.00  0.00     0.188 C 
ENDROOT
BRANCH   1   2
ATOM      2  O   UNL     1      -3.133  -2.047   4.418  1.00  0.00    -0.377 OA
BRANCH   2   3
ATOM      3  C   UNL     1      -2.039  -1.938   3.506  1.00  0.00     0.188 C 
BRANCH   3   4
ATOM      4  C   UNL     1      -0.843  -1.072   3.934  1.00  0.00     0.188 C 
BRANCH   4   5
ATOM      5  O   UNL     1      -1.120   0.245   4.416  1.00  0.00    -0.376 OA
BRANCH   5   6
ATOM      6  C   UNL     1      -2.228   0.945   3.856  1.00  0.00     0.202 C 
BRANCH   6   7
ATOM      7  C   UNL     1      -1.933   1.616   2.520  1.00  0.00     0.261 C 
BRANCH   7   8
ATOM      8  O   UNL     1      -1.673   0.655   1.483  1.00  0.00    -0.463 OA
BRANCH   8   9
ATOM      9  C   UNL     1      -0.374   0.507   1.107  1.00  0.00     0.313 C 
ATOM     10  O   UNL     1       0.577   1.091   1.605  1.00  0.00    -0.252 OA
BRANCH   9  11
ATOM     11  C   UNL     1      -0.277  -0.434  -0.072  1.00  0.00     0.079 C 
ATOM     12  C   UNL     1       2.195   0.111  -0.712  1.00  0.00     0.013 C 
ATOM     13  C   UNL     1       1.129  -0.976  -0.458  1.00  0.00    -0.008 C 
ATOM     14  C   UNL     1       1.750  -1.973   0.548  1.00  0.00     0.013 C 
ATOM     15  C   UNL     1       0.569  -1.653  -1.751  1.00  0.00     0.014 C 
ATOM     16  C   UNL     1      -0.739   0.315  -1.363  1.00  0.00     0.021 C 
ATOM     17  C   UNL     1      -1.114  -1.735   0.062  1.00  0.00     0.073 C 
ATOM     18  C   UNL     1      -0.106  -0.496  -2.508  1.00  0.00     0.014 C 
ATOM     19  C   UNL     1       1.550  -2.468  -2.565  1.00  0.00     0.018 C 
ATOM     20  C   UNL     1      -0.638  -2.439  -1.179  1.00  0.00     0.046 C 
ATOM     21  N   UNL     1      -1.035  -3.510  -1.785  1.00  0.00    -0.181 NA
BRANCH  21  22
ATOM     22  N   UNL     1      -2.008  -4.373  -1.411  1.00  0.00    -0.243 N 
ATOM     23  C   UNL     1      -3.232  -4.314  -0.788  1.00  0.00     0.271 C 
ATOM     24  H   UNL     1      -1.775  -5.298  -1.653  1.00  0.00     0.194 HD
ATOM     25  O   UNL     1      -3.790  -5.373  -0.488  1.00  0.00    -0.267 OA
BRANCH  23  26
ATOM     26  C   UNL     1      -3.941  -3.065  -0.481  1.00  0.00     0.041 A 
ATOM     27  C   UNL     1      -4.498  -2.942   0.802  1.00  0.00     0.015 A 
ATOM     28  C   UNL     1      -4.083  -2.033  -1.415  1.00  0.00     0.015 A 
ATOM     29  C   UNL     1      -5.106  -1.748   1.188  1.00  0.00     0.021 A 
ATOM     30  C   UNL     1      -4.695  -0.836  -1.022  1.00  0.00     0.021 A 
ATOM     31  C   UNL     1      -5.179  -0.691   0.283  1.00  0.00     0.041 A 
ATOM     32  Cl  UNL     1      -5.828   0.816   0.795  1.00  0.00    -0.084 Cl
ENDBRANCH  23  26
ENDBRANCH  21  22
ENDBRANCH   9  11
ENDBRANCH   8   9
ENDBRANCH   7   8
ENDBRANCH   6   7
ENDBRANCH   5   6
ENDBRANCH   4   5
ENDBRANCH   3   4
ENDBRANCH   2   3
ENDBRANCH   1   2
BRANCH   1  33
ATOM     33  C   UNL     1      -2.106  -3.293   6.324  1.00  0.00     0.188 C 
BRANCH  33  34
ATOM     34  O   UNL     1      -1.219  -3.885   5.374  1.00  0.00    -0.376 OA
BRANCH  34  35
ATOM     35  C   UNL     1      -1.417  -5.293   5.232  1.00  0.00     0.202 C 
BRANCH  35  36
ATOM     36  C   UNL     1      -2.486  -5.683   4.194  1.00  0.00     0.261 C 
BRANCH  36  37
ATOM     37  O   UNL     1      -3.749  -5.005   4.290  1.00  0.00    -0.460 OA
BRANCH  37  38
ATOM     38  C   UNL     1      -4.553  -5.354   5.313  1.00  0.00     0.338 C 
ATOM     39  O   UNL     1      -4.280  -6.118   6.232  1.00  0.00    -0.246 OA
BRANCH  38  40
ATOM     40  C   UNL     1      -5.820  -4.608   5.205  1.00  0.00     0.060 A 
ATOM     41  C   UNL     1      -6.150  -3.657   6.177  1.00  0.00     0.016 A 
ATOM     42  C   UNL     1      -6.723  -4.916   4.184  1.00  0.00     0.016 A 
ATOM     43  C   UNL     1      -7.394  -3.020   6.137  1.00  0.00     0.010 A 
ATOM     44  C   UNL     1      -7.977  -4.296   4.160  1.00  0.00     0.010 A 
ATOM     45  C   UNL     1      -8.329  -3.365   5.152  1.00  0.00    -0.014 A 
BRANCH  45  46
ATOM     46  C   UNL     1      -9.732  -2.892   5.262  1.00  0.00     0.031 A 
ATOM     47  C   UNL     1     -10.729  -3.753   5.990  1.00  0.00     0.074 A 
ATOM     48  C   UNL     1     -10.122  -1.725   4.720  1.00  0.00     0.049 A 
ATOM     49  N   UNL     1     -12.008  -3.560   6.188  1.00  0.00    -0.248 NA
ATOM     50  C   UNL     1     -10.210  -5.001   6.571  1.00  0.00     0.031 C 
ATOM     51  C   UNL     1      -9.251  -0.795   4.005  1.00  0.00     0.029 A 
ATOM     52  N   UNL     1     -11.361  -1.135   4.672  1.00  0.00    -0.354 N 
ATOM     53  C   UNL     1     -12.446  -4.657   6.921  1.00  0.00     0.074 A 
ATOM     54  C   UNL     1     -11.303  -5.526   7.104  1.00  0.00     0.031 C 
ATOM     55  C   UNL     1      -9.990   0.237   3.561  1.00  0.00     0.029 A 
ATOM     56  C   UNL     1     -11.388   0.029   3.942  1.00  0.00     0.049 A 
ATOM     57  H   UNL     1     -12.155  -1.510   5.118  1.00  0.00     0.167 HD
ATOM     58  C   UNL     1     -13.686  -4.917   7.403  1.00  0.00     0.037 A 
ATOM     59  C   UNL     1     -12.425   0.821   3.599  1.00  0.00     0.037 A 
ATOM     60  C   UNL     1     -14.830  -4.071   7.186  1.00  0.00     0.049 A 
ATOM     61  C   UNL     1     -13.811   0.486   4.088  1.00  0.00     0.074 A 
ATOM     62  C   UNL     1     -16.127  -4.241   7.638  1.00  0.00     0.029 A 
ATOM     63  N   UNL     1     -14.820  -2.904   6.434  1.00  0.00    -0.354 N 
ATOM     64  N   UNL     1     -14.204  -0.529   4.822  1.00  0.00    -0.248 NA
ATOM     65  C   UNL     1     -14.893   1.407   3.711  1.00  0.00     0.031 C 
ATOM     66  C   UNL     1     -16.911  -3.205   7.118  1.00  0.00     0.029 A 
ATOM     67  C   UNL     1     -16.093  -2.358   6.386  1.00  0.00     0.049 A 
ATOM     68  H   UNL     1     -14.025  -2.520   5.999  1.00  0.00     0.167 HD
ATOM     69  C   UNL     1     -15.573  -0.360   5.009  1.00  0.00     0.074 A 
ATOM     70  C   UNL     1     -15.938   0.862   4.321  1.00  0.00     0.031 C 
ATOM     71  C   UNL     1     -16.446  -1.143   5.692  1.00  0.00     0.037 A 
BRANCH  58  72
ATOM     72  C   UNL     1     -13.862  -6.194   8.178  1.00  0.00     0.058 A 
ATOM     73  C   UNL     1     -13.304  -6.364   9.456  1.00  0.00     0.135 A 
ATOM     74  C   UNL     1     -14.577  -7.270   7.628  1.00  0.00     0.135 A 
ATOM     75  F   UNL     1     -12.597  -5.373  10.023  1.00  0.00    -0.206 F 
ATOM     76  C   UNL     1     -13.405  -7.572  10.139  1.00  0.00     0.059 A 
ATOM     77  C   UNL     1     -14.715  -8.478   8.306  1.00  0.00     0.059 A 
ATOM     78  F   UNL     1     -15.133  -7.162   6.412  1.00  0.00    -0.206 F 
ATOM     79  C   UNL     1     -14.104  -8.627   9.551  1.00  0.00     0.060 A 
BRANCH  79  80
ATOM     80  S   UNL     1     -14.188 -10.203  10.426  1.00  0.00     0.124 S 
ATOM     81  O   UNL     1     -12.838 -10.720  10.225  1.00  0.00    -0.237 OA
ATOM     82  O   UNL     1     -14.510  -9.790  11.788  1.00  0.00    -0.237 OA
ATOM     83  O   UNL     1     -15.247 -10.925   9.727  1.00  0.00    -0.744 OA
ENDBRANCH  79  80
ENDBRANCH  58  72
BRANCH  59  84
ATOM     84  C   UNL     1     -12.182   2.002   2.729  1.00  0.00     0.058 A 
ATOM     85  C   UNL     1     -12.241   3.308   3.235  1.00  0.00     0.135 A 
ATOM     86  C   UNL     1     -11.842   1.840   1.376  1.00  0.00     0.135 A 
ATOM     87  F   UNL     1     -12.577   3.516   4.517  1.00  0.00    -0.206 F 
ATOM     88  C   UNL     1     -11.964   4.413   2.434  1.00  0.00     0.059 A 
ATOM     89  C   UNL     1     -11.539   2.927   0.561  1.00  0.00     0.059 A 
ATOM     90  F   UNL     1     -11.769   0.610   0.844  1.00  0.00    -0.206 F 
ATOM     91  C   UNL     1     -11.603   4.211   1.101  1.00  0.00     0.060 A 
BRANCH  91  92
ATOM     92  S   UNL     1     -11.154   5.644   0.096  1.00  0.00     0.124 S 
ATOM     93  O   UNL     1     -12.454   6.264  -0.131  1.00  0.00    -0.237 OA
ATOM     94  O   UNL     1     -10.248   6.367   0.982  1.00  0.00    -0.237 OA
ATOM     95  O   UNL     1     -10.525   5.048  -1.079  1.00  0.00    -0.744 OA
ENDBRANCH  91  92
ENDBRANCH  59  84
BRANCH  71  96
ATOM     96  C   UNL     1     -17.883  -0.698   5.753  1.00  0.00     0.058 A 
ATOM     97  C   UNL     1     -18.735  -0.794   4.641  1.00  0.00     0.135 A 
ATOM     98  C   UNL     1     -18.432  -0.228   6.958  1.00  0.00     0.135 A 
ATOM     99  F   UNL     1     -18.262  -1.232   3.464  1.00  0.00    -0.206 F 
ATOM    100  C   UNL     1     -20.075  -0.422   4.717  1.00  0.00     0.059 A 
ATOM    101  C   UNL     1     -19.774   0.125   7.063  1.00  0.00     0.059 A 
ATOM    102  F   UNL     1     -17.666  -0.127   8.056  1.00  0.00    -0.206 F 
ATOM    103  C   UNL     1     -20.586   0.035   5.933  1.00  0.00     0.060 A 
BRANCH 103 104
ATOM    104  S   UNL     1     -22.334   0.480   6.028  1.00  0.00     0.124 S 
ATOM    105  O   UNL     1     -22.351   1.757   5.322  1.00  0.00    -0.237 OA
ATOM    106  O   UNL     1     -22.979  -0.634   5.340  1.00  0.00    -0.237 OA
ATOM    107  O   UNL     1     -22.588   0.553   7.464  1.00  0.00    -0.744 OA
ENDBRANCH 103 104
ENDBRANCH  71  96
ENDBRANCH  45  46
ENDBRANCH  38  40
ENDBRANCH  37  38
ENDBRANCH  36  37
ENDBRANCH  35  36
ENDBRANCH  34  35
ENDBRANCH  33  34
ENDBRANCH   1  33
TORSDOF 25
