REMARK SMILES O=C(OCCOCCOCCOCCOC(=O)c1cc(Cl)c2c(c1)[C@H]1C=CC[C@H]1[C@H](c1ccc(S(=O)(=O)N3CCOCC3)cc1)N2)c1ccc(-c2c3nc(c(-c4c(F)cc(S(=O)(=O)[O-])cc4F)c4ccc([nH]4)c(-c4c(F)cc(S(=O)(=O)[O-])cc4F)c4nc(c(-c5c(F)cc(S(=O)(=O)[O-])cc5F)c5ccc2[nH]5)C=C4)C=C3)cc1
REMARK SMILES IDX 9 1 8 2 7 3 6 4 5 5 4 6 3 7 2 8 1 9 47 10 48 11 112 12 49 13
REMARK SMILES IDX 111 14 50 15 51 16 52 17 105 18 53 19 110 20 104 21 106 22
REMARK SMILES IDX 54 23 109 24 103 25 102 26 55 28 89 29 68 30 88 31 69 32
REMARK SMILES IDX 72 33 87 34 107 35 70 36 71 37 86 39 108 40 73 41 56 42
REMARK SMILES IDX 57 43 66 44 58 45 59 46 65 47 67 48 60 49 61 50 62 51 63 52
REMARK SMILES IDX 64 53 90 54 91 55 100 56 92 57 93 58 99 59 101 60 94 61
REMARK SMILES IDX 95 62 96 63 97 64 98 65 74 66 75 67 84 68 76 69 77 70 83 71
REMARK SMILES IDX 85 72 78 73 79 74 80 75 81 76 82 77 10 78 11 79 12 80 13 81
REMARK SMILES IDX 14 82 15 83 16 84 17 85 18 86 19 87 24 88 20 89 23 90 21 91
REMARK SMILES IDX 22 92 25 93 46 94 26 95 29 96 30 97 27 99 28 100 31 101
REMARK SMILES IDX 32 102 45 103 33 104 44 105 34 106 35 107 36 108 37 109
REMARK SMILES IDX 38 110 39 111 43 112 40 113 42 114 41 115
REMARK H PARENT 106 27 72 38 46 98
REMARK Flexibility Score: inf
ROOT
ATOM      1  O   UNL     1       3.086   2.539  -2.405  1.00  0.00    -0.377 OA
ENDROOT
BRANCH   1   2
ATOM      2  C   UNL     1       2.151   2.168  -1.412  1.00  0.00     0.188 C 
BRANCH   2   3
ATOM      3  C   UNL     1       2.597   1.114  -0.402  1.00  0.00     0.188 C 
BRANCH   3   4
ATOM      4  O   UNL     1       3.923   0.625  -0.597  1.00  0.00    -0.376 OA
BRANCH   4   5
ATOM      5  C   UNL     1       4.050  -0.433  -1.535  1.00  0.00     0.202 C 
BRANCH   5   6
ATOM      6  C   UNL     1       4.195  -1.776  -0.824  1.00  0.00     0.261 C 
BRANCH   6   7
ATOM      7  O   UNL     1       2.971  -2.160  -0.171  1.00  0.00    -0.460 OA
BRANCH   7   8
ATOM      8  C   UNL     1       2.491  -1.911   1.068  1.00  0.00     0.338 C 
ATOM      9  O   UNL     1       1.409  -2.428   1.354  1.00  0.00    -0.246 OA
BRANCH   8  10
ATOM     10  C   UNL     1       3.124  -1.027   2.109  1.00  0.00     0.060 A 
ATOM     11  C   UNL     1       4.354  -0.369   2.019  1.00  0.00     0.016 A 
ATOM     12  C   UNL     1       2.384  -0.841   3.297  1.00  0.00     0.016 A 
ATOM     13  C   UNL     1       4.834   0.435   3.055  1.00  0.00     0.010 A 
ATOM     14  C   UNL     1       2.881  -0.087   4.366  1.00  0.00     0.010 A 
ATOM     15  C   UNL     1       4.131   0.521   4.256  1.00  0.00    -0.014 A 
BRANCH  15  16
ATOM     16  C   UNL     1       4.867   0.969   5.455  1.00  0.00     0.031 A 
ATOM     17  C   UNL     1       5.830  -0.015   6.064  1.00  0.00     0.074 A 
ATOM     18  C   UNL     1       4.747   2.217   5.935  1.00  0.00     0.049 A 
ATOM     19  N   UNL     1       6.680   0.151   7.039  1.00  0.00    -0.248 NA
ATOM     20  C   UNL     1       5.867  -1.361   5.457  1.00  0.00     0.031 C 
ATOM     21  C   UNL     1       3.904   3.268   5.367  1.00  0.00     0.029 A 
ATOM     22  N   UNL     1       5.351   2.813   7.012  1.00  0.00    -0.354 N 
ATOM     23  C   UNL     1       7.388  -1.042   7.121  1.00  0.00     0.074 A 
ATOM     24  C   UNL     1       6.857  -1.935   6.120  1.00  0.00     0.031 C 
ATOM     25  C   UNL     1       4.033   4.380   6.115  1.00  0.00     0.029 A 
ATOM     26  C   UNL     1       4.950   4.110   7.221  1.00  0.00     0.049 A 
ATOM     27  H   UNL     1       6.010   2.354   7.581  1.00  0.00     0.167 HD
ATOM     28  C   UNL     1       8.392  -1.366   7.965  1.00  0.00     0.037 A 
ATOM     29  C   UNL     1       5.282   4.965   8.210  1.00  0.00     0.037 A 
ATOM     30  C   UNL     1       8.828  -0.515   9.034  1.00  0.00     0.049 A 
ATOM     31  C   UNL     1       6.265   4.509   9.259  1.00  0.00     0.074 A 
ATOM     32  C   UNL     1       9.768  -0.773  10.012  1.00  0.00     0.029 A 
ATOM     33  N   UNL     1       8.315   0.749   9.285  1.00  0.00    -0.354 N 
ATOM     34  N   UNL     1       6.939   3.384   9.324  1.00  0.00    -0.248 NA
ATOM     35  C   UNL     1       6.525   5.429  10.376  1.00  0.00     0.031 C 
ATOM     36  C   UNL     1       9.784   0.317  10.889  1.00  0.00     0.029 A 
ATOM     37  C   UNL     1       8.891   1.273  10.426  1.00  0.00     0.049 A 
ATOM     38  H   UNL     1       7.641   1.206   8.731  1.00  0.00     0.167 HD
ATOM     39  C   UNL     1       7.714   3.466  10.476  1.00  0.00     0.074 A 
ATOM     40  C   UNL     1       7.433   4.757  11.073  1.00  0.00     0.031 C 
ATOM     41  C   UNL     1       8.582   2.562  10.995  1.00  0.00     0.037 A 
BRANCH  28  42
ATOM     42  C   UNL     1       9.026  -2.713   7.787  1.00  0.00     0.058 A 
ATOM     43  C   UNL     1       9.918  -2.962   6.732  1.00  0.00     0.135 A 
ATOM     44  C   UNL     1       8.728  -3.768   8.662  1.00  0.00     0.135 A 
ATOM     45  F   UNL     1      10.207  -1.996   5.846  1.00  0.00    -0.206 F 
ATOM     46  C   UNL     1      10.487  -4.218   6.546  1.00  0.00     0.059 A 
ATOM     47  C   UNL     1       9.298  -5.027   8.505  1.00  0.00     0.059 A 
ATOM     48  F   UNL     1       7.861  -3.584   9.670  1.00  0.00    -0.206 F 
ATOM     49  C   UNL     1      10.170  -5.244   7.438  1.00  0.00     0.060 A 
BRANCH  49  50
ATOM     50  S   UNL     1      10.913  -6.868   7.177  1.00  0.00     0.124 S 
ATOM     51  O   UNL     1      10.230  -7.310   5.965  1.00  0.00    -0.237 OA
ATOM     52  O   UNL     1      12.327  -6.541   7.023  1.00  0.00    -0.237 OA
ATOM     53  O   UNL     1      10.570  -7.600   8.392  1.00  0.00    -0.744 OA
ENDBRANCH  49  50
ENDBRANCH  28  42
BRANCH  29  54
ATOM     54  C   UNL     1       4.664   6.317   8.270  1.00  0.00     0.058 A 
ATOM     55  C   UNL     1       5.422   7.476   8.048  1.00  0.00     0.135 A 
ATOM     56  C   UNL     1       3.297   6.477   8.551  1.00  0.00     0.135 A 
ATOM     57  F   UNL     1       6.735   7.379   7.790  1.00  0.00    -0.206 F 
ATOM     58  C   UNL     1       4.850   8.744   8.103  1.00  0.00     0.059 A 
ATOM     59  C   UNL     1       2.698   7.733   8.592  1.00  0.00     0.059 A 
ATOM     60  F   UNL     1       2.526   5.402   8.772  1.00  0.00    -0.206 F 
ATOM     61  C   UNL     1       3.484   8.862   8.371  1.00  0.00     0.060 A 
BRANCH  61  62
ATOM     62  S   UNL     1       2.742  10.509   8.387  1.00  0.00     0.124 S 
ATOM     63  O   UNL     1       3.296  11.071   9.614  1.00  0.00    -0.237 OA
ATOM     64  O   UNL     1       3.241  11.080   7.140  1.00  0.00    -0.237 OA
ATOM     65  O   UNL     1       1.309  10.232   8.412  1.00  0.00    -0.744 OA
ENDBRANCH  61  62
ENDBRANCH  29  54
BRANCH  41  66
ATOM     66  C   UNL     1       9.292   2.926  12.265  1.00  0.00     0.058 A 
ATOM     67  C   UNL     1       8.639   2.878  13.505  1.00  0.00     0.135 A 
ATOM     68  C   UNL     1      10.666   3.214  12.252  1.00  0.00     0.135 A 
ATOM     69  F   UNL     1       7.325   2.610  13.568  1.00  0.00    -0.206 F 
ATOM     70  C   UNL     1       9.326   3.106  14.693  1.00  0.00     0.059 A 
ATOM     71  C   UNL     1      11.377   3.421  13.428  1.00  0.00     0.059 A 
ATOM     72  F   UNL     1      11.337   3.257  11.089  1.00  0.00    -0.206 F 
ATOM     73  C   UNL     1      10.697   3.368  14.644  1.00  0.00     0.060 A 
BRANCH  73  74
ATOM     74  S   UNL     1      11.588   3.590  16.198  1.00  0.00     0.124 S 
ATOM     75  O   UNL     1      11.128   4.910  16.614  1.00  0.00    -0.237 OA
ATOM     76  O   UNL     1      11.104   2.469  16.997  1.00  0.00    -0.237 OA
ATOM     77  O   UNL     1      12.990   3.509  15.800  1.00  0.00    -0.744 OA
ENDBRANCH  73  74
ENDBRANCH  41  66
ENDBRANCH  15  16
ENDBRANCH   8  10
ENDBRANCH   7   8
ENDBRANCH   6   7
ENDBRANCH   5   6
ENDBRANCH   4   5
ENDBRANCH   3   4
ENDBRANCH   2   3
ENDBRANCH   1   2
BRANCH   1  78
ATOM     78  C   UNL     1       4.394   2.929  -2.012  1.00  0.00     0.188 C 
BRANCH  78  79
ATOM     79  C   UNL     1       4.708   3.561  -0.645  1.00  0.00     0.188 C 
BRANCH  79  80
ATOM     80  O   UNL     1       3.612   4.221  -0.029  1.00  0.00    -0.376 OA
BRANCH  80  81
ATOM     81  C   UNL     1       3.702   5.643  -0.005  1.00  0.00     0.202 C 
BRANCH  81  82
ATOM     82  C   UNL     1       2.990   6.274  -1.203  1.00  0.00     0.261 C 
BRANCH  82  83
ATOM     83  O   UNL     1       3.546   5.944  -2.489  1.00  0.00    -0.460 OA
BRANCH  83  84
ATOM     84  C   UNL     1       4.803   6.356  -2.765  1.00  0.00     0.338 C 
ATOM     85  O   UNL     1       5.564   6.968  -2.040  1.00  0.00    -0.246 OA
BRANCH  84  86
ATOM     86  C   UNL     1       5.169   5.792  -4.082  1.00  0.00     0.062 A 
ATOM     87  C   UNL     1       4.361   6.023  -5.191  1.00  0.00     0.038 A 
ATOM     88  C   UNL     1       6.264   4.922  -4.172  1.00  0.00     0.022 A 
ATOM     89  C   UNL     1       4.676   5.398  -6.396  1.00  0.00     0.065 A 
ATOM     90  C   UNL     1       6.523   4.220  -5.364  1.00  0.00    -0.015 A 
ATOM     91  Cl  UNL     1       3.672   5.733  -7.769  1.00  0.00    -0.082 Cl
ATOM     92  C   UNL     1       5.753   4.489  -6.504  1.00  0.00     0.057 A 
ATOM     93  C   UNL     1       7.598   3.169  -5.392  1.00  0.00     0.049 C 
ATOM     94  N   UNL     1       6.088   3.933  -7.726  1.00  0.00    -0.376 N 
ATOM     95  C   UNL     1       7.177   1.800  -4.913  1.00  0.00    -0.023 C 
ATOM     96  C   UNL     1       8.138   2.841  -6.795  1.00  0.00     0.031 C 
ATOM     97  C   UNL     1       7.014   2.824  -7.860  1.00  0.00     0.114 C 
ATOM     98  H   UNL     1       5.681   4.306  -8.540  1.00  0.00     0.161 HD
ATOM     99  C   UNL     1       7.824   0.837  -5.584  1.00  0.00    -0.030 C 
ATOM    100  C   UNL     1       8.733   1.428  -6.618  1.00  0.00     0.034 C 
BRANCH  97 101
ATOM    101  C   UNL     1       7.601   2.881  -9.266  1.00  0.00    -0.025 A 
ATOM    102  C   UNL     1       8.196   4.061  -9.751  1.00  0.00     0.007 A 
ATOM    103  C   UNL     1       7.558   1.753 -10.099  1.00  0.00     0.007 A 
ATOM    104  C   UNL     1       8.776   4.101 -11.018  1.00  0.00     0.022 A 
ATOM    105  C   UNL     1       8.113   1.799 -11.379  1.00  0.00     0.022 A 
ATOM    106  C   UNL     1       8.751   2.959 -11.820  1.00  0.00     0.082 A 
BRANCH 106 107
ATOM    107  S   UNL     1       9.568   2.975 -13.400  1.00  0.00     0.243 S 
ATOM    108  O   UNL     1       8.558   2.774 -14.405  1.00  0.00    -0.207 OA
ATOM    109  O   UNL     1      10.437   4.143 -13.416  1.00  0.00    -0.207 OA
BRANCH 107 110
ATOM    110  N   UNL     1      10.568   1.634 -13.342  1.00  0.00    -0.193 NA
ATOM    111  C   UNL     1      10.211   0.353 -13.982  1.00  0.00     0.131 C 
ATOM    112  C   UNL     1      11.735   1.579 -12.440  1.00  0.00     0.131 C 
ATOM    113  C   UNL     1      10.237  -0.810 -12.982  1.00  0.00     0.177 C 
ATOM    114  C   UNL     1      11.599   0.396 -11.478  1.00  0.00     0.177 C 
ATOM    115  O   UNL     1      11.439  -0.834 -12.201  1.00  0.00    -0.379 OA
ENDBRANCH 107 110
ENDBRANCH 106 107
ENDBRANCH  97 101
ENDBRANCH  84  86
ENDBRANCH  83  84
ENDBRANCH  82  83
ENDBRANCH  81  82
ENDBRANCH  80  81
ENDBRANCH  79  80
ENDBRANCH  78  79
ENDBRANCH   1  78
TORSDOF 26
