REMARK SMILES C[NH2+][C@@]1(C(=O)OCCOCCOCCOCCOC(=O)c2ccc(-c3c4nc(c(-c5c(F)cc(S(=O)(=O)[O-])cc5F)c5ccc([nH]5)c(-c5c(F)cc(S(=O)(=O)[O-])cc5F)c5nc(c(-c6c(F)cc(S(=O)(=O)[O-])cc6F)c6ccc3[nH]6)C=C5)C=C4)cc2)CC[C@H]([NH+]2CC[NH+](C)CC2)C1
REMARK SMILES IDX 13 1 12 2 11 3 10 4 9 5 8 6 7 7 6 8 4 9 5 10 3 11 87 12
REMARK SMILES IDX 97 13 88 14 89 15 2 16 1 17 90 20 91 21 96 22 92 24 95 25
REMARK SMILES IDX 93 26 94 27 14 29 15 30 16 31 17 32 18 33 19 34 20 35 21 36
REMARK SMILES IDX 22 37 86 38 23 39 85 40 24 41 25 42 26 43 79 44 27 45 84 46
REMARK SMILES IDX 78 47 80 48 28 49 83 50 77 51 76 52 29 54 63 55 42 56 62 57
REMARK SMILES IDX 43 58 46 59 61 60 81 61 44 62 45 63 60 65 82 66 47 67 30 68
REMARK SMILES IDX 31 69 40 70 32 71 33 72 39 73 41 74 34 75 35 76 36 77 37 78
REMARK SMILES IDX 38 79 64 80 65 81 74 82 66 83 67 84 73 85 75 86 68 87 69 88
REMARK SMILES IDX 70 89 71 90 72 91 48 92 49 93 58 94 50 95 51 96 57 97 59 98
REMARK SMILES IDX 52 99 53 100 54 101 55 102 56 103
REMARK H PARENT 2 18 2 19 90 23 93 28 80 53 46 64
REMARK Flexibility Score: inf
ROOT
ATOM      1  C   UNL     1      -2.387  -3.680   2.120  1.00  0.00     0.188 C 
ENDROOT
BRANCH   1   2
ATOM      2  O   UNL     1      -1.360  -3.776   1.158  1.00  0.00    -0.377 OA
BRANCH   2   3
ATOM      3  C   UNL     1      -0.343  -2.793   1.119  1.00  0.00     0.188 C 
BRANCH   3   4
ATOM      4  C   UNL     1       0.190  -2.079   2.368  1.00  0.00     0.188 C 
BRANCH   4   5
ATOM      5  O   UNL     1      -0.719  -1.830   3.414  1.00  0.00    -0.376 OA
BRANCH   5   6
ATOM      6  C   UNL     1      -1.560  -0.695   3.480  1.00  0.00     0.202 C 
BRANCH   6   7
ATOM      7  C   UNL     1      -1.808   0.262   2.308  1.00  0.00     0.261 C 
BRANCH   7   8
ATOM      8  O   UNL     1      -1.704  -0.318   1.004  1.00  0.00    -0.459 OA
BRANCH   8   9
ATOM      9  C   UNL     1      -1.418   0.573   0.013  1.00  0.00     0.368 C 
ATOM     10  O   UNL     1      -1.364   1.786   0.215  1.00  0.00    -0.245 OA
BRANCH   9  11
ATOM     11  C   UNL     1      -1.008  -0.067  -1.362  1.00  0.00     0.200 C 
ATOM     12  C   UNL     1      -1.446   0.911  -2.470  1.00  0.00     0.087 C 
ATOM     13  C   UNL     1      -1.743  -1.338  -1.845  1.00  0.00     0.146 C 
ATOM     14  C   UNL     1      -2.949   0.625  -2.619  1.00  0.00     0.072 C 
ATOM     15  C   UNL     1      -3.086  -0.899  -2.453  1.00  0.00     0.191 C 
BRANCH  11  16
ATOM     16  N   UNL     1       0.452  -0.383  -1.388  1.00  0.00    -0.334 N 
ATOM     17  C   UNL     1       1.323   0.529  -0.666  1.00  0.00     0.331 C 
ATOM     18  H   UNL     1       0.575  -1.313  -0.987  1.00  0.00     0.347 HD
ATOM     19  H   UNL     1       0.728  -0.305  -2.366  1.00  0.00     0.347 HD
ENDBRANCH  11  16
BRANCH  15  20
ATOM     20  N   UNL     1      -4.255  -1.523  -1.827  1.00  0.00    -0.323 N 
ATOM     21  C   UNL     1      -5.560  -1.156  -2.397  1.00  0.00     0.324 C 
ATOM     22  C   UNL     1      -4.373  -1.489  -0.364  1.00  0.00     0.324 C 
ATOM     23  H   UNL     1      -4.021  -2.484  -2.076  1.00  0.00     0.348 HD
ATOM     24  C   UNL     1      -6.169   0.157  -1.850  1.00  0.00     0.324 C 
ATOM     25  C   UNL     1      -4.856  -0.146   0.202  1.00  0.00     0.324 C 
ATOM     26  N   UNL     1      -6.120   0.311  -0.383  1.00  0.00    -0.328 N 
ATOM     27  C   UNL     1      -6.375   1.704  -0.009  1.00  0.00     0.333 C 
ATOM     28  H   UNL     1      -6.853  -0.287  -0.002  1.00  0.00     0.348 HD
ENDBRANCH  15  20
ENDBRANCH   9  11
ENDBRANCH   8   9
ENDBRANCH   7   8
ENDBRANCH   6   7
ENDBRANCH   5   6
ENDBRANCH   4   5
ENDBRANCH   3   4
ENDBRANCH   2   3
ENDBRANCH   1   2
BRANCH   1  29
ATOM     29  C   UNL     1      -2.067  -4.373   3.457  1.00  0.00     0.188 C 
BRANCH  29  30
ATOM     30  O   UNL     1      -1.038  -5.350   3.570  1.00  0.00    -0.376 OA
BRANCH  30  31
ATOM     31  C   UNL     1      -0.541  -6.021   2.427  1.00  0.00     0.202 C 
BRANCH  31  32
ATOM     32  C   UNL     1      -1.483  -6.883   1.569  1.00  0.00     0.261 C 
BRANCH  32  33
ATOM     33  O   UNL     1      -2.871  -6.537   1.579  1.00  0.00    -0.460 OA
BRANCH  33  34
ATOM     34  C   UNL     1      -3.590  -7.073   2.587  1.00  0.00     0.338 C 
ATOM     35  O   UNL     1      -3.181  -7.803   3.484  1.00  0.00    -0.246 OA
BRANCH  34  36
ATOM     36  C   UNL     1      -4.968  -6.557   2.523  1.00  0.00     0.060 A 
ATOM     37  C   UNL     1      -5.474  -5.848   3.620  1.00  0.00     0.016 A 
ATOM     38  C   UNL     1      -5.783  -6.842   1.425  1.00  0.00     0.016 A 
ATOM     39  C   UNL     1      -6.806  -5.447   3.638  1.00  0.00     0.010 A 
ATOM     40  C   UNL     1      -7.129  -6.468   1.458  1.00  0.00     0.010 A 
ATOM     41  C   UNL     1      -7.652  -5.804   2.582  1.00  0.00    -0.014 A 
BRANCH  41  42
ATOM     42  C   UNL     1      -9.117  -5.677   2.762  1.00  0.00     0.031 A 
ATOM     43  C   UNL     1      -9.886  -6.894   3.202  1.00  0.00     0.074 A 
ATOM     44  C   UNL     1      -9.738  -4.499   2.586  1.00  0.00     0.049 A 
ATOM     45  N   UNL     1     -11.171  -7.043   3.383  1.00  0.00    -0.248 NA
ATOM     46  C   UNL     1      -9.095  -8.107   3.474  1.00  0.00     0.031 C 
ATOM     47  C   UNL     1      -9.082  -3.245   2.217  1.00  0.00     0.029 A 
ATOM     48  N   UNL     1     -11.065  -4.169   2.690  1.00  0.00    -0.354 N 
ATOM     49  C   UNL     1     -11.345  -8.365   3.777  1.00  0.00     0.074 A 
ATOM     50  C   UNL     1     -10.038  -8.983   3.784  1.00  0.00     0.031 C 
ATOM     51  C   UNL     1     -10.014  -2.283   2.109  1.00  0.00     0.029 A 
ATOM     52  C   UNL     1     -11.333  -2.861   2.365  1.00  0.00     0.049 A 
ATOM     53  H   UNL     1     -11.759  -4.808   2.970  1.00  0.00     0.167 HD
ATOM     54  C   UNL     1     -12.493  -9.003   4.109  1.00  0.00     0.037 A 
ATOM     55  C   UNL     1     -12.513  -2.217   2.259  1.00  0.00     0.037 A 
ATOM     56  C   UNL     1     -13.788  -8.375   4.096  1.00  0.00     0.049 A 
ATOM     57  C   UNL     1     -13.786  -2.968   2.560  1.00  0.00     0.074 A 
ATOM     58  C   UNL     1     -15.015  -8.925   4.420  1.00  0.00     0.029 A 
ATOM     59  N   UNL     1     -14.024  -7.057   3.731  1.00  0.00    -0.354 N 
ATOM     60  N   UNL     1     -13.940  -4.215   2.941  1.00  0.00    -0.248 NA
ATOM     61  C   UNL     1     -15.046  -2.225   2.419  1.00  0.00     0.031 C 
ATOM     62  C   UNL     1     -15.999  -7.957   4.197  1.00  0.00     0.029 A 
ATOM     63  C   UNL     1     -15.380  -6.783   3.796  1.00  0.00     0.049 A 
ATOM     64  H   UNL     1     -13.331  -6.411   3.464  1.00  0.00     0.167 HD
ATOM     65  C   UNL     1     -15.309  -4.396   3.113  1.00  0.00     0.074 A 
ATOM     66  C   UNL     1     -15.937  -3.127   2.805  1.00  0.00     0.031 C 
ATOM     67  C   UNL     1     -15.986  -5.509   3.493  1.00  0.00     0.037 A 
BRANCH  54  68
ATOM     68  C   UNL     1     -12.403 -10.460   4.475  1.00  0.00     0.058 A 
ATOM     69  C   UNL     1     -11.813 -10.891   5.674  1.00  0.00     0.135 A 
ATOM     70  C   UNL     1     -12.941 -11.439   3.623  1.00  0.00     0.135 A 
ATOM     71  F   UNL     1     -11.264 -10.001   6.516  1.00  0.00    -0.206 F 
ATOM     72  C   UNL     1     -11.738 -12.241   6.004  1.00  0.00     0.059 A 
ATOM     73  C   UNL     1     -12.904 -12.792   3.947  1.00  0.00     0.059 A 
ATOM     74  F   UNL     1     -13.512 -11.084   2.461  1.00  0.00    -0.206 F 
ATOM     75  C   UNL     1     -12.288 -13.184   5.134  1.00  0.00     0.060 A 
BRANCH  75  76
ATOM     76  S   UNL     1     -12.193 -14.930   5.583  1.00  0.00     0.124 S 
ATOM     77  O   UNL     1     -10.771 -15.202   5.402  1.00  0.00    -0.237 OA
ATOM     78  O   UNL     1     -12.666 -14.923   6.963  1.00  0.00    -0.237 OA
ATOM     79  O   UNL     1     -13.082 -15.578   4.622  1.00  0.00    -0.744 OA
ENDBRANCH  75  76
ENDBRANCH  54  68
BRANCH  55  80
ATOM     80  C   UNL     1     -12.546  -0.793   1.830  1.00  0.00     0.058 A 
ATOM     81  C   UNL     1     -12.944   0.225   2.710  1.00  0.00     0.135 A 
ATOM     82  C   UNL     1     -12.178  -0.420   0.527  1.00  0.00     0.135 A 
ATOM     83  F   UNL     1     -13.319  -0.080   3.961  1.00  0.00    -0.206 F 
ATOM     84  C   UNL     1     -12.987   1.558   2.312  1.00  0.00     0.059 A 
ATOM     85  C   UNL     1     -12.184   0.909   0.115  1.00  0.00     0.059 A 
ATOM     86  F   UNL     1     -11.785  -1.352  -0.355  1.00  0.00    -0.206 F 
ATOM     87  C   UNL     1     -12.599   1.891   1.013  1.00  0.00     0.060 A 
BRANCH  87  88
ATOM     88  S   UNL     1     -12.608   3.629   0.524  1.00  0.00     0.124 S 
ATOM     89  O   UNL     1     -14.037   3.904   0.436  1.00  0.00    -0.237 OA
ATOM     90  O   UNL     1     -11.902   4.263   1.634  1.00  0.00    -0.237 OA
ATOM     91  O   UNL     1     -11.886   3.626  -0.745  1.00  0.00    -0.744 OA
ENDBRANCH  87  88
ENDBRANCH  55  80
BRANCH  67  92
ATOM     92  C   UNL     1     -17.480  -5.399   3.641  1.00  0.00     0.058 A 
ATOM     93  C   UNL     1     -18.330  -5.283   2.530  1.00  0.00     0.135 A 
ATOM     94  C   UNL     1     -18.073  -5.472   4.913  1.00  0.00     0.135 A 
ATOM     95  F   UNL     1     -17.817  -5.205   1.292  1.00  0.00    -0.206 F 
ATOM     96  C   UNL     1     -19.712  -5.216   2.677  1.00  0.00     0.059 A 
ATOM     97  C   UNL     1     -19.453  -5.440   5.081  1.00  0.00     0.059 A 
ATOM     98  F   UNL     1     -17.307  -5.597   6.010  1.00  0.00    -0.206 F 
ATOM     99  C   UNL     1     -20.265  -5.299   3.957  1.00  0.00     0.060 A 
BRANCH  99 100
ATOM    100  S   UNL     1     -22.061  -5.245   4.129  1.00  0.00     0.124 S 
ATOM    101  O   UNL     1     -22.342  -3.843   3.840  1.00  0.00    -0.237 OA
ATOM    102  O   UNL     1     -22.500  -6.201   3.117  1.00  0.00    -0.237 OA
ATOM    103  O   UNL     1     -22.284  -5.658   5.511  1.00  0.00    -0.744 OA
ENDBRANCH  99 100
ENDBRANCH  67  92
ENDBRANCH  41  42
ENDBRANCH  34  36
ENDBRANCH  33  34
ENDBRANCH  32  33
ENDBRANCH  31  32
ENDBRANCH  30  31
ENDBRANCH  29  30
ENDBRANCH   1  29
TORSDOF 25
