REMARK SMILES O=C(OCCOCCOCCOCCOC(=O)c1ccc(-c2c3nc(c(-c4c(F)cc(S(=O)(=O)[O-])cc4F)c4ccc([nH]4)c(-c4c(F)cc(S(=O)(=O)[O-])cc4F)c4nc(c(-c5c(F)cc(S(=O)(=O)[O-])cc5F)c5ccc2[nH]5)C=C4)C=C3)cc1)C1=Cc2cc(Cl)cc(-c3ccccc3)c2O[C@@H]1C(F)(F)F
REMARK SMILES IDX 10 1 9 2 8 3 7 4 6 5 5 6 4 7 3 8 2 9 1 10 84 11 85 12 100 13
REMARK SMILES IDX 86 14 99 15 87 16 98 17 88 18 91 19 89 20 90 21 101 22
REMARK SMILES IDX 102 23 103 24 104 25 92 26 93 27 97 28 94 29 96 30 95 31
REMARK SMILES IDX 11 32 12 33 13 34 14 35 15 36 16 37 17 38 18 39 19 40 83 41
REMARK SMILES IDX 20 42 82 43 21 44 22 45 23 46 76 47 24 48 81 49 75 50 77 51
REMARK SMILES IDX 25 52 80 53 74 54 73 55 26 57 60 58 39 59 59 60 40 61 43 62
REMARK SMILES IDX 58 63 78 64 41 65 42 66 57 68 79 69 44 70 27 71 28 72 37 73
REMARK SMILES IDX 29 74 30 75 36 76 38 77 31 78 32 79 33 80 34 81 35 82 61 83
REMARK SMILES IDX 62 84 71 85 63 86 64 87 70 88 72 89 65 90 66 91 67 92 68 93
REMARK SMILES IDX 69 94 45 95 46 96 55 97 47 98 48 99 54 100 56 101 49 102
REMARK SMILES IDX 50 103 51 104 52 105 53 106
REMARK H PARENT 77 56 43 67
REMARK Flexibility Score: inf
ROOT
ATOM      1  C   UNL     1       2.693  -4.155  -1.952  1.00  0.00     0.188 C 
ENDROOT
BRANCH   1   2
ATOM      2  O   UNL     1       1.502  -3.674  -2.574  1.00  0.00    -0.377 OA
BRANCH   2   3
ATOM      3  C   UNL     1       0.686  -2.827  -1.767  1.00  0.00     0.188 C 
BRANCH   3   4
ATOM      4  C   UNL     1       1.181  -1.388  -1.748  1.00  0.00     0.188 C 
BRANCH   4   5
ATOM      5  O   UNL     1       2.471  -1.272  -1.194  1.00  0.00    -0.376 OA
BRANCH   5   6
ATOM      6  C   UNL     1       2.651  -1.565   0.179  1.00  0.00     0.202 C 
BRANCH   6   7
ATOM      7  C   UNL     1       2.355  -0.443   1.186  1.00  0.00     0.261 C 
BRANCH   7   8
ATOM      8  O   UNL     1       1.990   0.834   0.602  1.00  0.00    -0.460 OA
BRANCH   8   9
ATOM      9  C   UNL     1       2.759   1.932   0.885  1.00  0.00     0.338 C 
ATOM     10  O   UNL     1       2.379   2.832   1.617  1.00  0.00    -0.246 OA
BRANCH   9  11
ATOM     11  C   UNL     1       4.050   1.942   0.150  1.00  0.00     0.087 C 
ATOM     12  C   UNL     1       5.197   2.435   0.646  1.00  0.00     0.027 C 
ATOM     13  C   UNL     1       4.182   1.020  -1.006  1.00  0.00     0.316 C 
ATOM     14  C   UNL     1       6.257   1.403   0.750  1.00  0.00     0.019 A 
ATOM     15  O   UNL     1       5.019  -0.110  -0.653  1.00  0.00    -0.475 OA
ATOM     16  C   UNL     1       7.457   1.625   1.421  1.00  0.00     0.032 A 
ATOM     17  C   UNL     1       5.939   0.087   0.359  1.00  0.00     0.135 A 
ATOM     18  C   UNL     1       8.292   0.543   1.716  1.00  0.00     0.042 A 
ATOM     19  C   UNL     1       6.593  -1.013   0.969  1.00  0.00     0.026 A 
ATOM     20  Cl  UNL     1       9.859   0.820   2.366  1.00  0.00    -0.084 Cl
ATOM     21  C   UNL     1       7.836  -0.764   1.562  1.00  0.00     0.033 A 
BRANCH  13  22
ATOM     22  C   UNL     1       4.434   1.779  -2.322  1.00  0.00     0.430 C 
ATOM     23  F   UNL     1       4.196   1.003  -3.405  1.00  0.00    -0.167 F 
ATOM     24  F   UNL     1       3.563   2.828  -2.425  1.00  0.00    -0.167 F 
ATOM     25  F   UNL     1       5.674   2.293  -2.437  1.00  0.00    -0.167 F 
ENDBRANCH  13  22
BRANCH  19  26
ATOM     26  C   UNL     1       5.929  -2.302   1.294  1.00  0.00    -0.015 A 
ATOM     27  C   UNL     1       5.389  -2.508   2.590  1.00  0.00     0.009 A 
ATOM     28  C   UNL     1       5.806  -3.350   0.387  1.00  0.00     0.009 A 
ATOM     29  C   UNL     1       4.707  -3.683   2.938  1.00  0.00     0.001 A 
ATOM     30  C   UNL     1       5.080  -4.506   0.722  1.00  0.00     0.001 A 
ATOM     31  C   UNL     1       4.524  -4.674   1.988  1.00  0.00     0.000 A 
ENDBRANCH  19  26
ENDBRANCH   9  11
ENDBRANCH   8   9
ENDBRANCH   7   8
ENDBRANCH   6   7
ENDBRANCH   5   6
ENDBRANCH   4   5
ENDBRANCH   3   4
ENDBRANCH   2   3
ENDBRANCH   1   2
BRANCH   1  32
ATOM     32  C   UNL     1       4.011  -3.527  -2.462  1.00  0.00     0.188 C 
BRANCH  32  33
ATOM     33  O   UNL     1       4.329  -3.403  -3.842  1.00  0.00    -0.376 OA
BRANCH  33  34
ATOM     34  C   UNL     1       3.332  -3.706  -4.791  1.00  0.00     0.202 C 
BRANCH  34  35
ATOM     35  C   UNL     1       3.055  -5.208  -4.984  1.00  0.00     0.261 C 
BRANCH  35  36
ATOM     36  O   UNL     1       3.609  -6.075  -3.973  1.00  0.00    -0.460 OA
BRANCH  36  37
ATOM     37  C   UNL     1       4.961  -6.252  -3.994  1.00  0.00     0.338 C 
ATOM     38  O   UNL     1       5.709  -5.921  -4.878  1.00  0.00    -0.246 OA
BRANCH  37  39
ATOM     39  C   UNL     1       5.410  -6.811  -2.671  1.00  0.00     0.060 A 
ATOM     40  C   UNL     1       6.691  -6.470  -2.212  1.00  0.00     0.016 A 
ATOM     41  C   UNL     1       4.609  -7.641  -1.877  1.00  0.00     0.016 A 
ATOM     42  C   UNL     1       7.193  -7.002  -1.010  1.00  0.00     0.010 A 
ATOM     43  C   UNL     1       5.107  -8.163  -0.667  1.00  0.00     0.010 A 
ATOM     44  C   UNL     1       6.424  -7.887  -0.242  1.00  0.00    -0.014 A 
BRANCH  44  45
ATOM     45  C   UNL     1       7.059  -8.693   0.851  1.00  0.00     0.031 A 
ATOM     46  C   UNL     1       7.428 -10.124   0.544  1.00  0.00     0.074 A 
ATOM     47  C   UNL     1       7.349  -8.208   2.078  1.00  0.00     0.049 A 
ATOM     48  N   UNL     1       8.043 -11.002   1.295  1.00  0.00    -0.248 NA
ATOM     49  C   UNL     1       7.076 -10.622  -0.796  1.00  0.00     0.031 C 
ATOM     50  C   UNL     1       7.127  -6.840   2.523  1.00  0.00     0.029 A 
ATOM     51  N   UNL     1       7.881  -8.823   3.192  1.00  0.00    -0.354 N 
ATOM     52  C   UNL     1       8.206 -12.127   0.498  1.00  0.00     0.074 A 
ATOM     53  C   UNL     1       7.529 -11.864  -0.752  1.00  0.00     0.031 C 
ATOM     54  C   UNL     1       7.420  -6.735   3.832  1.00  0.00     0.029 A 
ATOM     55  C   UNL     1       7.913  -8.021   4.313  1.00  0.00     0.049 A 
ATOM     56  H   UNL     1       8.209  -9.751   3.186  1.00  0.00     0.167 HD
ATOM     57  C   UNL     1       8.907 -13.257   0.751  1.00  0.00     0.037 A 
ATOM     58  C   UNL     1       8.312  -8.278   5.578  1.00  0.00     0.037 A 
ATOM     59  C   UNL     1       9.559 -13.549   1.999  1.00  0.00     0.049 A 
ATOM     60  C   UNL     1       8.973  -9.598   5.887  1.00  0.00     0.074 A 
ATOM     61  C   UNL     1      10.296 -14.669   2.343  1.00  0.00     0.029 A 
ATOM     62  N   UNL     1       9.541 -12.726   3.115  1.00  0.00    -0.354 N 
ATOM     63  N   UNL     1       9.197 -10.615   5.088  1.00  0.00    -0.248 NA
ATOM     64  C   UNL     1       9.490  -9.785   7.251  1.00  0.00     0.031 C 
ATOM     65  C   UNL     1      10.675 -14.550   3.684  1.00  0.00     0.029 A 
ATOM     66  C   UNL     1      10.228 -13.328   4.158  1.00  0.00     0.049 A 
ATOM     67  H   UNL     1       9.105 -11.845   3.160  1.00  0.00     0.167 HD
ATOM     68  C   UNL     1       9.928 -11.534   5.837  1.00  0.00     0.074 A 
ATOM     69  C   UNL     1      10.113 -10.950   7.148  1.00  0.00     0.031 C 
ATOM     70  C   UNL     1      10.412 -12.746   5.465  1.00  0.00     0.037 A 
BRANCH  57  71
ATOM     71  C   UNL     1       9.017 -14.253  -0.369  1.00  0.00     0.058 A 
ATOM     72  C   UNL     1       9.781 -13.974  -1.516  1.00  0.00     0.135 A 
ATOM     73  C   UNL     1       8.372 -15.496  -0.297  1.00  0.00     0.135 A 
ATOM     74  F   UNL     1      10.399 -12.789  -1.646  1.00  0.00    -0.206 F 
ATOM     75  C   UNL     1       9.877 -14.881  -2.564  1.00  0.00     0.059 A 
ATOM     76  C   UNL     1       8.479 -16.432  -1.321  1.00  0.00     0.059 A 
ATOM     77  F   UNL     1       7.625 -15.809   0.773  1.00  0.00    -0.206 F 
ATOM     78  C   UNL     1       9.224 -16.109  -2.456  1.00  0.00     0.060 A 
BRANCH  78  79
ATOM     79  S   UNL     1       9.367 -17.278  -3.822  1.00  0.00     0.124 S 
ATOM     80  O   UNL     1       8.571 -16.620  -4.854  1.00  0.00    -0.237 OA
ATOM     81  O   UNL     1      10.808 -17.307  -4.055  1.00  0.00    -0.237 OA
ATOM     82  O   UNL     1       8.798 -18.508  -3.280  1.00  0.00    -0.744 OA
ENDBRANCH  78  79
ENDBRANCH  57  71
BRANCH  58  83
ATOM     83  C   UNL     1       8.136  -7.259   6.655  1.00  0.00     0.058 A 
ATOM     84  C   UNL     1       9.231  -6.611   7.247  1.00  0.00     0.135 A 
ATOM     85  C   UNL     1       6.859  -6.958   7.156  1.00  0.00     0.135 A 
ATOM     86  F   UNL     1      10.475  -6.872   6.817  1.00  0.00    -0.206 F 
ATOM     87  C   UNL     1       9.074  -5.730   8.315  1.00  0.00     0.059 A 
ATOM     88  C   UNL     1       6.673  -6.062   8.207  1.00  0.00     0.059 A 
ATOM     89  F   UNL     1       5.772  -7.540   6.625  1.00  0.00    -0.206 F 
ATOM     90  C   UNL     1       7.789  -5.463   8.790  1.00  0.00     0.060 A 
BRANCH  90  91
ATOM     91  S   UNL     1       7.594  -4.301  10.160  1.00  0.00     0.124 S 
ATOM     92  O   UNL     1       8.163  -5.054  11.272  1.00  0.00    -0.237 OA
ATOM     93  O   UNL     1       8.372  -3.155   9.698  1.00  0.00    -0.237 OA
ATOM     94  O   UNL     1       6.151  -4.086  10.216  1.00  0.00    -0.744 OA
ENDBRANCH  90  91
ENDBRANCH  58  83
BRANCH  70  95
ATOM     95  C   UNL     1      11.227 -13.511   6.476  1.00  0.00     0.058 A 
ATOM     96  C   UNL     1      10.654 -14.050   7.638  1.00  0.00     0.135 A 
ATOM     97  C   UNL     1      12.600 -13.726   6.267  1.00  0.00     0.135 A 
ATOM     98  F   UNL     1       9.346 -13.878   7.890  1.00  0.00    -0.206 F 
ATOM     99  C   UNL     1      11.419 -14.731   8.580  1.00  0.00     0.059 A 
ATOM    100  C   UNL     1      13.378 -14.436   7.177  1.00  0.00     0.059 A 
ATOM    101  F   UNL     1      13.201 -13.248   5.166  1.00  0.00    -0.206 F 
ATOM    102  C   UNL     1      12.782 -14.916   8.342  1.00  0.00     0.060 A 
BRANCH 102 103
ATOM    103  S   UNL     1      13.764 -15.799   9.573  1.00  0.00     0.124 S 
ATOM    104  O   UNL     1      13.852 -14.810  10.642  1.00  0.00    -0.237 OA
ATOM    105  O   UNL     1      12.934 -16.966   9.856  1.00  0.00    -0.237 OA
ATOM    106  O   UNL     1      15.014 -16.081   8.874  1.00  0.00    -0.744 OA
ENDBRANCH 102 103
ENDBRANCH  70  95
ENDBRANCH  44  45
ENDBRANCH  37  39
ENDBRANCH  36  37
ENDBRANCH  35  36
ENDBRANCH  34  35
ENDBRANCH  33  34
ENDBRANCH  32  33
ENDBRANCH   1  32
TORSDOF 25
