REMARK SMILES C[C@@H](Nc1ncnc2c1CCCCC2)C(=O)OCCOCCOCCOCCOC(=O)c1ccc(-c2c3nc(c(-c4c(F)cc(S(=O)(=O)[O-])cc4F)c4ccc([nH]4)c(-c4c(F)cc(S(=O)(=O)[O-])cc4F)c4nc(c(-c5c(F)cc(S(=O)(=O)[O-])cc5F)c5ccc2[nH]5)C=C4)C=C3)cc1
REMARK SMILES IDX 22 1 21 2 20 3 19 4 18 5 17 6 15 7 16 8 2 9 1 10 3 11 4 13
REMARK SMILES IDX 5 14 9 15 6 16 8 17 7 18 10 19 11 20 12 21 14 23 13 24 23 26
REMARK SMILES IDX 24 27 25 28 26 29 27 30 28 31 29 32 30 33 31 34 32 35 33 36
REMARK SMILES IDX 97 37 34 38 96 39 35 40 36 41 37 42 90 43 38 44 95 45 89 46
REMARK SMILES IDX 91 47 39 48 94 49 88 50 87 51 40 53 74 54 53 55 73 56 54 57
REMARK SMILES IDX 57 58 72 59 92 60 55 61 56 62 71 64 93 65 58 66 41 67 42 68
REMARK SMILES IDX 51 69 43 70 44 71 50 72 52 73 45 74 46 75 47 76 48 77 49 78
REMARK SMILES IDX 75 79 76 80 85 81 77 82 78 83 84 84 86 85 79 86 80 87 81 88
REMARK SMILES IDX 82 89 83 90 59 91 60 92 69 93 61 94 62 95 68 96 70 97 63 98
REMARK SMILES IDX 64 99 65 100 66 101 67 102
REMARK H PARENT 3 12 91 52 57 63
REMARK Flexibility Score: 90.00
ROOT
ATOM      1  C   UNL     1      -1.356   1.005  -1.540  1.00  0.00     0.188 C 
ENDROOT
BRANCH   1   2
ATOM      2  C   UNL     1      -2.332   0.128  -2.342  1.00  0.00     0.188 C 
BRANCH   2   3
ATOM      3  O   UNL     1      -3.554  -0.131  -1.692  1.00  0.00    -0.376 OA
BRANCH   3   4
ATOM      4  C   UNL     1      -3.745  -1.208  -0.812  1.00  0.00     0.202 C 
BRANCH   4   5
ATOM      5  C   UNL     1      -2.730  -1.787   0.184  1.00  0.00     0.261 C 
BRANCH   5   6
ATOM      6  O   UNL     1      -1.371  -1.367   0.262  1.00  0.00    -0.462 OA
BRANCH   6   7
ATOM      7  C   UNL     1      -0.509  -1.873  -0.651  1.00  0.00     0.328 C 
ATOM      8  O   UNL     1      -0.833  -2.269  -1.765  1.00  0.00    -0.250 OA
BRANCH   7   9
ATOM      9  C   UNL     1       0.920  -2.004  -0.138  1.00  0.00     0.188 C 
ATOM     10  C   UNL     1       1.353  -0.801   0.699  1.00  0.00     0.043 C 
BRANCH   9  11
ATOM     11  N   UNL     1       1.222  -3.287   0.548  1.00  0.00    -0.357 N 
ATOM     12  H   UNL     1       2.150  -3.611   0.584  1.00  0.00     0.162 HD
BRANCH  11  13
ATOM     13  C   UNL     1       0.215  -4.035   1.139  1.00  0.00     0.133 A 
ATOM     14  N   UNL     1       0.255  -3.963   2.477  1.00  0.00    -0.219 NA
ATOM     15  C   UNL     1      -0.768  -4.754   0.447  1.00  0.00     0.016 A 
ATOM     16  C   UNL     1      -0.758  -4.527   3.139  1.00  0.00     0.224 A 
ATOM     17  C   UNL     1      -1.803  -5.249   1.236  1.00  0.00     0.049 A 
ATOM     18  N   UNL     1      -1.802  -5.145   2.581  1.00  0.00    -0.241 NA
BRANCH  15  19
ATOM     19  C   UNL     1      -0.783  -4.904  -1.052  1.00  0.00     0.041 C 
BRANCH  19  20
ATOM     20  C   UNL     1      -0.968  -6.298  -1.638  1.00  0.00     0.005 C 
BRANCH  20  21
ATOM     21  C   UNL     1      -2.416  -6.774  -1.599  1.00  0.00     0.001 CG0
ATOM     22  G   UNL     1      -2.914  -7.058  -0.188  1.00  0.00     0.000 G0
ENDBRANCH  20  21
ENDBRANCH  19  20
ENDBRANCH  15  19
BRANCH  17  23
ATOM     23  C   UNL     1      -3.080  -5.801   0.655  1.00  0.00     0.057 C 
BRANCH  23  24
ATOM     24  C   UNL     1      -2.914  -7.058  -0.188  1.00  0.00     0.006 CG0
ATOM     25  G   UNL     1      -2.416  -6.774  -1.599  1.00  0.00     0.000 G0
ENDBRANCH  23  24
ENDBRANCH  17  23
ENDBRANCH  11  13
ENDBRANCH   9  11
ENDBRANCH   7   9
ENDBRANCH   6   7
ENDBRANCH   5   6
ENDBRANCH   4   5
ENDBRANCH   3   4
ENDBRANCH   2   3
ENDBRANCH   1   2
BRANCH   1  26
ATOM     26  O   UNL     1      -1.707   1.322  -0.203  1.00  0.00    -0.377 OA
BRANCH  26  27
ATOM     27  C   UNL     1      -2.950   1.966   0.081  1.00  0.00     0.188 C 
BRANCH  27  28
ATOM     28  C   UNL     1      -3.853   2.532  -1.041  1.00  0.00     0.188 C 
BRANCH  28  29
ATOM     29  O   UNL     1      -3.193   2.796  -2.266  1.00  0.00    -0.376 OA
BRANCH  29  30
ATOM     30  C   UNL     1      -2.813   4.126  -2.562  1.00  0.00     0.202 C 
BRANCH  30  31
ATOM     31  C   UNL     1      -1.821   4.801  -1.605  1.00  0.00     0.261 C 
BRANCH  31  32
ATOM     32  O   UNL     1      -2.227   4.892  -0.232  1.00  0.00    -0.460 OA
BRANCH  32  33
ATOM     33  C   UNL     1      -3.384   5.533   0.044  1.00  0.00     0.338 C 
ATOM     34  O   UNL     1      -4.114   6.109  -0.745  1.00  0.00    -0.246 OA
BRANCH  33  35
ATOM     35  C   UNL     1      -3.727   5.219   1.446  1.00  0.00     0.060 A 
ATOM     36  C   UNL     1      -4.926   4.546   1.722  1.00  0.00     0.016 A 
ATOM     37  C   UNL     1      -2.844   5.549   2.476  1.00  0.00     0.016 A 
ATOM     38  C   UNL     1      -5.256   4.223   3.036  1.00  0.00     0.010 A 
ATOM     39  C   UNL     1      -3.194   5.260   3.796  1.00  0.00     0.010 A 
ATOM     40  C   UNL     1      -4.417   4.629   4.081  1.00  0.00    -0.014 A 
BRANCH  40  41
ATOM     41  C   UNL     1      -4.947   4.637   5.463  1.00  0.00     0.031 A 
ATOM     42  C   UNL     1      -5.611   5.899   5.941  1.00  0.00     0.074 A 
ATOM     43  C   UNL     1      -4.881   3.553   6.255  1.00  0.00     0.049 A 
ATOM     44  N   UNL     1      -6.136   6.170   7.106  1.00  0.00    -0.248 NA
ATOM     45  C   UNL     1      -5.694   7.004   4.970  1.00  0.00     0.031 C 
ATOM     46  C   UNL     1      -4.310   2.262   5.877  1.00  0.00     0.029 A 
ATOM     47  N   UNL     1      -5.302   3.373   7.548  1.00  0.00    -0.354 N 
ATOM     48  C   UNL     1      -6.611   7.472   7.007  1.00  0.00     0.074 A 
ATOM     49  C   UNL     1      -6.284   7.949   5.683  1.00  0.00     0.031 C 
ATOM     50  C   UNL     1      -4.409   1.422   6.924  1.00  0.00     0.029 A 
ATOM     51  C   UNL     1      -5.020   2.126   8.052  1.00  0.00     0.049 A 
ATOM     52  H   UNL     1      -5.763   4.071   8.067  1.00  0.00     0.167 HD
ATOM     53  C   UNL     1      -7.271   8.201   7.935  1.00  0.00     0.037 A 
ATOM     54  C   UNL     1      -5.218   1.622   9.287  1.00  0.00     0.037 A 
ATOM     55  C   UNL     1      -7.584   7.721   9.253  1.00  0.00     0.049 A 
ATOM     56  C   UNL     1      -5.876   2.483  10.337  1.00  0.00     0.074 A 
ATOM     57  C   UNL     1      -8.257   8.377  10.267  1.00  0.00     0.029 A 
ATOM     58  N   UNL     1      -7.236   6.471   9.743  1.00  0.00    -0.354 N 
ATOM     59  N   UNL     1      -6.339   3.707  10.229  1.00  0.00    -0.248 NA
ATOM     60  C   UNL     1      -6.040   1.898  11.675  1.00  0.00     0.031 C 
ATOM     61  C   UNL     1      -8.263   7.546  11.391  1.00  0.00     0.029 A 
ATOM     62  C   UNL     1      -7.651   6.348  11.058  1.00  0.00     0.049 A 
ATOM     63  H   UNL     1      -6.765   5.774   9.232  1.00  0.00     0.167 HD
ATOM     64  C   UNL     1      -6.865   4.029  11.476  1.00  0.00     0.074 A 
ATOM     65  C   UNL     1      -6.676   2.868  12.320  1.00  0.00     0.031 C 
ATOM     66  C   UNL     1      -7.453   5.182  11.885  1.00  0.00     0.037 A 
BRANCH  53  67
ATOM     67  C   UNL     1      -7.669   9.602   7.567  1.00  0.00     0.058 A 
ATOM     68  C   UNL     1      -8.693   9.861   6.641  1.00  0.00     0.135 A 
ATOM     69  C   UNL     1      -7.038  10.701   8.171  1.00  0.00     0.135 A 
ATOM     70  F   UNL     1      -9.311   8.848   6.014  1.00  0.00    -0.206 F 
ATOM     71  C   UNL     1      -9.065  11.161   6.316  1.00  0.00     0.059 A 
ATOM     72  C   UNL     1      -7.414  12.008   7.883  1.00  0.00     0.059 A 
ATOM     73  F   UNL     1      -6.045  10.508   9.055  1.00  0.00    -0.206 F 
ATOM     74  C   UNL     1      -8.423  12.228   6.947  1.00  0.00     0.060 A 
BRANCH  74  75
ATOM     75  S   UNL     1      -8.931  13.907   6.524  1.00  0.00     0.124 S 
ATOM     76  O   UNL     1      -8.456  14.019   5.148  1.00  0.00    -0.237 OA
ATOM     77  O   UNL     1     -10.380  13.842   6.690  1.00  0.00    -0.237 OA
ATOM     78  O   UNL     1      -8.226  14.734   7.498  1.00  0.00    -0.744 OA
ENDBRANCH  74  75
ENDBRANCH  53  67
BRANCH  54  79
ATOM     79  C   UNL     1      -4.779   0.234   9.598  1.00  0.00     0.058 A 
ATOM     80  C   UNL     1      -5.711  -0.788   9.830  1.00  0.00     0.135 A 
ATOM     81  C   UNL     1      -3.417  -0.104   9.641  1.00  0.00     0.135 A 
ATOM     82  F   UNL     1      -7.024  -0.513   9.818  1.00  0.00    -0.206 F 
ATOM     83  C   UNL     1      -5.311  -2.095  10.089  1.00  0.00     0.059 A 
ATOM     84  C   UNL     1      -2.992  -1.409   9.873  1.00  0.00     0.059 A 
ATOM     85  F   UNL     1      -2.483   0.835   9.424  1.00  0.00    -0.206 F 
ATOM     86  C   UNL     1      -3.948  -2.398  10.097  1.00  0.00     0.060 A 
BRANCH  86  87
ATOM     87  S   UNL     1      -3.446  -4.114  10.355  1.00  0.00     0.124 S 
ATOM     88  O   UNL     1      -3.811  -4.323  11.751  1.00  0.00    -0.237 OA
ATOM     89  O   UNL     1      -4.260  -4.819   9.369  1.00  0.00    -0.237 OA
ATOM     90  O   UNL     1      -2.013  -4.092  10.074  1.00  0.00    -0.744 OA
ENDBRANCH  86  87
ENDBRANCH  54  79
BRANCH  66  91
ATOM     91  C   UNL     1      -7.952   5.256  13.303  1.00  0.00     0.058 A 
ATOM     92  C   UNL     1      -7.069   5.369  14.388  1.00  0.00     0.135 A 
ATOM     93  C   UNL     1      -9.330   5.317  13.571  1.00  0.00     0.135 A 
ATOM     94  F   UNL     1      -5.743   5.313  14.189  1.00  0.00    -0.206 F 
ATOM     95  C   UNL     1      -7.535   5.529  15.689  1.00  0.00     0.059 A 
ATOM     96  C   UNL     1      -9.817   5.507  14.860  1.00  0.00     0.059 A 
ATOM     97  F   UNL     1     -10.218   5.229  12.568  1.00  0.00    -0.206 F 
ATOM     98  C   UNL     1      -8.911   5.606  15.914  1.00  0.00     0.060 A 
BRANCH  98  99
ATOM     99  S   UNL     1      -9.495   5.869  17.602  1.00  0.00     0.124 S 
ATOM    100  O   UNL     1      -9.163   4.595  18.231  1.00  0.00    -0.237 OA
ATOM    101  O   UNL     1      -8.698   7.015  18.031  1.00  0.00    -0.237 OA
ATOM    102  O   UNL     1     -10.921   6.132  17.434  1.00  0.00    -0.744 OA
ENDBRANCH  98  99
ENDBRANCH  66  91
ENDBRANCH  40  41
ENDBRANCH  33  35
ENDBRANCH  32  33
ENDBRANCH  31  32
ENDBRANCH  30  31
ENDBRANCH  29  30
ENDBRANCH  28  29
ENDBRANCH  27  28
ENDBRANCH  26  27
ENDBRANCH   1  26
TORSDOF 25
