REMARK SMILES CC(=O)Nc1ccc(/C=C2/CCc3oc(C(=O)OCCOCCOCCOCCOC(=O)c4ccc(-c5c6nc(c(-c7c(F)cc(S(=O)(=O)[O-])cc7F)c7ccc([nH]7)c(-c7c(F)cc(S(=O)(=O)[O-])cc7F)c7nc(c(-c8c(F)cc(S(=O)(=O)[O-])cc8F)c8ccc5[nH]8)C=C7)C=C6)cc4)c(C)c3C2=O)cc1
REMARK SMILES IDX 25 1 24 2 23 3 22 4 21 5 20 6 19 7 18 8 16 9 17 10 15 11
REMARK SMILES IDX 9 12 10 13 11 14 102 15 12 16 101 17 103 18 13 19 99 20
REMARK SMILES IDX 14 21 100 22 8 23 5 24 6 25 105 26 7 27 104 28 4 29 1 30
REMARK SMILES IDX 2 31 3 32 26 34 27 35 28 36 29 37 30 38 31 39 32 40 33 41
REMARK SMILES IDX 34 42 98 43 35 44 97 45 36 46 37 47 38 48 91 49 39 50 96 51
REMARK SMILES IDX 90 52 92 53 40 54 95 55 89 56 88 57 41 59 75 60 54 61 74 62
REMARK SMILES IDX 55 63 58 64 73 65 93 66 56 67 57 68 72 70 94 71 59 72 42 73
REMARK SMILES IDX 43 74 52 75 44 76 45 77 51 78 53 79 46 80 47 81 48 82 49 83
REMARK SMILES IDX 50 84 76 85 77 86 86 87 78 88 79 89 85 90 87 91 80 92 81 93
REMARK SMILES IDX 82 94 83 95 84 96 60 97 61 98 70 99 62 100 63 101 69 102
REMARK SMILES IDX 71 103 64 104 65 105 66 106 67 107 68 108
REMARK H PARENT 4 33 92 58 58 69
REMARK Flexibility Score: inf
ROOT
ATOM      1  C   UNL     1       1.328  11.407  10.152  1.00  0.00     0.188 C 
ENDROOT
BRANCH   1   2
ATOM      2  O   UNL     1       1.620  10.252   9.368  1.00  0.00    -0.377 OA
BRANCH   2   3
ATOM      3  C   UNL     1       1.324  10.272   7.984  1.00  0.00     0.188 C 
BRANCH   3   4
ATOM      4  C   UNL     1      -0.173  10.120   7.651  1.00  0.00     0.188 C 
BRANCH   4   5
ATOM      5  O   UNL     1      -1.074  10.309   8.723  1.00  0.00    -0.376 OA
BRANCH   5   6
ATOM      6  C   UNL     1      -1.353   9.315   9.686  1.00  0.00     0.202 C 
BRANCH   6   7
ATOM      7  C   UNL     1      -0.550   8.025   9.928  1.00  0.00     0.261 C 
BRANCH   7   8
ATOM      8  O   UNL     1       0.370   7.589   8.935  1.00  0.00    -0.457 OA
BRANCH   8   9
ATOM      9  C   UNL     1      -0.135   7.002   7.823  1.00  0.00     0.374 C 
ATOM     10  O   UNL     1      -1.326   6.791   7.618  1.00  0.00    -0.242 OA
BRANCH   9  11
ATOM     11  C   UNL     1       0.938   6.846   6.867  1.00  0.00     0.215 A 
ATOM     12  C   UNL     1       4.184   4.599   3.051  1.00  0.00     0.016 C 
ATOM     13  C   UNL     1       4.093   5.685   3.846  1.00  0.00     0.001 C 
ATOM     14  C   UNL     1       5.058   5.936   5.002  1.00  0.00     0.048 C 
ATOM     15  C   UNL     1       2.971   6.680   3.815  1.00  0.00     0.192 C 
ATOM     16  C   UNL     1       4.351   5.821   6.375  1.00  0.00     0.081 C 
ATOM     17  C   UNL     1       2.315   6.731   5.102  1.00  0.00     0.067 A 
ATOM     18  O   UNL     1       2.667   7.359   2.846  1.00  0.00    -0.289 OA
ATOM     19  C   UNL     1       2.964   6.328   6.244  1.00  0.00     0.116 A 
ATOM     20  C   UNL     1       1.014   7.140   5.505  1.00  0.00     0.014 A 
ATOM     21  O   UNL     1       2.153   6.388   7.319  1.00  0.00    -0.453 OA
ATOM     22  C   UNL     1      -0.019   7.754   4.632  1.00  0.00     0.049 C 
BRANCH  12  23
ATOM     23  C   UNL     1       3.285   4.026   2.021  1.00  0.00    -0.025 A 
ATOM     24  C   UNL     1       1.635   2.709   0.110  1.00  0.00     0.041 A 
ATOM     25  C   UNL     1       1.300   3.969   0.598  1.00  0.00     0.027 A 
ATOM     26  C   UNL     1       2.821   2.123   0.541  1.00  0.00     0.027 A 
ATOM     27  C   UNL     1       2.099   4.601   1.560  1.00  0.00     0.010 A 
ATOM     28  C   UNL     1       3.636   2.778   1.478  1.00  0.00     0.010 A 
BRANCH  24  29
ATOM     29  N   UNL     1       0.771   2.139  -0.837  1.00  0.00    -0.326 N 
ATOM     30  C   UNL     1       0.947  -0.256  -0.199  1.00  0.00     0.114 C 
ATOM     31  C   UNL     1       0.507   0.834  -1.137  1.00  0.00     0.221 C 
ATOM     32  O   UNL     1      -0.165   0.571  -2.138  1.00  0.00    -0.275 OA
ATOM     33  H   UNL     1       0.269   2.792  -1.376  1.00  0.00     0.169 HD
ENDBRANCH  24  29
ENDBRANCH  12  23
ENDBRANCH   9  11
ENDBRANCH   8   9
ENDBRANCH   7   8
ENDBRANCH   6   7
ENDBRANCH   5   6
ENDBRANCH   4   5
ENDBRANCH   3   4
ENDBRANCH   2   3
ENDBRANCH   1   2
BRANCH   1  34
ATOM     34  C   UNL     1       0.397  12.562   9.678  1.00  0.00     0.188 C 
BRANCH  34  35
ATOM     35  O   UNL     1       0.181  12.647   8.279  1.00  0.00    -0.376 OA
BRANCH  35  36
ATOM     36  C   UNL     1       0.636  13.713   7.471  1.00  0.00     0.202 C 
BRANCH  36  37
ATOM     37  C   UNL     1       2.139  13.844   7.263  1.00  0.00     0.261 C 
BRANCH  37  38
ATOM     38  O   UNL     1       2.876  13.508   8.418  1.00  0.00    -0.460 OA
BRANCH  38  39
ATOM     39  C   UNL     1       2.766  14.395   9.420  1.00  0.00     0.338 C 
ATOM     40  O   UNL     1       2.034  15.379   9.457  1.00  0.00    -0.246 OA
BRANCH  39  41
ATOM     41  C   UNL     1       3.745  14.038  10.446  1.00  0.00     0.060 A 
ATOM     42  C   UNL     1       3.822  14.928  11.514  1.00  0.00     0.016 A 
ATOM     43  C   UNL     1       4.800  13.188  10.075  1.00  0.00     0.016 A 
ATOM     44  C   UNL     1       5.078  15.265  11.934  1.00  0.00     0.010 A 
ATOM     45  C   UNL     1       6.053  13.538  10.481  1.00  0.00     0.010 A 
ATOM     46  C   UNL     1       6.163  14.662  11.290  1.00  0.00    -0.014 A 
BRANCH  46  47
ATOM     47  C   UNL     1       7.452  15.272  11.460  1.00  0.00     0.031 A 
ATOM     48  C   UNL     1       8.060  14.915  12.749  1.00  0.00     0.074 A 
ATOM     49  C   UNL     1       8.015  16.003  10.482  1.00  0.00     0.049 A 
ATOM     50  N   UNL     1       8.171  15.657  13.798  1.00  0.00    -0.248 NA
ATOM     51  C   UNL     1       8.343  13.489  12.976  1.00  0.00     0.031 C 
ATOM     52  C   UNL     1       7.595  16.160   9.086  1.00  0.00     0.029 A 
ATOM     53  N   UNL     1       9.185  16.683  10.526  1.00  0.00    -0.354 N 
ATOM     54  C   UNL     1       8.789  14.844  14.737  1.00  0.00     0.074 A 
ATOM     55  C   UNL     1       8.627  13.490  14.277  1.00  0.00     0.031 C 
ATOM     56  C   UNL     1       8.622  16.679   8.372  1.00  0.00     0.029 A 
ATOM     57  C   UNL     1       9.708  17.002   9.279  1.00  0.00     0.049 A 
ATOM     58  H   UNL     1       9.628  16.930  11.370  1.00  0.00     0.167 HD
ATOM     59  C   UNL     1       9.654  15.359  15.648  1.00  0.00     0.037 A 
ATOM     60  C   UNL     1      11.000  17.363   9.068  1.00  0.00     0.037 A 
ATOM     61  C   UNL     1       9.505  16.787  15.774  1.00  0.00     0.049 A 
ATOM     62  C   UNL     1      11.532  17.827  10.388  1.00  0.00     0.074 A 
ATOM     63  C   UNL     1       8.448  17.618  16.101  1.00  0.00     0.029 A 
ATOM     64  N   UNL     1      10.428  17.590  15.143  1.00  0.00    -0.354 N 
ATOM     65  N   UNL     1      11.096  18.895  11.007  1.00  0.00    -0.248 NA
ATOM     66  C   UNL     1      12.164  16.832  11.247  1.00  0.00     0.031 C 
ATOM     67  C   UNL     1       8.572  18.738  15.228  1.00  0.00     0.029 A 
ATOM     68  C   UNL     1       9.728  18.560  14.467  1.00  0.00     0.049 A 
ATOM     69  H   UNL     1      11.407  17.488  15.171  1.00  0.00     0.167 HD
ATOM     70  C   UNL     1      11.034  18.540  12.350  1.00  0.00     0.074 A 
ATOM     71  C   UNL     1      11.755  17.272  12.441  1.00  0.00     0.031 C 
ATOM     72  C   UNL     1      10.161  19.142  13.214  1.00  0.00     0.037 A 
BRANCH  59  73
ATOM     73  C   UNL     1      10.874  14.614  16.114  1.00  0.00     0.058 A 
ATOM     74  C   UNL     1      11.579  15.083  17.235  1.00  0.00     0.135 A 
ATOM     75  C   UNL     1      11.523  13.613  15.352  1.00  0.00     0.135 A 
ATOM     76  F   UNL     1      11.062  16.049  18.011  1.00  0.00    -0.206 F 
ATOM     77  C   UNL     1      12.861  14.630  17.544  1.00  0.00     0.059 A 
ATOM     78  C   UNL     1      12.768  13.100  15.680  1.00  0.00     0.059 A 
ATOM     79  F   UNL     1      11.033  13.155  14.194  1.00  0.00    -0.206 F 
ATOM     80  C   UNL     1      13.450  13.647  16.751  1.00  0.00     0.060 A 
BRANCH  80  81
ATOM     81  S   UNL     1      15.144  13.141  17.075  1.00  0.00     0.124 S 
ATOM     82  O   UNL     1      15.881  14.336  16.680  1.00  0.00    -0.237 OA
ATOM     83  O   UNL     1      15.105  12.853  18.504  1.00  0.00    -0.237 OA
ATOM     84  O   UNL     1      15.318  11.977  16.211  1.00  0.00    -0.744 OA
ENDBRANCH  80  81
ENDBRANCH  59  73
BRANCH  60  85
ATOM     85  C   UNL     1      11.880  16.900   7.958  1.00  0.00     0.058 A 
ATOM     86  C   UNL     1      13.139  17.485   7.736  1.00  0.00     0.135 A 
ATOM     87  C   UNL     1      11.626  15.700   7.261  1.00  0.00     0.135 A 
ATOM     88  F   UNL     1      13.477  18.616   8.374  1.00  0.00    -0.206 F 
ATOM     89  C   UNL     1      14.105  16.892   6.911  1.00  0.00     0.059 A 
ATOM     90  C   UNL     1      12.566  15.098   6.426  1.00  0.00     0.059 A 
ATOM     91  F   UNL     1      10.486  15.017   7.439  1.00  0.00    -0.206 F 
ATOM     92  C   UNL     1      13.814  15.685   6.275  1.00  0.00     0.060 A 
BRANCH  92  93
ATOM     93  S   UNL     1      15.108  14.823   5.352  1.00  0.00     0.124 S 
ATOM     94  O   UNL     1      15.286  15.694   4.196  1.00  0.00    -0.237 OA
ATOM     95  O   UNL     1      16.208  14.801   6.310  1.00  0.00    -0.237 OA
ATOM     96  O   UNL     1      14.510  13.521   5.065  1.00  0.00    -0.744 OA
ENDBRANCH  92  93
ENDBRANCH  60  85
BRANCH  72  97
ATOM     97  C   UNL     1       9.416  20.369  12.748  1.00  0.00     0.058 A 
ATOM     98  C   UNL     1       8.478  20.374  11.699  1.00  0.00     0.135 A 
ATOM     99  C   UNL     1       9.524  21.541  13.511  1.00  0.00     0.135 A 
ATOM    100  F   UNL     1       8.233  19.262  10.992  1.00  0.00    -0.206 F 
ATOM    101  C   UNL     1       7.715  21.505  11.396  1.00  0.00     0.059 A 
ATOM    102  C   UNL     1       8.752  22.670  13.247  1.00  0.00     0.059 A 
ATOM    103  F   UNL     1      10.351  21.580  14.568  1.00  0.00    -0.206 F 
ATOM    104  C   UNL     1       7.858  22.650  12.180  1.00  0.00     0.060 A 
BRANCH 104 105
ATOM    105  S   UNL     1       6.819  24.088  11.839  1.00  0.00     0.124 S 
ATOM    106  O   UNL     1       7.371  24.573  10.578  1.00  0.00    -0.237 OA
ATOM    107  O   UNL     1       5.483  23.503  11.763  1.00  0.00    -0.237 OA
ATOM    108  O   UNL     1       7.045  24.954  12.993  1.00  0.00    -0.744 OA
ENDBRANCH 104 105
ENDBRANCH  72  97
ENDBRANCH  46  47
ENDBRANCH  39  41
ENDBRANCH  38  39
ENDBRANCH  37  38
ENDBRANCH  36  37
ENDBRANCH  35  36
ENDBRANCH  34  35
ENDBRANCH   1  34
TORSDOF 25
