REMARK SMILES NC(=O)[C@H]1CCCN1S(=O)(=O)Cc1ccc(C(=O)OCCOCCOCCOCCOC(=O)c2ccc(-c3c4nc(c(-c5c(F)cc(S(=O)(=O)[O-])cc5F)c5ccc([nH]5)c(-c5c(F)cc(S(=O)(=O)[O-])cc5F)c5nc(c(-c6c(F)cc(S(=O)(=O)[O-])cc6F)c6ccc3[nH]6)C=C5)C=C4)cc2)cc1
REMARK SMILES IDX 24 1 23 2 22 3 21 4 20 5 19 6 17 7 18 8 16 9 13 10 14 11
REMARK SMILES IDX 101 12 15 13 100 14 12 15 9 16 10 17 11 18 8 19 4 20 5 21
REMARK SMILES IDX 6 22 7 23 2 24 1 25 3 28 25 29 26 30 27 31 28 32 29 33 30 34
REMARK SMILES IDX 31 35 32 36 33 37 34 38 35 39 99 40 36 41 98 42 37 43 38 44
REMARK SMILES IDX 39 45 92 46 40 47 97 48 91 49 93 50 41 51 96 52 90 53 89 54
REMARK SMILES IDX 42 56 76 57 55 58 75 59 56 60 59 61 74 62 94 63 57 64 58 65
REMARK SMILES IDX 73 67 95 68 60 69 43 70 44 71 53 72 45 73 46 74 52 75 54 76
REMARK SMILES IDX 47 77 48 78 49 79 50 80 51 81 77 82 78 83 87 84 79 85 80 86
REMARK SMILES IDX 86 87 88 88 81 89 82 90 83 91 84 92 85 93 61 94 62 95 71 96
REMARK SMILES IDX 63 97 64 98 70 99 72 100 65 101 66 102 67 103 68 104 69 105
REMARK H PARENT 1 26 1 27 93 55 59 66
REMARK Flexibility Score: inf
ROOT
ATOM      1  C   UNL     1       5.846   4.473  -1.408  1.00  0.00     0.188 C 
ENDROOT
BRANCH   1   2
ATOM      2  C   UNL     1       6.186   4.147  -2.876  1.00  0.00     0.188 C 
BRANCH   2   3
ATOM      3  O   UNL     1       6.284   5.287  -3.710  1.00  0.00    -0.376 OA
BRANCH   3   4
ATOM      4  C   UNL     1       5.245   5.574  -4.627  1.00  0.00     0.202 C 
BRANCH   4   5
ATOM      5  C   UNL     1       3.800   5.734  -4.127  1.00  0.00     0.261 C 
BRANCH   5   6
ATOM      6  O   UNL     1       3.359   4.783  -3.153  1.00  0.00    -0.460 OA
BRANCH   6   7
ATOM      7  C   UNL     1       3.099   3.538  -3.599  1.00  0.00     0.338 C 
ATOM      8  O   UNL     1       3.176   3.139  -4.747  1.00  0.00    -0.246 OA
BRANCH   7   9
ATOM      9  C   UNL     1       2.905   2.656  -2.426  1.00  0.00     0.060 A 
ATOM     10  C   UNL     1       2.549   0.859  -0.287  1.00  0.00    -0.032 A 
ATOM     11  C   UNL     1       3.422   0.556  -1.339  1.00  0.00     0.006 A 
ATOM     12  C   UNL     1       1.955   2.138  -0.271  1.00  0.00     0.006 A 
ATOM     13  C   UNL     1       3.568   1.427  -2.418  1.00  0.00     0.016 A 
ATOM     14  C   UNL     1       2.138   3.037  -1.325  1.00  0.00     0.016 A 
BRANCH  10  15
ATOM     15  C   UNL     1       2.195  -0.077   0.846  1.00  0.00     0.189 C 
BRANCH  15  16
ATOM     16  S   UNL     1       2.702  -1.792   0.662  1.00  0.00     0.219 S 
ATOM     17  O   UNL     1       1.877  -2.595   1.542  1.00  0.00    -0.212 OA
ATOM     18  O   UNL     1       4.146  -1.853   0.777  1.00  0.00    -0.212 OA
BRANCH  16  19
ATOM     19  N   UNL     1       2.305  -2.243  -0.923  1.00  0.00    -0.189 NA
ATOM     20  C   UNL     1       0.863  -2.276  -1.305  1.00  0.00     0.161 C 
ATOM     21  C   UNL     1       0.459  -3.729  -1.094  1.00  0.00     0.032 C 
ATOM     22  C   UNL     1       1.698  -4.527  -1.471  1.00  0.00     0.019 C 
ATOM     23  C   UNL     1       2.875  -3.566  -1.334  1.00  0.00     0.103 C 
BRANCH  20  24
ATOM     24  C   UNL     1       0.703  -1.893  -2.789  1.00  0.00     0.235 C 
ATOM     25  N   UNL     1       0.037  -0.731  -3.051  1.00  0.00    -0.368 N 
ATOM     26  H   UNL     1      -0.094  -0.438  -3.982  1.00  0.00     0.159 HD
ATOM     27  H   UNL     1      -0.311  -0.186  -2.309  1.00  0.00     0.159 HD
ATOM     28  O   UNL     1       1.125  -2.571  -3.724  1.00  0.00    -0.273 OA
ENDBRANCH  20  24
ENDBRANCH  16  19
ENDBRANCH  15  16
ENDBRANCH  10  15
ENDBRANCH   7   9
ENDBRANCH   6   7
ENDBRANCH   5   6
ENDBRANCH   4   5
ENDBRANCH   3   4
ENDBRANCH   2   3
ENDBRANCH   1   2
BRANCH   1  29
ATOM     29  O   UNL     1       5.370   5.774  -1.104  1.00  0.00    -0.377 OA
BRANCH  29  30
ATOM     30  C   UNL     1       6.121   6.921  -1.500  1.00  0.00     0.188 C 
BRANCH  30  31
ATOM     31  C   UNL     1       7.614   6.841  -1.903  1.00  0.00     0.188 C 
BRANCH  31  32
ATOM     32  O   UNL     1       8.258   5.623  -1.570  1.00  0.00    -0.376 OA
BRANCH  32  33
ATOM     33  C   UNL     1       9.192   5.643  -0.507  1.00  0.00     0.202 C 
BRANCH  33  34
ATOM     34  C   UNL     1       8.639   5.966   0.888  1.00  0.00     0.261 C 
BRANCH  34  35
ATOM     35  O   UNL     1       7.896   7.188   1.006  1.00  0.00    -0.460 OA
BRANCH  35  36
ATOM     36  C   UNL     1       8.575   8.344   0.811  1.00  0.00     0.338 C 
ATOM     37  O   UNL     1       9.751   8.466   0.547  1.00  0.00    -0.246 OA
BRANCH  36  38
ATOM     38  C   UNL     1       7.579   9.439   0.786  1.00  0.00     0.060 A 
ATOM     39  C   UNL     1       7.441  10.212  -0.374  1.00  0.00     0.016 A 
ATOM     40  C   UNL     1       6.775   9.684   1.901  1.00  0.00     0.016 A 
ATOM     41  C   UNL     1       6.516  11.257  -0.409  1.00  0.00     0.010 A 
ATOM     42  C   UNL     1       5.864  10.743   1.871  1.00  0.00     0.010 A 
ATOM     43  C   UNL     1       5.753  11.554   0.728  1.00  0.00    -0.014 A 
BRANCH  43  44
ATOM     44  C   UNL     1       4.977  12.817   0.790  1.00  0.00     0.031 A 
ATOM     45  C   UNL     1       5.579  13.990   1.514  1.00  0.00     0.074 A 
ATOM     46  C   UNL     1       3.768  12.927   0.210  1.00  0.00     0.049 A 
ATOM     47  N   UNL     1       5.074  15.173   1.746  1.00  0.00    -0.248 NA
ATOM     48  C   UNL     1       6.935  13.798   2.055  1.00  0.00     0.031 C 
ATOM     49  C   UNL     1       3.095  11.873  -0.547  1.00  0.00     0.029 A 
ATOM     50  N   UNL     1       2.886  13.978   0.181  1.00  0.00    -0.354 N 
ATOM     51  C   UNL     1       6.042  15.862   2.469  1.00  0.00     0.074 A 
ATOM     52  C   UNL     1       7.151  14.954   2.663  1.00  0.00     0.031 C 
ATOM     53  C   UNL     1       1.896  12.326  -0.953  1.00  0.00     0.029 A 
ATOM     54  C   UNL     1       1.702  13.688  -0.455  1.00  0.00     0.049 A 
ATOM     55  H   UNL     1       3.082  14.857   0.579  1.00  0.00     0.167 HD
ATOM     56  C   UNL     1       6.010  17.137   2.923  1.00  0.00     0.037 A 
ATOM     57  C   UNL     1       0.583  14.428  -0.596  1.00  0.00     0.037 A 
ATOM     58  C   UNL     1       4.899  18.032   2.728  1.00  0.00     0.049 A 
ATOM     59  C   UNL     1       0.544  15.824  -0.027  1.00  0.00     0.074 A 
ATOM     60  C   UNL     1       4.780  19.352   3.125  1.00  0.00     0.029 A 
ATOM     61  N   UNL     1       3.710  17.695   2.097  1.00  0.00    -0.354 N 
ATOM     62  N   UNL     1       1.478  16.477   0.624  1.00  0.00    -0.248 NA
ATOM     63  C   UNL     1      -0.698  16.586  -0.216  1.00  0.00     0.031 C 
ATOM     64  C   UNL     1       3.495  19.793   2.792  1.00  0.00     0.029 A 
ATOM     65  C   UNL     1       2.839  18.772   2.123  1.00  0.00     0.049 A 
ATOM     66  H   UNL     1       3.515  16.820   1.690  1.00  0.00     0.167 HD
ATOM     67  C   UNL     1       0.947  17.735   0.897  1.00  0.00     0.074 A 
ATOM     68  C   UNL     1      -0.386  17.754   0.330  1.00  0.00     0.031 C 
ATOM     69  C   UNL     1       1.513  18.779   1.553  1.00  0.00     0.037 A 
BRANCH  56  70
ATOM     70  C   UNL     1       7.197  17.626   3.709  1.00  0.00     0.058 A 
ATOM     71  C   UNL     1       8.448  17.847   3.110  1.00  0.00     0.135 A 
ATOM     72  C   UNL     1       7.073  17.900   5.081  1.00  0.00     0.135 A 
ATOM     73  F   UNL     1       8.631  17.584   1.806  1.00  0.00    -0.206 F 
ATOM     74  C   UNL     1       9.540  18.292   3.849  1.00  0.00     0.059 A 
ATOM     75  C   UNL     1       8.142  18.377   5.833  1.00  0.00     0.059 A 
ATOM     76  F   UNL     1       5.901  17.704   5.706  1.00  0.00    -0.206 F 
ATOM     77  C   UNL     1       9.377  18.554   5.211  1.00  0.00     0.060 A 
BRANCH  77  78
ATOM     78  S   UNL     1      10.803  19.131   6.155  1.00  0.00     0.124 S 
ATOM     79  O   UNL     1      11.625  17.925   6.206  1.00  0.00    -0.237 OA
ATOM     80  O   UNL     1      11.314  20.211   5.317  1.00  0.00    -0.237 OA
ATOM     81  O   UNL     1      10.223  19.548   7.428  1.00  0.00    -0.744 OA
ENDBRANCH  77  78
ENDBRANCH  56  70
BRANCH  57  82
ATOM     82  C   UNL     1      -0.600  13.854  -1.294  1.00  0.00     0.058 A 
ATOM     83  C   UNL     1      -1.022  14.344  -2.538  1.00  0.00     0.135 A 
ATOM     84  C   UNL     1      -1.328  12.792  -0.732  1.00  0.00     0.135 A 
ATOM     85  F   UNL     1      -0.371  15.368  -3.111  1.00  0.00    -0.206 F 
ATOM     86  C   UNL     1      -2.123  13.807  -3.200  1.00  0.00     0.059 A 
ATOM     87  C   UNL     1      -2.414  12.220  -1.386  1.00  0.00     0.059 A 
ATOM     88  F   UNL     1      -0.964  12.281   0.455  1.00  0.00    -0.206 F 
ATOM     89  C   UNL     1      -2.807  12.738  -2.618  1.00  0.00     0.060 A 
BRANCH  89  90
ATOM     90  S   UNL     1      -4.189  12.002  -3.519  1.00  0.00     0.124 S 
ATOM     91  O   UNL     1      -5.201  13.046  -3.413  1.00  0.00    -0.237 OA
ATOM     92  O   UNL     1      -3.614  11.799  -4.845  1.00  0.00    -0.237 OA
ATOM     93  O   UNL     1      -4.463  10.778  -2.770  1.00  0.00    -0.744 OA
ENDBRANCH  89  90
ENDBRANCH  57  82
BRANCH  69  94
ATOM     94  C   UNL     1       0.713  20.052   1.665  1.00  0.00     0.058 A 
ATOM     95  C   UNL     1      -0.415  20.151   2.495  1.00  0.00     0.135 A 
ATOM     96  C   UNL     1       1.120  21.207   0.976  1.00  0.00     0.135 A 
ATOM     97  F   UNL     1      -0.851  19.078   3.174  1.00  0.00    -0.206 F 
ATOM     98  C   UNL     1      -1.126  21.341   2.617  1.00  0.00     0.059 A 
ATOM     99  C   UNL     1       0.443  22.416   1.109  1.00  0.00     0.059 A 
ATOM    100  F   UNL     1       2.199  21.174   0.177  1.00  0.00    -0.206 F 
ATOM    101  C   UNL     1      -0.687  22.469   1.922  1.00  0.00     0.060 A 
BRANCH 101 102
ATOM    102  S   UNL     1      -1.601  24.014   2.115  1.00  0.00     0.124 S 
ATOM    103  O   UNL     1      -2.826  23.726   1.376  1.00  0.00    -0.237 OA
ATOM    104  O   UNL     1      -1.743  24.114   3.564  1.00  0.00    -0.237 OA
ATOM    105  O   UNL     1      -0.722  25.009   1.507  1.00  0.00    -0.744 OA
ENDBRANCH 101 102
ENDBRANCH  69  94
ENDBRANCH  43  44
ENDBRANCH  36  38
ENDBRANCH  35  36
ENDBRANCH  34  35
ENDBRANCH  33  34
ENDBRANCH  32  33
ENDBRANCH  31  32
ENDBRANCH  30  31
ENDBRANCH  29  30
ENDBRANCH   1  29
TORSDOF 27
