REMARK SMILES CCCOc1ccccc1O[C@@H]1CC[C@@]([NH3+])(C(=O)OCCOCCOCCOCCOC(=O)c2ccc(-c3c4nc(c(-c5c(F)cc(S(=O)(=O)[O-])cc5F)c5ccc([nH]5)c(-c5c(F)cc(S(=O)(=O)[O-])cc5F)c5nc(c(-c6c(F)cc(S(=O)(=O)[O-])cc6F)c6ccc3[nH]6)C=C5)C=C4)cc2)C1
REMARK SMILES IDX 24 1 23 2 22 3 21 4 20 5 19 6 17 7 18 8 15 9 12 10 13 11
REMARK SMILES IDX 100 12 14 13 11 14 10 15 5 16 6 17 7 18 9 19 8 20 4 21 3 22
REMARK SMILES IDX 2 23 1 24 16 25 25 29 26 30 27 31 28 32 29 33 30 34 31 35
REMARK SMILES IDX 32 36 33 37 34 38 35 39 99 40 36 41 98 42 37 43 38 44 39 45
REMARK SMILES IDX 92 46 40 47 97 48 91 49 93 50 41 51 96 52 90 53 89 54 42 56
REMARK SMILES IDX 76 57 55 58 75 59 56 60 59 61 74 62 94 63 57 64 58 65 73 67
REMARK SMILES IDX 95 68 60 69 43 70 44 71 53 72 45 73 46 74 52 75 54 76 47 77
REMARK SMILES IDX 48 78 49 79 50 80 51 81 77 82 78 83 87 84 79 85 80 86 86 87
REMARK SMILES IDX 88 88 81 89 82 90 83 91 84 92 85 93 61 94 62 95 71 96 63 97
REMARK SMILES IDX 64 98 70 99 72 100 65 101 66 102 67 103 68 104 69 105
REMARK H PARENT 16 26 16 27 16 28 93 55 59 66
REMARK Flexibility Score: inf
ROOT
ATOM      1  C   UNL     1      -1.810  -3.156   2.661  1.00  0.00     0.188 C 
ENDROOT
BRANCH   1   2
ATOM      2  C   UNL     1      -0.701  -4.089   2.162  1.00  0.00     0.188 C 
BRANCH   2   3
ATOM      3  O   UNL     1      -0.614  -5.388   2.720  1.00  0.00    -0.376 OA
BRANCH   3   4
ATOM      4  C   UNL     1      -0.569  -5.518   4.141  1.00  0.00     0.202 C 
BRANCH   4   5
ATOM      5  C   UNL     1       0.196  -4.502   5.025  1.00  0.00     0.261 C 
BRANCH   5   6
ATOM      6  O   UNL     1      -0.177  -3.110   4.874  1.00  0.00    -0.459 OA
BRANCH   6   7
ATOM      7  C   UNL     1       0.835  -2.211   4.783  1.00  0.00     0.368 C 
ATOM      8  O   UNL     1       2.024  -2.518   4.892  1.00  0.00    -0.245 OA
BRANCH   7   9
ATOM      9  C   UNL     1       0.429  -0.769   4.313  1.00  0.00     0.196 C 
ATOM     10  C   UNL     1      -0.469   0.089   2.145  1.00  0.00     0.180 C 
ATOM     11  C   UNL     1      -1.220   0.751   3.295  1.00  0.00     0.052 C 
ATOM     12  C   UNL     1       0.649  -0.736   2.787  1.00  0.00     0.126 C 
ATOM     13  C   UNL     1      -0.978  -0.183   4.507  1.00  0.00     0.085 C 
BRANCH  10  14
ATOM     14  O   UNL     1      -0.202   0.803   0.934  1.00  0.00    -0.486 OA
BRANCH  14  15
ATOM     15  C   UNL     1       0.384   2.029   0.887  1.00  0.00     0.161 A 
ATOM     16  C   UNL     1       1.466   2.463   1.644  1.00  0.00     0.161 A 
ATOM     17  C   UNL     1       1.914   3.787   1.590  1.00  0.00     0.050 A 
ATOM     18  C   UNL     1       1.446   4.626   0.587  1.00  0.00     0.004 A 
ATOM     19  C   UNL     1      -0.025   2.858  -0.164  1.00  0.00     0.050 A 
ATOM     20  C   UNL     1       0.526   4.135  -0.335  1.00  0.00     0.004 A 
BRANCH  16  21
ATOM     21  O   UNL     1       2.260   1.579   2.317  1.00  0.00    -0.490 OA
BRANCH  21  22
ATOM     22  C   UNL     1       3.315   1.085   1.448  1.00  0.00     0.229 C 
BRANCH  22  23
ATOM     23  C   UNL     1       2.894  -0.010   0.441  1.00  0.00     0.038 C 
ATOM     24  C   UNL     1       2.929   0.430  -1.012  1.00  0.00     0.007 C 
ENDBRANCH  22  23
ENDBRANCH  21  22
ENDBRANCH  16  21
ENDBRANCH  14  15
ENDBRANCH  10  14
BRANCH   9  25
ATOM     25  N   UNL     1       1.379   0.184   4.959  1.00  0.00    -0.343 N 
ATOM     26  H   UNL     1       1.241   0.170   5.969  1.00  0.00     0.345 HD
ATOM     27  H   UNL     1       1.209   1.125   4.606  1.00  0.00     0.345 HD
ATOM     28  H   UNL     1       2.337  -0.092   4.743  1.00  0.00     0.345 HD
ENDBRANCH   9  25
ENDBRANCH   7   9
ENDBRANCH   6   7
ENDBRANCH   5   6
ENDBRANCH   4   5
ENDBRANCH   3   4
ENDBRANCH   2   3
ENDBRANCH   1   2
BRANCH   1  29
ATOM     29  O   UNL     1      -2.563  -3.636   3.745  1.00  0.00    -0.377 OA
BRANCH  29  30
ATOM     30  C   UNL     1      -3.718  -4.394   3.454  1.00  0.00     0.188 C 
BRANCH  30  31
ATOM     31  C   UNL     1      -3.878  -5.042   2.068  1.00  0.00     0.188 C 
BRANCH  31  32
ATOM     32  O   UNL     1      -3.525  -4.211   0.967  1.00  0.00    -0.376 OA
BRANCH  32  33
ATOM     33  C   UNL     1      -4.550  -3.494   0.293  1.00  0.00     0.202 C 
BRANCH  33  34
ATOM     34  C   UNL     1      -5.208  -2.312   1.025  1.00  0.00     0.261 C 
BRANCH  34  35
ATOM     35  O   UNL     1      -5.840  -2.595   2.281  1.00  0.00    -0.460 OA
BRANCH  35  36
ATOM     36  C   UNL     1      -6.823  -3.519   2.303  1.00  0.00     0.338 C 
ATOM     37  O   UNL     1      -7.282  -4.123   1.344  1.00  0.00    -0.246 OA
BRANCH  36  38
ATOM     38  C   UNL     1      -7.100  -3.846   3.719  1.00  0.00     0.060 A 
ATOM     39  C   UNL     1      -6.899  -5.162   4.157  1.00  0.00     0.016 A 
ATOM     40  C   UNL     1      -7.487  -2.852   4.622  1.00  0.00     0.016 A 
ATOM     41  C   UNL     1      -7.112  -5.495   5.493  1.00  0.00     0.010 A 
ATOM     42  C   UNL     1      -7.739  -3.194   5.954  1.00  0.00     0.010 A 
ATOM     43  C   UNL     1      -7.586  -4.524   6.385  1.00  0.00    -0.014 A 
BRANCH  43  44
ATOM     44  C   UNL     1      -8.175  -4.963   7.672  1.00  0.00     0.031 A 
ATOM     45  C   UNL     1      -9.659  -5.220   7.702  1.00  0.00     0.074 A 
ATOM     46  C   UNL     1      -7.423  -5.174   8.767  1.00  0.00     0.049 A 
ATOM     47  N   UNL     1     -10.419  -5.600   8.694  1.00  0.00    -0.248 NA
ATOM     48  C   UNL     1     -10.380  -5.022   6.433  1.00  0.00     0.031 C 
ATOM     49  C   UNL     1      -5.974  -5.004   8.846  1.00  0.00     0.029 A 
ATOM     50  N   UNL     1      -7.786  -5.576  10.028  1.00  0.00    -0.354 N 
ATOM     51  C   UNL     1     -11.704  -5.683   8.171  1.00  0.00     0.074 A 
ATOM     52  C   UNL     1     -11.629  -5.282   6.785  1.00  0.00     0.031 C 
ATOM     53  C   UNL     1      -5.571  -5.289  10.098  1.00  0.00     0.029 A 
ATOM     54  C   UNL     1      -6.735  -5.633  10.914  1.00  0.00     0.049 A 
ATOM     55  H   UNL     1      -8.711  -5.803  10.276  1.00  0.00     0.167 HD
ATOM     56  C   UNL     1     -12.845  -6.067   8.789  1.00  0.00     0.037 A 
ATOM     57  C   UNL     1      -6.725  -5.913  12.233  1.00  0.00     0.037 A 
ATOM     58  C   UNL     1     -12.914  -6.453  10.172  1.00  0.00     0.049 A 
ATOM     59  C   UNL     1      -8.022  -6.269  12.920  1.00  0.00     0.074 A 
ATOM     60  C   UNL     1     -14.020  -6.862  10.897  1.00  0.00     0.029 A 
ATOM     61  N   UNL     1     -11.835  -6.468  11.045  1.00  0.00    -0.354 N 
ATOM     62  N   UNL     1      -9.229  -6.362  12.412  1.00  0.00    -0.248 NA
ATOM     63  C   UNL     1      -7.954  -6.564  14.358  1.00  0.00     0.031 C 
ATOM     64  C   UNL     1     -13.620  -7.069  12.221  1.00  0.00     0.029 A 
ATOM     65  C   UNL     1     -12.252  -6.856  12.306  1.00  0.00     0.049 A 
ATOM     66  H   UNL     1     -10.910  -6.236  10.802  1.00  0.00     0.167 HD
ATOM     67  C   UNL     1     -10.056  -6.762  13.459  1.00  0.00     0.074 A 
ATOM     68  C   UNL     1      -9.209  -6.900  14.625  1.00  0.00     0.031 C 
ATOM     69  C   UNL     1     -11.392  -6.998  13.456  1.00  0.00     0.037 A 
BRANCH  56  70
ATOM     70  C   UNL     1     -14.111  -6.053   7.978  1.00  0.00     0.058 A 
ATOM     71  C   UNL     1     -14.342  -6.976   6.945  1.00  0.00     0.135 A 
ATOM     72  C   UNL     1     -15.116  -5.110   8.250  1.00  0.00     0.135 A 
ATOM     73  F   UNL     1     -13.405  -7.882   6.624  1.00  0.00    -0.206 F 
ATOM     74  C   UNL     1     -15.514  -6.949   6.195  1.00  0.00     0.059 A 
ATOM     75  C   UNL     1     -16.308  -5.085   7.533  1.00  0.00     0.059 A 
ATOM     76  F   UNL     1     -14.943  -4.198   9.219  1.00  0.00    -0.206 F 
ATOM     77  C   UNL     1     -16.492  -6.000   6.498  1.00  0.00     0.060 A 
BRANCH  77  78
ATOM     78  S   UNL     1     -18.010  -5.986   5.522  1.00  0.00     0.124 S 
ATOM     79  O   UNL     1     -17.530  -5.472   4.243  1.00  0.00    -0.237 OA
ATOM     80  O   UNL     1     -18.400  -7.392   5.534  1.00  0.00    -0.237 OA
ATOM     81  O   UNL     1     -18.886  -5.089   6.269  1.00  0.00    -0.744 OA
ENDBRANCH  77  78
ENDBRANCH  56  70
BRANCH  57  82
ATOM     82  C   UNL     1      -5.449  -5.863  13.000  1.00  0.00     0.058 A 
ATOM     83  C   UNL     1      -4.873  -7.024  13.535  1.00  0.00     0.135 A 
ATOM     84  C   UNL     1      -4.787  -4.645  13.226  1.00  0.00     0.135 A 
ATOM     85  F   UNL     1      -5.473  -8.212  13.362  1.00  0.00    -0.206 F 
ATOM     86  C   UNL     1      -3.697  -6.981  14.280  1.00  0.00     0.059 A 
ATOM     87  C   UNL     1      -3.595  -4.580  13.941  1.00  0.00     0.059 A 
ATOM     88  F   UNL     1      -5.291  -3.503  12.732  1.00  0.00    -0.206 F 
ATOM     89  C   UNL     1      -3.063  -5.753  14.474  1.00  0.00     0.060 A 
BRANCH  89  90
ATOM     90  S   UNL     1      -1.514  -5.716  15.402  1.00  0.00     0.124 S 
ATOM     91  O   UNL     1      -1.976  -5.982  16.759  1.00  0.00    -0.237 OA
ATOM     92  O   UNL     1      -0.752  -6.785  14.764  1.00  0.00    -0.237 OA
ATOM     93  O   UNL     1      -1.010  -4.367  15.160  1.00  0.00    -0.744 OA
ENDBRANCH  89  90
ENDBRANCH  57  82
BRANCH  69  94
ATOM     94  C   UNL     1     -12.018  -7.483  14.737  1.00  0.00     0.058 A 
ATOM     95  C   UNL     1     -12.172  -6.647  15.855  1.00  0.00     0.135 A 
ATOM     96  C   UNL     1     -12.515  -8.794  14.828  1.00  0.00     0.135 A 
ATOM     97  F   UNL     1     -11.715  -5.385  15.823  1.00  0.00    -0.206 F 
ATOM     98  C   UNL     1     -12.762  -7.105  17.029  1.00  0.00     0.059 A 
ATOM     99  C   UNL     1     -13.139  -9.262  15.980  1.00  0.00     0.059 A 
ATOM    100  F   UNL     1     -12.410  -9.632  13.784  1.00  0.00    -0.206 F 
ATOM    101  C   UNL     1     -13.243  -8.415  17.081  1.00  0.00     0.060 A 
BRANCH 101 102
ATOM    102  S   UNL     1     -14.021  -8.992  18.605  1.00  0.00     0.124 S 
ATOM    103  O   UNL     1     -12.867  -9.137  19.487  1.00  0.00    -0.237 OA
ATOM    104  O   UNL     1     -14.930  -7.897  18.925  1.00  0.00    -0.237 OA
ATOM    105  O   UNL     1     -14.667 -10.239  18.206  1.00  0.00    -0.744 OA
ENDBRANCH 101 102
ENDBRANCH  69  94
ENDBRANCH  43  44
ENDBRANCH  36  38
ENDBRANCH  35  36
ENDBRANCH  34  35
ENDBRANCH  33  34
ENDBRANCH  32  33
ENDBRANCH  31  32
ENDBRANCH  30  31
ENDBRANCH  29  30
ENDBRANCH   1  29
TORSDOF 29
