REMARK SMILES O=C(CNC(=O)[C@@H](CC1=c2ccccc2=NC1)N1C(=O)N=C2C=CC=C[C@H]2C1=O)OCCOCCOCCOCCOC(=O)c1ccc(-c2c3nc(c(-c4c(F)cc(S(=O)(=O)[O-])cc4F)c4ccc([nH]4)c(-c4c(F)cc(S(=O)(=O)[O-])cc4F)c4nc(c(-c5c(F)cc(S(=O)(=O)[O-])cc5F)c5ccc2[nH]5)C=C4)C=C3)cc1
REMARK SMILES IDX 35 1 34 2 33 3 32 4 31 5 30 6 2 7 1 8 3 9 4 10 5 11 6 13
REMARK SMILES IDX 7 14 8 15 9 16 10 17 17 18 11 19 15 20 16 21 12 22 14 23
REMARK SMILES IDX 13 24 18 25 19 26 28 27 21 28 20 29 27 30 29 31 22 32 26 33
REMARK SMILES IDX 23 34 25 35 24 36 36 37 37 38 38 39 39 40 40 41 41 42 42 43
REMARK SMILES IDX 43 44 44 45 45 46 46 47 110 48 47 49 109 50 48 51 49 52
REMARK SMILES IDX 50 53 103 54 51 55 108 56 102 57 104 58 52 59 107 60 101 61
REMARK SMILES IDX 100 62 53 64 87 65 66 66 86 67 67 68 70 69 85 70 105 71
REMARK SMILES IDX 68 72 69 73 84 75 106 76 71 77 54 78 55 79 64 80 56 81 57 82
REMARK SMILES IDX 63 83 65 84 58 85 59 86 60 87 61 88 62 89 88 90 89 91 98 92
REMARK SMILES IDX 90 93 91 94 97 95 99 96 92 97 93 98 94 99 95 100 96 101
REMARK SMILES IDX 72 102 73 103 82 104 74 105 75 106 81 107 83 108 76 109
REMARK SMILES IDX 77 110 78 111 79 112 80 113
REMARK H PARENT 4 12 104 63 70 74
REMARK Flexibility Score: inf
ROOT
ATOM      1  C   UNL     1       2.439  -2.145   1.567  1.00  0.00     0.188 C 
ENDROOT
BRANCH   1   2
ATOM      2  C   UNL     1       2.392  -0.913  -0.325  1.00  0.00     0.188 C 
BRANCH   2   3
ATOM      3  O   UNL     1       3.674   0.164  -0.634  1.00  0.00    -0.376 OA
BRANCH   3   4
ATOM      4  C   UNL     1       4.415   1.070   0.262  1.00  0.00     0.202 C 
BRANCH   4   5
ATOM      5  C   UNL     1       4.173   2.539  -0.038  1.00  0.00     0.261 C 
BRANCH   5   6
ATOM      6  O   UNL     1       3.040   2.854  -0.866  1.00  0.00    -0.462 OA
BRANCH   6   7
ATOM      7  C   UNL     1       2.456   2.048  -1.780  1.00  0.00     0.325 C 
ATOM      8  O   UNL     1       1.227   2.060  -1.877  1.00  0.00    -0.250 OA
BRANCH   7   9
ATOM      9  C   UNL     1       3.312   1.215  -2.793  1.00  0.00     0.238 C 
BRANCH   9  10
ATOM     10  N   UNL     1       4.787   1.212  -2.716  1.00  0.00    -0.343 N 
ATOM     11  C   UNL     1       5.753   0.417  -2.157  1.00  0.00     0.244 C 
ATOM     12  H   UNL     1       5.178   1.982  -3.189  1.00  0.00     0.164 HD
ATOM     13  O   UNL     1       6.806   1.040  -1.933  1.00  0.00    -0.273 OA
BRANCH  11  14
ATOM     14  C   UNL     1       5.741  -1.175  -1.827  1.00  0.00     0.188 C 
BRANCH  14  15
ATOM     15  C   UNL     1       5.354  -1.688  -0.320  1.00  0.00     0.069 C 
BRANCH  15  16
ATOM     16  C   UNL     1       3.933  -1.776   0.357  1.00  0.00    -0.037 C 
ATOM     17  C   UNL     1       3.046  -2.897  -0.259  1.00  0.00     0.001 A 
ATOM     18  C   UNL     1       2.709  -0.373   1.342  1.00  0.00     0.174 C 
ATOM     19  C   UNL     1       3.289  -4.196  -0.802  1.00  0.00     0.010 A 
ATOM     20  C   UNL     1       1.196  -2.495   0.048  1.00  0.00     0.065 A 
ATOM     21  N   UNL     1       0.914  -1.200   0.846  1.00  0.00    -0.280 NA
ATOM     22  C   UNL     1       2.270  -5.062  -0.935  1.00  0.00     0.001 A 
ATOM     23  C   UNL     1       0.304  -3.620  -0.275  1.00  0.00     0.028 A 
ATOM     24  C   UNL     1       0.861  -4.784  -0.663  1.00  0.00     0.002 A 
ENDBRANCH  15  16
ENDBRANCH  14  15
BRANCH  14  25
ATOM     25  N   UNL     1       5.524  -1.860  -3.148  1.00  0.00    -0.249 N 
ATOM     26  C   UNL     1       6.290  -1.221  -4.095  1.00  0.00     0.351 C 
ATOM     27  C   UNL     1       5.538  -3.210  -3.492  1.00  0.00     0.244 C 
ATOM     28  N   UNL     1       5.733  -1.118  -5.328  1.00  0.00    -0.197 NA
ATOM     29  O   UNL     1       7.466  -0.920  -3.919  1.00  0.00    -0.246 OA
ATOM     30  C   UNL     1       5.330  -3.492  -5.073  1.00  0.00     0.151 C 
ATOM     31  O   UNL     1       5.735  -4.130  -2.702  1.00  0.00    -0.273 OA
ATOM     32  C   UNL     1       5.870  -2.288  -5.850  1.00  0.00     0.062 C 
ATOM     33  C   UNL     1       5.745  -4.768  -5.793  1.00  0.00    -0.007 C 
ATOM     34  C   UNL     1       6.834  -2.396  -6.959  1.00  0.00     0.025 C 
ATOM     35  C   UNL     1       6.538  -4.791  -6.884  1.00  0.00    -0.003 C 
ATOM     36  C   UNL     1       7.187  -3.608  -7.380  1.00  0.00     0.002 C 
ENDBRANCH  14  25
ENDBRANCH  11  14
ENDBRANCH   9  10
ENDBRANCH   7   9
ENDBRANCH   6   7
ENDBRANCH   5   6
ENDBRANCH   4   5
ENDBRANCH   3   4
ENDBRANCH   2   3
ENDBRANCH   1   2
BRANCH   1  37
ATOM     37  O   UNL     1       3.345  -1.982   2.808  1.00  0.00    -0.377 OA
BRANCH  37  38
ATOM     38  C   UNL     1       4.710  -2.298   2.861  1.00  0.00     0.188 C 
BRANCH  38  39
ATOM     39  C   UNL     1       5.122  -3.743   2.581  1.00  0.00     0.188 C 
BRANCH  39  40
ATOM     40  O   UNL     1       4.198  -4.688   2.058  1.00  0.00    -0.376 OA
BRANCH  40  41
ATOM     41  C   UNL     1       3.019  -4.976   2.816  1.00  0.00     0.202 C 
BRANCH  41  42
ATOM     42  C   UNL     1       3.057  -6.238   3.662  1.00  0.00     0.261 C 
BRANCH  42  43
ATOM     43  O   UNL     1       3.476  -5.895   4.983  1.00  0.00    -0.460 OA
BRANCH  43  44
ATOM     44  C   UNL     1       4.807  -5.710   5.123  1.00  0.00     0.338 C 
ATOM     45  O   UNL     1       5.686  -6.281   4.500  1.00  0.00    -0.246 OA
BRANCH  44  46
ATOM     46  C   UNL     1       5.009  -4.492   5.953  1.00  0.00     0.060 A 
ATOM     47  C   UNL     1       3.984  -3.997   6.765  1.00  0.00     0.016 A 
ATOM     48  C   UNL     1       6.220  -3.784   5.833  1.00  0.00     0.016 A 
ATOM     49  C   UNL     1       4.206  -2.861   7.529  1.00  0.00     0.010 A 
ATOM     50  C   UNL     1       6.441  -2.636   6.585  1.00  0.00     0.010 A 
ATOM     51  C   UNL     1       5.464  -2.235   7.499  1.00  0.00    -0.014 A 
BRANCH  51  52
ATOM     52  C   UNL     1       5.856  -1.453   8.683  1.00  0.00     0.031 A 
ATOM     53  C   UNL     1       5.908   0.029   8.678  1.00  0.00     0.074 A 
ATOM     54  C   UNL     1       6.110  -2.177   9.791  1.00  0.00     0.049 A 
ATOM     55  N   UNL     1       6.037   0.831   9.698  1.00  0.00    -0.248 NA
ATOM     56  C   UNL     1       5.817   0.701   7.375  1.00  0.00     0.031 C 
ATOM     57  C   UNL     1       6.123  -3.645   9.840  1.00  0.00     0.029 A 
ATOM     58  N   UNL     1       6.349  -1.803  11.082  1.00  0.00    -0.354 N 
ATOM     59  C   UNL     1       6.009   2.111   9.173  1.00  0.00     0.074 A 
ATOM     60  C   UNL     1       5.919   1.976   7.732  1.00  0.00     0.031 C 
ATOM     61  C   UNL     1       6.267  -4.044  11.108  1.00  0.00     0.029 A 
ATOM     62  C   UNL     1       6.415  -2.867  11.951  1.00  0.00     0.049 A 
ATOM     63  H   UNL     1       6.463  -0.866  11.363  1.00  0.00     0.167 HD
ATOM     64  C   UNL     1       6.032   3.281   9.853  1.00  0.00     0.037 A 
ATOM     65  C   UNL     1       6.564  -2.890  13.287  1.00  0.00     0.037 A 
ATOM     66  C   UNL     1       6.149   3.360  11.288  1.00  0.00     0.049 A 
ATOM     67  C   UNL     1       6.635  -1.577  14.005  1.00  0.00     0.074 A 
ATOM     68  C   UNL     1       6.163   4.489  12.085  1.00  0.00     0.029 A 
ATOM     69  N   UNL     1       6.293   2.269  12.138  1.00  0.00    -0.354 N 
ATOM     70  N   UNL     1       6.516  -0.367  13.511  1.00  0.00    -0.248 NA
ATOM     71  C   UNL     1       6.861  -1.623  15.452  1.00  0.00     0.031 C 
ATOM     72  C   UNL     1       6.391   4.087  13.404  1.00  0.00     0.029 A 
ATOM     73  C   UNL     1       6.441   2.702  13.445  1.00  0.00     0.049 A 
ATOM     74  H   UNL     1       6.291   1.327  11.852  1.00  0.00     0.167 HD
ATOM     75  C   UNL     1       6.642   0.497  14.588  1.00  0.00     0.074 A 
ATOM     76  C   UNL     1       6.822  -0.334  15.764  1.00  0.00     0.031 C 
ATOM     77  C   UNL     1       6.620   1.852  14.601  1.00  0.00     0.037 A 
BRANCH  64  78
ATOM     78  C   UNL     1       5.939   4.554   9.061  1.00  0.00     0.058 A 
ATOM     79  C   UNL     1       4.770   4.903   8.364  1.00  0.00     0.135 A 
ATOM     80  C   UNL     1       7.012   5.459   9.031  1.00  0.00     0.135 A 
ATOM     81  F   UNL     1       3.716   4.071   8.349  1.00  0.00    -0.206 F 
ATOM     82  C   UNL     1       4.681   6.085   7.639  1.00  0.00     0.059 A 
ATOM     83  C   UNL     1       6.932   6.665   8.341  1.00  0.00     0.059 A 
ATOM     84  F   UNL     1       8.153   5.178   9.679  1.00  0.00    -0.206 F 
ATOM     85  C   UNL     1       5.768   6.961   7.635  1.00  0.00     0.060 A 
BRANCH  85  86
ATOM     86  S   UNL     1       5.637   8.481   6.672  1.00  0.00     0.124 S 
ATOM     87  O   UNL     1       5.554   7.956   5.312  1.00  0.00    -0.237 OA
ATOM     88  O   UNL     1       4.412   9.073   7.199  1.00  0.00    -0.237 OA
ATOM     89  O   UNL     1       6.868   9.196   6.992  1.00  0.00    -0.744 OA
ENDBRANCH  85  86
ENDBRANCH  64  78
BRANCH  65  90
ATOM     90  C   UNL     1       6.618  -4.195  13.995  1.00  0.00     0.058 A 
ATOM     91  C   UNL     1       5.589  -4.597  14.857  1.00  0.00     0.135 A 
ATOM     92  C   UNL     1       7.668  -5.100  13.764  1.00  0.00     0.135 A 
ATOM     93  F   UNL     1       4.561  -3.772  15.106  1.00  0.00    -0.206 F 
ATOM     94  C   UNL     1       5.602  -5.845  15.472  1.00  0.00     0.059 A 
ATOM     95  C   UNL     1       7.686  -6.365  14.340  1.00  0.00     0.059 A 
ATOM     96  F   UNL     1       8.666  -4.775  12.926  1.00  0.00    -0.206 F 
ATOM     97  C   UNL     1       6.651  -6.726  15.199  1.00  0.00     0.060 A 
BRANCH  97  98
ATOM     98  S   UNL     1       6.626  -8.360  15.964  1.00  0.00     0.124 S 
ATOM     99  O   UNL     1       6.764  -8.027  17.377  1.00  0.00    -0.237 OA
ATOM    100  O   UNL     1       5.321  -8.866  15.551  1.00  0.00    -0.237 OA
ATOM    101  O   UNL     1       7.772  -9.034  15.361  1.00  0.00    -0.744 OA
ENDBRANCH  97  98
ENDBRANCH  65  90
BRANCH  77 102
ATOM    102  C   UNL     1       6.796   2.537  15.928  1.00  0.00     0.058 A 
ATOM    103  C   UNL     1       8.038   2.555  16.581  1.00  0.00     0.135 A 
ATOM    104  C   UNL     1       5.745   3.281  16.490  1.00  0.00     0.135 A 
ATOM    105  F   UNL     1       9.071   1.851  16.091  1.00  0.00    -0.206 F 
ATOM    106  C   UNL     1       8.232   3.287  17.746  1.00  0.00     0.059 A 
ATOM    107  C   UNL     1       5.928   4.050  17.634  1.00  0.00     0.059 A 
ATOM    108  F   UNL     1       4.540   3.303  15.899  1.00  0.00    -0.206 F 
ATOM    109  C   UNL     1       7.176   4.045  18.255  1.00  0.00     0.060 A 
BRANCH 109 110
ATOM    110  S   UNL     1       7.472   5.048  19.725  1.00  0.00     0.124 S 
ATOM    111  O   UNL     1       7.718   4.024  20.736  1.00  0.00    -0.237 OA
ATOM    112  O   UNL     1       8.633   5.838  19.327  1.00  0.00    -0.237 OA
ATOM    113  O   UNL     1       6.231   5.798  19.883  1.00  0.00    -0.744 OA
ENDBRANCH 109 110
ENDBRANCH  77 102
ENDBRANCH  51  52
ENDBRANCH  44  46
ENDBRANCH  43  44
ENDBRANCH  42  43
ENDBRANCH  41  42
ENDBRANCH  40  41
ENDBRANCH  39  40
ENDBRANCH  38  39
ENDBRANCH  37  38
ENDBRANCH   1  37
TORSDOF 28
