REMARK SMILES Cc1c(CCC(=O)N2CCC[C@H]2C(=O)OCCOCCOCCOCCOC(=O)c2ccc(-c3c4nc(c(-c5c(F)cc(S(=O)(=O)[O-])cc5F)c5ccc([nH]5)c(-c5c(F)cc(S(=O)(=O)[O-])cc5F)c5nc(c(-c6c(F)cc(S(=O)(=O)[O-])cc6F)c6ccc3[nH]6)C=C5)C=C4)cc2)c(=O)oc2cc3oc4c(c3cc12)CCCC4
REMARK SMILES IDX 20 1 19 2 18 3 17 4 16 5 15 6 13 7 14 8 12 9 8 10 9 11 10 12
REMARK SMILES IDX 11 13 6 14 7 15 5 16 4 17 3 18 1 19 2 20 107 21 96 22 99 23
REMARK SMILES IDX 106 24 97 25 98 26 100 27 105 28 101 29 104 30 102 31 103 32
REMARK SMILES IDX 108 33 111 34 109 35 110 36 21 37 22 38 23 39 24 40 25 41
REMARK SMILES IDX 26 42 27 43 28 44 29 45 30 46 31 47 95 48 32 49 94 50 33 51
REMARK SMILES IDX 34 52 35 53 88 54 36 55 93 56 87 57 89 58 37 59 92 60 86 61
REMARK SMILES IDX 85 62 38 64 72 65 51 66 71 67 52 68 55 69 70 70 90 71 53 72
REMARK SMILES IDX 54 73 69 75 91 76 56 77 39 78 40 79 49 80 41 81 42 82 48 83
REMARK SMILES IDX 50 84 43 85 44 86 45 87 46 88 47 89 73 90 74 91 83 92 75 93
REMARK SMILES IDX 76 94 82 95 84 96 77 97 78 98 79 99 80 100 81 101 57 102
REMARK SMILES IDX 58 103 67 104 59 105 60 106 66 107 68 108 61 109 62 110
REMARK SMILES IDX 63 111 64 112 65 113
REMARK H PARENT 89 63 55 74
REMARK Flexibility Score: inf
ROOT
ATOM      1  C   UNL     1       4.448   0.474   3.819  1.00  0.00     0.188 C 
ENDROOT
BRANCH   1   2
ATOM      2  C   UNL     1       4.489   0.461   2.284  1.00  0.00     0.188 C 
BRANCH   2   3
ATOM      3  O   UNL     1       5.023   1.683   1.784  1.00  0.00    -0.376 OA
BRANCH   3   4
ATOM      4  C   UNL     1       4.082   2.668   1.366  1.00  0.00     0.202 C 
BRANCH   4   5
ATOM      5  C   UNL     1       3.063   3.148   2.412  1.00  0.00     0.261 C 
BRANCH   5   6
ATOM      6  O   UNL     1       2.092   2.193   2.901  1.00  0.00    -0.462 OA
BRANCH   6   7
ATOM      7  C   UNL     1       1.323   1.511   2.004  1.00  0.00     0.328 C 
ATOM      8  O   UNL     1       1.529   1.488   0.800  1.00  0.00    -0.250 OA
BRANCH   7   9
ATOM      9  C   UNL     1       0.299   0.637   2.751  1.00  0.00     0.195 C 
ATOM     10  N   UNL     1      -0.695  -0.056   1.911  1.00  0.00    -0.329 N 
ATOM     11  C   UNL     1      -0.723  -1.481   2.196  1.00  0.00     0.120 C 
ATOM     12  C   UNL     1       0.012  -1.634   3.512  1.00  0.00     0.024 C 
ATOM     13  C   UNL     1       1.035  -0.516   3.447  1.00  0.00     0.039 C 
BRANCH  10  14
ATOM     14  C   UNL     1      -1.588   0.670   1.153  1.00  0.00     0.223 C 
ATOM     15  O   UNL     1      -1.536   1.899   1.114  1.00  0.00    -0.275 OA
BRANCH  14  16
ATOM     16  C   UNL     1      -2.639  -0.065   0.330  1.00  0.00     0.105 C 
BRANCH  16  17
ATOM     17  C   UNL     1      -2.192  -0.374  -1.106  1.00  0.00     0.053 C 
BRANCH  17  18
ATOM     18  C   UNL     1      -1.085  -1.399  -1.144  1.00  0.00     0.042 A 
ATOM     19  C   UNL     1       0.643   0.274  -1.841  1.00  0.00     0.046 C 
ATOM     20  C   UNL     1       0.208  -1.073  -1.323  1.00  0.00    -0.030 A 
ATOM     21  C   UNL     1       1.215  -2.074  -0.961  1.00  0.00     0.022 A 
ATOM     22  C   UNL     1      -1.498  -2.815  -0.933  1.00  0.00     0.339 A 
ATOM     23  C   UNL     1       0.847  -3.421  -0.924  1.00  0.00     0.142 A 
ATOM     24  C   UNL     1       2.526  -1.721  -0.627  1.00  0.00     0.024 A 
ATOM     25  O   UNL     1      -2.668  -3.127  -0.740  1.00  0.00    -0.246 OA
ATOM     26  O   UNL     1      -0.508  -3.784  -1.027  1.00  0.00    -0.422 OA
ATOM     27  C   UNL     1       1.764  -4.467  -0.774  1.00  0.00     0.095 A 
ATOM     28  C   UNL     1       3.484  -2.737  -0.511  1.00  0.00     0.025 A 
ATOM     29  C   UNL     1       3.088  -4.064  -0.667  1.00  0.00     0.138 A 
ATOM     30  C   UNL     1       4.893  -2.747  -0.461  1.00  0.00     0.001 A 
ATOM     31  O   UNL     1       4.184  -4.866  -0.839  1.00  0.00    -0.461 OA
ATOM     32  C   UNL     1       5.240  -4.018  -0.860  1.00  0.00     0.108 A 
ATOM     33  C   UNL     1       5.876  -1.644  -0.586  1.00  0.00     0.040 C 
ATOM     34  C   UNL     1       6.404  -4.272  -1.749  1.00  0.00     0.076 C 
ATOM     35  C   UNL     1       6.462  -1.660  -2.012  1.00  0.00     0.005 C 
ATOM     36  C   UNL     1       6.452  -3.052  -2.715  1.00  0.00     0.008 C 
ENDBRANCH  17  18
ENDBRANCH  16  17
ENDBRANCH  14  16
ENDBRANCH  10  14
ENDBRANCH   7   9
ENDBRANCH   6   7
ENDBRANCH   5   6
ENDBRANCH   4   5
ENDBRANCH   3   4
ENDBRANCH   2   3
ENDBRANCH   1   2
BRANCH   1  37
ATOM     37  O   UNL     1       5.656   0.059   4.452  1.00  0.00    -0.377 OA
BRANCH  37  38
ATOM     38  C   UNL     1       6.861   0.610   3.948  1.00  0.00     0.188 C 
BRANCH  38  39
ATOM     39  C   UNL     1       7.878  -0.509   3.712  1.00  0.00     0.188 C 
BRANCH  39  40
ATOM     40  O   UNL     1       7.443  -1.593   2.883  1.00  0.00    -0.376 OA
BRANCH  40  41
ATOM     41  C   UNL     1       6.468  -2.504   3.411  1.00  0.00     0.202 C 
BRANCH  41  42
ATOM     42  C   UNL     1       6.773  -3.143   4.773  1.00  0.00     0.261 C 
BRANCH  42  43
ATOM     43  O   UNL     1       6.204  -2.354   5.835  1.00  0.00    -0.460 OA
BRANCH  43  44
ATOM     44  C   UNL     1       7.066  -1.864   6.754  1.00  0.00     0.338 C 
ATOM     45  O   UNL     1       8.240  -2.168   6.902  1.00  0.00    -0.246 OA
BRANCH  44  46
ATOM     46  C   UNL     1       6.431  -0.720   7.430  1.00  0.00     0.060 A 
ATOM     47  C   UNL     1       5.205  -0.828   8.087  1.00  0.00     0.016 A 
ATOM     48  C   UNL     1       7.085   0.509   7.356  1.00  0.00     0.016 A 
ATOM     49  C   UNL     1       4.648   0.304   8.694  1.00  0.00     0.010 A 
ATOM     50  C   UNL     1       6.495   1.643   7.902  1.00  0.00     0.010 A 
ATOM     51  C   UNL     1       5.285   1.555   8.608  1.00  0.00    -0.014 A 
BRANCH  51  52
ATOM     52  C   UNL     1       4.772   2.714   9.382  1.00  0.00     0.031 A 
ATOM     53  C   UNL     1       5.732   3.833   9.623  1.00  0.00     0.074 A 
ATOM     54  C   UNL     1       3.481   3.112   9.388  1.00  0.00     0.049 A 
ATOM     55  N   UNL     1       5.880   4.787   8.753  1.00  0.00    -0.248 NA
ATOM     56  C   UNL     1       6.750   3.831  10.671  1.00  0.00     0.031 C 
ATOM     57  C   UNL     1       2.543   2.923   8.274  1.00  0.00     0.029 A 
ATOM     58  N   UNL     1       2.816   3.946  10.258  1.00  0.00    -0.354 N 
ATOM     59  C   UNL     1       7.015   5.495   9.097  1.00  0.00     0.074 A 
ATOM     60  C   UNL     1       7.522   4.866  10.297  1.00  0.00     0.031 C 
ATOM     61  C   UNL     1       1.480   3.731   8.464  1.00  0.00     0.029 A 
ATOM     62  C   UNL     1       1.587   4.362   9.774  1.00  0.00     0.049 A 
ATOM     63  H   UNL     1       3.175   4.217  11.133  1.00  0.00     0.167 HD
ATOM     64  C   UNL     1       7.444   6.565   8.375  1.00  0.00     0.037 A 
ATOM     65  C   UNL     1       0.848   5.411  10.215  1.00  0.00     0.037 A 
ATOM     66  C   UNL     1       6.610   7.020   7.282  1.00  0.00     0.049 A 
ATOM     67  C   UNL     1       1.549   6.571   9.564  1.00  0.00     0.074 A 
ATOM     68  C   UNL     1       6.757   7.612   6.044  1.00  0.00     0.029 A 
ATOM     69  N   UNL     1       5.259   6.903   7.462  1.00  0.00    -0.354 N 
ATOM     70  N   UNL     1       1.396   6.949   8.320  1.00  0.00    -0.248 NA
ATOM     71  C   UNL     1       2.698   7.188  10.251  1.00  0.00     0.031 C 
ATOM     72  C   UNL     1       5.446   7.970   5.578  1.00  0.00     0.029 A 
ATOM     73  C   UNL     1       4.533   7.631   6.562  1.00  0.00     0.049 A 
ATOM     74  H   UNL     1       4.851   6.350   8.168  1.00  0.00     0.167 HD
ATOM     75  C   UNL     1       2.578   7.609   8.008  1.00  0.00     0.074 A 
ATOM     76  C   UNL     1       3.268   7.857   9.255  1.00  0.00     0.031 C 
ATOM     77  C   UNL     1       3.104   7.661   6.753  1.00  0.00     0.037 A 
BRANCH  64  78
ATOM     78  C   UNL     1       8.562   7.428   8.827  1.00  0.00     0.058 A 
ATOM     79  C   UNL     1       8.242   8.621   9.495  1.00  0.00     0.135 A 
ATOM     80  C   UNL     1       9.901   7.198   8.496  1.00  0.00     0.135 A 
ATOM     81  F   UNL     1       6.969   8.875   9.843  1.00  0.00    -0.206 F 
ATOM     82  C   UNL     1       9.206   9.574   9.792  1.00  0.00     0.059 A 
ATOM     83  C   UNL     1      10.890   8.139   8.790  1.00  0.00     0.059 A 
ATOM     84  F   UNL     1      10.257   6.073   7.855  1.00  0.00    -0.206 F 
ATOM     85  C   UNL     1      10.527   9.332   9.420  1.00  0.00     0.060 A 
BRANCH  85  86
ATOM     86  S   UNL     1      11.749  10.620   9.757  1.00  0.00     0.124 S 
ATOM     87  O   UNL     1      11.266  11.718   8.927  1.00  0.00    -0.237 OA
ATOM     88  O   UNL     1      11.607  10.801  11.198  1.00  0.00    -0.237 OA
ATOM     89  O   UNL     1      13.006  10.015   9.326  1.00  0.00    -0.744 OA
ENDBRANCH  85  86
ENDBRANCH  64  78
BRANCH  65  90
ATOM     90  C   UNL     1       0.451   5.366  11.659  1.00  0.00     0.058 A 
ATOM     91  C   UNL     1      -0.134   4.177  12.153  1.00  0.00     0.135 A 
ATOM     92  C   UNL     1       0.585   6.410  12.584  1.00  0.00     0.135 A 
ATOM     93  F   UNL     1      -0.439   3.172  11.315  1.00  0.00    -0.206 F 
ATOM     94  C   UNL     1      -0.409   3.980  13.502  1.00  0.00     0.059 A 
ATOM     95  C   UNL     1       0.344   6.231  13.948  1.00  0.00     0.059 A 
ATOM     96  F   UNL     1       0.966   7.635  12.196  1.00  0.00    -0.206 F 
ATOM     97  C   UNL     1      -0.121   5.000  14.402  1.00  0.00     0.060 A 
BRANCH  97  98
ATOM     98  S   UNL     1      -0.298   4.668  16.165  1.00  0.00     0.124 S 
ATOM     99  O   UNL     1      -1.745   4.539  16.304  1.00  0.00    -0.237 OA
ATOM    100  O   UNL     1       0.467   3.433  16.315  1.00  0.00    -0.237 OA
ATOM    101  O   UNL     1       0.295   5.845  16.791  1.00  0.00    -0.744 OA
ENDBRANCH  97  98
ENDBRANCH  65  90
BRANCH  77 102
ATOM    102  C   UNL     1       2.153   7.573   5.624  1.00  0.00     0.058 A 
ATOM    103  C   UNL     1       1.183   8.575   5.462  1.00  0.00     0.135 A 
ATOM    104  C   UNL     1       2.228   6.563   4.659  1.00  0.00     0.135 A 
ATOM    105  F   UNL     1       1.095   9.585   6.344  1.00  0.00    -0.206 F 
ATOM    106  C   UNL     1       0.326   8.587   4.371  1.00  0.00     0.059 A 
ATOM    107  C   UNL     1       1.382   6.561   3.555  1.00  0.00     0.059 A 
ATOM    108  F   UNL     1       3.134   5.577   4.764  1.00  0.00    -0.206 F 
ATOM    109  C   UNL     1       0.442   7.582   3.415  1.00  0.00     0.060 A 
BRANCH 109 110
ATOM    110  S   UNL     1      -0.579   7.680   1.932  1.00  0.00     0.124 S 
ATOM    111  O   UNL     1      -1.890   7.300   2.444  1.00  0.00    -0.237 OA
ATOM    112  O   UNL     1      -0.430   9.081   1.546  1.00  0.00    -0.237 OA
ATOM    113  O   UNL     1       0.053   6.724   1.028  1.00  0.00    -0.744 OA
ENDBRANCH 109 110
ENDBRANCH  77 102
ENDBRANCH  51  52
ENDBRANCH  44  46
ENDBRANCH  43  44
ENDBRANCH  42  43
ENDBRANCH  41  42
ENDBRANCH  40  41
ENDBRANCH  39  40
ENDBRANCH  38  39
ENDBRANCH  37  38
ENDBRANCH   1  37
TORSDOF 27
