REMARK SMILES Cc1ccccc1NC(=O)CSc1nc(C(=O)OCCOCCOCCOCCOC(=O)c2ccc(-c3c4nc(c(-c5c(F)cc(S(=O)(=O)[O-])cc5F)c5ccc([nH]5)c(-c5c(F)cc(S(=O)(=O)[O-])cc5F)c5nc(c(-c6c(F)cc(S(=O)(=O)[O-])cc6F)c6ccc3[nH]6)C=C5)C=C4)cc2)c2ccccc2n1
REMARK SMILES IDX 23 1 22 2 21 3 20 4 19 5 18 6 16 7 17 8 15 9 13 10 14 11
REMARK SMILES IDX 105 12 104 13 99 14 103 15 100 16 102 17 101 18 12 19 11 20
REMARK SMILES IDX 9 21 8 22 10 24 7 25 1 26 2 27 3 28 4 29 6 30 5 31 24 32
REMARK SMILES IDX 25 33 26 34 27 35 28 36 29 37 30 38 31 39 32 40 33 41 34 42
REMARK SMILES IDX 98 43 35 44 97 45 36 46 37 47 38 48 91 49 39 50 96 51 90 52
REMARK SMILES IDX 92 53 40 54 95 55 89 56 88 57 41 59 75 60 54 61 74 62 55 63
REMARK SMILES IDX 58 64 73 65 93 66 56 67 57 68 72 70 94 71 59 72 42 73 43 74
REMARK SMILES IDX 52 75 44 76 45 77 51 78 53 79 46 80 47 81 48 82 49 83 50 84
REMARK SMILES IDX 76 85 77 86 86 87 78 88 79 89 85 90 87 91 80 92 81 93 82 94
REMARK SMILES IDX 83 95 84 96 60 97 61 98 70 99 62 100 63 101 69 102 71 103
REMARK SMILES IDX 64 104 65 105 66 106 67 107 68 108
REMARK H PARENT 8 23 92 58 58 69
REMARK Flexibility Score: inf
ROOT
ATOM      1  C   UNL     1      -3.931   4.930  -4.891  1.00  0.00     0.188 C 
ENDROOT
BRANCH   1   2
ATOM      2  C   UNL     1      -3.767   5.180  -3.386  1.00  0.00     0.188 C 
BRANCH   2   3
ATOM      3  O   UNL     1      -4.148   6.453  -2.881  1.00  0.00    -0.376 OA
BRANCH   3   4
ATOM      4  C   UNL     1      -3.176   7.493  -3.012  1.00  0.00     0.202 C 
BRANCH   4   5
ATOM      5  C   UNL     1      -1.814   7.177  -2.407  1.00  0.00     0.261 C 
BRANCH   5   6
ATOM      6  O   UNL     1      -1.076   6.339  -3.317  1.00  0.00    -0.458 OA
BRANCH   6   7
ATOM      7  C   UNL     1      -0.092   5.640  -2.718  1.00  0.00     0.357 C 
ATOM      8  O   UNL     1       0.386   5.864  -1.619  1.00  0.00    -0.244 OA
BRANCH   7   9
ATOM      9  C   UNL     1      -0.014   4.280  -3.290  1.00  0.00     0.160 A 
ATOM     10  C   UNL     1      -0.638   2.284  -2.510  1.00  0.00     0.189 A 
ATOM     11  N   UNL     1      -0.039   3.417  -2.270  1.00  0.00    -0.215 NA
ATOM     12  N   UNL     1      -0.650   1.713  -3.716  1.00  0.00    -0.222 NA
ATOM     13  C   UNL     1      -0.289   2.491  -4.750  1.00  0.00     0.076 A 
ATOM     14  C   UNL     1      -0.126   3.871  -4.612  1.00  0.00     0.034 A 
ATOM     15  C   UNL     1      -0.161   1.937  -6.018  1.00  0.00     0.029 A 
ATOM     16  C   UNL     1      -0.097   4.680  -5.766  1.00  0.00     0.013 A 
ATOM     17  C   UNL     1       0.002   2.733  -7.156  1.00  0.00     0.002 A 
ATOM     18  C   UNL     1      -0.032   4.114  -7.034  1.00  0.00     0.001 A 
BRANCH  10  19
ATOM     19  S   UNL     1      -1.993   2.003  -1.396  1.00  0.00    -0.076 SA
BRANCH  19  20
ATOM     20  C   UNL     1      -1.567   3.202  -0.032  1.00  0.00     0.178 C 
BRANCH  20  21
ATOM     21  C   UNL     1      -0.136   3.150   0.519  1.00  0.00     0.234 C 
ATOM     22  N   UNL     1       0.583   1.997   0.663  1.00  0.00    -0.325 N 
ATOM     23  H   UNL     1       1.547   2.128   0.816  1.00  0.00     0.169 HD
ATOM     24  O   UNL     1       0.428   4.184   0.894  1.00  0.00    -0.274 OA
BRANCH  22  25
ATOM     25  C   UNL     1       0.173   0.659   0.628  1.00  0.00     0.044 A 
ATOM     26  C   UNL     1       2.509  -0.119  -0.107  1.00  0.00     0.046 C 
ATOM     27  C   UNL     1       1.047  -0.339   0.170  1.00  0.00    -0.027 A 
ATOM     28  C   UNL     1       0.530  -1.630  -0.043  1.00  0.00     0.005 A 
ATOM     29  C   UNL     1      -0.811  -1.924   0.209  1.00  0.00     0.000 A 
ATOM     30  C   UNL     1      -1.126   0.311   1.017  1.00  0.00     0.026 A 
ATOM     31  C   UNL     1      -1.635  -0.958   0.765  1.00  0.00     0.002 A 
ENDBRANCH  22  25
ENDBRANCH  20  21
ENDBRANCH  19  20
ENDBRANCH  10  19
ENDBRANCH   7   9
ENDBRANCH   6   7
ENDBRANCH   5   6
ENDBRANCH   4   5
ENDBRANCH   3   4
ENDBRANCH   2   3
ENDBRANCH   1   2
BRANCH   1  32
ATOM     32  O   UNL     1      -3.087   5.672  -5.754  1.00  0.00    -0.377 OA
BRANCH  32  33
ATOM     33  C   UNL     1      -3.641   6.728  -6.553  1.00  0.00     0.188 C 
BRANCH  33  34
ATOM     34  C   UNL     1      -5.158   6.852  -6.693  1.00  0.00     0.188 C 
BRANCH  34  35
ATOM     35  O   UNL     1      -5.697   7.271  -5.436  1.00  0.00    -0.376 OA
BRANCH  35  36
ATOM     36  C   UNL     1      -7.030   6.860  -5.159  1.00  0.00     0.202 C 
BRANCH  36  37
ATOM     37  C   UNL     1      -8.075   7.372  -6.157  1.00  0.00     0.261 C 
BRANCH  37  38
ATOM     38  O   UNL     1      -8.418   8.753  -5.912  1.00  0.00    -0.460 OA
BRANCH  38  39
ATOM     39  C   UNL     1      -7.924   9.649  -6.812  1.00  0.00     0.338 C 
ATOM     40  O   UNL     1      -8.505   9.961  -7.842  1.00  0.00    -0.246 OA
BRANCH  39  41
ATOM     41  C   UNL     1      -6.644  10.234  -6.335  1.00  0.00     0.060 A 
ATOM     42  C   UNL     1      -5.720  10.810  -7.219  1.00  0.00     0.016 A 
ATOM     43  C   UNL     1      -6.293  10.059  -5.006  1.00  0.00     0.016 A 
ATOM     44  C   UNL     1      -4.396  11.063  -6.806  1.00  0.00     0.010 A 
ATOM     45  C   UNL     1      -4.976  10.224  -4.635  1.00  0.00     0.010 A 
ATOM     46  C   UNL     1      -3.995  10.709  -5.518  1.00  0.00    -0.014 A 
BRANCH  46  47
ATOM     47  C   UNL     1      -2.611  10.618  -4.994  1.00  0.00     0.031 A 
ATOM     48  C   UNL     1      -2.346  11.002  -3.551  1.00  0.00     0.074 A 
ATOM     49  C   UNL     1      -1.721   9.821  -5.636  1.00  0.00     0.049 A 
ATOM     50  N   UNL     1      -1.317  10.657  -2.851  1.00  0.00    -0.248 NA
ATOM     51  C   UNL     1      -3.268  11.818  -2.755  1.00  0.00     0.031 C 
ATOM     52  C   UNL     1      -0.746   8.971  -4.960  1.00  0.00     0.029 A 
ATOM     53  N   UNL     1      -1.529   9.485  -6.973  1.00  0.00    -0.354 N 
ATOM     54  C   UNL     1      -1.558  10.909  -1.513  1.00  0.00     0.074 A 
ATOM     55  C   UNL     1      -2.760  11.700  -1.521  1.00  0.00     0.031 C 
ATOM     56  C   UNL     1      -0.035   8.262  -5.836  1.00  0.00     0.029 A 
ATOM     57  C   UNL     1      -0.285   8.847  -7.118  1.00  0.00     0.049 A 
ATOM     58  H   UNL     1      -2.165   9.667  -7.702  1.00  0.00     0.167 HD
ATOM     59  C   UNL     1      -0.758  10.330  -0.562  1.00  0.00     0.037 A 
ATOM     60  C   UNL     1       0.757   9.403  -7.807  1.00  0.00     0.037 A 
ATOM     61  C   UNL     1       0.453   9.744  -1.174  1.00  0.00     0.049 A 
ATOM     62  C   UNL     1       1.927   9.768  -6.891  1.00  0.00     0.074 A 
ATOM     63  C   UNL     1       1.090   8.524  -1.076  1.00  0.00     0.029 A 
ATOM     64  N   UNL     1       1.155  10.446  -2.162  1.00  0.00    -0.354 N 
ATOM     65  N   UNL     1       1.768  10.102  -5.626  1.00  0.00    -0.248 NA
ATOM     66  C   UNL     1       3.341   9.607  -7.228  1.00  0.00     0.031 C 
ATOM     67  C   UNL     1       2.054   8.431  -2.121  1.00  0.00     0.029 A 
ATOM     68  C   UNL     1       2.115   9.659  -2.763  1.00  0.00     0.049 A 
ATOM     69  H   UNL     1       0.985  11.386  -2.398  1.00  0.00     0.167 HD
ATOM     70  C   UNL     1       2.978  10.103  -4.979  1.00  0.00     0.074 A 
ATOM     71  C   UNL     1       3.935   9.826  -6.038  1.00  0.00     0.031 C 
ATOM     72  C   UNL     1       3.140  10.236  -3.624  1.00  0.00     0.037 A 
BRANCH  59  73
ATOM     73  C   UNL     1      -1.112  10.121   0.932  1.00  0.00     0.058 A 
ATOM     74  C   UNL     1      -0.170   9.569   1.840  1.00  0.00     0.135 A 
ATOM     75  C   UNL     1      -2.383  10.332   1.516  1.00  0.00     0.135 A 
ATOM     76  F   UNL     1       1.099   9.342   1.474  1.00  0.00    -0.206 F 
ATOM     77  C   UNL     1      -0.467   9.226   3.172  1.00  0.00     0.059 A 
ATOM     78  C   UNL     1      -2.685  10.059   2.864  1.00  0.00     0.059 A 
ATOM     79  F   UNL     1      -3.425  10.775   0.804  1.00  0.00    -0.206 F 
ATOM     80  C   UNL     1      -1.729   9.481   3.684  1.00  0.00     0.060 A 
BRANCH  80  81
ATOM     81  S   UNL     1      -2.092   9.102   5.415  1.00  0.00     0.124 S 
ATOM     82  O   UNL     1      -2.194   7.646   5.400  1.00  0.00    -0.237 OA
ATOM     83  O   UNL     1      -0.933   9.650   6.113  1.00  0.00    -0.237 OA
ATOM     84  O   UNL     1      -3.347   9.808   5.661  1.00  0.00    -0.744 OA
ENDBRANCH  80  81
ENDBRANCH  59  73
BRANCH  60  85
ATOM     85  C   UNL     1       0.353   9.792  -9.196  1.00  0.00     0.058 A 
ATOM     86  C   UNL     1       0.064   8.666 -10.004  1.00  0.00     0.135 A 
ATOM     87  C   UNL     1      -0.500  10.903  -9.341  1.00  0.00     0.135 A 
ATOM     88  F   UNL     1       0.878   7.597  -9.967  1.00  0.00    -0.206 F 
ATOM     89  C   UNL     1      -1.182   8.508 -10.610  1.00  0.00     0.059 A 
ATOM     90  C   UNL     1      -1.753  10.771  -9.954  1.00  0.00     0.059 A 
ATOM     91  F   UNL     1      -0.249  12.032  -8.660  1.00  0.00    -0.206 F 
ATOM     92  C   UNL     1      -2.118   9.534 -10.492  1.00  0.00     0.060 A 
BRANCH  92  93
ATOM     93  S   UNL     1      -3.868   9.112 -10.736  1.00  0.00     0.124 S 
ATOM     94  O   UNL     1      -3.942   8.923 -12.178  1.00  0.00    -0.237 OA
ATOM     95  O   UNL     1      -3.998   7.905  -9.921  1.00  0.00    -0.237 OA
ATOM     96  O   UNL     1      -4.564  10.280 -10.209  1.00  0.00    -0.744 OA
ENDBRANCH  92  93
ENDBRANCH  60  85
BRANCH  72  97
ATOM     97  C   UNL     1       4.342  10.862  -2.921  1.00  0.00     0.058 A 
ATOM     98  C   UNL     1       5.334  11.598  -3.585  1.00  0.00     0.135 A 
ATOM     99  C   UNL     1       4.402  10.936  -1.497  1.00  0.00     0.135 A 
ATOM    100  F   UNL     1       5.367  11.693  -4.920  1.00  0.00    -0.206 F 
ATOM    101  C   UNL     1       6.310  12.327  -2.904  1.00  0.00     0.059 A 
ATOM    102  C   UNL     1       5.339  11.692  -0.801  1.00  0.00     0.059 A 
ATOM    103  F   UNL     1       3.518  10.317  -0.705  1.00  0.00    -0.206 F 
ATOM    104  C   UNL     1       6.298  12.382  -1.514  1.00  0.00     0.060 A 
BRANCH 104 105
ATOM    105  S   UNL     1       7.492  13.424  -0.666  1.00  0.00     0.124 S 
ATOM    106  O   UNL     1       8.706  12.620  -0.771  1.00  0.00    -0.237 OA
ATOM    107  O   UNL     1       7.469  14.641  -1.472  1.00  0.00    -0.237 OA
ATOM    108  O   UNL     1       6.941  13.562   0.678  1.00  0.00    -0.744 OA
ENDBRANCH 104 105
ENDBRANCH  72  97
ENDBRANCH  46  47
ENDBRANCH  39  41
ENDBRANCH  38  39
ENDBRANCH  37  38
ENDBRANCH  36  37
ENDBRANCH  35  36
ENDBRANCH  34  35
ENDBRANCH  33  34
ENDBRANCH  32  33
ENDBRANCH   1  32
TORSDOF 27
