REMARK SMILES CCn1cc(/C=C/c2cc(C(=O)OCCOCCOCCOCCOC(=O)c3ccc(-c4c5nc(c(-c6c(F)cc(S(=O)(=O)[O-])cc6F)c6ccc([nH]6)c(-c6c(F)cc(S(=O)(=O)[O-])cc6F)c6nc(c(-c7c(F)cc(S(=O)(=O)[O-])cc7F)c7ccc4[nH]7)C=C6)C=C5)cc3)ncn2)cn1
REMARK SMILES IDX 19 1 18 2 17 3 16 4 15 5 14 6 13 7 11 8 12 9 10 10 8 11 9 12
REMARK SMILES IDX 96 13 95 14 94 15 7 16 6 17 5 18 3 19 4 20 98 21 97 22 2 23
REMARK SMILES IDX 1 24 20 25 21 26 22 27 23 28 24 29 25 30 26 31 27 32 28 33
REMARK SMILES IDX 29 34 93 35 30 36 92 37 31 38 32 39 33 40 86 41 34 42 91 43
REMARK SMILES IDX 85 44 87 45 35 46 90 47 84 48 83 49 36 51 70 52 49 53 69 54
REMARK SMILES IDX 50 55 53 56 68 57 88 58 51 59 52 60 67 62 89 63 54 64 37 65
REMARK SMILES IDX 38 66 47 67 39 68 40 69 46 70 48 71 41 72 42 73 43 74 44 75
REMARK SMILES IDX 45 76 71 77 72 78 81 79 73 80 74 81 80 82 82 83 75 84 76 85
REMARK SMILES IDX 77 86 78 87 79 88 55 89 56 90 65 91 57 92 58 93 64 94 66 95
REMARK SMILES IDX 59 96 60 97 61 98 62 99 63 100
REMARK H PARENT 87 50 53 61
REMARK Flexibility Score: inf
ROOT
ATOM      1  O   UNL     1      -0.022  -2.138   9.785  1.00  0.00    -0.377 OA
ENDROOT
BRANCH   1   2
ATOM      2  C   UNL     1       0.738  -3.294  10.091  1.00  0.00     0.188 C 
BRANCH   2   3
ATOM      3  C   UNL     1       1.881  -3.043  11.099  1.00  0.00     0.188 C 
BRANCH   3   4
ATOM      4  O   UNL     1       1.883  -1.880  11.909  1.00  0.00    -0.376 OA
BRANCH   4   5
ATOM      5  C   UNL     1       1.805  -0.563  11.395  1.00  0.00     0.202 C 
BRANCH   5   6
ATOM      6  C   UNL     1       2.220  -0.121   9.981  1.00  0.00     0.261 C 
BRANCH   6   7
ATOM      7  O   UNL     1       2.444  -1.139   9.013  1.00  0.00    -0.459 OA
BRANCH   7   8
ATOM      8  C   UNL     1       3.707  -1.621   8.922  1.00  0.00     0.357 C 
ATOM      9  O   UNL     1       4.686  -1.215   9.518  1.00  0.00    -0.244 OA
BRANCH   8  10
ATOM     10  C   UNL     1       3.644  -2.840   8.062  1.00  0.00     0.152 A 
ATOM     11  C   UNL     1       2.864  -4.010   6.205  1.00  0.00     0.067 A 
ATOM     12  C   UNL     1       2.851  -2.845   6.938  1.00  0.00     0.064 A 
ATOM     13  N   UNL     1       3.508  -5.118   6.614  1.00  0.00    -0.237 NA
ATOM     14  C   UNL     1       4.213  -5.014   7.749  1.00  0.00     0.223 A 
ATOM     15  N   UNL     1       4.346  -3.912   8.492  1.00  0.00    -0.229 NA
BRANCH  11  16
ATOM     16  C   UNL     1       2.210  -4.107   4.895  1.00  0.00     0.029 C 
ATOM     17  C   UNL     1       2.161  -3.054   4.063  1.00  0.00     0.013 C 
BRANCH  17  18
ATOM     18  C   UNL     1       1.617  -3.012   2.755  1.00  0.00     0.013 A 
ATOM     19  N   UNL     1       0.933  -2.197   0.841  1.00  0.00    -0.272 N 
ATOM     20  C   UNL     1       1.491  -1.848   2.035  1.00  0.00     0.116 A 
ATOM     21  N   UNL     1       0.721  -3.525   0.729  1.00  0.00    -0.181 NA
ATOM     22  C   UNL     1       1.121  -4.016   1.907  1.00  0.00     0.143 A 
BRANCH  19  23
ATOM     23  C   UNL     1       0.535  -1.328  -0.251  1.00  0.00     0.141 C 
ATOM     24  C   UNL     1       1.024   0.111  -0.154  1.00  0.00     0.029 C 
ENDBRANCH  19  23
ENDBRANCH  17  18
ENDBRANCH  11  16
ENDBRANCH   8  10
ENDBRANCH   7   8
ENDBRANCH   6   7
ENDBRANCH   5   6
ENDBRANCH   4   5
ENDBRANCH   3   4
ENDBRANCH   2   3
ENDBRANCH   1   2
BRANCH   1  25
ATOM     25  C   UNL     1      -1.208  -1.931  10.555  1.00  0.00     0.188 C 
BRANCH  25  26
ATOM     26  C   UNL     1      -1.206  -2.252  12.071  1.00  0.00     0.188 C 
BRANCH  26  27
ATOM     27  O   UNL     1      -0.463  -3.406  12.435  1.00  0.00    -0.376 OA
BRANCH  27  28
ATOM     28  C   UNL     1      -1.093  -4.615  12.810  1.00  0.00     0.202 C 
BRANCH  28  29
ATOM     29  C   UNL     1      -1.929  -5.331  11.757  1.00  0.00     0.261 C 
BRANCH  29  30
ATOM     30  O   UNL     1      -2.796  -4.487  11.024  1.00  0.00    -0.460 OA
BRANCH  30  31
ATOM     31  C   UNL     1      -3.831  -4.000  11.738  1.00  0.00     0.338 C 
ATOM     32  O   UNL     1      -3.914  -3.905  12.946  1.00  0.00    -0.246 OA
BRANCH  31  33
ATOM     33  C   UNL     1      -4.932  -3.748  10.812  1.00  0.00     0.060 A 
ATOM     34  C   UNL     1      -6.016  -3.024  11.304  1.00  0.00     0.016 A 
ATOM     35  C   UNL     1      -4.995  -4.490   9.622  1.00  0.00     0.016 A 
ATOM     36  C   UNL     1      -7.237  -3.210  10.700  1.00  0.00     0.010 A 
ATOM     37  C   UNL     1      -6.217  -4.693   9.037  1.00  0.00     0.010 A 
ATOM     38  C   UNL     1      -7.332  -4.112   9.632  1.00  0.00    -0.014 A 
BRANCH  38  39
ATOM     39  C   UNL     1      -8.634  -4.318   9.038  1.00  0.00     0.031 A 
ATOM     40  C   UNL     1      -9.059  -3.140   8.252  1.00  0.00     0.074 A 
ATOM     41  C   UNL     1      -9.303  -5.482   9.126  1.00  0.00     0.049 A 
ATOM     42  N   UNL     1      -9.978  -2.288   8.556  1.00  0.00    -0.248 NA
ATOM     43  C   UNL     1      -8.209  -2.726   7.121  1.00  0.00     0.031 C 
ATOM     44  C   UNL     1      -8.826  -6.763   9.652  1.00  0.00     0.029 A 
ATOM     45  N   UNL     1     -10.546  -5.790   8.671  1.00  0.00    -0.354 N 
ATOM     46  C   UNL     1     -10.002  -1.387   7.498  1.00  0.00     0.074 A 
ATOM     47  C   UNL     1      -8.758  -1.554   6.801  1.00  0.00     0.031 C 
ATOM     48  C   UNL     1      -9.678  -7.746   9.275  1.00  0.00     0.029 A 
ATOM     49  C   UNL     1     -10.819  -7.153   8.596  1.00  0.00     0.049 A 
ATOM     50  H   UNL     1     -11.202  -5.102   8.413  1.00  0.00     0.167 HD
ATOM     51  C   UNL     1     -11.177  -0.825   7.107  1.00  0.00     0.037 A 
ATOM     52  C   UNL     1     -11.877  -7.726   7.961  1.00  0.00     0.037 A 
ATOM     53  C   UNL     1     -12.153  -0.897   8.169  1.00  0.00     0.049 A 
ATOM     54  C   UNL     1     -12.902  -6.660   7.792  1.00  0.00     0.074 A 
ATOM     55  C   UNL     1     -12.195  -0.461   9.480  1.00  0.00     0.029 A 
ATOM     56  N   UNL     1     -13.143  -1.844   8.056  1.00  0.00    -0.354 N 
ATOM     57  N   UNL     1     -13.561  -6.122   8.781  1.00  0.00    -0.248 NA
ATOM     58  C   UNL     1     -12.865  -5.875   6.567  1.00  0.00     0.031 C 
ATOM     59  C   UNL     1     -12.884  -1.485  10.193  1.00  0.00     0.029 A 
ATOM     60  C   UNL     1     -13.292  -2.452   9.274  1.00  0.00     0.049 A 
ATOM     61  H   UNL     1     -13.655  -2.049   7.241  1.00  0.00     0.167 HD
ATOM     62  C   UNL     1     -13.641  -4.775   8.460  1.00  0.00     0.074 A 
ATOM     63  C   UNL     1     -13.273  -4.698   7.048  1.00  0.00     0.031 C 
ATOM     64  C   UNL     1     -13.712  -3.826   9.438  1.00  0.00     0.037 A 
BRANCH  51  65
ATOM     65  C   UNL     1     -11.565  -0.634   5.654  1.00  0.00     0.058 A 
ATOM     66  C   UNL     1     -12.806  -0.029   5.363  1.00  0.00     0.135 A 
ATOM     67  C   UNL     1     -10.932  -1.265   4.557  1.00  0.00     0.135 A 
ATOM     68  F   UNL     1     -13.499   0.606   6.322  1.00  0.00    -0.206 F 
ATOM     69  C   UNL     1     -13.414  -0.131   4.113  1.00  0.00     0.059 A 
ATOM     70  C   UNL     1     -11.497  -1.332   3.290  1.00  0.00     0.059 A 
ATOM     71  F   UNL     1      -9.777  -1.928   4.661  1.00  0.00    -0.206 F 
ATOM     72  C   UNL     1     -12.756  -0.800   3.087  1.00  0.00     0.060 A 
BRANCH  72  73
ATOM     73  S   UNL     1     -13.567  -1.002   1.495  1.00  0.00     0.124 S 
ATOM     74  O   UNL     1     -14.639  -1.929   1.834  1.00  0.00    -0.237 OA
ATOM     75  O   UNL     1     -13.972   0.367   1.192  1.00  0.00    -0.237 OA
ATOM     76  O   UNL     1     -12.508  -1.539   0.646  1.00  0.00    -0.744 OA
ENDBRANCH  72  73
ENDBRANCH  51  65
BRANCH  52  77
ATOM     77  C   UNL     1     -11.948  -8.998   7.184  1.00  0.00     0.058 A 
ATOM     78  C   UNL     1     -13.181  -9.457   6.677  1.00  0.00     0.135 A 
ATOM     79  C   UNL     1     -10.799  -9.614   6.653  1.00  0.00     0.135 A 
ATOM     80  F   UNL     1     -14.333  -8.933   7.124  1.00  0.00    -0.206 F 
ATOM     81  C   UNL     1     -13.266 -10.395   5.642  1.00  0.00     0.059 A 
ATOM     82  C   UNL     1     -10.859 -10.561   5.629  1.00  0.00     0.059 A 
ATOM     83  F   UNL     1      -9.570  -9.244   7.040  1.00  0.00    -0.206 F 
ATOM     84  C   UNL     1     -12.094 -10.918   5.101  1.00  0.00     0.060 A 
BRANCH  84  85
ATOM     85  S   UNL     1     -12.184 -11.950   3.617  1.00  0.00     0.124 S 
ATOM     86  O   UNL     1     -12.771 -13.180   4.138  1.00  0.00    -0.237 OA
ATOM     87  O   UNL     1     -13.039 -11.157   2.740  1.00  0.00    -0.237 OA
ATOM     88  O   UNL     1     -10.790 -12.055   3.194  1.00  0.00    -0.744 OA
ENDBRANCH  84  85
ENDBRANCH  52  77
BRANCH  64  89
ATOM     89  C   UNL     1     -14.064  -4.261  10.836  1.00  0.00     0.058 A 
ATOM     90  C   UNL     1     -13.285  -5.111  11.641  1.00  0.00     0.135 A 
ATOM     91  C   UNL     1     -15.180  -3.656  11.435  1.00  0.00     0.135 A 
ATOM     92  F   UNL     1     -12.149  -5.654  11.178  1.00  0.00    -0.206 F 
ATOM     93  C   UNL     1     -13.625  -5.373  12.972  1.00  0.00     0.059 A 
ATOM     94  C   UNL     1     -15.516  -3.874  12.765  1.00  0.00     0.059 A 
ATOM     95  F   UNL     1     -15.933  -2.791  10.734  1.00  0.00    -0.206 F 
ATOM     96  C   UNL     1     -14.741  -4.744  13.526  1.00  0.00     0.060 A 
BRANCH  96  97
ATOM     97  S   UNL     1     -15.137  -5.013  15.268  1.00  0.00     0.124 S 
ATOM     98  O   UNL     1     -15.611  -6.393  15.265  1.00  0.00    -0.237 OA
ATOM     99  O   UNL     1     -13.853  -4.785  15.924  1.00  0.00    -0.237 OA
ATOM    100  O   UNL     1     -16.156  -4.004  15.546  1.00  0.00    -0.744 OA
ENDBRANCH  96  97
ENDBRANCH  64  89
ENDBRANCH  38  39
ENDBRANCH  31  33
ENDBRANCH  30  31
ENDBRANCH  29  30
ENDBRANCH  28  29
ENDBRANCH  27  28
ENDBRANCH  26  27
ENDBRANCH  25  26
ENDBRANCH   1  25
TORSDOF 26
