REMARK SMILES O=C(CSc1nnnn1-c1ccc(C(=O)OCCOCCOCCOCCOC(=O)c2ccc(-c3c4nc(c(-c5c(F)cc(S(=O)(=O)[O-])cc5F)c5ccc([nH]5)c(-c5c(F)cc(S(=O)(=O)[O-])cc5F)c5nc(c(-c6c(F)cc(S(=O)(=O)[O-])cc6F)c6ccc3[nH]6)C=C5)C=C4)cc2)cc1)Nc1nc(-c2ccccc2)cs1
REMARK SMILES IDX 20 1 19 2 18 3 17 4 16 5 14 6 15 7 13 8 10 9 11 10 98 11
REMARK SMILES IDX 12 12 97 13 9 14 5 15 6 16 7 17 8 18 4 19 3 20 2 21 1 22
REMARK SMILES IDX 99 23 100 25 101 26 110 27 102 28 109 29 103 30 104 31
REMARK SMILES IDX 108 32 105 33 107 34 106 35 21 36 22 37 23 38 24 39 25 40
REMARK SMILES IDX 26 41 27 42 28 43 29 44 30 45 31 46 32 47 96 48 33 49 95 50
REMARK SMILES IDX 34 51 35 52 36 53 89 54 37 55 94 56 88 57 90 58 38 59 93 60
REMARK SMILES IDX 87 61 86 62 39 64 73 65 52 66 72 67 53 68 56 69 71 70 91 71
REMARK SMILES IDX 54 72 55 73 70 75 92 76 57 77 40 78 41 79 50 80 42 81 43 82
REMARK SMILES IDX 49 83 51 84 44 85 45 86 46 87 47 88 48 89 74 90 75 91 84 92
REMARK SMILES IDX 76 93 77 94 83 95 85 96 78 97 79 98 80 99 81 100 82 101
REMARK SMILES IDX 58 102 59 103 68 104 60 105 61 106 67 107 69 108 62 109
REMARK SMILES IDX 63 110 64 111 65 112 66 113
REMARK H PARENT 99 24 90 63 56 74
REMARK Flexibility Score: inf
ROOT
ATOM      1  C   UNL     1      -1.994   1.172  -3.129  1.00  0.00     0.188 C 
ENDROOT
BRANCH   1   2
ATOM      2  O   UNL     1      -2.713   2.400  -3.076  1.00  0.00    -0.376 OA
BRANCH   2   3
ATOM      3  C   UNL     1      -2.867   2.923  -1.731  1.00  0.00     0.202 C 
BRANCH   3   4
ATOM      4  C   UNL     1      -1.595   3.213  -0.882  1.00  0.00     0.261 C 
BRANCH   4   5
ATOM      5  O   UNL     1      -0.756   2.069  -0.676  1.00  0.00    -0.460 OA
BRANCH   5   6
ATOM      6  C   UNL     1      -1.304   1.000  -0.066  1.00  0.00     0.338 C 
ATOM      7  O   UNL     1      -2.303   0.994   0.629  1.00  0.00    -0.246 OA
BRANCH   6   8
ATOM      8  C   UNL     1      -0.576  -0.228  -0.500  1.00  0.00     0.060 A 
ATOM      9  C   UNL     1       0.995  -2.447  -0.984  1.00  0.00     0.069 A 
ATOM     10  C   UNL     1      -0.165  -2.586  -0.209  1.00  0.00     0.029 A 
ATOM     11  C   UNL     1       1.191  -1.314  -1.760  1.00  0.00     0.029 A 
ATOM     12  C   UNL     1      -0.950  -1.459   0.036  1.00  0.00     0.018 A 
ATOM     13  C   UNL     1       0.440  -0.190  -1.468  1.00  0.00     0.018 A 
BRANCH   9  14
ATOM     14  N   UNL     1       2.085  -3.303  -0.723  1.00  0.00    -0.187 N 
ATOM     15  C   UNL     1       3.434  -2.986  -0.560  1.00  0.00     0.214 A 
ATOM     16  N   UNL     1       4.059  -4.059  -0.128  1.00  0.00    -0.101 NA
ATOM     17  N   UNL     1       3.102  -5.029   0.027  1.00  0.00    -0.022 NA
ATOM     18  N   UNL     1       1.900  -4.570  -0.283  1.00  0.00    -0.039 NA
BRANCH  15  19
ATOM     19  S   UNL     1       4.227  -1.446  -0.813  1.00  0.00    -0.074 SA
BRANCH  19  20
ATOM     20  C   UNL     1       3.449  -0.303   0.391  1.00  0.00     0.178 C 
BRANCH  20  21
ATOM     21  C   UNL     1       3.044   1.076  -0.190  1.00  0.00     0.236 C 
ATOM     22  O   UNL     1       2.366   1.835   0.500  1.00  0.00    -0.274 OA
ATOM     23  N   UNL     1       3.457   1.324  -1.478  1.00  0.00    -0.301 N 
ATOM     24  H   UNL     1       4.173   0.753  -1.839  1.00  0.00     0.172 HD
BRANCH  23  25
ATOM     25  C   UNL     1       2.954   2.303  -2.306  1.00  0.00     0.189 A 
ATOM     26  N   UNL     1       2.089   3.273  -2.113  1.00  0.00    -0.220 NA
ATOM     27  S   UNL     1       3.468   2.066  -3.925  1.00  0.00    -0.105 S 
ATOM     28  C   UNL     1       1.765   3.863  -3.344  1.00  0.00     0.084 A 
ATOM     29  C   UNL     1       2.377   3.280  -4.439  1.00  0.00     0.097 A 
BRANCH  28  30
ATOM     30  C   UNL     1       0.723   4.875  -3.521  1.00  0.00     0.001 A 
ATOM     31  C   UNL     1       0.934   6.246  -3.415  1.00  0.00     0.010 A 
ATOM     32  C   UNL     1      -0.558   4.455  -3.866  1.00  0.00     0.010 A 
ATOM     33  C   UNL     1      -0.125   7.148  -3.652  1.00  0.00     0.001 A 
ATOM     34  C   UNL     1      -1.621   5.334  -4.078  1.00  0.00     0.001 A 
ATOM     35  C   UNL     1      -1.402   6.692  -3.983  1.00  0.00     0.000 A 
ENDBRANCH  28  30
ENDBRANCH  23  25
ENDBRANCH  20  21
ENDBRANCH  19  20
ENDBRANCH  15  19
ENDBRANCH   9  14
ENDBRANCH   6   8
ENDBRANCH   5   6
ENDBRANCH   4   5
ENDBRANCH   3   4
ENDBRANCH   2   3
ENDBRANCH   1   2
BRANCH   1  36
ATOM     36  C   UNL     1      -1.548   0.655  -4.491  1.00  0.00     0.188 C 
BRANCH  36  37
ATOM     37  O   UNL     1      -0.756   1.638  -5.126  1.00  0.00    -0.377 OA
BRANCH  37  38
ATOM     38  C   UNL     1      -1.189   2.058  -6.411  1.00  0.00     0.188 C 
BRANCH  38  39
ATOM     39  C   UNL     1      -2.553   2.772  -6.527  1.00  0.00     0.188 C 
BRANCH  39  40
ATOM     40  O   UNL     1      -3.781   2.174  -6.925  1.00  0.00    -0.376 OA
BRANCH  40  41
ATOM     41  C   UNL     1      -4.158   0.832  -6.706  1.00  0.00     0.202 C 
BRANCH  41  42
ATOM     42  C   UNL     1      -3.587  -0.203  -7.684  1.00  0.00     0.261 C 
BRANCH  42  43
ATOM     43  O   UNL     1      -2.453   0.262  -8.389  1.00  0.00    -0.460 OA
BRANCH  43  44
ATOM     44  C   UNL     1      -2.712   1.255  -9.274  1.00  0.00     0.338 C 
ATOM     45  O   UNL     1      -3.801   1.672  -9.616  1.00  0.00    -0.246 OA
BRANCH  44  46
ATOM     46  C   UNL     1      -1.428   1.714  -9.828  1.00  0.00     0.060 A 
ATOM     47  C   UNL     1      -1.520   2.670 -10.836  1.00  0.00     0.016 A 
ATOM     48  C   UNL     1      -0.261   0.960  -9.605  1.00  0.00     0.016 A 
ATOM     49  C   UNL     1      -0.603   2.589 -11.850  1.00  0.00     0.010 A 
ATOM     50  C   UNL     1       0.667   0.896 -10.604  1.00  0.00     0.010 A 
ATOM     51  C   UNL     1       0.372   1.591 -11.765  1.00  0.00    -0.014 A 
BRANCH  51  52
ATOM     52  C   UNL     1       0.974   1.160 -12.997  1.00  0.00     0.031 A 
ATOM     53  C   UNL     1       2.089   2.010 -13.413  1.00  0.00     0.074 A 
ATOM     54  C   UNL     1       0.539   0.057 -13.632  1.00  0.00     0.049 A 
ATOM     55  N   UNL     1       2.069   2.946 -14.297  1.00  0.00    -0.248 NA
ATOM     56  C   UNL     1       3.299   1.972 -12.582  1.00  0.00     0.031 C 
ATOM     57  C   UNL     1      -0.349  -1.000 -13.135  1.00  0.00     0.029 A 
ATOM     58  N   UNL     1       0.890  -0.391 -14.860  1.00  0.00    -0.354 N 
ATOM     59  C   UNL     1       3.364   3.436 -14.313  1.00  0.00     0.074 A 
ATOM     60  C   UNL     1       3.976   3.005 -13.084  1.00  0.00     0.031 C 
ATOM     61  C   UNL     1      -0.281  -2.062 -13.970  1.00  0.00     0.029 A 
ATOM     62  C   UNL     1       0.542  -1.708 -15.114  1.00  0.00     0.049 A 
ATOM     63  H   UNL     1       1.356   0.173 -15.519  1.00  0.00     0.167 HD
ATOM     64  C   UNL     1       3.926   3.876 -15.469  1.00  0.00     0.037 A 
ATOM     65  C   UNL     1       1.004  -2.450 -16.152  1.00  0.00     0.037 A 
ATOM     66  C   UNL     1       2.925   4.131 -16.478  1.00  0.00     0.049 A 
ATOM     67  C   UNL     1       1.507  -1.491 -17.180  1.00  0.00     0.074 A 
ATOM     68  C   UNL     1       1.809   4.946 -16.543  1.00  0.00     0.029 A 
ATOM     69  N   UNL     1       2.767   3.197 -17.476  1.00  0.00    -0.354 N 
ATOM     70  N   UNL     1       0.739  -0.671 -17.849  1.00  0.00    -0.248 NA
ATOM     71  C   UNL     1       2.912  -1.107 -17.126  1.00  0.00     0.031 C 
ATOM     72  C   UNL     1       0.836   4.196 -17.266  1.00  0.00     0.029 A 
ATOM     73  C   UNL     1       1.420   2.988 -17.650  1.00  0.00     0.049 A 
ATOM     74  H   UNL     1       3.491   2.757 -17.977  1.00  0.00     0.167 HD
ATOM     75  C   UNL     1       1.462   0.512 -17.947  1.00  0.00     0.074 A 
ATOM     76  C   UNL     1       2.824   0.153 -17.563  1.00  0.00     0.031 C 
ATOM     77  C   UNL     1       0.834   1.722 -18.047  1.00  0.00     0.037 A 
BRANCH  64  78
ATOM     78  C   UNL     1       5.387   3.698 -15.785  1.00  0.00     0.058 A 
ATOM     79  C   UNL     1       5.939   4.380 -16.883  1.00  0.00     0.135 A 
ATOM     80  C   UNL     1       6.206   2.696 -15.211  1.00  0.00     0.135 A 
ATOM     81  F   UNL     1       5.238   5.335 -17.515  1.00  0.00    -0.206 F 
ATOM     82  C   UNL     1       7.188   4.051 -17.408  1.00  0.00     0.059 A 
ATOM     83  C   UNL     1       7.478   2.400 -15.674  1.00  0.00     0.059 A 
ATOM     84  F   UNL     1       5.781   1.880 -14.240  1.00  0.00    -0.206 F 
ATOM     85  C   UNL     1       7.943   3.050 -16.802  1.00  0.00     0.060 A 
BRANCH  85  86
ATOM     86  S   UNL     1       9.500   2.537 -17.539  1.00  0.00     0.124 S 
ATOM     87  O   UNL     1       9.036   1.849 -18.737  1.00  0.00    -0.237 OA
ATOM     88  O   UNL     1      10.170   3.816 -17.750  1.00  0.00    -0.237 OA
ATOM     89  O   UNL     1      10.093   1.687 -16.510  1.00  0.00    -0.744 OA
ENDBRANCH  85  86
ENDBRANCH  64  78
BRANCH  65  90
ATOM     90  C   UNL     1       1.391  -3.886 -16.122  1.00  0.00     0.058 A 
ATOM     91  C   UNL     1       1.662  -4.587 -17.310  1.00  0.00     0.135 A 
ATOM     92  C   UNL     1       1.766  -4.529 -14.924  1.00  0.00     0.135 A 
ATOM     93  F   UNL     1       1.361  -4.042 -18.498  1.00  0.00    -0.206 F 
ATOM     94  C   UNL     1       2.308  -5.829 -17.312  1.00  0.00     0.059 A 
ATOM     95  C   UNL     1       2.397  -5.771 -14.900  1.00  0.00     0.059 A 
ATOM     96  F   UNL     1       1.616  -3.929 -13.734  1.00  0.00    -0.206 F 
ATOM     97  C   UNL     1       2.690  -6.404 -16.100  1.00  0.00     0.060 A 
BRANCH  97  98
ATOM     98  S   UNL     1       3.678  -7.918 -16.102  1.00  0.00     0.124 S 
ATOM     99  O   UNL     1       2.712  -8.908 -16.563  1.00  0.00    -0.237 OA
ATOM    100  O   UNL     1       4.748  -7.585 -17.036  1.00  0.00    -0.237 OA
ATOM    101  O   UNL     1       4.093  -8.053 -14.708  1.00  0.00    -0.744 OA
ENDBRANCH  97  98
ENDBRANCH  65  90
BRANCH  77 102
ATOM    102  C   UNL     1      -0.641   1.732 -18.364  1.00  0.00     0.058 A 
ATOM    103  C   UNL     1      -1.639   1.217 -17.516  1.00  0.00     0.135 A 
ATOM    104  C   UNL     1      -1.072   2.430 -19.503  1.00  0.00     0.135 A 
ATOM    105  F   UNL     1      -1.317   0.630 -16.354  1.00  0.00    -0.206 F 
ATOM    106  C   UNL     1      -2.998   1.354 -17.808  1.00  0.00     0.059 A 
ATOM    107  C   UNL     1      -2.422   2.606 -19.798  1.00  0.00     0.059 A 
ATOM    108  F   UNL     1      -0.172   3.001 -20.321  1.00  0.00    -0.206 F 
ATOM    109  C   UNL     1      -3.381   2.053 -18.952  1.00  0.00     0.060 A 
BRANCH 109 110
ATOM    110  S   UNL     1      -5.139   2.302 -19.287  1.00  0.00     0.124 S 
ATOM    111  O   UNL     1      -5.565   0.970 -19.699  1.00  0.00    -0.237 OA
ATOM    112  O   UNL     1      -5.646   2.760 -17.996  1.00  0.00    -0.237 OA
ATOM    113  O   UNL     1      -5.145   3.314 -20.341  1.00  0.00    -0.744 OA
ENDBRANCH 109 110
ENDBRANCH  77 102
ENDBRANCH  51  52
ENDBRANCH  44  46
ENDBRANCH  43  44
ENDBRANCH  42  43
ENDBRANCH  41  42
ENDBRANCH  40  41
ENDBRANCH  39  40
ENDBRANCH  38  39
ENDBRANCH  37  38
ENDBRANCH  36  37
ENDBRANCH   1  36
TORSDOF 29
