REMARK SMILES Cc1ccc(Cl)c(Nc2ccccc2C(=O)NCC(=O)OCCOCCOCCOCCOC(=O)c2ccc(-c3c4nc(c(-c5c(F)cc(S(=O)(=O)[O-])cc5F)c5ccc([nH]5)c(-c5c(F)cc(S(=O)(=O)[O-])cc5F)c5nc(c(-c6c(F)cc(S(=O)(=O)[O-])cc6F)c6ccc3[nH]6)C=C5)C=C4)cc2)c1Cl
REMARK SMILES IDX 26 1 25 2 24 3 23 4 22 5 21 6 19 7 20 8 18 9 17 10 15 11
REMARK SMILES IDX 16 12 14 14 9 15 10 16 11 17 13 18 12 19 8 20 7 22 1 23 2 24
REMARK SMILES IDX 3 25 102 26 4 27 103 28 5 29 6 30 27 31 28 32 29 33 30 34
REMARK SMILES IDX 31 35 32 36 33 37 34 38 35 39 36 40 37 41 101 42 38 43
REMARK SMILES IDX 100 44 39 45 40 46 41 47 94 48 42 49 99 50 93 51 95 52 43 53
REMARK SMILES IDX 98 54 92 55 91 56 44 58 78 59 57 60 77 61 58 62 61 63 76 64
REMARK SMILES IDX 96 65 59 66 60 67 75 69 97 70 62 71 45 72 46 73 55 74 47 75
REMARK SMILES IDX 48 76 54 77 56 78 49 79 50 80 51 81 52 82 53 83 79 84 80 85
REMARK SMILES IDX 89 86 81 87 82 88 88 89 90 90 83 91 84 92 85 93 86 94 87 95
REMARK SMILES IDX 63 96 64 97 73 98 65 99 66 100 72 101 74 102 67 103 68 104
REMARK SMILES IDX 69 105 70 106 71 107
REMARK H PARENT 17 13 8 21 95 57 61 68
REMARK Flexibility Score: inf
ROOT
ATOM      1  C   UNL     1      -2.029   0.236   2.992  1.00  0.00     0.188 C 
ENDROOT
BRANCH   1   2
ATOM      2  C   UNL     1      -3.298   0.231   2.120  1.00  0.00     0.188 C 
BRANCH   2   3
ATOM      3  O   UNL     1      -4.502  -0.062   2.792  1.00  0.00    -0.376 OA
BRANCH   3   4
ATOM      4  C   UNL     1      -5.111  -1.346   2.761  1.00  0.00     0.202 C 
BRANCH   4   5
ATOM      5  C   UNL     1      -4.432  -2.653   2.326  1.00  0.00     0.261 C 
BRANCH   5   6
ATOM      6  O   UNL     1      -3.006  -2.642   2.313  1.00  0.00    -0.462 OA
BRANCH   6   7
ATOM      7  C   UNL     1      -2.495  -2.734   1.071  1.00  0.00     0.325 C 
ATOM      8  O   UNL     1      -3.164  -2.869   0.046  1.00  0.00    -0.250 OA
BRANCH   7   9
ATOM      9  C   UNL     1      -1.016  -2.485   0.954  1.00  0.00     0.239 C 
BRANCH   9  10
ATOM     10  N   UNL     1       0.066  -2.315   1.891  1.00  0.00    -0.341 N 
ATOM     11  C   UNL     1       1.398  -2.355   1.489  1.00  0.00     0.253 C 
ATOM     12  O   UNL     1       2.276  -1.843   2.179  1.00  0.00    -0.269 OA
ATOM     13  H   UNL     1      -0.143  -2.168   2.841  1.00  0.00     0.164 HD
BRANCH  11  14
ATOM     14  C   UNL     1       1.776  -3.213   0.315  1.00  0.00     0.063 A 
ATOM     15  C   UNL     1       1.266  -3.128  -1.005  1.00  0.00     0.051 A 
ATOM     16  C   UNL     1       1.422  -4.260  -1.833  1.00  0.00     0.027 A 
ATOM     17  C   UNL     1       2.111  -5.398  -1.408  1.00  0.00     0.002 A 
ATOM     18  C   UNL     1       2.538  -4.334   0.703  1.00  0.00     0.016 A 
ATOM     19  C   UNL     1       2.707  -5.418  -0.154  1.00  0.00     0.001 A 
BRANCH  15  20
ATOM     20  N   UNL     1       0.600  -2.028  -1.603  1.00  0.00    -0.352 N 
ATOM     21  H   UNL     1       0.007  -2.291  -2.343  1.00  0.00     0.167 HD
BRANCH  20  22
ATOM     22  C   UNL     1       0.605  -0.632  -1.361  1.00  0.00     0.077 A 
ATOM     23  C   UNL     1       2.760   2.171   0.131  1.00  0.00     0.046 C 
ATOM     24  C   UNL     1       1.587   1.415  -0.430  1.00  0.00    -0.030 A 
ATOM     25  C   UNL     1       0.336   2.046  -0.484  1.00  0.00     0.006 A 
ATOM     26  C   UNL     1       1.720   0.084  -0.885  1.00  0.00     0.069 A 
ATOM     27  C   UNL     1      -0.753   1.395  -1.050  1.00  0.00     0.023 A 
ATOM     28  Cl  UNL     1       3.316  -0.600  -1.004  1.00  0.00    -0.082 Cl
ATOM     29  C   UNL     1      -0.610   0.084  -1.506  1.00  0.00     0.066 A 
ATOM     30  Cl  UNL     1      -2.000  -0.660  -2.228  1.00  0.00    -0.082 Cl
ENDBRANCH  20  22
ENDBRANCH  15  20
ENDBRANCH  11  14
ENDBRANCH   9  10
ENDBRANCH   7   9
ENDBRANCH   6   7
ENDBRANCH   5   6
ENDBRANCH   4   5
ENDBRANCH   3   4
ENDBRANCH   2   3
ENDBRANCH   1   2
BRANCH   1  31
ATOM     31  O   UNL     1      -1.855  -0.811   3.931  1.00  0.00    -0.377 OA
BRANCH  31  32
ATOM     32  C   UNL     1      -2.752  -0.927   5.038  1.00  0.00     0.188 C 
BRANCH  32  33
ATOM     33  C   UNL     1      -3.633   0.255   5.506  1.00  0.00     0.188 C 
BRANCH  33  34
ATOM     34  O   UNL     1      -3.154   1.540   5.148  1.00  0.00    -0.376 OA
BRANCH  34  35
ATOM     35  C   UNL     1      -2.494   2.284   6.160  1.00  0.00     0.202 C 
BRANCH  35  36
ATOM     36  C   UNL     1      -1.168   1.698   6.667  1.00  0.00     0.261 C 
BRANCH  36  37
ATOM     37  O   UNL     1      -1.249   0.410   7.303  1.00  0.00    -0.460 OA
BRANCH  37  38
ATOM     38  C   UNL     1      -2.054   0.288   8.380  1.00  0.00     0.338 C 
ATOM     39  O   UNL     1      -2.688   1.175   8.927  1.00  0.00    -0.246 OA
BRANCH  38  40
ATOM     40  C   UNL     1      -2.220  -1.154   8.662  1.00  0.00     0.060 A 
ATOM     41  C   UNL     1      -3.509  -1.703   8.634  1.00  0.00     0.016 A 
ATOM     42  C   UNL     1      -1.115  -1.960   8.947  1.00  0.00     0.016 A 
ATOM     43  C   UNL     1      -3.702  -3.049   8.942  1.00  0.00     0.010 A 
ATOM     44  C   UNL     1      -1.312  -3.304   9.279  1.00  0.00     0.010 A 
ATOM     45  C   UNL     1      -2.611  -3.842   9.321  1.00  0.00    -0.014 A 
BRANCH  45  46
ATOM     46  C   UNL     1      -2.869  -5.141   9.990  1.00  0.00     0.031 A 
ATOM     47  C   UNL     1      -2.885  -5.170  11.495  1.00  0.00     0.074 A 
ATOM     48  C   UNL     1      -3.144  -6.256   9.290  1.00  0.00     0.049 A 
ATOM     49  N   UNL     1      -3.111  -6.169  12.308  1.00  0.00    -0.248 NA
ATOM     50  C   UNL     1      -2.609  -3.893  12.174  1.00  0.00     0.031 C 
ATOM     51  C   UNL     1      -3.191  -6.351   7.833  1.00  0.00     0.029 A 
ATOM     52  N   UNL     1      -3.434  -7.526   9.722  1.00  0.00    -0.354 N 
ATOM     53  C   UNL     1      -3.010  -5.642  13.590  1.00  0.00     0.074 A 
ATOM     54  C   UNL     1      -2.657  -4.246  13.448  1.00  0.00     0.031 C 
ATOM     55  C   UNL     1      -3.480  -7.619   7.490  1.00  0.00     0.029 A 
ATOM     56  C   UNL     1      -3.616  -8.428   8.702  1.00  0.00     0.049 A 
ATOM     57  H   UNL     1      -3.505  -7.768  10.674  1.00  0.00     0.167 HD
ATOM     58  C   UNL     1      -3.209  -6.257  14.780  1.00  0.00     0.037 A 
ATOM     59  C   UNL     1      -3.849  -9.755   8.743  1.00  0.00     0.037 A 
ATOM     60  C   UNL     1      -3.538  -7.651  14.920  1.00  0.00     0.049 A 
ATOM     61  C   UNL     1      -4.003 -10.439  10.078  1.00  0.00     0.074 A 
ATOM     62  C   UNL     1      -3.754  -8.374  16.079  1.00  0.00     0.029 A 
ATOM     63  N   UNL     1      -3.686  -8.539  13.863  1.00  0.00    -0.354 N 
ATOM     64  N   UNL     1      -3.926  -9.926  11.284  1.00  0.00    -0.248 NA
ATOM     65  C   UNL     1      -4.290 -11.880  10.057  1.00  0.00     0.031 C 
ATOM     66  C   UNL     1      -3.980  -9.710  15.726  1.00  0.00     0.029 A 
ATOM     67  C   UNL     1      -3.969  -9.808  14.344  1.00  0.00     0.049 A 
ATOM     68  H   UNL     1      -3.602  -8.303  12.911  1.00  0.00     0.167 HD
ATOM     69  C   UNL     1      -4.179 -10.976  12.164  1.00  0.00     0.074 A 
ATOM     70  C   UNL     1      -4.429 -12.147  11.348  1.00  0.00     0.031 C 
ATOM     71  C   UNL     1      -4.205 -10.970  13.522  1.00  0.00     0.037 A 
BRANCH  58  72
ATOM     72  C   UNL     1      -3.038  -5.421  16.021  1.00  0.00     0.058 A 
ATOM     73  C   UNL     1      -3.936  -4.391  16.350  1.00  0.00     0.135 A 
ATOM     74  C   UNL     1      -1.954  -5.642  16.885  1.00  0.00     0.135 A 
ATOM     75  F   UNL     1      -4.979  -4.120  15.549  1.00  0.00    -0.206 F 
ATOM     76  C   UNL     1      -3.740  -3.583  17.465  1.00  0.00     0.059 A 
ATOM     77  C   UNL     1      -1.757  -4.867  18.024  1.00  0.00     0.059 A 
ATOM     78  F   UNL     1      -1.063  -6.610  16.619  1.00  0.00    -0.206 F 
ATOM     79  C   UNL     1      -2.644  -3.826  18.294  1.00  0.00     0.060 A 
BRANCH  79  80
ATOM     80  S   UNL     1      -2.389  -2.755  19.724  1.00  0.00     0.124 S 
ATOM     81  O   UNL     1      -1.950  -1.517  19.086  1.00  0.00    -0.237 OA
ATOM     82  O   UNL     1      -3.718  -2.719  20.328  1.00  0.00    -0.237 OA
ATOM     83  O   UNL     1      -1.371  -3.456  20.499  1.00  0.00    -0.744 OA
ENDBRANCH  79  80
ENDBRANCH  58  72
BRANCH  59  84
ATOM     84  C   UNL     1      -3.946 -10.525   7.473  1.00  0.00     0.058 A 
ATOM     85  C   UNL     1      -5.164 -11.063   7.033  1.00  0.00     0.135 A 
ATOM     86  C   UNL     1      -2.816 -10.720   6.662  1.00  0.00     0.135 A 
ATOM     87  F   UNL     1      -6.270 -10.919   7.779  1.00  0.00    -0.206 F 
ATOM     88  C   UNL     1      -5.261 -11.766   5.835  1.00  0.00     0.059 A 
ATOM     89  C   UNL     1      -2.893 -11.395   5.448  1.00  0.00     0.059 A 
ATOM     90  F   UNL     1      -1.627 -10.222   7.035  1.00  0.00    -0.206 F 
ATOM     91  C   UNL     1      -4.121 -11.917   5.044  1.00  0.00     0.060 A 
BRANCH  91  92
ATOM     92  S   UNL     1      -4.276 -12.755   3.451  1.00  0.00     0.124 S 
ATOM     93  O   UNL     1      -4.477 -14.139   3.863  1.00  0.00    -0.237 OA
ATOM     94  O   UNL     1      -5.436 -12.086   2.869  1.00  0.00    -0.237 OA
ATOM     95  O   UNL     1      -3.004 -12.468   2.795  1.00  0.00    -0.744 OA
ENDBRANCH  91  92
ENDBRANCH  59  84
BRANCH  71  96
ATOM     96  C   UNL     1      -4.549 -12.266  14.212  1.00  0.00     0.058 A 
ATOM     97  C   UNL     1      -3.676 -13.366  14.209  1.00  0.00     0.135 A 
ATOM     98  C   UNL     1      -5.764 -12.401  14.905  1.00  0.00     0.135 A 
ATOM     99  F   UNL     1      -2.500 -13.293  13.564  1.00  0.00    -0.206 F 
ATOM    100  C   UNL     1      -4.015 -14.567  14.824  1.00  0.00     0.059 A 
ATOM    101  C   UNL     1      -6.109 -13.582  15.556  1.00  0.00     0.059 A 
ATOM    102  F   UNL     1      -6.631 -11.377  14.958  1.00  0.00    -0.206 F 
ATOM    103  C   UNL     1      -5.238 -14.668  15.490  1.00  0.00     0.060 A 
BRANCH 103 104
ATOM    104  S   UNL     1      -5.674 -16.235  16.273  1.00  0.00     0.124 S 
ATOM    105  O   UNL     1      -5.990 -17.063  15.114  1.00  0.00    -0.237 OA
ATOM    106  O   UNL     1      -4.447 -16.582  16.984  1.00  0.00    -0.237 OA
ATOM    107  O   UNL     1      -6.808 -15.887  17.124  1.00  0.00    -0.744 OA
ENDBRANCH 103 104
ENDBRANCH  71  96
ENDBRANCH  45  46
ENDBRANCH  38  40
ENDBRANCH  37  38
ENDBRANCH  36  37
ENDBRANCH  35  36
ENDBRANCH  34  35
ENDBRANCH  33  34
ENDBRANCH  32  33
ENDBRANCH  31  32
ENDBRANCH   1  31
TORSDOF 27
