REMARK SMILES CC(C)N(CC(=O)OCCOCCOCCOCCOC(=O)c1ccc(-c2c3nc(c(-c4c(F)cc(S(=O)(=O)[O-])cc4F)c4ccc([nH]4)c(-c4c(F)cc(S(=O)(=O)[O-])cc4F)c4nc(c(-c5c(F)cc(S(=O)(=O)[O-])cc5F)c5ccc2[nH]5)C=C4)C=C3)cc1)C(=O)NC1C(C)(C)C1(C)C
REMARK SMILES IDX 14 1 13 2 12 3 11 4 10 5 9 6 8 7 6 8 7 9 5 10 4 11 2 12 1 13
REMARK SMILES IDX 3 14 89 15 90 16 91 17 92 19 93 20 96 21 94 22 95 23 97 24
REMARK SMILES IDX 98 25 15 26 16 27 17 28 18 29 19 30 20 31 21 32 22 33 23 34
REMARK SMILES IDX 24 35 88 36 25 37 87 38 26 39 27 40 28 41 81 42 29 43 86 44
REMARK SMILES IDX 80 45 82 46 30 47 85 48 79 49 78 50 31 52 65 53 44 54 64 55
REMARK SMILES IDX 45 56 48 57 63 58 83 59 46 60 47 61 62 63 84 64 49 65 32 66
REMARK SMILES IDX 33 67 42 68 34 69 35 70 41 71 43 72 36 73 37 74 38 75 39 76
REMARK SMILES IDX 40 77 66 78 67 79 76 80 68 81 69 82 75 83 77 84 70 85 71 86
REMARK SMILES IDX 72 87 73 88 74 89 50 90 51 91 60 92 52 93 53 94 59 95 61 96
REMARK SMILES IDX 54 97 55 98 56 99 57 100 58 101
REMARK H PARENT 91 18 82 51 48 62
REMARK Flexibility Score: inf
ROOT
ATOM      1  O   UNL     1      -2.461   2.422   3.938  1.00  0.00    -0.377 OA
ENDROOT
BRANCH   1   2
ATOM      2  C   UNL     1      -3.144   1.490   3.136  1.00  0.00     0.188 C 
BRANCH   2   3
ATOM      3  C   UNL     1      -4.283   0.677   3.775  1.00  0.00     0.188 C 
BRANCH   3   4
ATOM      4  O   UNL     1      -4.492   0.884   5.148  1.00  0.00    -0.376 OA
BRANCH   4   5
ATOM      5  C   UNL     1      -3.583   0.307   6.067  1.00  0.00     0.202 C 
BRANCH   5   6
ATOM      6  C   UNL     1      -2.353  -0.576   5.713  1.00  0.00     0.261 C 
BRANCH   6   7
ATOM      7  O   UNL     1      -1.767  -0.524   4.391  1.00  0.00    -0.462 OA
BRANCH   7   8
ATOM      8  C   UNL     1      -1.811  -1.660   3.645  1.00  0.00     0.325 C 
ATOM      9  O   UNL     1      -2.307  -2.711   4.051  1.00  0.00    -0.250 OA
BRANCH   8  10
ATOM     10  C   UNL     1      -1.173  -1.601   2.227  1.00  0.00     0.244 C 
BRANCH  10  11
ATOM     11  N   UNL     1      -0.682  -0.417   1.482  1.00  0.00    -0.311 N 
BRANCH  11  12
ATOM     12  C   UNL     1       0.762  -0.108   1.645  1.00  0.00     0.081 C 
ATOM     13  C   UNL     1       1.536  -0.184   0.313  1.00  0.00     0.031 C 
ATOM     14  C   UNL     1       1.021   1.219   2.356  1.00  0.00     0.031 C 
ENDBRANCH  11  12
BRANCH  11  15
ATOM     15  C   UNL     1      -1.365   0.316   0.534  1.00  0.00     0.318 C 
ATOM     16  O   UNL     1      -0.860   1.269  -0.070  1.00  0.00    -0.249 OA
ATOM     17  N   UNL     1      -2.637   0.063   0.151  1.00  0.00    -0.334 N 
ATOM     18  H   UNL     1      -2.882   0.540  -0.674  1.00  0.00     0.165 HD
BRANCH  17  19
ATOM     19  C   UNL     1      -3.700  -0.724   0.654  1.00  0.00     0.096 C 
ATOM     20  C   UNL     1      -5.021  -0.821  -0.103  1.00  0.00    -0.007 C 
ATOM     21  C   UNL     1      -4.139  -2.062   0.132  1.00  0.00    -0.007 C 
ATOM     22  C   UNL     1      -6.290  -0.611   0.701  1.00  0.00     0.014 C 
ATOM     23  C   UNL     1      -5.160  -0.282  -1.512  1.00  0.00     0.014 C 
ATOM     24  C   UNL     1      -3.336  -2.671  -0.991  1.00  0.00     0.014 C 
ATOM     25  C   UNL     1      -4.560  -3.083   1.171  1.00  0.00     0.014 C 
ENDBRANCH  17  19
ENDBRANCH  11  15
ENDBRANCH  10  11
ENDBRANCH   8  10
ENDBRANCH   7   8
ENDBRANCH   6   7
ENDBRANCH   5   6
ENDBRANCH   4   5
ENDBRANCH   3   4
ENDBRANCH   2   3
ENDBRANCH   1   2
BRANCH   1  26
ATOM     26  C   UNL     1      -3.217   3.431   4.575  1.00  0.00     0.188 C 
BRANCH  26  27
ATOM     27  C   UNL     1      -4.599   3.856   4.032  1.00  0.00     0.188 C 
BRANCH  27  28
ATOM     28  O   UNL     1      -4.955   3.351   2.753  1.00  0.00    -0.376 OA
BRANCH  28  29
ATOM     29  C   UNL     1      -4.874   4.224   1.637  1.00  0.00     0.202 C 
BRANCH  29  30
ATOM     30  C   UNL     1      -3.482   4.696   1.188  1.00  0.00     0.261 C 
BRANCH  30  31
ATOM     31  O   UNL     1      -2.658   5.276   2.204  1.00  0.00    -0.460 OA
BRANCH  31  32
ATOM     32  C   UNL     1      -3.075   6.447   2.740  1.00  0.00     0.338 C 
ATOM     33  O   UNL     1      -4.078   7.063   2.466  1.00  0.00    -0.246 OA
BRANCH  32  34
ATOM     34  C   UNL     1      -2.181   6.732   3.885  1.00  0.00     0.060 A 
ATOM     35  C   UNL     1      -2.739   6.790   5.169  1.00  0.00     0.016 A 
ATOM     36  C   UNL     1      -0.802   6.866   3.700  1.00  0.00     0.016 A 
ATOM     37  C   UNL     1      -1.918   6.993   6.275  1.00  0.00     0.010 A 
ATOM     38  C   UNL     1       0.015   7.120   4.804  1.00  0.00     0.010 A 
ATOM     39  C   UNL     1      -0.547   7.218   6.089  1.00  0.00    -0.014 A 
BRANCH  39  40
ATOM     40  C   UNL     1       0.212   7.853   7.191  1.00  0.00     0.031 A 
ATOM     41  C   UNL     1       0.259   9.358   7.206  1.00  0.00     0.074 A 
ATOM     42  C   UNL     1       0.770   7.135   8.182  1.00  0.00     0.049 A 
ATOM     43  N   UNL     1       0.836  10.165   8.056  1.00  0.00    -0.248 NA
ATOM     44  C   UNL     1      -0.451  10.045   6.111  1.00  0.00     0.031 C 
ATOM     45  C   UNL     1       0.741   5.678   8.298  1.00  0.00     0.029 A 
ATOM     46  N   UNL     1       1.472   7.547   9.287  1.00  0.00    -0.354 N 
ATOM     47  C   UNL     1       0.542  11.448   7.610  1.00  0.00     0.074 A 
ATOM     48  C   UNL     1      -0.218  11.317   6.388  1.00  0.00     0.031 C 
ATOM     49  C   UNL     1       1.409   5.317   9.409  1.00  0.00     0.029 A 
ATOM     50  C   UNL     1       1.931   6.513  10.069  1.00  0.00     0.049 A 
ATOM     51  H   UNL     1       1.631   8.495   9.500  1.00  0.00     0.167 HD
ATOM     52  C   UNL     1       0.857  12.634   8.180  1.00  0.00     0.037 A 
ATOM     53  C   UNL     1       2.698   6.541  11.178  1.00  0.00     0.037 A 
ATOM     54  C   UNL     1       1.635  12.758   9.382  1.00  0.00     0.049 A 
ATOM     55  C   UNL     1       3.123   7.879  11.739  1.00  0.00     0.074 A 
ATOM     56  C   UNL     1       2.053  13.911  10.022  1.00  0.00     0.029 A 
ATOM     57  N   UNL     1       2.112  11.689  10.126  1.00  0.00    -0.354 N 
ATOM     58  N   UNL     1       2.842   9.087  11.307  1.00  0.00    -0.248 NA
ATOM     59  C   UNL     1       3.958   7.857  12.948  1.00  0.00     0.031 C 
ATOM     60  C   UNL     1       2.819  13.538  11.131  1.00  0.00     0.029 A 
ATOM     61  C   UNL     1       2.824  12.155  11.217  1.00  0.00     0.049 A 
ATOM     62  H   UNL     1       1.965  10.740   9.910  1.00  0.00     0.167 HD
ATOM     63  C   UNL     1       3.424   9.964  12.219  1.00  0.00     0.074 A 
ATOM     64  C   UNL     1       4.063   9.148  13.229  1.00  0.00     0.031 C 
ATOM     65  C   UNL     1       3.427  11.322  12.227  1.00  0.00     0.037 A 
BRANCH  52  66
ATOM     66  C   UNL     1       0.369  13.881   7.498  1.00  0.00     0.058 A 
ATOM     67  C   UNL     1      -0.992  14.229   7.491  1.00  0.00     0.135 A 
ATOM     68  C   UNL     1       1.271  14.753   6.869  1.00  0.00     0.135 A 
ATOM     69  F   UNL     1      -1.901  13.415   8.051  1.00  0.00    -0.206 F 
ATOM     70  C   UNL     1      -1.443  15.390   6.873  1.00  0.00     0.059 A 
ATOM     71  C   UNL     1       0.846  15.935   6.270  1.00  0.00     0.059 A 
ATOM     72  F   UNL     1       2.581  14.462   6.834  1.00  0.00    -0.206 F 
ATOM     73  C   UNL     1      -0.514  16.240   6.271  1.00  0.00     0.060 A 
BRANCH  73  74
ATOM     74  S   UNL     1      -1.114  17.759   5.502  1.00  0.00     0.124 S 
ATOM     75  O   UNL     1      -1.821  17.238   4.337  1.00  0.00    -0.237 OA
ATOM     76  O   UNL     1      -1.954  18.326   6.552  1.00  0.00    -0.237 OA
ATOM     77  O   UNL     1       0.110  18.501   5.213  1.00  0.00    -0.744 OA
ENDBRANCH  73  74
ENDBRANCH  52  66
BRANCH  53  78
ATOM     78  C   UNL     1       3.138   5.276  11.833  1.00  0.00     0.058 A 
ATOM     79  C   UNL     1       2.727   4.944  13.134  1.00  0.00     0.135 A 
ATOM     80  C   UNL     1       4.034   4.405  11.194  1.00  0.00     0.135 A 
ATOM     81  F   UNL     1       1.878   5.746  13.794  1.00  0.00    -0.206 F 
ATOM     82  C   UNL     1       3.221   3.822  13.793  1.00  0.00     0.059 A 
ATOM     83  C   UNL     1       4.516   3.259  11.819  1.00  0.00     0.059 A 
ATOM     84  F   UNL     1       4.452   4.665   9.945  1.00  0.00    -0.206 F 
ATOM     85  C   UNL     1       4.122   2.988  13.128  1.00  0.00     0.060 A 
BRANCH  85  86
ATOM     86  S   UNL     1       4.762   1.537  13.992  1.00  0.00     0.124 S 
ATOM     87  O   UNL     1       5.670   2.146  14.957  1.00  0.00    -0.237 OA
ATOM     88  O   UNL     1       3.546   0.946  14.542  1.00  0.00    -0.237 OA
ATOM     89  O   UNL     1       5.398   0.766  12.927  1.00  0.00    -0.744 OA
ENDBRANCH  85  86
ENDBRANCH  53  78
BRANCH  65  90
ATOM     90  C   UNL     1       4.070  12.009  13.403  1.00  0.00     0.058 A 
ATOM     91  C   UNL     1       5.457  11.993  13.615  1.00  0.00     0.135 A 
ATOM     92  C   UNL     1       3.277  12.722  14.319  1.00  0.00     0.135 A 
ATOM     93  F   UNL     1       6.263  11.329  12.771  1.00  0.00    -0.206 F 
ATOM     94  C   UNL     1       6.030  12.617  14.719  1.00  0.00     0.059 A 
ATOM     95  C   UNL     1       3.832  13.384  15.408  1.00  0.00     0.059 A 
ATOM     96  F   UNL     1       1.946  12.787  14.154  1.00  0.00    -0.206 F 
ATOM     97  C   UNL     1       5.208  13.308  15.612  1.00  0.00     0.060 A 
BRANCH  97  98
ATOM     98  S   UNL     1       5.963  14.112  17.040  1.00  0.00     0.124 S 
ATOM     99  O   UNL     1       6.294  12.966  17.881  1.00  0.00    -0.237 OA
ATOM    100  O   UNL     1       7.098  14.809  16.443  1.00  0.00    -0.237 OA
ATOM    101  O   UNL     1       4.901  14.976  17.546  1.00  0.00    -0.744 OA
ENDBRANCH  97  98
ENDBRANCH  65  90
ENDBRANCH  39  40
ENDBRANCH  32  34
ENDBRANCH  31  32
ENDBRANCH  30  31
ENDBRANCH  29  30
ENDBRANCH  28  29
ENDBRANCH  27  28
ENDBRANCH  26  27
ENDBRANCH   1  26
TORSDOF 27
