REMARK SMILES C=CCN(CC(=O)OCCOCCOCCOCCOC(=O)c1ccc(-c2c3nc(c(-c4c(F)cc(S(=O)(=O)[O-])cc4F)c4ccc([nH]4)c(-c4c(F)cc(S(=O)(=O)[O-])cc4F)c4nc(c(-c5c(F)cc(S(=O)(=O)[O-])cc5F)c5ccc2[nH]5)C=C4)C=C3)cc1)C(=O)N1CC[C@@H]([NH+]2CCCCC2)C1
REMARK SMILES IDX 13 1 12 2 11 3 10 4 9 5 8 6 6 7 7 8 5 9 4 10 3 11 2 12 1 13
REMARK SMILES IDX 89 14 90 15 91 16 92 17 101 18 93 19 94 20 95 21 96 22
REMARK SMILES IDX 100 23 97 25 99 26 98 27 14 28 15 29 16 30 17 31 18 32 19 33
REMARK SMILES IDX 20 34 21 35 22 36 23 37 24 38 88 39 25 40 87 41 26 42 27 43
REMARK SMILES IDX 28 44 81 45 29 46 86 47 80 48 82 49 30 50 85 51 79 52 78 53
REMARK SMILES IDX 31 55 65 56 44 57 64 58 45 59 48 60 63 61 83 62 46 63 47 64
REMARK SMILES IDX 62 66 84 67 49 68 32 69 33 70 42 71 34 72 35 73 41 74 43 75
REMARK SMILES IDX 36 76 37 77 38 78 39 79 40 80 66 81 67 82 76 83 68 84 69 85
REMARK SMILES IDX 75 86 77 87 70 88 71 89 72 90 73 91 74 92 50 93 51 94 60 95
REMARK SMILES IDX 52 96 53 97 59 98 61 99 54 100 55 101 56 102 57 103 58 104
REMARK H PARENT 95 24 82 54 48 65
REMARK Flexibility Score: inf
ROOT
ATOM      1  C   UNL     1      -4.231   1.392   3.248  1.00  0.00     0.188 C 
ENDROOT
BRANCH   1   2
ATOM      2  C   UNL     1      -5.346   2.439   3.373  1.00  0.00     0.188 C 
BRANCH   2   3
ATOM      3  O   UNL     1      -6.639   2.107   2.922  1.00  0.00    -0.376 OA
BRANCH   3   4
ATOM      4  C   UNL     1      -6.739   1.615   1.590  1.00  0.00     0.202 C 
BRANCH   4   5
ATOM      5  C   UNL     1      -5.950   2.356   0.486  1.00  0.00     0.261 C 
BRANCH   5   6
ATOM      6  O   UNL     1      -4.496   2.283   0.606  1.00  0.00    -0.462 OA
BRANCH   6   7
ATOM      7  C   UNL     1      -3.800   3.450   0.492  1.00  0.00     0.325 C 
ATOM      8  O   UNL     1      -4.327   4.519   0.188  1.00  0.00    -0.250 OA
BRANCH   7   9
ATOM      9  C   UNL     1      -2.256   3.358   0.674  1.00  0.00     0.244 C 
BRANCH   9  10
ATOM     10  N   UNL     1      -1.528   2.270   1.361  1.00  0.00    -0.310 N 
BRANCH  10  11
ATOM     11  C   UNL     1      -1.217   1.120   0.497  1.00  0.00     0.149 C 
BRANCH  11  12
ATOM     12  C   UNL     1       0.209   1.202   0.009  1.00  0.00    -0.013 C 
ATOM     13  C   UNL     1       1.032   0.144  -0.065  1.00  0.00     0.006 C 
ENDBRANCH  11  12
ENDBRANCH  10  11
BRANCH  10  14
ATOM     14  C   UNL     1      -1.004   2.210   2.649  1.00  0.00     0.321 C 
ATOM     15  O   UNL     1      -0.240   1.284   2.957  1.00  0.00    -0.248 OA
BRANCH  14  16
ATOM     16  N   UNL     1      -1.302   3.128   3.633  1.00  0.00    -0.318 N 
ATOM     17  C   UNL     1      -2.291   4.177   3.758  1.00  0.00     0.128 C 
ATOM     18  C   UNL     1      -0.603   3.006   4.932  1.00  0.00     0.186 C 
ATOM     19  C   UNL     1      -1.756   5.081   4.851  1.00  0.00     0.088 C 
ATOM     20  C   UNL     1      -1.160   4.110   5.882  1.00  0.00     0.205 C 
BRANCH  20  21
ATOM     21  N   UNL     1      -1.985   3.790   7.057  1.00  0.00    -0.331 N 
ATOM     22  C   UNL     1      -2.564   2.487   7.329  1.00  0.00     0.262 C 
ATOM     23  C   UNL     1      -2.711   4.862   7.724  1.00  0.00     0.262 C 
ATOM     24  H   UNL     1      -1.067   3.636   7.474  1.00  0.00     0.348 HD
ATOM     25  C   UNL     1      -4.034   2.417   6.940  1.00  0.00     0.062 C 
ATOM     26  C   UNL     1      -4.182   4.928   7.306  1.00  0.00     0.062 C 
ATOM     27  C   UNL     1      -4.891   3.583   7.414  1.00  0.00     0.012 C 
ENDBRANCH  20  21
ENDBRANCH  14  16
ENDBRANCH  10  14
ENDBRANCH   9  10
ENDBRANCH   7   9
ENDBRANCH   6   7
ENDBRANCH   5   6
ENDBRANCH   4   5
ENDBRANCH   3   4
ENDBRANCH   2   3
ENDBRANCH   1   2
BRANCH   1  28
ATOM     28  O   UNL     1      -4.541   0.125   2.718  1.00  0.00    -0.377 OA
BRANCH  28  29
ATOM     29  C   UNL     1      -4.939  -0.894   3.620  1.00  0.00     0.188 C 
BRANCH  29  30
ATOM     30  C   UNL     1      -4.861  -0.595   5.118  1.00  0.00     0.188 C 
BRANCH  30  31
ATOM     31  O   UNL     1      -3.599  -0.291   5.715  1.00  0.00    -0.376 OA
BRANCH  31  32
ATOM     32  C   UNL     1      -2.376  -0.683   5.095  1.00  0.00     0.202 C 
BRANCH  32  33
ATOM     33  C   UNL     1      -1.630  -1.702   5.952  1.00  0.00     0.261 C 
BRANCH  33  34
ATOM     34  O   UNL     1      -2.051  -3.011   5.561  1.00  0.00    -0.460 OA
BRANCH  34  35
ATOM     35  C   UNL     1      -3.269  -3.377   6.035  1.00  0.00     0.338 C 
ATOM     36  O   UNL     1      -3.802  -3.006   7.052  1.00  0.00    -0.246 OA
BRANCH  35  37
ATOM     37  C   UNL     1      -3.949  -4.123   4.947  1.00  0.00     0.060 A 
ATOM     38  C   UNL     1      -5.351  -4.085   4.893  1.00  0.00     0.016 A 
ATOM     39  C   UNL     1      -3.219  -4.789   3.957  1.00  0.00     0.016 A 
ATOM     40  C   UNL     1      -6.029  -4.748   3.875  1.00  0.00     0.010 A 
ATOM     41  C   UNL     1      -3.892  -5.475   2.956  1.00  0.00     0.010 A 
ATOM     42  C   UNL     1      -5.296  -5.498   2.951  1.00  0.00    -0.014 A 
BRANCH  42  43
ATOM     43  C   UNL     1      -5.948  -6.597   2.219  1.00  0.00     0.031 A 
ATOM     44  C   UNL     1      -5.942  -7.939   2.894  1.00  0.00     0.074 A 
ATOM     45  C   UNL     1      -6.437  -6.421   0.983  1.00  0.00     0.049 A 
ATOM     46  N   UNL     1      -6.269  -9.109   2.421  1.00  0.00    -0.248 NA
ATOM     47  C   UNL     1      -5.476  -7.962   4.293  1.00  0.00     0.031 C 
ATOM     48  C   UNL     1      -6.520  -5.144   0.278  1.00  0.00     0.029 A 
ATOM     49  N   UNL     1      -6.932  -7.336   0.095  1.00  0.00    -0.354 N 
ATOM     50  C   UNL     1      -6.022 -10.007   3.454  1.00  0.00     0.074 A 
ATOM     51  C   UNL     1      -5.499  -9.254   4.568  1.00  0.00     0.031 C 
ATOM     52  C   UNL     1      -7.021  -5.362  -0.951  1.00  0.00     0.029 A 
ATOM     53  C   UNL     1      -7.246  -6.796  -1.127  1.00  0.00     0.049 A 
ATOM     54  H   UNL     1      -7.051  -8.289   0.311  1.00  0.00     0.167 HD
ATOM     55  C   UNL     1      -6.210 -11.345   3.463  1.00  0.00     0.037 A 
ATOM     56  C   UNL     1      -7.640  -7.410  -2.260  1.00  0.00     0.037 A 
ATOM     57  C   UNL     1      -6.708 -12.068   2.327  1.00  0.00     0.049 A 
ATOM     58  C   UNL     1      -7.781  -8.911  -2.254  1.00  0.00     0.074 A 
ATOM     59  C   UNL     1      -6.954 -13.421   2.206  1.00  0.00     0.029 A 
ATOM     60  N   UNL     1      -7.018 -11.487   1.104  1.00  0.00    -0.354 N 
ATOM     61  N   UNL     1      -7.566  -9.756  -1.272  1.00  0.00    -0.248 NA
ATOM     62  C   UNL     1      -8.212  -9.544  -3.507  1.00  0.00     0.031 C 
ATOM     63  C   UNL     1      -7.359 -13.667   0.890  1.00  0.00     0.029 A 
ATOM     64  C   UNL     1      -7.432 -12.457   0.212  1.00  0.00     0.049 A 
ATOM     65  H   UNL     1      -6.951 -10.526   0.902  1.00  0.00     0.167 HD
ATOM     66  C   UNL     1      -7.881 -11.015  -1.772  1.00  0.00     0.074 A 
ATOM     67  C   UNL     1      -8.286 -10.820  -3.150  1.00  0.00     0.031 C 
ATOM     68  C   UNL     1      -7.853 -12.219  -1.148  1.00  0.00     0.037 A 
BRANCH  55  69
ATOM     69  C   UNL     1      -5.817 -12.088   4.710  1.00  0.00     0.058 A 
ATOM     70  C   UNL     1      -6.502 -11.920   5.926  1.00  0.00     0.135 A 
ATOM     71  C   UNL     1      -4.708 -12.948   4.700  1.00  0.00     0.135 A 
ATOM     72  F   UNL     1      -7.554 -11.089   6.000  1.00  0.00    -0.206 F 
ATOM     73  C   UNL     1      -6.073 -12.539   7.095  1.00  0.00     0.059 A 
ATOM     74  C   UNL     1      -4.281 -13.605   5.851  1.00  0.00     0.059 A 
ATOM     75  F   UNL     1      -4.009 -13.139   3.571  1.00  0.00    -0.206 F 
ATOM     76  C   UNL     1      -4.956 -13.375   7.048  1.00  0.00     0.060 A 
BRANCH  76  77
ATOM     77  S   UNL     1      -4.390 -14.146   8.579  1.00  0.00     0.124 S 
ATOM     78  O   UNL     1      -3.798 -13.008   9.276  1.00  0.00    -0.237 OA
ATOM     79  O   UNL     1      -5.632 -14.660   9.148  1.00  0.00    -0.237 OA
ATOM     80  O   UNL     1      -3.447 -15.161   8.120  1.00  0.00    -0.744 OA
ENDBRANCH  76  77
ENDBRANCH  55  69
BRANCH  56  81
ATOM     81  C   UNL     1      -7.947  -6.601  -3.468  1.00  0.00     0.058 A 
ATOM     82  C   UNL     1      -9.271  -6.444  -3.903  1.00  0.00     0.135 A 
ATOM     83  C   UNL     1      -6.942  -5.926  -4.179  1.00  0.00     0.135 A 
ATOM     84  F   UNL     1     -10.266  -7.076  -3.262  1.00  0.00    -0.206 F 
ATOM     85  C   UNL     1      -9.590  -5.645  -4.995  1.00  0.00     0.059 A 
ATOM     86  C   UNL     1      -7.239  -5.102  -5.261  1.00  0.00     0.059 A 
ATOM     87  F   UNL     1      -5.660  -6.034  -3.797  1.00  0.00    -0.206 F 
ATOM     88  C   UNL     1      -8.567  -4.968  -5.662  1.00  0.00     0.060 A 
BRANCH  88  89
ATOM     89  S   UNL     1      -9.008  -3.866  -7.023  1.00  0.00     0.124 S 
ATOM     90  O   UNL     1      -9.434  -4.814  -8.046  1.00  0.00    -0.237 OA
ATOM     91  O   UNL     1     -10.063  -3.053  -6.426  1.00  0.00    -0.237 OA
ATOM     92  O   UNL     1      -7.762  -3.156  -7.299  1.00  0.00    -0.744 OA
ENDBRANCH  88  89
ENDBRANCH  56  81
BRANCH  68  93
ATOM     93  C   UNL     1      -8.340 -13.416  -1.915  1.00  0.00     0.058 A 
ATOM     94  C   UNL     1      -7.569 -14.022  -2.916  1.00  0.00     0.135 A 
ATOM     95  C   UNL     1      -9.547 -14.034  -1.546  1.00  0.00     0.135 A 
ATOM     96  F   UNL     1      -6.411 -13.467  -3.308  1.00  0.00    -0.206 F 
ATOM     97  C   UNL     1      -7.979 -15.202  -3.528  1.00  0.00     0.059 A 
ATOM     98  C   UNL     1      -9.961 -15.227  -2.123  1.00  0.00     0.059 A 
ATOM     99  F   UNL     1     -10.314 -13.497  -0.583  1.00  0.00    -0.206 F 
ATOM    100  C   UNL     1      -9.170 -15.803  -3.115  1.00  0.00     0.060 A 
BRANCH 100 101
ATOM    101  S   UNL     1      -9.646 -17.378  -3.857  1.00  0.00     0.124 S 
ATOM    102  O   UNL     1     -10.052 -16.962  -5.195  1.00  0.00    -0.237 OA
ATOM    103  O   UNL     1      -8.408 -18.146  -3.778  1.00  0.00    -0.237 OA
ATOM    104  O   UNL     1     -10.725 -17.850  -2.993  1.00  0.00    -0.744 OA
ENDBRANCH 100 101
ENDBRANCH  68  93
ENDBRANCH  42  43
ENDBRANCH  35  37
ENDBRANCH  34  35
ENDBRANCH  33  34
ENDBRANCH  32  33
ENDBRANCH  31  32
ENDBRANCH  30  31
ENDBRANCH  29  30
ENDBRANCH  28  29
ENDBRANCH   1  28
TORSDOF 29
