REMARK SMILES CCC(CC)(CC(=O)NNC(=O)C1CC1)C(=O)OCCOCCOCCOCCOC(=O)c1ccc(-c2c3nc(c(-c4c(F)cc(S(=O)(=O)[O-])cc4F)c4ccc([nH]4)c(-c4c(F)cc(S(=O)(=O)[O-])cc4F)c4nc(c(-c5c(F)cc(S(=O)(=O)[O-])cc5F)c5ccc2[nH]5)C=C4)C=C3)cc1
REMARK SMILES IDX 23 1 22 2 21 3 20 4 19 5 18 6 16 7 17 8 3 9 2 10 1 11 4 12
REMARK SMILES IDX 5 13 6 14 7 15 8 16 9 17 10 19 11 20 12 22 13 23 14 24 15 25
REMARK SMILES IDX 24 26 25 27 26 28 27 29 28 30 29 31 30 32 31 33 32 34 33 35
REMARK SMILES IDX 34 36 98 37 35 38 97 39 36 40 37 41 38 42 91 43 39 44 96 45
REMARK SMILES IDX 90 46 92 47 40 48 95 49 89 50 88 51 41 53 75 54 54 55 74 56
REMARK SMILES IDX 55 57 58 58 73 59 93 60 56 61 57 62 72 64 94 65 59 66 42 67
REMARK SMILES IDX 43 68 52 69 44 70 45 71 51 72 53 73 46 74 47 75 48 76 49 77
REMARK SMILES IDX 50 78 76 79 77 80 86 81 78 82 79 83 85 84 87 85 80 86 81 87
REMARK SMILES IDX 82 88 83 89 84 90 60 91 61 92 70 93 62 94 63 95 69 96 71 97
REMARK SMILES IDX 64 98 65 99 66 100 67 101 68 102
REMARK H PARENT 9 18 10 21 92 52 58 63
REMARK Flexibility Score: inf
ROOT
ATOM      1  C   UNL     1       3.294   3.305   1.053  1.00  0.00     0.188 C 
ENDROOT
BRANCH   1   2
ATOM      2  C   UNL     1       4.322   2.186   0.926  1.00  0.00     0.188 C 
BRANCH   2   3
ATOM      3  O   UNL     1       5.470   2.568   0.207  1.00  0.00    -0.376 OA
BRANCH   3   4
ATOM      4  C   UNL     1       5.542   2.186  -1.154  1.00  0.00     0.202 C 
BRANCH   4   5
ATOM      5  C   UNL     1       4.405   2.494  -2.159  1.00  0.00     0.261 C 
BRANCH   5   6
ATOM      6  O   UNL     1       3.061   2.686  -1.662  1.00  0.00    -0.463 OA
BRANCH   6   7
ATOM      7  C   UNL     1       2.263   1.601  -1.666  1.00  0.00     0.312 C 
ATOM      8  O   UNL     1       2.686   0.494  -1.994  1.00  0.00    -0.252 OA
BRANCH   7   9
ATOM      9  C   UNL     1       0.772   1.834  -1.254  1.00  0.00     0.076 C 
BRANCH   9  10
ATOM     10  C   UNL     1       0.436   0.867  -0.093  1.00  0.00     0.016 C 
ATOM     11  C   UNL     1       0.816  -0.603  -0.216  1.00  0.00     0.005 C 
ENDBRANCH   9  10
BRANCH   9  12
ATOM     12  C   UNL     1       0.038   1.422  -2.592  1.00  0.00     0.016 C 
ATOM     13  C   UNL     1      -1.486   1.381  -2.591  1.00  0.00     0.005 C 
ENDBRANCH   9  12
BRANCH   9  14
ATOM     14  C   UNL     1       0.293   3.305  -0.932  1.00  0.00     0.120 C 
BRANCH  14  15
ATOM     15  C   UNL     1       0.336   4.112   0.389  1.00  0.00     0.239 C 
ATOM     16  O   UNL     1       0.603   5.323   0.338  1.00  0.00    -0.273 OA
ATOM     17  N   UNL     1      -0.049   3.680   1.630  1.00  0.00    -0.268 N 
ATOM     18  H   UNL     1       0.285   4.199   2.398  1.00  0.00     0.191 HD
BRANCH  17  19
ATOM     19  N   UNL     1      -0.851   2.602   1.921  1.00  0.00    -0.267 N 
ATOM     20  C   UNL     1      -0.865   1.841   3.077  1.00  0.00     0.241 C 
ATOM     21  H   UNL     1      -1.492   2.338   1.222  1.00  0.00     0.191 HD
ATOM     22  O   UNL     1      -1.562   0.825   3.075  1.00  0.00    -0.273 OA
BRANCH  20  23
ATOM     23  C   UNL     1      -0.139   2.156   4.344  1.00  0.00     0.080 C 
ATOM     24  C   UNL     1       1.334   2.449   4.415  1.00  0.00     0.014 C 
ATOM     25  C   UNL     1       0.339   3.497   4.829  1.00  0.00     0.014 C 
ENDBRANCH  20  23
ENDBRANCH  17  19
ENDBRANCH  14  15
ENDBRANCH   9  14
ENDBRANCH   7   9
ENDBRANCH   6   7
ENDBRANCH   5   6
ENDBRANCH   4   5
ENDBRANCH   3   4
ENDBRANCH   2   3
ENDBRANCH   1   2
BRANCH   1  26
ATOM     26  O   UNL     1       3.402   4.489   0.287  1.00  0.00    -0.377 OA
BRANCH  26  27
ATOM     27  C   UNL     1       4.638   5.182   0.207  1.00  0.00     0.188 C 
BRANCH  27  28
ATOM     28  C   UNL     1       5.574   5.177   1.427  1.00  0.00     0.188 C 
BRANCH  28  29
ATOM     29  O   UNL     1       4.996   4.704   2.626  1.00  0.00    -0.376 OA
BRANCH  29  30
ATOM     30  C   UNL     1       4.222   5.549   3.455  1.00  0.00     0.202 C 
BRANCH  30  31
ATOM     31  C   UNL     1       3.436   6.787   2.992  1.00  0.00     0.261 C 
BRANCH  31  32
ATOM     32  O   UNL     1       3.870   7.492   1.835  1.00  0.00    -0.460 OA
BRANCH  32  33
ATOM     33  C   UNL     1       4.967   8.274   1.948  1.00  0.00     0.338 C 
ATOM     34  O   UNL     1       5.687   8.401   2.909  1.00  0.00    -0.246 OA
BRANCH  33  35
ATOM     35  C   UNL     1       5.207   8.828   0.598  1.00  0.00     0.060 A 
ATOM     36  C   UNL     1       6.350   8.445  -0.116  1.00  0.00     0.016 A 
ATOM     37  C   UNL     1       4.274   9.703   0.039  1.00  0.00     0.016 A 
ATOM     38  C   UNL     1       6.582   8.969  -1.388  1.00  0.00     0.010 A 
ATOM     39  C   UNL     1       4.517  10.243  -1.221  1.00  0.00     0.010 A 
ATOM     40  C   UNL     1       5.688   9.905  -1.922  1.00  0.00    -0.014 A 
BRANCH  40  41
ATOM     41  C   UNL     1       6.064  10.712  -3.102  1.00  0.00     0.031 A 
ATOM     42  C   UNL     1       6.611  12.088  -2.856  1.00  0.00     0.074 A 
ATOM     43  C   UNL     1       5.868  10.260  -4.351  1.00  0.00     0.049 A 
ATOM     44  N   UNL     1       6.842  13.056  -3.701  1.00  0.00    -0.248 NA
ATOM     45  C   UNL     1       6.918  12.421  -1.455  1.00  0.00     0.031 C 
ATOM     46  C   UNL     1       5.380   8.928  -4.699  1.00  0.00     0.029 A 
ATOM     47  N   UNL     1       6.021  10.895  -5.558  1.00  0.00    -0.354 N 
ATOM     48  C   UNL     1       7.292  14.123  -2.933  1.00  0.00     0.074 A 
ATOM     49  C   UNL     1       7.282  13.689  -1.553  1.00  0.00     0.031 C 
ATOM     50  C   UNL     1       5.231   8.858  -6.033  1.00  0.00     0.029 A 
ATOM     51  C   UNL     1       5.567  10.154  -6.622  1.00  0.00     0.049 A 
ATOM     52  H   UNL     1       6.416  11.792  -5.651  1.00  0.00     0.167 HD
ATOM     53  C   UNL     1       7.669  15.355  -3.345  1.00  0.00     0.037 A 
ATOM     54  C   UNL     1       5.394  10.504  -7.912  1.00  0.00     0.037 A 
ATOM     55  C   UNL     1       7.654  15.768  -4.723  1.00  0.00     0.049 A 
ATOM     56  C   UNL     1       5.766  11.896  -8.351  1.00  0.00     0.074 A 
ATOM     57  C   UNL     1       8.041  16.981  -5.262  1.00  0.00     0.029 A 
ATOM     58  N   UNL     1       7.205  14.984  -5.778  1.00  0.00    -0.354 N 
ATOM     59  N   UNL     1       6.218  12.895  -7.628  1.00  0.00    -0.248 NA
ATOM     60  C   UNL     1       5.610  12.212  -9.777  1.00  0.00     0.031 C 
ATOM     61  C   UNL     1       7.763  16.954  -6.632  1.00  0.00     0.029 A 
ATOM     62  C   UNL     1       7.275  15.697  -6.962  1.00  0.00     0.049 A 
ATOM     63  H   UNL     1       6.884  14.057  -5.695  1.00  0.00     0.167 HD
ATOM     64  C   UNL     1       6.430  13.946  -8.514  1.00  0.00     0.074 A 
ATOM     65  C   UNL     1       6.053  13.462  -9.827  1.00  0.00     0.031 C 
ATOM     66  C   UNL     1       6.904  15.193  -8.264  1.00  0.00     0.037 A 
BRANCH  53  67
ATOM     67  C   UNL     1       8.061  16.348  -2.284  1.00  0.00     0.058 A 
ATOM     68  C   UNL     1       9.214  16.189  -1.497  1.00  0.00     0.135 A 
ATOM     69  C   UNL     1       7.249  17.466  -2.030  1.00  0.00     0.135 A 
ATOM     70  F   UNL     1      10.019  15.130  -1.681  1.00  0.00    -0.206 F 
ATOM     71  C   UNL     1       9.518  17.070  -0.463  1.00  0.00     0.059 A 
ATOM     72  C   UNL     1       7.553  18.380  -1.026  1.00  0.00     0.059 A 
ATOM     73  F   UNL     1       6.134  17.669  -2.749  1.00  0.00    -0.206 F 
ATOM     74  C   UNL     1       8.676  18.159  -0.231  1.00  0.00     0.060 A 
BRANCH  74  75
ATOM     75  S   UNL     1       9.059  19.270   1.139  1.00  0.00     0.124 S 
ATOM     76  O   UNL     1       8.720  18.438   2.290  1.00  0.00    -0.237 OA
ATOM     77  O   UNL     1      10.481  19.529   0.942  1.00  0.00    -0.237 OA
ATOM     78  O   UNL     1       8.178  20.410   0.909  1.00  0.00    -0.744 OA
ENDBRANCH  74  75
ENDBRANCH  53  67
BRANCH  54  79
ATOM     79  C   UNL     1       4.817   9.514  -8.860  1.00  0.00     0.058 A 
ATOM     80  C   UNL     1       5.606   8.900  -9.841  1.00  0.00     0.135 A 
ATOM     81  C   UNL     1       3.476   9.109  -8.752  1.00  0.00     0.135 A 
ATOM     82  F   UNL     1       6.889   9.263  -9.994  1.00  0.00    -0.206 F 
ATOM     83  C   UNL     1       5.094   7.908 -10.672  1.00  0.00     0.059 A 
ATOM     84  C   UNL     1       2.948   8.102  -9.553  1.00  0.00     0.059 A 
ATOM     85  F   UNL     1       2.679   9.661  -7.823  1.00  0.00    -0.206 F 
ATOM     86  C   UNL     1       3.767   7.504 -10.509  1.00  0.00     0.060 A 
BRANCH  86  87
ATOM     87  S   UNL     1       3.150   6.137 -11.515  1.00  0.00     0.124 S 
ATOM     88  O   UNL     1       3.084   6.749 -12.837  1.00  0.00    -0.237 OA
ATOM     89  O   UNL     1       4.189   5.129 -11.328  1.00  0.00    -0.237 OA
ATOM     90  O   UNL     1       1.863   5.821 -10.902  1.00  0.00    -0.744 OA
ENDBRANCH  86  87
ENDBRANCH  54  79
BRANCH  66  91
ATOM     91  C   UNL     1       7.100  16.120  -9.433  1.00  0.00     0.058 A 
ATOM     92  C   UNL     1       6.022  16.727 -10.095  1.00  0.00     0.135 A 
ATOM     93  C   UNL     1       8.400  16.486  -9.825  1.00  0.00     0.135 A 
ATOM     94  F   UNL     1       4.761  16.408  -9.766  1.00  0.00    -0.206 F 
ATOM     95  C   UNL     1       6.226  17.660 -11.108  1.00  0.00     0.059 A 
ATOM     96  C   UNL     1       8.626  17.438 -10.814  1.00  0.00     0.059 A 
ATOM     97  F   UNL     1       9.467  15.942  -9.218  1.00  0.00    -0.206 F 
ATOM     98  C   UNL     1       7.531  18.016 -11.453  1.00  0.00     0.060 A 
BRANCH  98  99
ATOM     99  S   UNL     1       7.779  19.279 -12.720  1.00  0.00     0.124 S 
ATOM    100  O   UNL     1       7.382  18.565 -13.929  1.00  0.00    -0.237 OA
ATOM    101  O   UNL     1       6.875  20.338 -12.283  1.00  0.00    -0.237 OA
ATOM    102  O   UNL     1       9.201  19.593 -12.615  1.00  0.00    -0.744 OA
ENDBRANCH  98  99
ENDBRANCH  66  91
ENDBRANCH  40  41
ENDBRANCH  33  35
ENDBRANCH  32  33
ENDBRANCH  31  32
ENDBRANCH  30  31
ENDBRANCH  29  30
ENDBRANCH  28  29
ENDBRANCH  27  28
ENDBRANCH  26  27
ENDBRANCH   1  26
TORSDOF 29
