REMARK SMILES CCc1cc(/C=C/C(=O)OCCOCCOCCOCCOC(=O)c2ccc(-c3c4nc(c(-c5c(F)cc(S(=O)(=O)[O-])cc5F)c5ccc([nH]5)c(-c5c(F)cc(S(=O)(=O)[O-])cc5F)c5nc(c(-c6c(F)cc(S(=O)(=O)[O-])cc6F)c6ccc3[nH]6)C=C5)C=C4)cc2)cc(C(=O)c2ccccc2)c1
REMARK SMILES IDX 16 1 15 2 14 3 13 4 12 5 11 6 10 7 8 8 9 9 7 10 6 11 5 12
REMARK SMILES IDX 3 13 4 14 101 15 92 16 91 17 2 18 1 19 93 20 94 21 95 22
REMARK SMILES IDX 96 23 100 24 97 25 99 26 98 27 17 28 18 29 19 30 20 31 21 32
REMARK SMILES IDX 22 33 23 34 24 35 25 36 26 37 90 38 27 39 89 40 28 41 29 42
REMARK SMILES IDX 30 43 83 44 31 45 88 46 82 47 84 48 32 49 87 50 81 51 80 52
REMARK SMILES IDX 33 54 67 55 46 56 66 57 47 58 50 59 65 60 85 61 48 62 49 63
REMARK SMILES IDX 64 65 86 66 51 67 34 68 35 69 44 70 36 71 37 72 43 73 45 74
REMARK SMILES IDX 38 75 39 76 40 77 41 78 42 79 68 80 69 81 78 82 70 83 71 84
REMARK SMILES IDX 77 85 79 86 72 87 73 88 74 89 75 90 76 91 52 92 53 93 62 94
REMARK SMILES IDX 54 95 55 96 61 97 63 98 56 99 57 100 58 101 59 102 60 103
REMARK H PARENT 84 53 50 64
REMARK Flexibility Score: inf
ROOT
ATOM      1  O   UNL     1      -2.640  -8.079   0.286  1.00  0.00    -0.377 OA
ENDROOT
BRANCH   1   2
ATOM      2  C   UNL     1      -2.566  -7.135  -0.768  1.00  0.00     0.188 C 
BRANCH   2   3
ATOM      3  C   UNL     1      -2.277  -7.670  -2.183  1.00  0.00     0.188 C 
BRANCH   3   4
ATOM      4  O   UNL     1      -2.548  -9.049  -2.340  1.00  0.00    -0.376 OA
BRANCH   4   5
ATOM      5  C   UNL     1      -1.498  -9.998  -2.327  1.00  0.00     0.202 C 
BRANCH   5   6
ATOM      6  C   UNL     1      -0.368  -9.964  -1.284  1.00  0.00     0.261 C 
BRANCH   6   7
ATOM      7  O   UNL     1       0.058  -8.675  -0.835  1.00  0.00    -0.460 OA
BRANCH   7   8
ATOM      8  C   UNL     1       0.907  -7.990  -1.627  1.00  0.00     0.330 C 
ATOM      9  O   UNL     1       1.346  -8.355  -2.707  1.00  0.00    -0.247 OA
BRANCH   8  10
ATOM     10  C   UNL     1       1.104  -6.614  -1.110  1.00  0.00     0.094 C 
ATOM     11  C   UNL     1       0.865  -6.237   0.158  1.00  0.00     0.015 C 
BRANCH  11  12
ATOM     12  C   UNL     1       0.988  -4.851   0.641  1.00  0.00    -0.024 A 
ATOM     13  C   UNL     1       0.849  -2.428   0.284  1.00  0.00    -0.047 A 
ATOM     14  C   UNL     1       0.688  -3.747  -0.173  1.00  0.00     0.011 A 
ATOM     15  C   UNL     1       1.300  -2.230   1.594  1.00  0.00     0.016 A 
ATOM     16  C   UNL     1       1.521  -3.313   2.455  1.00  0.00     0.023 A 
ATOM     17  C   UNL     1       1.365  -4.620   1.970  1.00  0.00     0.020 A 
BRANCH  13  18
ATOM     18  C   UNL     1       0.493  -1.289  -0.647  1.00  0.00     0.032 C 
ATOM     19  C   UNL     1       0.886   0.114  -0.197  1.00  0.00     0.009 C 
ENDBRANCH  13  18
BRANCH  16  20
ATOM     20  C   UNL     1       1.977  -3.127   3.866  1.00  0.00     0.193 C 
ATOM     21  O   UNL     1       2.383  -4.089   4.511  1.00  0.00    -0.289 OA
BRANCH  20  22
ATOM     22  C   UNL     1       2.023  -1.791   4.508  1.00  0.00     0.022 A 
ATOM     23  C   UNL     1       3.201  -1.419   5.163  1.00  0.00     0.012 A 
ATOM     24  C   UNL     1       0.931  -0.915   4.481  1.00  0.00     0.012 A 
ATOM     25  C   UNL     1       3.309  -0.153   5.740  1.00  0.00     0.001 A 
ATOM     26  C   UNL     1       1.047   0.355   5.050  1.00  0.00     0.001 A 
ATOM     27  C   UNL     1       2.237   0.737   5.672  1.00  0.00     0.000 A 
ENDBRANCH  20  22
ENDBRANCH  16  20
ENDBRANCH  11  12
ENDBRANCH   8  10
ENDBRANCH   7   8
ENDBRANCH   6   7
ENDBRANCH   5   6
ENDBRANCH   4   5
ENDBRANCH   3   4
ENDBRANCH   2   3
ENDBRANCH   1   2
BRANCH   1  28
ATOM     28  C   UNL     1      -3.624  -9.113   0.254  1.00  0.00     0.188 C 
BRANCH  28  29
ATOM     29  C   UNL     1      -4.793  -9.136  -0.762  1.00  0.00     0.188 C 
BRANCH  29  30
ATOM     30  O   UNL     1      -5.039  -7.906  -1.424  1.00  0.00    -0.376 OA
BRANCH  30  31
ATOM     31  C   UNL     1      -6.206  -7.187  -1.072  1.00  0.00     0.202 C 
BRANCH  31  32
ATOM     32  C   UNL     1      -6.262  -6.631   0.358  1.00  0.00     0.261 C 
BRANCH  32  33
ATOM     33  O   UNL     1      -6.059  -7.585   1.410  1.00  0.00    -0.460 OA
BRANCH  33  34
ATOM     34  C   UNL     1      -7.000  -8.540   1.559  1.00  0.00     0.338 C 
ATOM     35  O   UNL     1      -8.011  -8.685   0.886  1.00  0.00    -0.246 OA
BRANCH  34  36
ATOM     36  C   UNL     1      -6.514  -9.505   2.564  1.00  0.00     0.060 A 
ATOM     37  C   UNL     1      -6.350 -10.847   2.200  1.00  0.00     0.016 A 
ATOM     38  C   UNL     1      -6.228  -9.082   3.865  1.00  0.00     0.016 A 
ATOM     39  C   UNL     1      -5.947 -11.782   3.153  1.00  0.00     0.010 A 
ATOM     40  C   UNL     1      -5.840 -10.022   4.821  1.00  0.00     0.010 A 
ATOM     41  C   UNL     1      -5.738 -11.383   4.480  1.00  0.00    -0.014 A 
BRANCH  41  42
ATOM     42  C   UNL     1      -5.624 -12.406   5.548  1.00  0.00     0.031 A 
ATOM     43  C   UNL     1      -6.850 -12.717   6.366  1.00  0.00     0.074 A 
ATOM     44  C   UNL     1      -4.471 -13.059   5.777  1.00  0.00     0.049 A 
ATOM     45  N   UNL     1      -6.989 -13.529   7.381  1.00  0.00    -0.248 NA
ATOM     46  C   UNL     1      -8.086 -12.012   5.988  1.00  0.00     0.031 C 
ATOM     47  C   UNL     1      -3.231 -12.872   5.027  1.00  0.00     0.029 A 
ATOM     48  N   UNL     1      -4.156 -14.007   6.718  1.00  0.00    -0.354 N 
ATOM     49  C   UNL     1      -8.320 -13.425   7.769  1.00  0.00     0.074 A 
ATOM     50  C   UNL     1      -8.939 -12.446   6.902  1.00  0.00     0.031 C 
ATOM     51  C   UNL     1      -2.283 -13.673   5.546  1.00  0.00     0.029 A 
ATOM     52  C   UNL     1      -2.840 -14.401   6.686  1.00  0.00     0.049 A 
ATOM     53  H   UNL     1      -4.812 -14.370   7.356  1.00  0.00     0.167 HD
ATOM     54  C   UNL     1      -8.970 -14.091   8.752  1.00  0.00     0.037 A 
ATOM     55  C   UNL     1      -2.160 -15.235   7.499  1.00  0.00     0.037 A 
ATOM     56  C   UNL     1      -8.345 -15.063   9.610  1.00  0.00     0.049 A 
ATOM     57  C   UNL     1      -2.887 -15.915   8.633  1.00  0.00     0.074 A 
ATOM     58  C   UNL     1      -8.918 -15.807  10.626  1.00  0.00     0.029 A 
ATOM     59  N   UNL     1      -7.004 -15.418   9.562  1.00  0.00    -0.354 N 
ATOM     60  N   UNL     1      -4.152 -15.827   8.974  1.00  0.00    -0.248 NA
ATOM     61  C   UNL     1      -2.097 -16.810   9.490  1.00  0.00     0.031 C 
ATOM     62  C   UNL     1      -7.912 -16.567  11.231  1.00  0.00     0.029 A 
ATOM     63  C   UNL     1      -6.725 -16.350  10.548  1.00  0.00     0.049 A 
ATOM     64  H   UNL     1      -6.348 -15.059   8.921  1.00  0.00     0.167 HD
ATOM     65  C   UNL     1      -4.315 -16.682  10.061  1.00  0.00     0.074 A 
ATOM     66  C   UNL     1      -3.022 -17.283  10.314  1.00  0.00     0.031 C 
ATOM     67  C   UNL     1      -5.434 -16.950  10.781  1.00  0.00     0.037 A 
BRANCH  54  68
ATOM     68  C   UNL     1     -10.424 -13.771   8.971  1.00  0.00     0.058 A 
ATOM     69  C   UNL     1     -11.414 -14.135   8.044  1.00  0.00     0.135 A 
ATOM     70  C   UNL     1     -10.837 -13.115  10.143  1.00  0.00     0.135 A 
ATOM     71  F   UNL     1     -11.076 -14.745   6.897  1.00  0.00    -0.206 F 
ATOM     72  C   UNL     1     -12.757 -13.838   8.259  1.00  0.00     0.059 A 
ATOM     73  C   UNL     1     -12.177 -12.837  10.393  1.00  0.00     0.059 A 
ATOM     74  F   UNL     1      -9.933 -12.739  11.061  1.00  0.00    -0.206 F 
ATOM     75  C   UNL     1     -13.128 -13.191   9.438  1.00  0.00     0.060 A 
BRANCH  75  76
ATOM     76  S   UNL     1     -14.875 -12.823   9.705  1.00  0.00     0.124 S 
ATOM     77  O   UNL     1     -15.104 -11.767   8.724  1.00  0.00    -0.237 OA
ATOM     78  O   UNL     1     -15.510 -14.104   9.416  1.00  0.00    -0.237 OA
ATOM     79  O   UNL     1     -14.926 -12.402  11.101  1.00  0.00    -0.744 OA
ENDBRANCH  75  76
ENDBRANCH  54  68
BRANCH  55  80
ATOM     80  C   UNL     1      -0.706 -15.470   7.279  1.00  0.00     0.058 A 
ATOM     81  C   UNL     1      -0.226 -16.721   6.864  1.00  0.00     0.135 A 
ATOM     82  C   UNL     1       0.235 -14.448   7.485  1.00  0.00     0.135 A 
ATOM     83  F   UNL     1      -1.081 -17.736   6.666  1.00  0.00    -0.206 F 
ATOM     84  C   UNL     1       1.133 -16.956   6.675  1.00  0.00     0.059 A 
ATOM     85  C   UNL     1       1.595 -14.650   7.274  1.00  0.00     0.059 A 
ATOM     86  F   UNL     1      -0.171 -13.230   7.877  1.00  0.00    -0.206 F 
ATOM     87  C   UNL     1       2.036 -15.911   6.878  1.00  0.00     0.060 A 
BRANCH  87  88
ATOM     88  S   UNL     1       3.791 -16.216   6.580  1.00  0.00     0.124 S 
ATOM     89  O   UNL     1       4.133 -17.087   7.699  1.00  0.00    -0.237 OA
ATOM     90  O   UNL     1       3.771 -16.846   5.264  1.00  0.00    -0.237 OA
ATOM     91  O   UNL     1       4.376 -14.880   6.618  1.00  0.00    -0.744 OA
ENDBRANCH  87  88
ENDBRANCH  55  80
BRANCH  67  92
ATOM     92  C   UNL     1      -5.332 -17.973  11.881  1.00  0.00     0.058 A 
ATOM     93  C   UNL     1      -4.639 -17.718  13.075  1.00  0.00     0.135 A 
ATOM     94  C   UNL     1      -5.993 -19.208  11.760  1.00  0.00     0.135 A 
ATOM     95  F   UNL     1      -3.986 -16.558  13.243  1.00  0.00    -0.206 F 
ATOM     96  C   UNL     1      -4.584 -18.660  14.098  1.00  0.00     0.059 A 
ATOM     97  C   UNL     1      -5.979 -20.150  12.784  1.00  0.00     0.059 A 
ATOM     98  F   UNL     1      -6.682 -19.500  10.646  1.00  0.00    -0.206 F 
ATOM     99  C   UNL     1      -5.261 -19.872  13.945  1.00  0.00     0.060 A 
BRANCH  99 100
ATOM    100  S   UNL     1      -5.210 -21.068  15.296  1.00  0.00     0.124 S 
ATOM    101  O   UNL     1      -3.832 -21.541  15.219  1.00  0.00    -0.237 OA
ATOM    102  O   UNL     1      -5.534 -20.243  16.456  1.00  0.00    -0.237 OA
ATOM    103  O   UNL     1      -6.230 -22.045  14.925  1.00  0.00    -0.744 OA
ENDBRANCH  99 100
ENDBRANCH  67  92
ENDBRANCH  41  42
ENDBRANCH  34  36
ENDBRANCH  33  34
ENDBRANCH  32  33
ENDBRANCH  31  32
ENDBRANCH  30  31
ENDBRANCH  29  30
ENDBRANCH  28  29
ENDBRANCH   1  28
TORSDOF 27
