REMARK SMILES C[C@@H]1C[C@@H]1C(=O)Nc1ccc(F)cc1C(=O)OCCOCCOCCOCCOC(=O)c1ccc(-c2c3nc(c(-c4c(F)cc(S(=O)(=O)[O-])cc4F)c4ccc([nH]4)c(-c4c(F)cc(S(=O)(=O)[O-])cc4F)c4nc(c(-c5c(F)cc(S(=O)(=O)[O-])cc5F)c5ccc2[nH]5)C=C4)C=C3)cc1
REMARK SMILES IDX 24 1 23 2 22 3 21 4 20 5 19 6 18 7 17 8 15 9 16 10 14 11
REMARK SMILES IDX 8 12 9 13 10 14 13 15 11 16 12 17 7 18 5 19 6 20 4 22 1 23
REMARK SMILES IDX 2 24 3 25 25 26 26 27 27 28 28 29 29 30 30 31 31 32 32 33
REMARK SMILES IDX 33 34 97 35 34 36 96 37 35 38 36 39 37 40 90 41 38 42 95 43
REMARK SMILES IDX 89 44 91 45 39 46 94 47 88 48 87 49 40 51 74 52 53 53 73 54
REMARK SMILES IDX 54 55 57 56 72 57 92 58 55 59 56 60 71 62 93 63 58 64 41 65
REMARK SMILES IDX 42 66 51 67 43 68 44 69 50 70 52 71 45 72 46 73 47 74 48 75
REMARK SMILES IDX 49 76 75 77 76 78 85 79 77 80 78 81 84 82 86 83 79 84 80 85
REMARK SMILES IDX 81 86 82 87 83 88 59 89 60 90 69 91 61 92 62 93 68 94 70 95
REMARK SMILES IDX 63 96 64 97 65 98 66 99 67 100
REMARK H PARENT 7 21 91 50 57 61
REMARK Flexibility Score: inf
ROOT
ATOM      1  C   UNL     1       4.891  -2.272   2.354  1.00  0.00     0.188 C 
ENDROOT
BRANCH   1   2
ATOM      2  O   UNL     1       3.942  -3.188   1.805  1.00  0.00    -0.377 OA
BRANCH   2   3
ATOM      3  C   UNL     1       3.441  -4.239   2.609  1.00  0.00     0.188 C 
BRANCH   3   4
ATOM      4  C   UNL     1       4.444  -5.348   2.979  1.00  0.00     0.188 C 
BRANCH   4   5
ATOM      5  O   UNL     1       5.796  -4.945   2.913  1.00  0.00    -0.376 OA
BRANCH   5   6
ATOM      6  C   UNL     1       6.596  -5.204   1.774  1.00  0.00     0.202 C 
BRANCH   6   7
ATOM      7  C   UNL     1       6.090  -5.168   0.318  1.00  0.00     0.261 C 
BRANCH   7   8
ATOM      8  O   UNL     1       4.684  -5.288   0.105  1.00  0.00    -0.460 OA
BRANCH   8   9
ATOM      9  C   UNL     1       4.179  -6.532  -0.003  1.00  0.00     0.340 C 
ATOM     10  O   UNL     1       4.812  -7.574   0.051  1.00  0.00    -0.246 OA
BRANCH   9  11
ATOM     11  C   UNL     1       2.692  -6.472   0.032  1.00  0.00     0.086 A 
ATOM     12  C   UNL     1       1.895  -5.451  -0.542  1.00  0.00     0.056 A 
ATOM     13  C   UNL     1       0.503  -5.606  -0.479  1.00  0.00     0.030 A 
ATOM     14  C   UNL     1      -0.086  -6.618   0.283  1.00  0.00     0.041 A 
ATOM     15  C   UNL     1       2.092  -7.487   0.802  1.00  0.00     0.057 A 
ATOM     16  C   UNL     1       0.717  -7.524   0.951  1.00  0.00     0.124 A 
ATOM     17  F   UNL     1       0.157  -8.446   1.744  1.00  0.00    -0.207 F 
BRANCH  12  18
ATOM     18  N   UNL     1       2.495  -4.307  -1.119  1.00  0.00    -0.325 N 
ATOM     19  C   UNL     1       2.019  -3.045  -1.416  1.00  0.00     0.227 C 
ATOM     20  O   UNL     1       2.747  -2.238  -1.986  1.00  0.00    -0.274 OA
ATOM     21  H   UNL     1       3.441  -4.436  -1.357  1.00  0.00     0.169 HD
BRANCH  19  22
ATOM     22  C   UNL     1       0.637  -2.643  -1.042  1.00  0.00     0.082 C 
ATOM     23  C   UNL     1       1.252  -0.228  -0.112  1.00  0.00     0.008 C 
ATOM     24  C   UNL     1       0.271  -1.307  -0.414  1.00  0.00    -0.001 C 
ATOM     25  C   UNL     1       0.250  -2.547   0.424  1.00  0.00     0.018 C 
ENDBRANCH  19  22
ENDBRANCH  12  18
ENDBRANCH   9  11
ENDBRANCH   8   9
ENDBRANCH   7   8
ENDBRANCH   6   7
ENDBRANCH   5   6
ENDBRANCH   4   5
ENDBRANCH   3   4
ENDBRANCH   2   3
ENDBRANCH   1   2
BRANCH   1  26
ATOM     26  C   UNL     1       5.392  -2.357   3.818  1.00  0.00     0.188 C 
BRANCH  26  27
ATOM     27  O   UNL     1       4.513  -3.013   4.720  1.00  0.00    -0.376 OA
BRANCH  27  28
ATOM     28  C   UNL     1       3.784  -2.217   5.637  1.00  0.00     0.202 C 
BRANCH  28  29
ATOM     29  C   UNL     1       2.742  -1.262   5.040  1.00  0.00     0.261 C 
BRANCH  29  30
ATOM     30  O   UNL     1       3.232  -0.325   4.072  1.00  0.00    -0.460 OA
BRANCH  30  31
ATOM     31  C   UNL     1       4.137   0.587   4.499  1.00  0.00     0.338 C 
ATOM     32  O   UNL     1       4.578   0.712   5.621  1.00  0.00    -0.246 OA
BRANCH  31  33
ATOM     33  C   UNL     1       4.637   1.296   3.302  1.00  0.00     0.060 A 
ATOM     34  C   UNL     1       5.998   1.218   2.978  1.00  0.00     0.016 A 
ATOM     35  C   UNL     1       3.754   2.015   2.494  1.00  0.00     0.016 A 
ATOM     36  C   UNL     1       6.484   1.886   1.853  1.00  0.00     0.010 A 
ATOM     37  C   UNL     1       4.245   2.698   1.381  1.00  0.00     0.010 A 
ATOM     38  C   UNL     1       5.616   2.661   1.072  1.00  0.00    -0.014 A 
BRANCH  38  39
ATOM     39  C   UNL     1       6.157   3.577   0.040  1.00  0.00     0.031 A 
ATOM     40  C   UNL     1       6.331   5.028   0.392  1.00  0.00     0.074 A 
ATOM     41  C   UNL     1       6.492   3.132  -1.183  1.00  0.00     0.049 A 
ATOM     42  N   UNL     1       6.715   6.026  -0.358  1.00  0.00    -0.248 NA
ATOM     43  C   UNL     1       6.024   5.400   1.783  1.00  0.00     0.031 C 
ATOM     44  C   UNL     1       6.419   1.742  -1.625  1.00  0.00     0.029 A 
ATOM     45  N   UNL     1       6.958   3.813  -2.280  1.00  0.00    -0.354 N 
ATOM     46  C   UNL     1       6.702   7.144   0.467  1.00  0.00     0.074 A 
ATOM     47  C   UNL     1       6.224   6.709   1.761  1.00  0.00     0.031 C 
ATOM     48  C   UNL     1       6.830   1.670  -2.902  1.00  0.00     0.029 A 
ATOM     49  C   UNL     1       7.154   3.015  -3.381  1.00  0.00     0.049 A 
ATOM     50  H   UNL     1       7.135   4.781  -2.278  1.00  0.00     0.167 HD
ATOM     51  C   UNL     1       7.069   8.415   0.176  1.00  0.00     0.037 A 
ATOM     52  C   UNL     1       7.534   3.336  -4.635  1.00  0.00     0.037 A 
ATOM     53  C   UNL     1       7.518   8.842  -1.123  1.00  0.00     0.049 A 
ATOM     54  C   UNL     1       7.824   4.775  -4.975  1.00  0.00     0.074 A 
ATOM     55  C   UNL     1       7.897  10.110  -1.527  1.00  0.00     0.029 A 
ATOM     56  N   UNL     1       7.638   8.016  -2.232  1.00  0.00    -0.354 N 
ATOM     57  N   UNL     1       7.803   5.828  -4.191  1.00  0.00    -0.248 NA
ATOM     58  C   UNL     1       8.181   5.072  -6.369  1.00  0.00     0.031 C 
ATOM     59  C   UNL     1       8.191  10.061  -2.894  1.00  0.00     0.029 A 
ATOM     60  C   UNL     1       8.058   8.751  -3.329  1.00  0.00     0.049 A 
ATOM     61  H   UNL     1       7.453   7.049  -2.239  1.00  0.00     0.167 HD
ATOM     62  C   UNL     1       8.166   6.908  -4.990  1.00  0.00     0.074 A 
ATOM     63  C   UNL     1       8.407   6.380  -6.317  1.00  0.00     0.031 C 
ATOM     64  C   UNL     1       8.291   8.216  -4.650  1.00  0.00     0.037 A 
BRANCH  51  65
ATOM     65  C   UNL     1       6.968   9.430   1.283  1.00  0.00     0.058 A 
ATOM     66  C   UNL     1       6.015  10.459   1.228  1.00  0.00     0.135 A 
ATOM     67  C   UNL     1       7.815   9.385   2.404  1.00  0.00     0.135 A 
ATOM     68  F   UNL     1       5.176  10.550   0.184  1.00  0.00    -0.206 F 
ATOM     69  C   UNL     1       5.898  11.400   2.245  1.00  0.00     0.059 A 
ATOM     70  C   UNL     1       7.694  10.297   3.449  1.00  0.00     0.059 A 
ATOM     71  F   UNL     1       8.731   8.411   2.520  1.00  0.00    -0.206 F 
ATOM     72  C   UNL     1       6.735  11.305   3.358  1.00  0.00     0.060 A 
BRANCH  72  73
ATOM     73  S   UNL     1       6.507  12.477   4.711  1.00  0.00     0.124 S 
ATOM     74  O   UNL     1       6.997  13.718   4.121  1.00  0.00    -0.237 OA
ATOM     75  O   UNL     1       5.067  12.405   4.939  1.00  0.00    -0.237 OA
ATOM     76  O   UNL     1       7.329  11.921   5.783  1.00  0.00    -0.744 OA
ENDBRANCH  72  73
ENDBRANCH  51  65
BRANCH  52  77
ATOM     77  C   UNL     1       7.686   2.256  -5.646  1.00  0.00     0.058 A 
ATOM     78  C   UNL     1       6.577   1.552  -6.141  1.00  0.00     0.135 A 
ATOM     79  C   UNL     1       8.959   1.853  -6.075  1.00  0.00     0.135 A 
ATOM     80  F   UNL     1       5.337   1.901  -5.766  1.00  0.00    -0.206 F 
ATOM     81  C   UNL     1       6.728   0.453  -6.980  1.00  0.00     0.059 A 
ATOM     82  C   UNL     1       9.134   0.773  -6.935  1.00  0.00     0.059 A 
ATOM     83  F   UNL     1      10.048   2.511  -5.648  1.00  0.00    -0.206 F 
ATOM     84  C   UNL     1       8.013   0.062  -7.360  1.00  0.00     0.060 A 
BRANCH  84  85
ATOM     85  S   UNL     1       8.193  -1.414  -8.386  1.00  0.00     0.124 S 
ATOM     86  O   UNL     1       7.721  -2.459  -7.483  1.00  0.00    -0.237 OA
ATOM     87  O   UNL     1       7.323  -1.108  -9.516  1.00  0.00    -0.237 OA
ATOM     88  O   UNL     1       9.621  -1.445  -8.686  1.00  0.00    -0.744 OA
ENDBRANCH  84  85
ENDBRANCH  52  77
BRANCH  64  89
ATOM     89  C   UNL     1       8.722   9.187  -5.719  1.00  0.00     0.058 A 
ATOM     90  C   UNL     1       9.980   9.809  -5.649  1.00  0.00     0.135 A 
ATOM     91  C   UNL     1       7.855   9.581  -6.750  1.00  0.00     0.135 A 
ATOM     92  F   UNL     1      10.848   9.476  -4.681  1.00  0.00    -0.206 F 
ATOM     93  C   UNL     1      10.351  10.807  -6.545  1.00  0.00     0.059 A 
ATOM     94  C   UNL     1       8.217  10.557  -7.676  1.00  0.00     0.059 A 
ATOM     95  F   UNL     1       6.645   9.011  -6.870  1.00  0.00    -0.206 F 
ATOM     96  C   UNL     1       9.460  11.178  -7.552  1.00  0.00     0.060 A 
BRANCH  96  97
ATOM     97  S   UNL     1       9.955  12.484  -8.697  1.00  0.00     0.124 S 
ATOM     98  O   UNL     1       9.974  13.655  -7.828  1.00  0.00    -0.237 OA
ATOM     99  O   UNL     1      11.258  12.012  -9.156  1.00  0.00    -0.237 OA
ATOM    100  O   UNL     1       8.900  12.470  -9.706  1.00  0.00    -0.744 OA
ENDBRANCH  96  97
ENDBRANCH  64  89
ENDBRANCH  38  39
ENDBRANCH  31  33
ENDBRANCH  30  31
ENDBRANCH  29  30
ENDBRANCH  28  29
ENDBRANCH  27  28
ENDBRANCH  26  27
ENDBRANCH   1  26
TORSDOF 25
