REMARK SMILES Cc1ccc(Cl)c(Nc2ccccc2C(=O)N[C@@H](C)C(=O)OCCOCCOCCOCCOC(=O)c2ccc(-c3c4nc(c(-c5c(F)cc(S(=O)(=O)[O-])cc5F)c5ccc([nH]5)c(-c5c(F)cc(S(=O)(=O)[O-])cc5F)c5nc(c(-c6c(F)cc(S(=O)(=O)[O-])cc6F)c6ccc3[nH]6)C=C5)C=C4)cc2)c1Cl
REMARK SMILES IDX 27 1 26 2 25 3 24 4 23 5 22 6 20 7 21 8 18 9 19 10 17 11
REMARK SMILES IDX 15 12 16 13 14 15 9 16 10 17 11 18 13 19 12 20 8 21 7 23
REMARK SMILES IDX 1 24 2 25 3 26 103 27 4 28 104 29 5 30 6 31 28 32 29 33
REMARK SMILES IDX 30 34 31 35 32 36 33 37 34 38 35 39 36 40 37 41 38 42 102 43
REMARK SMILES IDX 39 44 101 45 40 46 41 47 42 48 95 49 43 50 100 51 94 52
REMARK SMILES IDX 96 53 44 54 99 55 93 56 92 57 45 59 79 60 58 61 78 62 59 63
REMARK SMILES IDX 62 64 77 65 97 66 60 67 61 68 76 70 98 71 63 72 46 73 47 74
REMARK SMILES IDX 56 75 48 76 49 77 55 78 57 79 50 80 51 81 52 82 53 83 54 84
REMARK SMILES IDX 80 85 81 86 90 87 82 88 83 89 89 90 91 91 84 92 85 93 86 94
REMARK SMILES IDX 87 95 88 96 64 97 65 98 74 99 66 100 67 101 73 102 75 103
REMARK SMILES IDX 68 104 69 105 70 106 71 107 72 108
REMARK H PARENT 17 14 8 22 96 58 62 69
REMARK Flexibility Score: inf
ROOT
ATOM      1  C   UNL     1       3.030   1.087  -1.326  1.00  0.00     0.188 C 
ENDROOT
BRANCH   1   2
ATOM      2  C   UNL     1       2.054   2.015  -2.156  1.00  0.00     0.188 C 
BRANCH   2   3
ATOM      3  O   UNL     1       0.675   2.240  -1.762  1.00  0.00    -0.376 OA
BRANCH   3   4
ATOM      4  C   UNL     1       0.230   3.358  -0.965  1.00  0.00     0.202 C 
BRANCH   4   5
ATOM      5  C   UNL     1      -0.933   3.123   0.186  1.00  0.00     0.261 C 
BRANCH   5   6
ATOM      6  O   UNL     1      -0.809   2.001   1.177  1.00  0.00    -0.462 OA
BRANCH   6   7
ATOM      7  C   UNL     1      -1.906   1.186   1.441  1.00  0.00     0.328 C 
ATOM      8  O   UNL     1      -3.053   1.541   1.169  1.00  0.00    -0.250 OA
BRANCH   7   9
ATOM      9  C   UNL     1      -1.590  -0.368   1.849  1.00  0.00     0.189 C 
ATOM     10  C   UNL     1      -2.748  -1.016   2.610  1.00  0.00     0.043 C 
BRANCH   9  11
ATOM     11  N   UNL     1      -0.335  -0.834   2.471  1.00  0.00    -0.339 N 
ATOM     12  C   UNL     1       0.492  -1.948   2.366  1.00  0.00     0.254 C 
ATOM     13  O   UNL     1       1.348  -1.949   3.270  1.00  0.00    -0.269 OA
ATOM     14  H   UNL     1       0.006  -0.189   3.133  1.00  0.00     0.164 HD
BRANCH  12  15
ATOM     15  C   UNL     1       0.598  -3.111   1.342  1.00  0.00     0.063 A 
ATOM     16  C   UNL     1      -0.249  -3.661   0.340  1.00  0.00     0.051 A 
ATOM     17  C   UNL     1       0.202  -4.775  -0.448  1.00  0.00     0.027 A 
ATOM     18  C   UNL     1       1.468  -5.331  -0.325  1.00  0.00     0.002 A 
ATOM     19  C   UNL     1       1.873  -3.764   1.453  1.00  0.00     0.016 A 
ATOM     20  C   UNL     1       2.307  -4.829   0.643  1.00  0.00     0.001 A 
BRANCH  16  21
ATOM     21  N   UNL     1      -1.493  -3.160  -0.120  1.00  0.00    -0.352 N 
ATOM     22  H   UNL     1      -2.304  -3.417   0.376  1.00  0.00     0.167 HD
BRANCH  21  23
ATOM     23  C   UNL     1      -1.649  -2.299  -1.268  1.00  0.00     0.077 A 
ATOM     24  C   UNL     1       0.381   0.134  -0.449  1.00  0.00     0.046 C 
ATOM     25  C   UNL     1      -0.651  -0.258  -1.446  1.00  0.00    -0.030 A 
ATOM     26  C   UNL     1      -1.847   0.402  -1.706  1.00  0.00     0.006 A 
ATOM     27  C   UNL     1      -0.571  -1.592  -1.738  1.00  0.00     0.069 A 
ATOM     28  C   UNL     1      -2.988  -0.370  -1.878  1.00  0.00     0.023 A 
ATOM     29  Cl  UNL     1       0.950  -2.270  -2.199  1.00  0.00    -0.082 Cl
ATOM     30  C   UNL     1      -2.901  -1.720  -1.531  1.00  0.00     0.066 A 
ATOM     31  Cl  UNL     1      -4.344  -2.623  -1.290  1.00  0.00    -0.082 Cl
ENDBRANCH  21  23
ENDBRANCH  16  21
ENDBRANCH  12  15
ENDBRANCH   9  11
ENDBRANCH   7   9
ENDBRANCH   6   7
ENDBRANCH   5   6
ENDBRANCH   4   5
ENDBRANCH   3   4
ENDBRANCH   2   3
ENDBRANCH   1   2
BRANCH   1  32
ATOM     32  O   UNL     1       3.042   1.226   0.094  1.00  0.00    -0.377 OA
BRANCH  32  33
ATOM     33  C   UNL     1       3.151   2.551   0.577  1.00  0.00     0.188 C 
BRANCH  33  34
ATOM     34  C   UNL     1       4.121   3.413  -0.227  1.00  0.00     0.188 C 
BRANCH  34  35
ATOM     35  O   UNL     1       5.173   2.730  -0.878  1.00  0.00    -0.376 OA
BRANCH  35  36
ATOM     36  C   UNL     1       6.146   1.982  -0.159  1.00  0.00     0.202 C 
BRANCH  36  37
ATOM     37  C   UNL     1       6.023   1.605   1.330  1.00  0.00     0.261 C 
BRANCH  37  38
ATOM     38  O   UNL     1       5.573   2.608   2.256  1.00  0.00    -0.460 OA
BRANCH  38  39
ATOM     39  C   UNL     1       6.089   3.854   2.159  1.00  0.00     0.338 C 
ATOM     40  O   UNL     1       7.005   4.214   1.460  1.00  0.00    -0.246 OA
BRANCH  39  41
ATOM     41  C   UNL     1       5.153   4.769   2.861  1.00  0.00     0.060 A 
ATOM     42  C   UNL     1       4.642   5.866   2.149  1.00  0.00     0.016 A 
ATOM     43  C   UNL     1       4.804   4.571   4.198  1.00  0.00     0.016 A 
ATOM     44  C   UNL     1       3.825   6.793   2.776  1.00  0.00     0.010 A 
ATOM     45  C   UNL     1       4.042   5.545   4.852  1.00  0.00     0.010 A 
ATOM     46  C   UNL     1       3.608   6.686   4.152  1.00  0.00    -0.014 A 
BRANCH  46  47
ATOM     47  C   UNL     1       3.274   7.937   4.867  1.00  0.00     0.031 A 
ATOM     48  C   UNL     1       4.427   8.760   5.382  1.00  0.00     0.074 A 
ATOM     49  C   UNL     1       2.013   8.395   4.934  1.00  0.00     0.049 A 
ATOM     50  N   UNL     1       4.418   9.906   6.008  1.00  0.00    -0.248 NA
ATOM     51  C   UNL     1       5.778   8.218   5.145  1.00  0.00     0.031 C 
ATOM     52  C   UNL     1       0.837   7.724   4.384  1.00  0.00     0.029 A 
ATOM     53  N   UNL     1       1.519   9.547   5.488  1.00  0.00    -0.354 N 
ATOM     54  C   UNL     1       5.753  10.214   6.247  1.00  0.00     0.074 A 
ATOM     55  C   UNL     1       6.546   9.125   5.725  1.00  0.00     0.031 C 
ATOM     56  C   UNL     1      -0.250   8.473   4.642  1.00  0.00     0.029 A 
ATOM     57  C   UNL     1       0.153   9.657   5.401  1.00  0.00     0.049 A 
ATOM     58  H   UNL     1       2.089  10.230   5.909  1.00  0.00     0.167 HD
ATOM     59  C   UNL     1       6.273  11.311   6.844  1.00  0.00     0.037 A 
ATOM     60  C   UNL     1      -0.672  10.598   5.900  1.00  0.00     0.037 A 
ATOM     61  C   UNL     1       5.471  12.386   7.361  1.00  0.00     0.049 A 
ATOM     62  C   UNL     1      -0.077  11.772   6.638  1.00  0.00     0.074 A 
ATOM     63  C   UNL     1       5.888  13.540   8.000  1.00  0.00     0.029 A 
ATOM     64  N   UNL     1       4.085  12.436   7.304  1.00  0.00    -0.354 N 
ATOM     65  N   UNL     1       1.185  12.046   6.876  1.00  0.00    -0.248 NA
ATOM     66  C   UNL     1      -1.016  12.768   7.168  1.00  0.00     0.031 C 
ATOM     67  C   UNL     1       4.750  14.258   8.382  1.00  0.00     0.029 A 
ATOM     68  C   UNL     1       3.628  13.590   7.916  1.00  0.00     0.049 A 
ATOM     69  H   UNL     1       3.512  11.751   6.889  1.00  0.00     0.167 HD
ATOM     70  C   UNL     1       1.192  13.265   7.548  1.00  0.00     0.074 A 
ATOM     71  C   UNL     1      -0.192  13.676   7.670  1.00  0.00     0.031 C 
ATOM     72  C   UNL     1       2.244  13.983   8.017  1.00  0.00     0.037 A 
BRANCH  59  73
ATOM     73  C   UNL     1       7.767  11.372   7.012  1.00  0.00     0.058 A 
ATOM     74  C   UNL     1       8.637  11.540   5.922  1.00  0.00     0.135 A 
ATOM     75  C   UNL     1       8.336  11.274   8.292  1.00  0.00     0.135 A 
ATOM     76  F   UNL     1       8.151  11.611   4.672  1.00  0.00    -0.206 F 
ATOM     77  C   UNL     1      10.018  11.586   6.093  1.00  0.00     0.059 A 
ATOM     78  C   UNL     1       9.711  11.350   8.490  1.00  0.00     0.059 A 
ATOM     79  F   UNL     1       7.553  11.100   9.368  1.00  0.00    -0.206 F 
ATOM     80  C   UNL     1      10.545  11.494   7.383  1.00  0.00     0.060 A 
BRANCH  80  81
ATOM     81  S   UNL     1      12.336  11.571   7.590  1.00  0.00     0.124 S 
ATOM     82  O   UNL     1      12.751  10.290   7.028  1.00  0.00    -0.237 OA
ATOM     83  O   UNL     1      12.689  12.751   6.807  1.00  0.00    -0.237 OA
ATOM     84  O   UNL     1      12.507  11.707   9.034  1.00  0.00    -0.744 OA
ENDBRANCH  80  81
ENDBRANCH  59  73
BRANCH  60  85
ATOM     85  C   UNL     1      -2.145  10.462   5.736  1.00  0.00     0.058 A 
ATOM     86  C   UNL     1      -2.881  11.360   4.949  1.00  0.00     0.135 A 
ATOM     87  C   UNL     1      -2.849   9.427   6.373  1.00  0.00     0.135 A 
ATOM     88  F   UNL     1      -2.259  12.374   4.328  1.00  0.00    -0.206 F 
ATOM     89  C   UNL     1      -4.261  11.248   4.811  1.00  0.00     0.059 A 
ATOM     90  C   UNL     1      -4.224   9.276   6.226  1.00  0.00     0.059 A 
ATOM     91  F   UNL     1      -2.194   8.535   7.131  1.00  0.00    -0.206 F 
ATOM     92  C   UNL     1      -4.923  10.198   5.450  1.00  0.00     0.060 A 
BRANCH  92  93
ATOM     93  S   UNL     1      -6.707  10.032   5.221  1.00  0.00     0.124 S 
ATOM     94  O   UNL     1      -7.209  11.169   5.984  1.00  0.00    -0.237 OA
ATOM     95  O   UNL     1      -6.837  10.128   3.770  1.00  0.00    -0.237 OA
ATOM     96  O   UNL     1      -6.997   8.716   5.784  1.00  0.00    -0.744 OA
ENDBRANCH  92  93
ENDBRANCH  60  85
BRANCH  72  97
ATOM     97  C   UNL     1       1.946  15.317   8.650  1.00  0.00     0.058 A 
ATOM     98  C   UNL     1       1.302  15.428   9.892  1.00  0.00     0.135 A 
ATOM     99  C   UNL     1       2.349  16.503   8.013  1.00  0.00     0.135 A 
ATOM    100  F   UNL     1       0.896  14.328  10.544  1.00  0.00    -0.206 F 
ATOM    101  C   UNL     1       1.028  16.669  10.458  1.00  0.00     0.059 A 
ATOM    102  C   UNL     1       2.119  17.752   8.579  1.00  0.00     0.059 A 
ATOM    103  F   UNL     1       2.986  16.455   6.832  1.00  0.00    -0.206 F 
ATOM    104  C   UNL     1       1.439  17.826   9.793  1.00  0.00     0.060 A 
BRANCH 104 105
ATOM    105  S   UNL     1       1.079  19.429  10.539  1.00  0.00     0.124 S 
ATOM    106  O   UNL     1      -0.361  19.533  10.330  1.00  0.00    -0.237 OA
ATOM    107  O   UNL     1       1.507  19.233  11.921  1.00  0.00    -0.237 OA
ATOM    108  O   UNL     1       1.895  20.357   9.762  1.00  0.00    -0.744 OA
ENDBRANCH 104 105
ENDBRANCH  72  97
ENDBRANCH  46  47
ENDBRANCH  39  41
ENDBRANCH  38  39
ENDBRANCH  37  38
ENDBRANCH  36  37
ENDBRANCH  35  36
ENDBRANCH  34  35
ENDBRANCH  33  34
ENDBRANCH  32  33
ENDBRANCH   1  32
TORSDOF 27
