REMARK SMILES O=C(C[C@@H]([NH2+]Cc1ccccc1)C(=O)OCCOCCOCCOCCOC(=O)c1ccc(-c2c3nc(c(-c4c(F)cc(S(=O)(=O)[O-])cc4F)c4ccc([nH]4)c(-c4c(F)cc(S(=O)(=O)[O-])cc4F)c4nc(c(-c5c(F)cc(S(=O)(=O)[O-])cc5F)c5ccc2[nH]5)C=C4)C=C3)cc1)Nc1cccc(Cl)c1Cl
REMARK SMILES IDX 21 1 20 2 19 3 18 4 17 5 16 6 15 7 13 8 14 9 4 10 3 11 2 12
REMARK SMILES IDX 1 13 96 14 97 16 98 17 103 18 99 19 101 20 104 21 100 22
REMARK SMILES IDX 102 23 5 24 6 27 7 28 8 29 12 30 9 31 11 32 10 33 22 34
REMARK SMILES IDX 23 35 24 36 25 37 26 38 27 39 28 40 29 41 30 42 31 43 95 44
REMARK SMILES IDX 32 45 94 46 33 47 34 48 35 49 88 50 36 51 93 52 87 53 89 54
REMARK SMILES IDX 37 55 92 56 86 57 85 58 38 60 72 61 51 62 71 63 52 64 55 65
REMARK SMILES IDX 70 66 90 67 53 68 54 69 69 71 91 72 56 73 39 74 40 75 49 76
REMARK SMILES IDX 41 77 42 78 48 79 50 80 43 81 44 82 45 83 46 84 47 85 73 86
REMARK SMILES IDX 74 87 83 88 75 89 76 90 82 91 84 92 77 93 78 94 79 95 80 96
REMARK SMILES IDX 81 97 57 98 58 99 67 100 59 101 60 102 66 103 68 104 61 105
REMARK SMILES IDX 62 106 63 107 64 108 65 109
REMARK H PARENT 96 15 5 25 5 26 89 59 55 70
REMARK Flexibility Score: inf
ROOT
ATOM      1  O   UNL     1       3.585   2.347  -3.444  1.00  0.00    -0.377 OA
ENDROOT
BRANCH   1   2
ATOM      2  C   UNL     1       2.900   3.236  -2.581  1.00  0.00     0.188 C 
BRANCH   2   3
ATOM      3  C   UNL     1       3.671   4.499  -2.181  1.00  0.00     0.188 C 
BRANCH   3   4
ATOM      4  O   UNL     1       4.655   4.910  -3.102  1.00  0.00    -0.376 OA
BRANCH   4   5
ATOM      5  C   UNL     1       5.995   4.453  -3.079  1.00  0.00     0.202 C 
BRANCH   5   6
ATOM      6  C   UNL     1       6.535   3.102  -2.553  1.00  0.00     0.261 C 
BRANCH   6   7
ATOM      7  O   UNL     1       5.664   2.193  -1.880  1.00  0.00    -0.459 OA
BRANCH   7   8
ATOM      8  C   UNL     1       5.469   2.477  -0.576  1.00  0.00     0.365 C 
ATOM      9  O   UNL     1       5.946   3.481  -0.053  1.00  0.00    -0.245 OA
BRANCH   8  10
ATOM     10  C   UNL     1       4.546   1.483   0.165  1.00  0.00     0.303 C 
BRANCH  10  11
ATOM     11  C   UNL     1       3.946   0.362  -0.707  1.00  0.00     0.177 C 
BRANCH  11  12
ATOM     12  C   UNL     1       2.756  -0.265   0.000  1.00  0.00     0.231 C 
ATOM     13  O   UNL     1       1.633   0.224  -0.053  1.00  0.00    -0.274 OA
ATOM     14  N   UNL     1       3.142  -1.311   0.822  1.00  0.00    -0.325 N 
ATOM     15  H   UNL     1       4.105  -1.508   0.862  1.00  0.00     0.169 HD
BRANCH  14  16
ATOM     16  C   UNL     1       2.297  -2.124   1.608  1.00  0.00     0.061 A 
ATOM     17  C   UNL     1       2.788  -2.413   2.893  1.00  0.00     0.028 A 
ATOM     18  C   UNL     1       1.092  -2.717   1.178  1.00  0.00     0.083 A 
ATOM     19  C   UNL     1       2.088  -3.247   3.762  1.00  0.00     0.004 A 
ATOM     20  C   UNL     1       0.407  -3.580   2.057  1.00  0.00     0.061 A 
ATOM     21  Cl  UNL     1       0.545  -2.570  -0.463  1.00  0.00    -0.080 Cl
ATOM     22  C   UNL     1       0.902  -3.836   3.341  1.00  0.00     0.022 A 
ATOM     23  Cl  UNL     1      -1.041  -4.422   1.608  1.00  0.00    -0.083 Cl
ENDBRANCH  14  16
ENDBRANCH  11  12
ENDBRANCH  10  11
BRANCH  10  24
ATOM     24  N   UNL     1       5.226   0.838   1.333  1.00  0.00    -0.330 N 
ATOM     25  H   UNL     1       5.894   0.157   0.973  1.00  0.00     0.347 HD
ATOM     26  H   UNL     1       4.484   0.423   1.897  1.00  0.00     0.347 HD
BRANCH  24  27
ATOM     27  C   UNL     1       5.949   1.756   2.225  1.00  0.00     0.298 C 
BRANCH  27  28
ATOM     28  C   UNL     1       5.051   2.726   2.958  1.00  0.00     0.006 A 
ATOM     29  C   UNL     1       5.193   4.110   2.784  1.00  0.00     0.009 A 
ATOM     30  C   UNL     1       4.061   2.257   3.833  1.00  0.00     0.009 A 
ATOM     31  C   UNL     1       4.356   5.003   3.453  1.00  0.00     0.001 A 
ATOM     32  C   UNL     1       3.230   3.150   4.508  1.00  0.00     0.001 A 
ATOM     33  C   UNL     1       3.377   4.522   4.318  1.00  0.00     0.000 A 
ENDBRANCH  27  28
ENDBRANCH  24  27
ENDBRANCH  10  24
ENDBRANCH   8  10
ENDBRANCH   7   8
ENDBRANCH   6   7
ENDBRANCH   5   6
ENDBRANCH   4   5
ENDBRANCH   3   4
ENDBRANCH   2   3
ENDBRANCH   1   2
BRANCH   1  34
ATOM     34  C   UNL     1       3.768   2.676  -4.817  1.00  0.00     0.188 C 
BRANCH  34  35
ATOM     35  C   UNL     1       3.263   4.009  -5.408  1.00  0.00     0.188 C 
BRANCH  35  36
ATOM     36  O   UNL     1       2.071   4.505  -4.822  1.00  0.00    -0.376 OA
BRANCH  36  37
ATOM     37  C   UNL     1       0.844   4.221  -5.475  1.00  0.00     0.202 C 
BRANCH  37  38
ATOM     38  C   UNL     1       0.454   2.745  -5.649  1.00  0.00     0.261 C 
BRANCH  38  39
ATOM     39  O   UNL     1       1.341   1.929  -6.436  1.00  0.00    -0.460 OA
BRANCH  39  40
ATOM     40  C   UNL     1       1.639   2.315  -7.694  1.00  0.00     0.338 C 
ATOM     41  O   UNL     1       1.186   3.274  -8.296  1.00  0.00    -0.246 OA
BRANCH  40  42
ATOM     42  C   UNL     1       2.778   1.490  -8.154  1.00  0.00     0.060 A 
ATOM     43  C   UNL     1       3.996   2.112  -8.463  1.00  0.00     0.016 A 
ATOM     44  C   UNL     1       2.650   0.104  -8.257  1.00  0.00     0.016 A 
ATOM     45  C   UNL     1       5.085   1.349  -8.892  1.00  0.00     0.010 A 
ATOM     46  C   UNL     1       3.733  -0.655  -8.712  1.00  0.00     0.010 A 
ATOM     47  C   UNL     1       4.949  -0.036  -9.053  1.00  0.00    -0.014 A 
BRANCH  47  48
ATOM     48  C   UNL     1       6.017  -0.822  -9.720  1.00  0.00     0.031 A 
ATOM     49  C   UNL     1       5.857  -1.160 -11.178  1.00  0.00     0.074 A 
ATOM     50  C   UNL     1       7.107  -1.233  -9.046  1.00  0.00     0.049 A 
ATOM     51  N   UNL     1       6.607  -1.908 -11.944  1.00  0.00    -0.248 NA
ATOM     52  C   UNL     1       4.692  -0.574 -11.861  1.00  0.00     0.031 C 
ATOM     53  C   UNL     1       7.399  -0.930  -7.646  1.00  0.00     0.029 A 
ATOM     54  N   UNL     1       8.165  -2.011  -9.450  1.00  0.00    -0.354 N 
ATOM     55  C   UNL     1       6.000  -1.895 -13.195  1.00  0.00     0.074 A 
ATOM     56  C   UNL     1       4.808  -1.083 -13.079  1.00  0.00     0.031 C 
ATOM     57  C   UNL     1       8.550  -1.534  -7.301  1.00  0.00     0.029 A 
ATOM     58  C   UNL     1       9.053  -2.300  -8.441  1.00  0.00     0.049 A 
ATOM     59  H   UNL     1       8.276  -2.331 -10.374  1.00  0.00     0.167 HD
ATOM     60  C   UNL     1       6.404  -2.501 -14.337  1.00  0.00     0.037 A 
ATOM     61  C   UNL     1      10.128  -3.116  -8.430  1.00  0.00     0.037 A 
ATOM     62  C   UNL     1       7.589  -3.313 -14.442  1.00  0.00     0.049 A 
ATOM     63  C   UNL     1      10.508  -3.853  -9.691  1.00  0.00     0.074 A 
ATOM     64  C   UNL     1       8.095  -3.953 -15.559  1.00  0.00     0.029 A 
ATOM     65  N   UNL     1       8.444  -3.610 -13.390  1.00  0.00    -0.354 N 
ATOM     66  N   UNL     1       9.944  -3.810 -10.875  1.00  0.00    -0.248 NA
ATOM     67  C   UNL     1      11.668  -4.754  -9.613  1.00  0.00     0.031 C 
ATOM     68  C   UNL     1       9.219  -4.688 -15.170  1.00  0.00     0.029 A 
ATOM     69  C   UNL     1       9.453  -4.454 -13.824  1.00  0.00     0.049 A 
ATOM     70  H   UNL     1       8.348  -3.270 -12.471  1.00  0.00     0.167 HD
ATOM     71  C   UNL     1      10.693  -4.658 -11.687  1.00  0.00     0.074 A 
ATOM     72  C   UNL     1      11.761  -5.186 -10.863  1.00  0.00     0.031 C 
ATOM     73  C   UNL     1      10.513  -4.973 -12.994  1.00  0.00     0.037 A 
BRANCH  60  74
ATOM     74  C   UNL     1       5.540  -2.338 -15.558  1.00  0.00     0.058 A 
ATOM     75  C   UNL     1       5.440  -1.115 -16.240  1.00  0.00     0.135 A 
ATOM     76  C   UNL     1       4.835  -3.436 -16.079  1.00  0.00     0.135 A 
ATOM     77  F   UNL     1       6.078  -0.028 -15.777  1.00  0.00    -0.206 F 
ATOM     78  C   UNL     1       4.654  -0.980 -17.380  1.00  0.00     0.059 A 
ATOM     79  C   UNL     1       4.067  -3.332 -17.235  1.00  0.00     0.059 A 
ATOM     80  F   UNL     1       4.892  -4.629 -15.466  1.00  0.00    -0.206 F 
ATOM     81  C   UNL     1       3.974  -2.096 -17.872  1.00  0.00     0.060 A 
BRANCH  81  82
ATOM     82  S   UNL     1       2.970  -1.905 -19.360  1.00  0.00     0.124 S 
ATOM     83  O   UNL     1       1.863  -1.092 -18.863  1.00  0.00    -0.237 OA
ATOM     84  O   UNL     1       3.890  -1.232 -20.271  1.00  0.00    -0.237 OA
ATOM     85  O   UNL     1       2.626  -3.277 -19.719  1.00  0.00    -0.744 OA
ENDBRANCH  81  82
ENDBRANCH  60  74
BRANCH  61  86
ATOM     86  C   UNL     1      10.908  -3.307  -7.176  1.00  0.00     0.058 A 
ATOM     87  C   UNL     1      12.230  -2.852  -7.064  1.00  0.00     0.135 A 
ATOM     88  C   UNL     1      10.348  -3.959  -6.064  1.00  0.00     0.135 A 
ATOM     89  F   UNL     1      12.817  -2.238  -8.103  1.00  0.00    -0.206 F 
ATOM     90  C   UNL     1      12.973  -3.043  -5.903  1.00  0.00     0.059 A 
ATOM     91  C   UNL     1      11.061  -4.136  -4.882  1.00  0.00     0.059 A 
ATOM     92  F   UNL     1       9.086  -4.412  -6.114  1.00  0.00    -0.206 F 
ATOM     93  C   UNL     1      12.376  -3.681  -4.814  1.00  0.00     0.060 A 
BRANCH  93  94
ATOM     94  S   UNL     1      13.331  -3.872  -3.293  1.00  0.00     0.124 S 
ATOM     95  O   UNL     1      14.309  -4.881  -3.682  1.00  0.00    -0.237 OA
ATOM     96  O   UNL     1      13.850  -2.524  -3.088  1.00  0.00    -0.237 OA
ATOM     97  O   UNL     1      12.331  -4.304  -2.321  1.00  0.00    -0.744 OA
ENDBRANCH  93  94
ENDBRANCH  61  86
BRANCH  73  98
ATOM     98  C   UNL     1      11.501  -5.915 -13.631  1.00  0.00     0.058 A 
ATOM     99  C   UNL     1      11.525  -7.283 -13.317  1.00  0.00     0.135 A 
ATOM    100  C   UNL     1      12.390  -5.456 -14.617  1.00  0.00     0.135 A 
ATOM    101  F   UNL     1      10.702  -7.776 -12.377  1.00  0.00    -0.206 F 
ATOM    102  C   UNL     1      12.408  -8.158 -13.942  1.00  0.00     0.059 A 
ATOM    103  C   UNL     1      13.260  -6.318 -15.278  1.00  0.00     0.059 A 
ATOM    104  F   UNL     1      12.404  -4.159 -14.964  1.00  0.00    -0.206 F 
ATOM    105  C   UNL     1      13.268  -7.667 -14.927  1.00  0.00     0.060 A 
BRANCH 105 106
ATOM    106  S   UNL     1      14.377  -8.823 -15.760  1.00  0.00     0.124 S 
ATOM    107  O   UNL     1      15.335  -9.127 -14.702  1.00  0.00    -0.237 OA
ATOM    108  O   UNL     1      13.474  -9.909 -16.129  1.00  0.00    -0.237 OA
ATOM    109  O   UNL     1      14.903  -8.045 -16.878  1.00  0.00    -0.744 OA
ENDBRANCH 105 106
ENDBRANCH  73  98
ENDBRANCH  47  48
ENDBRANCH  40  42
ENDBRANCH  39  40
ENDBRANCH  38  39
ENDBRANCH  37  38
ENDBRANCH  36  37
ENDBRANCH  35  36
ENDBRANCH  34  35
ENDBRANCH   1  34
TORSDOF 29
