REMARK SMILES COc1cc(-c2cc(C(=O)OCCOCCOCCOCCOC(=O)c3ccc(-c4c5nc(c(-c6c(F)cc(S(=O)(=O)[O-])cc6F)c6ccc([nH]6)c(-c6c(F)cc(S(=O)(=O)[O-])cc6F)c6nc(c(-c7c(F)cc(S(=O)(=O)[O-])cc7F)c7ccc4[nH]7)C=C6)C=C5)cc3)c3cc(C)ccc3n2)cc(OC)c1OC
REMARK SMILES IDX 18 1 17 2 16 3 15 4 14 5 13 6 12 7 11 8 9 9 10 10 8 11 6 12
REMARK SMILES IDX 7 13 99 14 98 15 92 16 97 17 93 18 96 19 94 20 95 21 5 22
REMARK SMILES IDX 3 23 4 24 104 25 101 26 100 27 2 28 1 29 105 30 106 31
REMARK SMILES IDX 102 32 103 33 19 34 20 35 21 36 22 37 23 38 24 39 25 40
REMARK SMILES IDX 26 41 27 42 91 43 28 44 90 45 29 46 30 47 31 48 84 49 32 50
REMARK SMILES IDX 89 51 83 52 85 53 33 54 88 55 82 56 81 57 34 59 68 60 47 61
REMARK SMILES IDX 67 62 48 63 51 64 66 65 86 66 49 67 50 68 65 70 87 71 52 72
REMARK SMILES IDX 35 73 36 74 45 75 37 76 38 77 44 78 46 79 39 80 40 81 41 82
REMARK SMILES IDX 42 83 43 84 69 85 70 86 79 87 71 88 72 89 78 90 80 91 73 92
REMARK SMILES IDX 74 93 75 94 76 95 77 96 53 97 54 98 63 99 55 100 56 101
REMARK SMILES IDX 62 102 64 103 57 104 58 105 59 106 60 107 61 108
REMARK H PARENT 85 58 51 69
REMARK Flexibility Score: inf
ROOT
ATOM      1  C   UNL     1       0.521  -3.880  11.393  1.00  0.00     0.188 C 
ENDROOT
BRANCH   1   2
ATOM      2  O   UNL     1       0.368  -3.358  10.081  1.00  0.00    -0.377 OA
BRANCH   2   3
ATOM      3  C   UNL     1       1.517  -3.273   9.257  1.00  0.00     0.188 C 
BRANCH   3   4
ATOM      4  C   UNL     1       2.865  -2.805   9.868  1.00  0.00     0.188 C 
BRANCH   4   5
ATOM      5  O   UNL     1       2.838  -2.567  11.263  1.00  0.00    -0.376 OA
BRANCH   5   6
ATOM      6  C   UNL     1       2.871  -1.209  11.674  1.00  0.00     0.202 C 
BRANCH   6   7
ATOM      7  C   UNL     1       1.794  -0.244  11.135  1.00  0.00     0.261 C 
BRANCH   7   8
ATOM      8  O   UNL     1       1.361  -0.530   9.789  1.00  0.00    -0.460 OA
BRANCH   8   9
ATOM      9  C   UNL     1       1.806   0.283   8.812  1.00  0.00     0.338 C 
ATOM     10  O   UNL     1       2.417   1.328   8.964  1.00  0.00    -0.246 OA
BRANCH   9  11
ATOM     11  C   UNL     1       1.653  -0.380   7.483  1.00  0.00     0.071 A 
ATOM     12  C   UNL     1       0.858   0.404   5.444  1.00  0.00     0.072 A 
ATOM     13  C   UNL     1       0.550  -0.052   6.707  1.00  0.00     0.045 A 
ATOM     14  N   UNL     1       2.082   0.987   5.256  1.00  0.00    -0.248 NA
ATOM     15  C   UNL     1       3.120   0.351   5.807  1.00  0.00     0.072 A 
ATOM     16  C   UNL     1       2.871  -0.558   6.812  1.00  0.00     0.015 A 
ATOM     17  C   UNL     1       4.367   0.345   5.200  1.00  0.00     0.029 A 
ATOM     18  C   UNL     1       3.643  -1.739   6.835  1.00  0.00     0.014 A 
ATOM     19  C   UNL     1       5.215  -0.760   5.336  1.00  0.00     0.005 A 
ATOM     20  C   UNL     1       4.777  -1.877   6.041  1.00  0.00    -0.050 A 
ATOM     21  C   UNL     1       5.432  -3.220   5.909  1.00  0.00     0.044 C 
BRANCH  12  22
ATOM     22  C   UNL     1       0.514  -0.361   4.189  1.00  0.00     0.008 A 
ATOM     23  C   UNL     1       0.566   0.288   1.877  1.00  0.00     0.165 A 
ATOM     24  C   UNL     1      -0.050   0.344   3.131  1.00  0.00     0.061 A 
ATOM     25  C   UNL     1       1.772  -0.417   1.706  1.00  0.00     0.203 A 
ATOM     26  C   UNL     1       2.135  -1.361   2.668  1.00  0.00     0.165 A 
ATOM     27  C   UNL     1       1.385  -1.430   3.851  1.00  0.00     0.061 A 
BRANCH  23  28
ATOM     28  O   UNL     1       0.026   1.098   0.911  1.00  0.00    -0.493 OA
ATOM     29  C   UNL     1      -0.241   0.375  -0.290  1.00  0.00     0.278 C 
ENDBRANCH  23  28
BRANCH  25  30
ATOM     30  O   UNL     1       2.695   0.128   0.845  1.00  0.00    -0.490 OA
ATOM     31  C   UNL     1       2.868  -0.540  -0.389  1.00  0.00     0.278 C 
ENDBRANCH  25  30
BRANCH  26  32
ATOM     32  O   UNL     1       3.210  -2.210   2.635  1.00  0.00    -0.493 OA
ATOM     33  C   UNL     1       4.450  -1.656   2.211  1.00  0.00     0.278 C 
ENDBRANCH  26  32
ENDBRANCH  12  22
ENDBRANCH   9  11
ENDBRANCH   8   9
ENDBRANCH   7   8
ENDBRANCH   6   7
ENDBRANCH   5   6
ENDBRANCH   4   5
ENDBRANCH   3   4
ENDBRANCH   2   3
ENDBRANCH   1   2
BRANCH   1  34
ATOM     34  C   UNL     1       1.526  -5.033  11.629  1.00  0.00     0.188 C 
BRANCH  34  35
ATOM     35  O   UNL     1       2.134  -5.554  10.454  1.00  0.00    -0.376 OA
BRANCH  35  36
ATOM     36  C   UNL     1       1.613  -6.769   9.937  1.00  0.00     0.202 C 
BRANCH  36  37
ATOM     37  C   UNL     1       0.152  -6.775   9.460  1.00  0.00     0.261 C 
BRANCH  37  38
ATOM     38  O   UNL     1      -0.835  -6.367  10.420  1.00  0.00    -0.460 OA
BRANCH  38  39
ATOM     39  C   UNL     1      -0.946  -7.089  11.555  1.00  0.00     0.338 C 
ATOM     40  O   UNL     1      -0.317  -8.093  11.851  1.00  0.00    -0.246 OA
BRANCH  39  41
ATOM     41  C   UNL     1      -1.810  -6.328  12.482  1.00  0.00     0.060 A 
ATOM     42  C   UNL     1      -1.280  -5.891  13.705  1.00  0.00     0.016 A 
ATOM     43  C   UNL     1      -3.118  -6.000  12.121  1.00  0.00     0.016 A 
ATOM     44  C   UNL     1      -2.066  -5.144  14.581  1.00  0.00     0.010 A 
ATOM     45  C   UNL     1      -3.917  -5.283  13.015  1.00  0.00     0.010 A 
ATOM     46  C   UNL     1      -3.404  -4.882  14.261  1.00  0.00    -0.014 A 
BRANCH  46  47
ATOM     47  C   UNL     1      -4.322  -4.407  15.323  1.00  0.00     0.031 A 
ATOM     48  C   UNL     1      -5.132  -5.440  16.061  1.00  0.00     0.074 A 
ATOM     49  C   UNL     1      -4.417  -3.106  15.648  1.00  0.00     0.049 A 
ATOM     50  N   UNL     1      -6.025  -5.281  17.000  1.00  0.00    -0.248 NA
ATOM     51  C   UNL     1      -4.901  -6.844  15.680  1.00  0.00     0.031 C 
ATOM     52  C   UNL     1      -3.654  -2.021  15.034  1.00  0.00     0.029 A 
ATOM     53  N   UNL     1      -5.210  -2.478  16.577  1.00  0.00    -0.354 N 
ATOM     54  C   UNL     1      -6.468  -6.560  17.318  1.00  0.00     0.074 A 
ATOM     55  C   UNL     1      -5.769  -7.481  16.449  1.00  0.00     0.031 C 
ATOM     56  C   UNL     1      -4.028  -0.856  15.594  1.00  0.00     0.029 A 
ATOM     57  C   UNL     1      -5.078  -1.110  16.580  1.00  0.00     0.049 A 
ATOM     58  H   UNL     1      -5.816  -2.962  17.183  1.00  0.00     0.167 HD
ATOM     59  C   UNL     1      -7.370  -6.934  18.255  1.00  0.00     0.037 A 
ATOM     60  C   UNL     1      -5.747  -0.174  17.284  1.00  0.00     0.037 A 
ATOM     61  C   UNL     1      -8.065  -6.010  19.111  1.00  0.00     0.049 A 
ATOM     62  C   UNL     1      -6.799  -0.608  18.274  1.00  0.00     0.074 A 
ATOM     63  C   UNL     1      -8.987  -6.286  20.105  1.00  0.00     0.029 A 
ATOM     64  N   UNL     1      -7.925  -4.630  19.067  1.00  0.00    -0.354 N 
ATOM     65  N   UNL     1      -7.191  -1.822  18.587  1.00  0.00    -0.248 NA
ATOM     66  C   UNL     1      -7.498   0.454  19.012  1.00  0.00     0.031 C 
ATOM     67  C   UNL     1      -9.449  -5.071  20.620  1.00  0.00     0.029 A 
ATOM     68  C   UNL     1      -8.766  -4.039  19.995  1.00  0.00     0.049 A 
ATOM     69  H   UNL     1      -7.318  -4.142  18.464  1.00  0.00     0.167 HD
ATOM     70  C   UNL     1      -8.157  -1.669  19.577  1.00  0.00     0.074 A 
ATOM     71  C   UNL     1      -8.281  -0.247  19.821  1.00  0.00     0.031 C 
ATOM     72  C   UNL     1      -8.874  -2.619  20.230  1.00  0.00     0.037 A 
BRANCH  59  73
ATOM     73  C   UNL     1      -7.680  -8.400  18.375  1.00  0.00     0.058 A 
ATOM     74  C   UNL     1      -6.747  -9.319  18.882  1.00  0.00     0.135 A 
ATOM     75  C   UNL     1      -8.940  -8.891  17.994  1.00  0.00     0.135 A 
ATOM     76  F   UNL     1      -5.519  -8.910  19.239  1.00  0.00    -0.206 F 
ATOM     77  C   UNL     1      -7.042 -10.675  18.983  1.00  0.00     0.059 A 
ATOM     78  C   UNL     1      -9.268 -10.237  18.116  1.00  0.00     0.059 A 
ATOM     79  F   UNL     1      -9.867  -8.058  17.496  1.00  0.00    -0.206 F 
ATOM     80  C   UNL     1      -8.307 -11.124  18.598  1.00  0.00     0.060 A 
BRANCH  80  81
ATOM     81  S   UNL     1      -8.677 -12.885  18.742  1.00  0.00     0.124 S 
ATOM     82  O   UNL     1      -7.856 -13.443  17.672  1.00  0.00    -0.237 OA
ATOM     83  O   UNL     1      -8.236 -13.185  20.100  1.00  0.00    -0.237 OA
ATOM     84  O   UNL     1     -10.118 -12.950  18.524  1.00  0.00    -0.744 OA
ENDBRANCH  80  81
ENDBRANCH  59  73
BRANCH  60  85
ATOM     85  C   UNL     1      -5.455   1.270  17.068  1.00  0.00     0.058 A 
ATOM     86  C   UNL     1      -4.856   2.051  18.069  1.00  0.00     0.135 A 
ATOM     87  C   UNL     1      -5.778   1.902  15.856  1.00  0.00     0.135 A 
ATOM     88  F   UNL     1      -4.542   1.499  19.251  1.00  0.00    -0.206 F 
ATOM     89  C   UNL     1      -4.601   3.406  17.883  1.00  0.00     0.059 A 
ATOM     90  C   UNL     1      -5.506   3.249  15.636  1.00  0.00     0.059 A 
ATOM     91  F   UNL     1      -6.348   1.201  14.863  1.00  0.00    -0.206 F 
ATOM     92  C   UNL     1      -4.925   3.995  16.660  1.00  0.00     0.060 A 
BRANCH  92  93
ATOM     93  S   UNL     1      -4.542   5.743  16.412  1.00  0.00     0.124 S 
ATOM     94  O   UNL     1      -5.524   6.385  17.276  1.00  0.00    -0.237 OA
ATOM     95  O   UNL     1      -3.154   5.815  16.857  1.00  0.00    -0.237 OA
ATOM     96  O   UNL     1      -4.743   5.931  14.978  1.00  0.00    -0.744 OA
ENDBRANCH  92  93
ENDBRANCH  60  85
BRANCH  72  97
ATOM     97  C   UNL     1      -9.829  -2.160  21.300  1.00  0.00     0.058 A 
ATOM     98  C   UNL     1     -11.016  -1.475  20.995  1.00  0.00     0.135 A 
ATOM     99  C   UNL     1      -9.575  -2.456  22.650  1.00  0.00     0.135 A 
ATOM    100  F   UNL     1     -11.309  -1.164  19.722  1.00  0.00    -0.206 F 
ATOM    101  C   UNL     1     -11.900  -1.072  21.991  1.00  0.00     0.059 A 
ATOM    102  C   UNL     1     -10.461  -2.093  23.660  1.00  0.00     0.059 A 
ATOM    103  F   UNL     1      -8.463  -3.122  22.999  1.00  0.00    -0.206 F 
ATOM    104  C   UNL     1     -11.614  -1.387  23.321  1.00  0.00     0.060 A 
BRANCH 104 105
ATOM    105  S   UNL     1     -12.781  -0.877  24.602  1.00  0.00     0.124 S 
ATOM    106  O   UNL     1     -12.559   0.564  24.645  1.00  0.00    -0.237 OA
ATOM    107  O   UNL     1     -14.061  -1.306  24.046  1.00  0.00    -0.237 OA
ATOM    108  O   UNL     1     -12.337  -1.616  25.780  1.00  0.00    -0.744 OA
ENDBRANCH 104 105
ENDBRANCH  72  97
ENDBRANCH  46  47
ENDBRANCH  39  41
ENDBRANCH  38  39
ENDBRANCH  37  38
ENDBRANCH  36  37
ENDBRANCH  35  36
ENDBRANCH  34  35
ENDBRANCH   1  34
TORSDOF 27
