REMARK SMILES O=C(OCCOCCOCCOCCOC(=O)c1cc2c(Cl)c(C(F)(F)F)cnc2n1S(=O)(=O)c1ccccc1)c1ccc(-c2c3nc(c(-c4c(F)cc(S(=O)(=O)[O-])cc4F)c4ccc([nH]4)c(-c4c(F)cc(S(=O)(=O)[O-])cc4F)c4nc(c(-c5c(F)cc(S(=O)(=O)[O-])cc5F)c5ccc2[nH]5)C=C4)C=C3)cc1
REMARK SMILES IDX 8 1 7 2 6 3 5 4 4 5 3 6 2 7 1 8 41 9 42 10 106 11 43 12
REMARK SMILES IDX 105 13 44 14 45 15 46 16 99 17 47 18 104 19 98 20 100 21
REMARK SMILES IDX 48 22 103 23 97 24 96 25 49 27 83 28 62 29 82 30 63 31 66 32
REMARK SMILES IDX 81 33 101 34 64 35 65 36 80 38 102 39 67 40 50 41 51 42
REMARK SMILES IDX 60 43 52 44 53 45 59 46 61 47 54 48 55 49 56 50 57 51 58 52
REMARK SMILES IDX 84 53 85 54 94 55 86 56 87 57 93 58 95 59 88 60 89 61 90 62
REMARK SMILES IDX 91 63 92 64 68 65 69 66 78 67 70 68 71 69 77 70 79 71 72 72
REMARK SMILES IDX 73 73 74 74 75 75 76 76 9 77 10 78 11 79 12 80 13 81 14 82
REMARK SMILES IDX 15 83 16 84 17 85 18 86 19 87 31 88 20 89 30 90 21 91 29 92
REMARK SMILES IDX 22 93 23 94 28 95 32 96 33 97 34 98 35 99 36 100 40 101
REMARK SMILES IDX 37 102 39 103 38 104 24 105 25 106 26 107 27 108
REMARK H PARENT 100 26 66 37
REMARK Flexibility Score: inf
ROOT
ATOM      1  C   UNL     1       2.330   1.952   0.514  1.00  0.00     0.188 C 
ENDROOT
BRANCH   1   2
ATOM      2  C   UNL     1       3.164   0.831   1.140  1.00  0.00     0.188 C 
BRANCH   2   3
ATOM      3  O   UNL     1       4.311   0.316   0.441  1.00  0.00    -0.376 OA
BRANCH   3   4
ATOM      4  C   UNL     1       4.655   0.780  -0.861  1.00  0.00     0.202 C 
BRANCH   4   5
ATOM      5  C   UNL     1       4.671  -0.281  -1.956  1.00  0.00     0.261 C 
BRANCH   5   6
ATOM      6  O   UNL     1       3.355  -0.715  -2.355  1.00  0.00    -0.460 OA
BRANCH   6   7
ATOM      7  C   UNL     1       2.350  -0.786  -1.450  1.00  0.00     0.338 C 
ATOM      8  O   UNL     1       1.325  -0.124  -1.549  1.00  0.00    -0.246 OA
BRANCH   7   9
ATOM      9  C   UNL     1       2.436  -1.935  -0.528  1.00  0.00     0.060 A 
ATOM     10  C   UNL     1       3.651  -2.499  -0.131  1.00  0.00     0.016 A 
ATOM     11  C   UNL     1       1.221  -2.520  -0.150  1.00  0.00     0.016 A 
ATOM     12  C   UNL     1       3.675  -3.770   0.360  1.00  0.00     0.010 A 
ATOM     13  C   UNL     1       1.232  -3.794   0.371  1.00  0.00     0.010 A 
ATOM     14  C   UNL     1       2.462  -4.430   0.491  1.00  0.00    -0.014 A 
BRANCH  14  15
ATOM     15  C   UNL     1       2.572  -5.857   0.628  1.00  0.00     0.031 A 
ATOM     16  C   UNL     1       3.037  -6.297   1.956  1.00  0.00     0.074 A 
ATOM     17  C   UNL     1       2.335  -6.619  -0.453  1.00  0.00     0.049 A 
ATOM     18  N   UNL     1       4.158  -6.860   2.263  1.00  0.00    -0.248 NA
ATOM     19  C   UNL     1       2.231  -5.875   3.112  1.00  0.00     0.031 C 
ATOM     20  C   UNL     1       1.712  -6.226  -1.723  1.00  0.00     0.029 A 
ATOM     21  N   UNL     1       2.515  -7.952  -0.601  1.00  0.00    -0.354 N 
ATOM     22  C   UNL     1       4.098  -7.067   3.635  1.00  0.00     0.074 A 
ATOM     23  C   UNL     1       2.992  -6.283   4.125  1.00  0.00     0.031 C 
ATOM     24  C   UNL     1       1.337  -7.338  -2.392  1.00  0.00     0.029 A 
ATOM     25  C   UNL     1       1.802  -8.499  -1.658  1.00  0.00     0.049 A 
ATOM     26  H   UNL     1       3.098  -8.484  -0.013  1.00  0.00     0.167 HD
ATOM     27  C   UNL     1       4.799  -8.059   4.242  1.00  0.00     0.037 A 
ATOM     28  C   UNL     1       1.499  -9.815  -1.772  1.00  0.00     0.037 A 
ATOM     29  C   UNL     1       5.881  -8.536   3.428  1.00  0.00     0.049 A 
ATOM     30  C   UNL     1       2.485 -10.551  -0.924  1.00  0.00     0.074 A 
ATOM     31  C   UNL     1       7.043  -7.966   2.947  1.00  0.00     0.029 A 
ATOM     32  N   UNL     1       5.668  -9.664   2.671  1.00  0.00    -0.354 N 
ATOM     33  N   UNL     1       3.768 -10.593  -1.176  1.00  0.00    -0.248 NA
ATOM     34  C   UNL     1       2.123 -10.825   0.462  1.00  0.00     0.031 C 
ATOM     35  C   UNL     1       7.223  -8.521   1.648  1.00  0.00     0.029 A 
ATOM     36  C   UNL     1       6.190  -9.432   1.422  1.00  0.00     0.049 A 
ATOM     37  H   UNL     1       5.222 -10.489   2.971  1.00  0.00     0.167 HD
ATOM     38  C   UNL     1       4.390 -10.504   0.064  1.00  0.00     0.074 A 
ATOM     39  C   UNL     1       3.324 -10.722   1.038  1.00  0.00     0.031 C 
ATOM     40  C   UNL     1       5.647  -9.982   0.196  1.00  0.00     0.037 A 
BRANCH  27  41
ATOM     41  C   UNL     1       4.264  -8.805   5.429  1.00  0.00     0.058 A 
ATOM     42  C   UNL     1       5.124  -9.566   6.238  1.00  0.00     0.135 A 
ATOM     43  C   UNL     1       2.879  -8.988   5.651  1.00  0.00     0.135 A 
ATOM     44  F   UNL     1       6.455  -9.491   6.079  1.00  0.00    -0.206 F 
ATOM     45  C   UNL     1       4.638 -10.468   7.186  1.00  0.00     0.059 A 
ATOM     46  C   UNL     1       2.376  -9.831   6.629  1.00  0.00     0.059 A 
ATOM     47  F   UNL     1       1.954  -8.426   4.861  1.00  0.00    -0.206 F 
ATOM     48  C   UNL     1       3.261 -10.596   7.367  1.00  0.00     0.060 A 
BRANCH  48  49
ATOM     49  S   UNL     1       2.627 -11.825   8.520  1.00  0.00     0.124 S 
ATOM     50  O   UNL     1       2.980 -13.067   7.843  1.00  0.00    -0.237 OA
ATOM     51  O   UNL     1       3.379 -11.519   9.732  1.00  0.00    -0.237 OA
ATOM     52  O   UNL     1       1.200 -11.523   8.582  1.00  0.00    -0.744 OA
ENDBRANCH  48  49
ENDBRANCH  27  41
BRANCH  28  53
ATOM     53  C   UNL     1       0.167 -10.363  -2.152  1.00  0.00     0.058 A 
ATOM     54  C   UNL     1       0.002 -11.732  -2.412  1.00  0.00     0.135 A 
ATOM     55  C   UNL     1      -1.021  -9.610  -2.020  1.00  0.00     0.135 A 
ATOM     56  F   UNL     1       1.075 -12.529  -2.529  1.00  0.00    -0.206 F 
ATOM     57  C   UNL     1      -1.262 -12.328  -2.491  1.00  0.00     0.059 A 
ATOM     58  C   UNL     1      -2.289 -10.177  -2.111  1.00  0.00     0.059 A 
ATOM     59  F   UNL     1      -0.996  -8.307  -1.704  1.00  0.00    -0.206 F 
ATOM     60  C   UNL     1      -2.403 -11.544  -2.319  1.00  0.00     0.060 A 
BRANCH  60  61
ATOM     61  S   UNL     1      -4.026 -12.333  -2.245  1.00  0.00     0.124 S 
ATOM     62  O   UNL     1      -4.181 -12.834  -3.607  1.00  0.00    -0.237 OA
ATOM     63  O   UNL     1      -3.826 -13.344  -1.212  1.00  0.00    -0.237 OA
ATOM     64  O   UNL     1      -4.921 -11.239  -1.878  1.00  0.00    -0.744 OA
ENDBRANCH  60  61
ENDBRANCH  28  53
BRANCH  40  65
ATOM     65  C   UNL     1       6.445  -9.731  -1.059  1.00  0.00     0.058 A 
ATOM     66  C   UNL     1       6.107  -8.762  -2.021  1.00  0.00     0.135 A 
ATOM     67  C   UNL     1       7.688 -10.365  -1.201  1.00  0.00     0.135 A 
ATOM     68  F   UNL     1       4.987  -8.035  -1.898  1.00  0.00    -0.206 F 
ATOM     69  C   UNL     1       6.950  -8.461  -3.093  1.00  0.00     0.059 A 
ATOM     70  C   UNL     1       8.559 -10.059  -2.244  1.00  0.00     0.059 A 
ATOM     71  F   UNL     1       8.099 -11.250  -0.278  1.00  0.00    -0.206 F 
ATOM     72  C   UNL     1       8.180  -9.111  -3.192  1.00  0.00     0.060 A 
BRANCH  72  73
ATOM     73  S   UNL     1       9.311  -8.652  -4.525  1.00  0.00     0.124 S 
ATOM     74  O   UNL     1       8.630  -9.179  -5.702  1.00  0.00    -0.237 OA
ATOM     75  O   UNL     1       9.352  -7.196  -4.416  1.00  0.00    -0.237 OA
ATOM     76  O   UNL     1      10.555  -9.329  -4.167  1.00  0.00    -0.744 OA
ENDBRANCH  72  73
ENDBRANCH  40  65
ENDBRANCH  14  15
ENDBRANCH   7   9
ENDBRANCH   6   7
ENDBRANCH   5   6
ENDBRANCH   4   5
ENDBRANCH   3   4
ENDBRANCH   2   3
ENDBRANCH   1   2
BRANCH   1  77
ATOM     77  O   UNL     1       2.801   3.277   0.702  1.00  0.00    -0.377 OA
BRANCH  77  78
ATOM     78  C   UNL     1       4.174   3.559   0.532  1.00  0.00     0.188 C 
BRANCH  78  79
ATOM     79  C   UNL     1       5.084   3.263   1.738  1.00  0.00     0.188 C 
BRANCH  79  80
ATOM     80  O   UNL     1       4.759   3.755   3.038  1.00  0.00    -0.376 OA
BRANCH  80  81
ATOM     81  C   UNL     1       3.409   4.070   3.346  1.00  0.00     0.202 C 
BRANCH  81  82
ATOM     82  C   UNL     1       3.109   5.560   3.142  1.00  0.00     0.261 C 
BRANCH  82  83
ATOM     83  O   UNL     1       3.604   6.078   1.896  1.00  0.00    -0.459 OA
BRANCH  83  84
ATOM     84  C   UNL     1       4.873   6.563   1.894  1.00  0.00     0.356 C 
ATOM     85  O   UNL     1       5.602   6.672   2.870  1.00  0.00    -0.244 OA
BRANCH  84  86
ATOM     86  C   UNL     1       5.318   6.791   0.536  1.00  0.00     0.145 A 
ATOM     87  C   UNL     1       6.448   6.250  -0.070  1.00  0.00     0.048 A 
ATOM     88  N   UNL     1       4.697   7.558  -0.429  1.00  0.00    -0.209 N 
ATOM     89  C   UNL     1       6.541   6.746  -1.397  1.00  0.00     0.040 A 
ATOM     90  C   UNL     1       5.461   7.608  -1.574  1.00  0.00     0.156 A 
ATOM     91  C   UNL     1       7.424   6.609  -2.486  1.00  0.00     0.065 A 
ATOM     92  N   UNL     1       5.250   8.366  -2.666  1.00  0.00    -0.237 NA
ATOM     93  Cl  UNL     1       8.643   5.426  -2.297  1.00  0.00    -0.083 Cl
ATOM     94  C   UNL     1       7.290   7.418  -3.607  1.00  0.00     0.093 A 
ATOM     95  C   UNL     1       6.194   8.264  -3.629  1.00  0.00     0.128 A 
BRANCH  88  96
ATOM     96  S   UNL     1       3.091   8.092  -0.317  1.00  0.00     0.270 S 
ATOM     97  O   UNL     1       2.296   6.991  -0.824  1.00  0.00    -0.201 OA
ATOM     98  O   UNL     1       2.951   8.586   1.042  1.00  0.00    -0.201 OA
BRANCH  96  99
ATOM     99  C   UNL     1       2.879   9.481  -1.387  1.00  0.00     0.088 A 
ATOM    100  C   UNL     1       3.095  10.767  -0.883  1.00  0.00     0.022 A 
ATOM    101  C   UNL     1       2.445   9.290  -2.702  1.00  0.00     0.022 A 
ATOM    102  C   UNL     1       2.928  11.866  -1.722  1.00  0.00     0.001 A 
ATOM    103  C   UNL     1       2.302  10.393  -3.541  1.00  0.00     0.001 A 
ATOM    104  C   UNL     1       2.547  11.678  -3.052  1.00  0.00     0.000 A 
ENDBRANCH  96  99
ENDBRANCH  88  96
BRANCH  94 105
ATOM    105  C   UNL     1       8.271   7.426  -4.731  1.00  0.00     0.419 C 
ATOM    106  F   UNL     1       9.562   7.545  -4.314  1.00  0.00    -0.166 F 
ATOM    107  F   UNL     1       8.214   6.308  -5.501  1.00  0.00    -0.166 F 
ATOM    108  F   UNL     1       8.081   8.471  -5.589  1.00  0.00    -0.166 F 
ENDBRANCH  94 105
ENDBRANCH  84  86
ENDBRANCH  83  84
ENDBRANCH  82  83
ENDBRANCH  81  82
ENDBRANCH  80  81
ENDBRANCH  79  80
ENDBRANCH  78  79
ENDBRANCH  77  78
ENDBRANCH   1  77
TORSDOF 26
