REMARK SMILES CC[NH2+][C@@]1(C(=O)OCCOCCOCCOCCOC(=O)c2ccc(-c3c4nc(c(-c5c(F)cc(S(=O)(=O)[O-])cc5F)c5ccc([nH]5)c(-c5c(F)cc(S(=O)(=O)[O-])cc5F)c5nc(c(-c6c(F)cc(S(=O)(=O)[O-])cc6F)c6ccc3[nH]6)C=C5)C=C4)cc2)CC[C@@H]([N@@H+](C)Cc2nccn2C)C1
REMARK SMILES IDX 13 1 12 2 11 3 10 4 9 5 8 6 7 7 5 8 6 9 4 10 88 11 100 12
REMARK SMILES IDX 89 13 90 14 3 15 2 18 1 19 91 20 92 21 93 23 94 24 95 25
REMARK SMILES IDX 98 26 96 27 97 28 99 29 14 30 15 31 16 32 17 33 18 34 19 35
REMARK SMILES IDX 20 36 21 37 22 38 23 39 87 40 24 41 86 42 25 43 26 44 27 45
REMARK SMILES IDX 80 46 28 47 85 48 79 49 81 50 29 51 84 52 78 53 77 54 30 56
REMARK SMILES IDX 64 57 43 58 63 59 44 60 47 61 62 62 82 63 45 64 46 65 61 67
REMARK SMILES IDX 83 68 48 69 31 70 32 71 41 72 33 73 34 74 40 75 42 76 35 77
REMARK SMILES IDX 36 78 37 79 38 80 39 81 65 82 66 83 75 84 67 85 68 86 74 87
REMARK SMILES IDX 76 88 69 89 70 90 71 91 72 92 73 93 49 94 50 95 59 96 51 97
REMARK SMILES IDX 52 98 58 99 60 100 53 101 54 102 55 103 56 104 57 105
REMARK H PARENT 3 16 3 17 91 22 81 55 47 66
REMARK Flexibility Score: inf
ROOT
ATOM      1  O   UNL     1      -1.096  -1.055  -5.673  1.00  0.00    -0.377 OA
ENDROOT
BRANCH   1   2
ATOM      2  C   UNL     1      -0.887  -1.657  -4.404  1.00  0.00     0.188 C 
BRANCH   2   3
ATOM      3  C   UNL     1      -1.976  -1.469  -3.341  1.00  0.00     0.188 C 
BRANCH   3   4
ATOM      4  O   UNL     1      -3.274  -1.345  -3.881  1.00  0.00    -0.376 OA
BRANCH   4   5
ATOM      5  C   UNL     1      -3.879  -0.070  -4.018  1.00  0.00     0.202 C 
BRANCH   5   6
ATOM      6  C   UNL     1      -3.139   1.212  -4.457  1.00  0.00     0.261 C 
BRANCH   6   7
ATOM      7  O   UNL     1      -1.709   1.196  -4.447  1.00  0.00    -0.459 OA
BRANCH   7   8
ATOM      8  C   UNL     1      -1.136   1.614  -3.298  1.00  0.00     0.368 C 
ATOM      9  O   UNL     1      -1.792   2.008  -2.334  1.00  0.00    -0.245 OA
BRANCH   8  10
ATOM     10  C   UNL     1       0.422   1.567  -3.311  1.00  0.00     0.200 C 
ATOM     11  C   UNL     1       0.848   3.032  -3.212  1.00  0.00     0.087 C 
ATOM     12  C   UNL     1       1.177   1.122  -4.591  1.00  0.00     0.146 C 
ATOM     13  C   UNL     1       0.831   3.519  -4.665  1.00  0.00     0.072 C 
ATOM     14  C   UNL     1       1.302   2.336  -5.517  1.00  0.00     0.191 C 
BRANCH  10  15
ATOM     15  N   UNL     1       0.911   0.659  -2.223  1.00  0.00    -0.332 N 
ATOM     16  H   UNL     1       0.518  -0.267  -2.390  1.00  0.00     0.347 HD
ATOM     17  H   UNL     1       1.929   0.699  -2.273  1.00  0.00     0.347 HD
BRANCH  15  18
ATOM     18  C   UNL     1       0.573   1.047  -0.858  1.00  0.00     0.257 C 
ATOM     19  C   UNL     1       1.230   0.066   0.107  1.00  0.00     0.071 C 
ENDBRANCH  15  18
ENDBRANCH  10  15
BRANCH  14  20
ATOM     20  N   UNL     1       2.596   2.404  -6.224  1.00  0.00    -0.328 N 
ATOM     21  C   UNL     1       2.516   3.193  -7.444  1.00  0.00     0.333 C 
ATOM     22  H   UNL     1       2.728   1.423  -6.469  1.00  0.00     0.348 HD
BRANCH  20  23
ATOM     23  C   UNL     1       3.848   2.588  -5.465  1.00  0.00     0.338 C 
BRANCH  23  24
ATOM     24  C   UNL     1       3.967   3.817  -4.610  1.00  0.00     0.164 A 
ATOM     25  N   UNL     1       3.870   3.832  -3.290  1.00  0.00    -0.236 NA
ATOM     26  N   UNL     1       4.169   5.099  -5.063  1.00  0.00    -0.333 N 
ATOM     27  C   UNL     1       3.716   5.145  -2.938  1.00  0.00     0.131 A 
ATOM     28  C   UNL     1       3.877   5.954  -4.033  1.00  0.00     0.107 A 
ATOM     29  C   UNL     1       4.623   5.529  -6.360  1.00  0.00     0.151 C 
ENDBRANCH  23  24
ENDBRANCH  20  23
ENDBRANCH  14  20
ENDBRANCH   8  10
ENDBRANCH   7   8
ENDBRANCH   6   7
ENDBRANCH   5   6
ENDBRANCH   4   5
ENDBRANCH   3   4
ENDBRANCH   2   3
ENDBRANCH   1   2
BRANCH   1  30
ATOM     30  C   UNL     1      -2.140  -1.504  -6.530  1.00  0.00     0.188 C 
BRANCH  30  31
ATOM     31  C   UNL     1      -2.881  -2.826  -6.249  1.00  0.00     0.188 C 
BRANCH  31  32
ATOM     32  O   UNL     1      -2.135  -3.786  -5.526  1.00  0.00    -0.376 OA
BRANCH  32  33
ATOM     33  C   UNL     1      -1.395  -4.753  -6.253  1.00  0.00     0.202 C 
BRANCH  33  34
ATOM     34  C   UNL     1      -0.386  -4.274  -7.308  1.00  0.00     0.261 C 
BRANCH  34  35
ATOM     35  O   UNL     1      -0.900  -3.498  -8.405  1.00  0.00    -0.460 OA
BRANCH  35  36
ATOM     36  C   UNL     1      -1.923  -3.985  -9.137  1.00  0.00     0.338 C 
ATOM     37  O   UNL     1      -2.456  -5.077  -9.028  1.00  0.00    -0.246 OA
BRANCH  36  38
ATOM     38  C   UNL     1      -2.424  -2.877  -9.978  1.00  0.00     0.060 A 
ATOM     39  C   UNL     1      -3.720  -2.380  -9.774  1.00  0.00     0.016 A 
ATOM     40  C   UNL     1      -1.598  -2.307 -10.947  1.00  0.00     0.016 A 
ATOM     41  C   UNL     1      -4.194  -1.314 -10.543  1.00  0.00     0.010 A 
ATOM     42  C   UNL     1      -2.084  -1.261 -11.736  1.00  0.00     0.010 A 
ATOM     43  C   UNL     1      -3.389  -0.769 -11.551  1.00  0.00    -0.014 A 
BRANCH  43  44
ATOM     44  C   UNL     1      -3.939   0.216 -12.514  1.00  0.00     0.031 A 
ATOM     45  C   UNL     1      -4.388  -0.275 -13.863  1.00  0.00     0.074 A 
ATOM     46  C   UNL     1      -3.998   1.527 -12.213  1.00  0.00     0.049 A 
ATOM     47  N   UNL     1      -4.753   0.409 -14.914  1.00  0.00    -0.248 NA
ATOM     48  C   UNL     1      -4.425  -1.736 -14.052  1.00  0.00     0.031 C 
ATOM     49  C   UNL     1      -3.642   2.118 -10.924  1.00  0.00     0.029 A 
ATOM     50  N   UNL     1      -4.356   2.605 -12.988  1.00  0.00    -0.354 N 
ATOM     51  C   UNL     1      -5.034  -0.532 -15.898  1.00  0.00     0.074 A 
ATOM     52  C   UNL     1      -4.798  -1.836 -15.320  1.00  0.00     0.031 C 
ATOM     53  C   UNL     1      -3.772   3.454 -11.005  1.00  0.00     0.029 A 
ATOM     54  C   UNL     1      -4.170   3.817 -12.364  1.00  0.00     0.049 A 
ATOM     55  H   UNL     1      -4.711   2.518 -13.902  1.00  0.00     0.167 HD
ATOM     56  C   UNL     1      -5.445  -0.321 -17.169  1.00  0.00     0.037 A 
ATOM     57  C   UNL     1      -4.265   5.073 -12.850  1.00  0.00     0.037 A 
ATOM     58  C   UNL     1      -5.693   0.981 -17.730  1.00  0.00     0.049 A 
ATOM     59  C   UNL     1      -4.641   5.277 -14.300  1.00  0.00     0.074 A 
ATOM     60  C   UNL     1      -6.168   1.294 -18.992  1.00  0.00     0.029 A 
ATOM     61  N   UNL     1      -5.471   2.183 -17.077  1.00  0.00    -0.354 N 
ATOM     62  N   UNL     1      -4.957   4.381 -15.205  1.00  0.00    -0.248 NA
ATOM     63  C   UNL     1      -4.662   6.661 -14.798  1.00  0.00     0.031 C 
ATOM     64  C   UNL     1      -6.163   2.684 -19.127  1.00  0.00     0.029 A 
ATOM     65  C   UNL     1      -5.749   3.240 -17.927  1.00  0.00     0.049 A 
ATOM     66  H   UNL     1      -5.161   2.272 -16.147  1.00  0.00     0.167 HD
ATOM     67  C   UNL     1      -5.239   5.095 -16.367  1.00  0.00     0.074 A 
ATOM     68  C   UNL     1      -5.074   6.496 -16.047  1.00  0.00     0.031 C 
ATOM     69  C   UNL     1      -5.596   4.633 -17.590  1.00  0.00     0.037 A 
BRANCH  56  70
ATOM     70  C   UNL     1      -5.621  -1.511 -18.070  1.00  0.00     0.058 A 
ATOM     71  C   UNL     1      -6.705  -2.392 -17.937  1.00  0.00     0.135 A 
ATOM     72  C   UNL     1      -4.739  -1.712 -19.145  1.00  0.00     0.135 A 
ATOM     73  F   UNL     1      -7.565  -2.257 -16.916  1.00  0.00    -0.206 F 
ATOM     74  C   UNL     1      -6.910  -3.428 -18.842  1.00  0.00     0.059 A 
ATOM     75  C   UNL     1      -4.940  -2.725 -20.077  1.00  0.00     0.059 A 
ATOM     76  F   UNL     1      -3.682  -0.901 -19.312  1.00  0.00    -0.206 F 
ATOM     77  C   UNL     1      -6.029  -3.579 -19.915  1.00  0.00     0.060 A 
BRANCH  77  78
ATOM     78  S   UNL     1      -6.346  -4.892 -21.113  1.00  0.00     0.124 S 
ATOM     79  O   UNL     1      -6.048  -6.085 -20.325  1.00  0.00    -0.237 OA
ATOM     80  O   UNL     1      -7.754  -4.682 -21.436  1.00  0.00    -0.237 OA
ATOM     81  O   UNL     1      -5.407  -4.605 -22.192  1.00  0.00    -0.744 OA
ENDBRANCH  77  78
ENDBRANCH  56  70
BRANCH  57  82
ATOM     82  C   UNL     1      -3.947   6.248 -11.990  1.00  0.00     0.058 A 
ATOM     83  C   UNL     1      -4.928   7.197 -11.667  1.00  0.00     0.135 A 
ATOM     84  C   UNL     1      -2.642   6.479 -11.524  1.00  0.00     0.135 A 
ATOM     85  F   UNL     1      -6.188   7.033 -12.100  1.00  0.00    -0.206 F 
ATOM     86  C   UNL     1      -4.624   8.348 -10.944  1.00  0.00     0.059 A 
ATOM     87  C   UNL     1      -2.320   7.604 -10.772  1.00  0.00     0.059 A 
ATOM     88  F   UNL     1      -1.663   5.603 -11.797  1.00  0.00    -0.206 F 
ATOM     89  C   UNL     1      -3.314   8.543 -10.504  1.00  0.00     0.060 A 
BRANCH  89  90
ATOM     90  S   UNL     1      -2.926  10.037  -9.565  1.00  0.00     0.124 S 
ATOM     91  O   UNL     1      -2.989  11.060 -10.602  1.00  0.00    -0.237 OA
ATOM     92  O   UNL     1      -3.998  10.062  -8.575  1.00  0.00    -0.237 OA
ATOM     93  O   UNL     1      -1.596   9.760  -9.031  1.00  0.00    -0.744 OA
ENDBRANCH  89  90
ENDBRANCH  57  82
BRANCH  69  94
ATOM     94  C   UNL     1      -5.865   5.641 -18.675  1.00  0.00     0.058 A 
ATOM     95  C   UNL     1      -4.826   6.357 -19.288  1.00  0.00     0.135 A 
ATOM     96  C   UNL     1      -7.168   5.826 -19.169  1.00  0.00     0.135 A 
ATOM     97  F   UNL     1      -3.564   6.225 -18.850  1.00  0.00    -0.206 F 
ATOM     98  C   UNL     1      -5.069   7.227 -20.346  1.00  0.00     0.059 A 
ATOM     99  C   UNL     1      -7.429   6.667 -20.246  1.00  0.00     0.059 A 
ATOM    100  F   UNL     1      -8.198   5.158 -18.625  1.00  0.00    -0.206 F 
ATOM    101  C   UNL     1      -6.373   7.367 -20.826  1.00  0.00     0.060 A 
BRANCH 101 102
ATOM    102  S   UNL     1      -6.659   8.448 -22.243  1.00  0.00     0.124 S 
ATOM    103  O   UNL     1      -6.447   9.767 -21.657  1.00  0.00    -0.237 OA
ATOM    104  O   UNL     1      -5.638   8.001 -23.186  1.00  0.00    -0.237 OA
ATOM    105  O   UNL     1      -8.035   8.148 -22.629  1.00  0.00    -0.744 OA
ENDBRANCH 101 102
ENDBRANCH  69  94
ENDBRANCH  43  44
ENDBRANCH  36  38
ENDBRANCH  35  36
ENDBRANCH  34  35
ENDBRANCH  33  34
ENDBRANCH  32  33
ENDBRANCH  31  32
ENDBRANCH  30  31
ENDBRANCH   1  30
TORSDOF 28
