REMARK SMILES C[C@@H](C(=O)OCCOCCOCCOCCOC(=O)c1ccc(-c2c3nc(c(-c4c(F)cc(S(=O)(=O)[O-])cc4F)c4ccc([nH]4)c(-c4c(F)cc(S(=O)(=O)[O-])cc4F)c4nc(c(-c5c(F)cc(S(=O)(=O)[O-])cc5F)c5ccc2[nH]5)C=C4)C=C3)cc1)N(C)C(=O)NC[C@H]1C[N@@H+]2CCC[C@@H]2CO1
REMARK SMILES IDX 10 1 9 2 8 3 7 4 6 5 5 6 3 7 4 8 2 9 1 10 86 11 87 12 88 13
REMARK SMILES IDX 89 14 90 15 91 17 92 18 93 19 100 20 94 21 99 22 95 23 98 24
REMARK SMILES IDX 96 26 97 27 11 28 12 29 13 30 14 31 15 32 16 33 17 34 18 35
REMARK SMILES IDX 19 36 20 37 21 38 85 39 22 40 84 41 23 42 24 43 25 44 78 45
REMARK SMILES IDX 26 46 83 47 77 48 79 49 27 50 82 51 76 52 75 53 28 55 62 56
REMARK SMILES IDX 41 57 61 58 42 59 45 60 60 61 80 62 43 63 44 64 59 66 81 67
REMARK SMILES IDX 46 68 29 69 30 70 39 71 31 72 32 73 38 74 40 75 33 76 34 77
REMARK SMILES IDX 35 78 36 79 37 80 63 81 64 82 73 83 65 84 66 85 72 86 74 87
REMARK SMILES IDX 67 88 68 89 69 90 70 91 71 92 47 93 48 94 57 95 49 96 50 97
REMARK SMILES IDX 56 98 58 99 51 100 52 101 53 102 54 103 55 104
REMARK H PARENT 90 16 94 25 79 54 45 65
REMARK Flexibility Score: inf
ROOT
ATOM      1  C   UNL     1       1.291  -1.873  -2.038  1.00  0.00     0.188 C 
ENDROOT
BRANCH   1   2
ATOM      2  C   UNL     1       0.319  -1.551  -3.193  1.00  0.00     0.188 C 
BRANCH   2   3
ATOM      3  O   UNL     1       0.808  -1.326  -4.512  1.00  0.00    -0.376 OA
BRANCH   3   4
ATOM      4  C   UNL     1       2.060  -0.683  -4.693  1.00  0.00     0.202 C 
BRANCH   4   5
ATOM      5  C   UNL     1       2.375   0.651  -3.983  1.00  0.00     0.261 C 
BRANCH   5   6
ATOM      6  O   UNL     1       1.979   0.783  -2.603  1.00  0.00    -0.462 OA
BRANCH   6   7
ATOM      7  C   UNL     1       0.854   1.504  -2.361  1.00  0.00     0.328 C 
ATOM      8  O   UNL     1       0.219   2.081  -3.242  1.00  0.00    -0.250 OA
BRANCH   7   9
ATOM      9  C   UNL     1       0.457   1.605  -0.857  1.00  0.00     0.193 C 
ATOM     10  C   UNL     1       1.270   0.868   0.214  1.00  0.00     0.044 C 
BRANCH   9  11
ATOM     11  N   UNL     1      -1.029   1.494  -0.722  1.00  0.00    -0.314 N 
ATOM     12  C   UNL     1      -1.743   2.725  -0.984  1.00  0.00     0.149 C 
BRANCH  11  13
ATOM     13  C   UNL     1      -1.625   0.260  -0.733  1.00  0.00     0.317 C 
ATOM     14  O   UNL     1      -0.992  -0.790  -0.602  1.00  0.00    -0.249 OA
ATOM     15  N   UNL     1      -2.942   0.073  -0.920  1.00  0.00    -0.335 N 
ATOM     16  H   UNL     1      -3.139  -0.871  -1.120  1.00  0.00     0.165 HD
BRANCH  15  17
ATOM     17  C   UNL     1      -4.158   0.868  -0.912  1.00  0.00     0.155 C 
BRANCH  17  18
ATOM     18  C   UNL     1      -4.878   1.035  -2.273  1.00  0.00     0.192 C 
ATOM     19  C   UNL     1      -4.974   2.511  -2.761  1.00  0.00     0.296 C 
ATOM     20  O   UNL     1      -4.393   0.094  -3.248  1.00  0.00    -0.364 OA
ATOM     21  N   UNL     1      -4.031   2.903  -3.807  1.00  0.00    -0.328 N 
ATOM     22  C   UNL     1      -4.600   0.554  -4.587  1.00  0.00     0.225 C 
ATOM     23  C   UNL     1      -4.384   4.160  -4.472  1.00  0.00     0.262 C 
ATOM     24  C   UNL     1      -3.829   1.859  -4.833  1.00  0.00     0.210 C 
ATOM     25  H   UNL     1      -3.156   3.041  -3.300  1.00  0.00     0.348 HD
ATOM     26  C   UNL     1      -3.917   3.986  -5.906  1.00  0.00     0.068 C 
ATOM     27  C   UNL     1      -4.181   2.515  -6.165  1.00  0.00     0.073 C 
ENDBRANCH  17  18
ENDBRANCH  15  17
ENDBRANCH  11  13
ENDBRANCH   9  11
ENDBRANCH   7   9
ENDBRANCH   6   7
ENDBRANCH   5   6
ENDBRANCH   4   5
ENDBRANCH   3   4
ENDBRANCH   2   3
ENDBRANCH   1   2
BRANCH   1  28
ATOM     28  O   UNL     1       2.650  -1.976  -2.417  1.00  0.00    -0.377 OA
BRANCH  28  29
ATOM     29  C   UNL     1       3.139  -3.291  -2.605  1.00  0.00     0.188 C 
BRANCH  29  30
ATOM     30  C   UNL     1       2.232  -4.266  -3.377  1.00  0.00     0.188 C 
BRANCH  30  31
ATOM     31  O   UNL     1       0.919  -4.386  -2.840  1.00  0.00    -0.376 OA
BRANCH  31  32
ATOM     32  C   UNL     1       0.622  -5.461  -1.964  1.00  0.00     0.202 C 
BRANCH  32  33
ATOM     33  C   UNL     1       1.271  -5.465  -0.569  1.00  0.00     0.261 C 
BRANCH  33  34
ATOM     34  O   UNL     1       2.705  -5.432  -0.519  1.00  0.00    -0.460 OA
BRANCH  34  35
ATOM     35  C   UNL     1       3.389  -6.403  -1.157  1.00  0.00     0.338 C 
ATOM     36  O   UNL     1       2.922  -7.375  -1.726  1.00  0.00    -0.246 OA
BRANCH  35  37
ATOM     37  C   UNL     1       4.803  -5.974  -1.239  1.00  0.00     0.060 A 
ATOM     38  C   UNL     1       5.397  -5.842  -2.502  1.00  0.00     0.016 A 
ATOM     39  C   UNL     1       5.529  -5.668  -0.084  1.00  0.00     0.016 A 
ATOM     40  C   UNL     1       6.726  -5.434  -2.612  1.00  0.00     0.010 A 
ATOM     41  C   UNL     1       6.870  -5.289  -0.195  1.00  0.00     0.010 A 
ATOM     42  C   UNL     1       7.484  -5.203  -1.458  1.00  0.00    -0.014 A 
BRANCH  42  43
ATOM     43  C   UNL     1       8.960  -5.099  -1.561  1.00  0.00     0.031 A 
ATOM     44  C   UNL     1       9.771  -6.343  -1.316  1.00  0.00     0.074 A 
ATOM     45  C   UNL     1       9.567  -3.944  -1.890  1.00  0.00     0.049 A 
ATOM     46  N   UNL     1      11.068  -6.501  -1.301  1.00  0.00    -0.248 NA
ATOM     47  C   UNL     1       9.011  -7.576  -1.049  1.00  0.00     0.031 C 
ATOM     48  C   UNL     1       8.887  -2.688  -2.199  1.00  0.00     0.029 A 
ATOM     49  N   UNL     1      10.901  -3.644  -2.010  1.00  0.00    -0.354 N 
ATOM     50  C   UNL     1      11.280  -7.845  -1.014  1.00  0.00     0.074 A 
ATOM     51  C   UNL     1       9.980  -8.452  -0.833  1.00  0.00     0.031 C 
ATOM     52  C   UNL     1       9.811  -1.746  -2.461  1.00  0.00     0.029 A 
ATOM     53  C   UNL     1      11.146  -2.323  -2.304  1.00  0.00     0.049 A 
ATOM     54  H   UNL     1      11.616  -4.312  -1.897  1.00  0.00     0.167 HD
ATOM     55  C   UNL     1      12.453  -8.514  -0.915  1.00  0.00     0.037 A 
ATOM     56  C   UNL     1      12.314  -1.657  -2.409  1.00  0.00     0.037 A 
ATOM     57  C   UNL     1      13.742  -7.901  -1.094  1.00  0.00     0.049 A 
ATOM     58  C   UNL     1      13.610  -2.406  -2.218  1.00  0.00     0.074 A 
ATOM     59  C   UNL     1      14.991  -8.493  -1.032  1.00  0.00     0.029 A 
ATOM     60  N   UNL     1      13.950  -6.554  -1.357  1.00  0.00    -0.354 N 
ATOM     61  N   UNL     1      13.799  -3.681  -1.969  1.00  0.00    -0.248 NA
ATOM     62  C   UNL     1      14.853  -1.628  -2.324  1.00  0.00     0.031 C 
ATOM     63  C   UNL     1      15.955  -7.494  -1.195  1.00  0.00     0.029 A 
ATOM     64  C   UNL     1      15.308  -6.291  -1.429  1.00  0.00     0.049 A 
ATOM     65  H   UNL     1      13.238  -5.885  -1.475  1.00  0.00     0.167 HD
ATOM     66  C   UNL     1      15.179  -3.862  -1.924  1.00  0.00     0.074 A 
ATOM     67  C   UNL     1      15.776  -2.568  -2.180  1.00  0.00     0.031 C 
ATOM     68  C   UNL     1      15.888  -4.997  -1.695  1.00  0.00     0.037 A 
BRANCH  55  69
ATOM     69  C   UNL     1      12.395  -9.975  -0.564  1.00  0.00     0.058 A 
ATOM     70  C   UNL     1      11.908 -10.939  -1.462  1.00  0.00     0.135 A 
ATOM     71  C   UNL     1      12.861 -10.421   0.684  1.00  0.00     0.135 A 
ATOM     72  F   UNL     1      11.429 -10.567  -2.659  1.00  0.00    -0.206 F 
ATOM     73  C   UNL     1      11.863 -12.288  -1.126  1.00  0.00     0.059 A 
ATOM     74  C   UNL     1      12.855 -11.769   1.028  1.00  0.00     0.059 A 
ATOM     75  F   UNL     1      13.331  -9.543   1.583  1.00  0.00    -0.206 F 
ATOM     76  C   UNL     1      12.341 -12.694   0.121  1.00  0.00     0.060 A 
BRANCH  76  77
ATOM     77  S   UNL     1      12.286 -14.450   0.536  1.00  0.00     0.124 S 
ATOM     78  O   UNL     1      10.852 -14.664   0.709  1.00  0.00    -0.237 OA
ATOM     79  O   UNL     1      12.881 -15.067  -0.645  1.00  0.00    -0.237 OA
ATOM     80  O   UNL     1      13.084 -14.538   1.755  1.00  0.00    -0.744 OA
ENDBRANCH  76  77
ENDBRANCH  55  69
BRANCH  56  81
ATOM     81  C   UNL     1      12.318  -0.195  -2.696  1.00  0.00     0.058 A 
ATOM     82  C   UNL     1      12.816   0.307  -3.908  1.00  0.00     0.135 A 
ATOM     83  C   UNL     1      11.835   0.732  -1.758  1.00  0.00     0.135 A 
ATOM     84  F   UNL     1      13.305  -0.534  -4.832  1.00  0.00    -0.206 F 
ATOM     85  C   UNL     1      12.850   1.673  -4.174  1.00  0.00     0.059 A 
ATOM     86  C   UNL     1      11.830   2.100  -2.013  1.00  0.00     0.059 A 
ATOM     87  F   UNL     1      11.344   0.307  -0.583  1.00  0.00    -0.206 F 
ATOM     88  C   UNL     1      12.349   2.562  -3.221  1.00  0.00     0.060 A 
BRANCH  88  89
ATOM     89  S   UNL     1      12.353   4.328  -3.599  1.00  0.00     0.124 S 
ATOM     90  O   UNL     1      13.776   4.641  -3.531  1.00  0.00    -0.237 OA
ATOM     91  O   UNL     1      11.755   4.356  -4.930  1.00  0.00    -0.237 OA
ATOM     92  O   UNL     1      11.529   4.901  -2.538  1.00  0.00    -0.744 OA
ENDBRANCH  88  89
ENDBRANCH  56  81
BRANCH  68  93
ATOM     93  C   UNL     1      17.391  -4.909  -1.756  1.00  0.00     0.058 A 
ATOM     94  C   UNL     1      18.139  -4.255  -0.765  1.00  0.00     0.135 A 
ATOM     95  C   UNL     1      18.095  -5.544  -2.794  1.00  0.00     0.135 A 
ATOM     96  F   UNL     1      17.519  -3.628   0.247  1.00  0.00    -0.206 F 
ATOM     97  C   UNL     1      19.529  -4.213  -0.814  1.00  0.00     0.059 A 
ATOM     98  C   UNL     1      19.485  -5.542  -2.844  1.00  0.00     0.059 A 
ATOM     99  F   UNL     1      17.431  -6.195  -3.762  1.00  0.00    -0.206 F 
ATOM    100  C   UNL     1      20.194  -4.863  -1.855  1.00  0.00     0.060 A 
BRANCH 100 101
ATOM    101  S   UNL     1      21.998  -4.828  -1.886  1.00  0.00     0.124 S 
ATOM    102  O   UNL     1      22.261  -3.441  -2.253  1.00  0.00    -0.237 OA
ATOM    103  O   UNL     1      22.340  -5.197  -0.516  1.00  0.00    -0.237 OA
ATOM    104  O   UNL     1      22.342  -5.821  -2.900  1.00  0.00    -0.744 OA
ENDBRANCH 100 101
ENDBRANCH  68  93
ENDBRANCH  42  43
ENDBRANCH  35  37
ENDBRANCH  34  35
ENDBRANCH  33  34
ENDBRANCH  32  33
ENDBRANCH  31  32
ENDBRANCH  30  31
ENDBRANCH  29  30
ENDBRANCH  28  29
ENDBRANCH   1  28
TORSDOF 27
