REMARK SMILES COc1c[nH]c(C[N@H+]2CCC[C@@H](c3ccc(C(=O)OCCOCCOCCOCCOC(=O)c4ccc(-c5c6nc(c(-c7c(F)cc(S(=O)(=O)[O-])cc7F)c7ccc([nH]7)c(-c7c(F)cc(S(=O)(=O)[O-])cc7F)c7nc(c(-c8c(F)cc(S(=O)(=O)[O-])cc8F)c8ccc5[nH]8)C=C7)C=C6)cc4)cc3)C2)cc1=O
REMARK SMILES IDX 24 1 23 2 22 3 21 4 20 5 19 6 17 7 18 8 16 9 13 10 14 11
REMARK SMILES IDX 101 12 15 13 100 14 12 15 8 16 9 17 102 18 10 20 11 21 7 22
REMARK SMILES IDX 6 23 3 24 4 25 104 26 5 27 103 28 105 29 2 31 1 32 25 33
REMARK SMILES IDX 26 34 27 35 28 36 29 37 30 38 31 39 32 40 33 41 34 42 35 43
REMARK SMILES IDX 99 44 36 45 98 46 37 47 38 48 39 49 92 50 40 51 97 52 91 53
REMARK SMILES IDX 93 54 41 55 96 56 90 57 89 58 42 60 76 61 55 62 75 63 56 64
REMARK SMILES IDX 59 65 74 66 94 67 57 68 58 69 73 71 95 72 60 73 43 74 44 75
REMARK SMILES IDX 53 76 45 77 46 78 52 79 54 80 47 81 48 82 49 83 50 84 51 85
REMARK SMILES IDX 77 86 78 87 87 88 79 89 80 90 86 91 88 92 81 93 82 94 83 95
REMARK SMILES IDX 84 96 85 97 61 98 62 99 71 100 63 101 64 102 70 103 72 104
REMARK SMILES IDX 65 105 66 106 67 107 68 108 69 109
REMARK H PARENT 8 19 5 30 93 59 59 70
REMARK Flexibility Score: inf
ROOT
ATOM      1  C   UNL     1      -5.732  -8.338  -4.972  1.00  0.00     0.188 C 
ENDROOT
BRANCH   1   2
ATOM      2  C   UNL     1      -6.442  -7.530  -3.865  1.00  0.00     0.188 C 
BRANCH   2   3
ATOM      3  O   UNL     1      -7.855  -7.600  -3.918  1.00  0.00    -0.376 OA
BRANCH   3   4
ATOM      4  C   UNL     1      -8.598  -6.487  -4.376  1.00  0.00     0.202 C 
BRANCH   4   5
ATOM      5  C   UNL     1      -8.304  -5.859  -5.749  1.00  0.00     0.261 C 
BRANCH   5   6
ATOM      6  O   UNL     1      -6.927  -5.774  -6.127  1.00  0.00    -0.460 OA
BRANCH   6   7
ATOM      7  C   UNL     1      -6.196  -4.800  -5.549  1.00  0.00     0.338 C 
ATOM      8  O   UNL     1      -6.585  -3.967  -4.748  1.00  0.00    -0.246 OA
BRANCH   7   9
ATOM      9  C   UNL     1      -4.771  -5.053  -5.861  1.00  0.00     0.060 A 
ATOM     10  C   UNL     1      -2.038  -5.456  -6.348  1.00  0.00    -0.039 A 
ATOM     11  C   UNL     1      -2.506  -5.228  -5.042  1.00  0.00     0.005 A 
ATOM     12  C   UNL     1      -2.971  -5.586  -7.388  1.00  0.00     0.005 A 
ATOM     13  C   UNL     1      -3.857  -4.993  -4.805  1.00  0.00     0.016 A 
ATOM     14  C   UNL     1      -4.336  -5.399  -7.144  1.00  0.00     0.016 A 
BRANCH  10  15
ATOM     15  C   UNL     1      -0.549  -5.352  -6.665  1.00  0.00     0.074 C 
ATOM     16  N   UNL     1       1.320  -3.645  -6.451  1.00  0.00    -0.329 N 
ATOM     17  C   UNL     1       2.133  -4.619  -5.714  1.00  0.00     0.262 C 
ATOM     18  C   UNL     1      -0.109  -3.918  -6.291  1.00  0.00     0.270 C 
ATOM     19  H   UNL     1       1.548  -3.759  -7.438  1.00  0.00     0.348 HD
ATOM     20  C   UNL     1       1.806  -6.055  -6.140  1.00  0.00     0.062 C 
ATOM     21  C   UNL     1       0.325  -6.384  -5.940  1.00  0.00     0.020 C 
BRANCH  16  22
ATOM     22  C   UNL     1       1.657  -2.244  -6.116  1.00  0.00     0.317 C 
BRANCH  22  23
ATOM     23  C   UNL     1       1.484  -1.808  -4.660  1.00  0.00     0.074 A 
ATOM     24  C   UNL     1       0.933  -1.227  -1.914  1.00  0.00     0.182 A 
ATOM     25  C   UNL     1      -0.031  -1.451  -2.816  1.00  0.00     0.133 A 
ATOM     26  C   UNL     1       2.345  -1.212  -2.440  1.00  0.00     0.223 A 
ATOM     27  N   UNL     1       0.207  -1.661  -4.147  1.00  0.00    -0.357 N 
ATOM     28  C   UNL     1       2.551  -1.564  -3.876  1.00  0.00     0.083 A 
ATOM     29  O   UNL     1       3.317  -0.946  -1.739  1.00  0.00    -0.286 OA
ATOM     30  H   UNL     1      -0.559  -1.709  -4.763  1.00  0.00     0.166 HD
BRANCH  24  31
ATOM     31  O   UNL     1       0.631  -1.102  -0.572  1.00  0.00    -0.491 OA
ATOM     32  C   UNL     1       1.101   0.120  -0.016  1.00  0.00     0.278 C 
ENDBRANCH  24  31
ENDBRANCH  22  23
ENDBRANCH  16  22
ENDBRANCH  10  15
ENDBRANCH   7   9
ENDBRANCH   6   7
ENDBRANCH   5   6
ENDBRANCH   4   5
ENDBRANCH   3   4
ENDBRANCH   2   3
ENDBRANCH   1   2
BRANCH   1  33
ATOM     33  O   UNL     1      -6.498  -8.776  -6.082  1.00  0.00    -0.377 OA
BRANCH  33  34
ATOM     34  C   UNL     1      -7.698  -9.519  -5.876  1.00  0.00     0.188 C 
BRANCH  34  35
ATOM     35  C   UNL     1      -8.003 -10.251  -4.545  1.00  0.00     0.188 C 
BRANCH  35  36
ATOM     36  O   UNL     1      -6.912 -10.331  -3.643  1.00  0.00    -0.376 OA
BRANCH  36  37
ATOM     37  C   UNL     1      -6.296 -11.591  -3.458  1.00  0.00     0.202 C 
BRANCH  37  38
ATOM     38  C   UNL     1      -5.598 -12.212  -4.675  1.00  0.00     0.261 C 
BRANCH  38  39
ATOM     39  O   UNL     1      -6.379 -12.311  -5.874  1.00  0.00    -0.460 OA
BRANCH  39  40
ATOM     40  C   UNL     1      -7.442 -13.143  -5.856  1.00  0.00     0.338 C 
ATOM     41  O   UNL     1      -7.830 -13.821  -4.917  1.00  0.00    -0.246 OA
BRANCH  40  42
ATOM     42  C   UNL     1      -8.170 -12.954  -7.126  1.00  0.00     0.060 A 
ATOM     43  C   UNL     1      -9.496 -12.500  -7.105  1.00  0.00     0.016 A 
ATOM     44  C   UNL     1      -7.527 -13.212  -8.338  1.00  0.00     0.016 A 
ATOM     45  C   UNL     1     -10.196 -12.338  -8.302  1.00  0.00     0.010 A 
ATOM     46  C   UNL     1      -8.234 -13.070  -9.532  1.00  0.00     0.010 A 
ATOM     47  C   UNL     1      -9.582 -12.669  -9.517  1.00  0.00    -0.014 A 
BRANCH  47  48
ATOM     48  C   UNL     1     -10.393 -12.828 -10.748  1.00  0.00     0.031 A 
ATOM     49  C   UNL     1     -10.812 -14.222 -11.133  1.00  0.00     0.074 A 
ATOM     50  C   UNL     1     -10.735 -11.777 -11.514  1.00  0.00     0.049 A 
ATOM     51  N   UNL     1     -11.408 -14.642 -12.216  1.00  0.00    -0.248 NA
ATOM     52  C   UNL     1     -10.504 -15.287 -10.162  1.00  0.00     0.031 C 
ATOM     53  C   UNL     1     -10.429 -10.379 -11.219  1.00  0.00     0.029 A 
ATOM     54  N   UNL     1     -11.401 -11.732 -12.713  1.00  0.00    -0.354 N 
ATOM     55  C   UNL     1     -11.533 -16.019 -12.066  1.00  0.00     0.074 A 
ATOM     56  C   UNL     1     -10.924 -16.367 -10.802  1.00  0.00     0.031 C 
ATOM     57  C   UNL     1     -10.890  -9.612 -12.225  1.00  0.00     0.029 A 
ATOM     58  C   UNL     1     -11.485 -10.469 -13.250  1.00  0.00     0.049 A 
ATOM     59  H   UNL     1     -11.784 -12.529 -13.148  1.00  0.00     0.167 HD
ATOM     60  C   UNL     1     -12.110 -16.911 -12.904  1.00  0.00     0.037 A 
ATOM     61  C   UNL     1     -11.958 -10.062 -14.446  1.00  0.00     0.037 A 
ATOM     62  C   UNL     1     -12.710 -16.555 -14.162  1.00  0.00     0.049 A 
ATOM     63  C   UNL     1     -12.525 -11.085 -15.401  1.00  0.00     0.074 A 
ATOM     64  C   UNL     1     -13.327 -17.380 -15.084  1.00  0.00     0.029 A 
ATOM     65  N   UNL     1     -12.763 -15.267 -14.677  1.00  0.00    -0.354 N 
ATOM     66  N   UNL     1     -12.647 -12.383 -15.247  1.00  0.00    -0.248 NA
ATOM     67  C   UNL     1     -13.020 -10.588 -16.694  1.00  0.00     0.031 C 
ATOM     68  C   UNL     1     -13.703 -16.601 -16.183  1.00  0.00     0.029 A 
ATOM     69  C   UNL     1     -13.383 -15.279 -15.915  1.00  0.00     0.049 A 
ATOM     70  H   UNL     1     -12.411 -14.464 -14.229  1.00  0.00     0.167 HD
ATOM     71  C   UNL     1     -13.271 -12.849 -16.401  1.00  0.00     0.074 A 
ATOM     72  C   UNL     1     -13.502 -11.694 -17.244  1.00  0.00     0.031 C 
ATOM     73  C   UNL     1     -13.627 -14.116 -16.731  1.00  0.00     0.037 A 
BRANCH  60  74
ATOM     74  C   UNL     1     -12.094 -18.360 -12.500  1.00  0.00     0.058 A 
ATOM     75  C   UNL     1     -12.866 -18.841 -11.431  1.00  0.00     0.135 A 
ATOM     76  C   UNL     1     -11.318 -19.287 -13.215  1.00  0.00     0.135 A 
ATOM     77  F   UNL     1     -13.608 -17.995 -10.698  1.00  0.00    -0.206 F 
ATOM     78  C   UNL     1     -12.851 -20.184 -11.069  1.00  0.00     0.059 A 
ATOM     79  C   UNL     1     -11.313 -20.640 -12.892  1.00  0.00     0.059 A 
ATOM     80  F   UNL     1     -10.555 -18.881 -14.243  1.00  0.00    -0.206 F 
ATOM     81  C   UNL     1     -12.074 -21.077 -11.809  1.00  0.00     0.060 A 
BRANCH  81  82
ATOM     82  S   UNL     1     -12.080 -22.819 -11.336  1.00  0.00     0.124 S 
ATOM     83  O   UNL     1     -11.340 -22.782 -10.079  1.00  0.00    -0.237 OA
ATOM     84  O   UNL     1     -13.506 -23.105 -11.224  1.00  0.00    -0.237 OA
ATOM     85  O   UNL     1     -11.396 -23.476 -12.446  1.00  0.00    -0.744 OA
ENDBRANCH  81  82
ENDBRANCH  60  74
BRANCH  61  86
ATOM     86  C   UNL     1     -11.905  -8.622 -14.823  1.00  0.00     0.058 A 
ATOM     87  C   UNL     1     -13.080  -7.870 -14.977  1.00  0.00     0.135 A 
ATOM     88  C   UNL     1     -10.682  -7.972 -15.054  1.00  0.00     0.135 A 
ATOM     89  F   UNL     1     -14.276  -8.446 -14.781  1.00  0.00    -0.206 F 
ATOM     90  C   UNL     1     -13.047  -6.534 -15.366  1.00  0.00     0.059 A 
ATOM     91  C   UNL     1     -10.622  -6.629 -15.414  1.00  0.00     0.059 A 
ATOM     92  F   UNL     1      -9.527  -8.641 -14.915  1.00  0.00    -0.206 F 
ATOM     93  C   UNL     1     -11.811  -5.921 -15.579  1.00  0.00     0.060 A 
BRANCH  93  94
ATOM     94  S   UNL     1     -11.780  -4.176 -16.043  1.00  0.00     0.124 S 
ATOM     95  O   UNL     1     -12.289  -4.225 -17.408  1.00  0.00    -0.237 OA
ATOM     96  O   UNL     1     -12.669  -3.581 -15.050  1.00  0.00    -0.237 OA
ATOM     97  O   UNL     1     -10.371  -3.817 -15.906  1.00  0.00    -0.744 OA
ENDBRANCH  93  94
ENDBRANCH  61  86
BRANCH  73  98
ATOM     98  C   UNL     1     -14.366 -14.325 -18.027  1.00  0.00     0.058 A 
ATOM     99  C   UNL     1     -13.734 -14.209 -19.274  1.00  0.00     0.135 A 
ATOM    100  C   UNL     1     -15.714 -14.722 -18.011  1.00  0.00     0.135 A 
ATOM    101  F   UNL     1     -12.449 -13.829 -19.349  1.00  0.00    -0.206 F 
ATOM    102  C   UNL     1     -14.418 -14.460 -20.461  1.00  0.00     0.059 A 
ATOM    103  C   UNL     1     -16.407 -15.010 -19.182  1.00  0.00     0.059 A 
ATOM    104  F   UNL     1     -16.364 -14.861 -16.844  1.00  0.00    -0.206 F 
ATOM    105  C   UNL     1     -15.753 -14.866 -20.404  1.00  0.00     0.060 A 
BRANCH 105 106
ATOM    106  S   UNL     1     -16.613 -15.233 -21.948  1.00  0.00     0.124 S 
ATOM    107  O   UNL     1     -16.782 -13.899 -22.515  1.00  0.00    -0.237 OA
ATOM    108  O   UNL     1     -15.661 -16.099 -22.636  1.00  0.00    -0.237 OA
ATOM    109  O   UNL     1     -17.841 -15.887 -21.507  1.00  0.00    -0.744 OA
ENDBRANCH 105 106
ENDBRANCH  73  98
ENDBRANCH  47  48
ENDBRANCH  40  42
ENDBRANCH  39  40
ENDBRANCH  38  39
ENDBRANCH  37  38
ENDBRANCH  36  37
ENDBRANCH  35  36
ENDBRANCH  34  35
ENDBRANCH  33  34
ENDBRANCH   1  33
TORSDOF 27
