REMARK SMILES C[C@H]1SCCC[C@]1(Nc1ccc(Cl)cc1)C(=O)OCCOCCOCCOCCOC(=O)c1ccc(-c2c3nc(c(-c4c(F)cc(S(=O)(=O)[O-])cc4F)c4ccc([nH]4)c(-c4c(F)cc(S(=O)(=O)[O-])cc4F)c4nc(c(-c5c(F)cc(S(=O)(=O)[O-])cc5F)c5ccc2[nH]5)C=C4)C=C3)cc1
REMARK SMILES IDX 25 1 24 2 23 3 22 4 21 5 20 6 19 7 18 8 16 9 17 10 7 11 1 12
REMARK SMILES IDX 2 13 3 14 4 15 6 16 5 17 8 18 9 20 10 21 15 22 11 23 14 24
REMARK SMILES IDX 12 25 13 26 26 27 27 28 28 29 29 30 30 31 31 32 32 33 33 34
REMARK SMILES IDX 34 35 98 36 35 37 97 38 36 39 37 40 38 41 91 42 39 43 96 44
REMARK SMILES IDX 90 45 92 46 40 47 95 48 89 49 88 50 41 52 75 53 54 54 74 55
REMARK SMILES IDX 55 56 58 57 73 58 93 59 56 60 57 61 72 63 94 64 59 65 42 66
REMARK SMILES IDX 43 67 52 68 44 69 45 70 51 71 53 72 46 73 47 74 48 75 49 76
REMARK SMILES IDX 50 77 76 78 77 79 86 80 78 81 79 82 85 83 87 84 80 85 81 86
REMARK SMILES IDX 82 87 83 88 84 89 60 90 61 91 70 92 62 93 63 94 69 95 71 96
REMARK SMILES IDX 64 97 65 98 66 99 67 100 68 101
REMARK H PARENT 8 19 92 51 58 62
REMARK Flexibility Score: inf
ROOT
ATOM      1  C   UNL     1       3.226   0.067   3.561  1.00  0.00     0.188 C 
ENDROOT
BRANCH   1   2
ATOM      2  O   UNL     1       2.107   0.163   2.695  1.00  0.00    -0.377 OA
BRANCH   2   3
ATOM      3  C   UNL     1       2.371   0.425   1.334  1.00  0.00     0.188 C 
BRANCH   3   4
ATOM      4  C   UNL     1       2.312   1.900   0.900  1.00  0.00     0.188 C 
BRANCH   4   5
ATOM      5  O   UNL     1       1.629   2.896   1.656  1.00  0.00    -0.376 OA
BRANCH   5   6
ATOM      6  C   UNL     1       0.952   2.578   2.859  1.00  0.00     0.202 C 
BRANCH   6   7
ATOM      7  C   UNL     1      -0.384   1.818   2.761  1.00  0.00     0.261 C 
BRANCH   7   8
ATOM      8  O   UNL     1      -0.451   0.695   1.861  1.00  0.00    -0.461 OA
BRANCH   8   9
ATOM      9  C   UNL     1      -0.680   1.023   0.564  1.00  0.00     0.333 C 
ATOM     10  O   UNL     1      -0.693   2.189   0.165  1.00  0.00    -0.249 OA
BRANCH   9  11
ATOM     11  C   UNL     1      -1.039  -0.197  -0.374  1.00  0.00     0.147 C 
ATOM     12  C   UNL     1      -0.269  -2.220   1.188  1.00  0.00     0.022 C 
ATOM     13  C   UNL     1      -0.220  -1.526  -0.177  1.00  0.00     0.080 C 
ATOM     14  S   UNL     1      -0.657  -2.792  -1.463  1.00  0.00    -0.156 SA
ATOM     15  C   UNL     1      -0.102  -1.857  -2.908  1.00  0.00     0.070 C 
ATOM     16  C   UNL     1      -0.675   0.371  -1.791  1.00  0.00     0.042 C 
ATOM     17  C   UNL     1      -0.848  -0.539  -3.001  1.00  0.00     0.014 C 
BRANCH  11  18
ATOM     18  N   UNL     1      -2.513  -0.504  -0.340  1.00  0.00    -0.369 N 
ATOM     19  H   UNL     1      -2.917  -1.113  -1.000  1.00  0.00     0.161 HD
BRANCH  18  20
ATOM     20  C   UNL     1      -3.292   0.097   0.652  1.00  0.00     0.035 A 
ATOM     21  C   UNL     1      -3.572   1.469   0.593  1.00  0.00     0.027 A 
ATOM     22  C   UNL     1      -3.600  -0.597   1.828  1.00  0.00     0.027 A 
ATOM     23  C   UNL     1      -4.067   2.152   1.706  1.00  0.00     0.022 A 
ATOM     24  C   UNL     1      -4.107   0.080   2.943  1.00  0.00     0.022 A 
ATOM     25  C   UNL     1      -4.316   1.456   2.883  1.00  0.00     0.041 A 
ATOM     26  Cl  UNL     1      -4.834   2.311   4.281  1.00  0.00    -0.084 Cl
ENDBRANCH  18  20
ENDBRANCH  11  18
ENDBRANCH   9  11
ENDBRANCH   8   9
ENDBRANCH   7   8
ENDBRANCH   6   7
ENDBRANCH   5   6
ENDBRANCH   4   5
ENDBRANCH   3   4
ENDBRANCH   2   3
ENDBRANCH   1   2
BRANCH   1  27
ATOM     27  C   UNL     1       4.368   1.067   3.322  1.00  0.00     0.188 C 
BRANCH  27  28
ATOM     28  O   UNL     1       4.848   1.063   1.982  1.00  0.00    -0.376 OA
BRANCH  28  29
ATOM     29  C   UNL     1       5.997   0.298   1.656  1.00  0.00     0.202 C 
BRANCH  29  30
ATOM     30  C   UNL     1       5.868  -1.235   1.689  1.00  0.00     0.261 C 
BRANCH  30  31
ATOM     31  O   UNL     1       5.482  -1.826   2.938  1.00  0.00    -0.460 OA
BRANCH  31  32
ATOM     32  C   UNL     1       6.226  -1.525   4.026  1.00  0.00     0.338 C 
ATOM     33  O   UNL     1       7.249  -0.872   4.048  1.00  0.00    -0.246 OA
BRANCH  32  34
ATOM     34  C   UNL     1       5.466  -1.929   5.231  1.00  0.00     0.060 A 
ATOM     35  C   UNL     1       5.230  -0.965   6.220  1.00  0.00     0.016 A 
ATOM     36  C   UNL     1       5.000  -3.237   5.393  1.00  0.00     0.016 A 
ATOM     37  C   UNL     1       4.589  -1.321   7.403  1.00  0.00     0.010 A 
ATOM     38  C   UNL     1       4.381  -3.601   6.593  1.00  0.00     0.010 A 
ATOM     39  C   UNL     1       4.224  -2.655   7.622  1.00  0.00    -0.014 A 
BRANCH  39  40
ATOM     40  C   UNL     1       3.942  -3.088   9.013  1.00  0.00     0.031 A 
ATOM     41  C   UNL     1       5.076  -3.687   9.805  1.00  0.00     0.074 A 
ATOM     42  C   UNL     1       2.745  -2.881   9.587  1.00  0.00     0.049 A 
ATOM     43  N   UNL     1       5.096  -4.106  11.043  1.00  0.00    -0.248 NA
ATOM     44  C   UNL     1       6.364  -3.826   9.104  1.00  0.00     0.031 C 
ATOM     45  C   UNL     1       1.589  -2.267   8.937  1.00  0.00     0.029 A 
ATOM     46  N   UNL     1       2.308  -3.162  10.857  1.00  0.00    -0.354 N 
ATOM     47  C   UNL     1       6.392  -4.559  11.266  1.00  0.00     0.074 A 
ATOM     48  C   UNL     1       7.118  -4.400  10.027  1.00  0.00     0.031 C 
ATOM     49  C   UNL     1       0.569  -2.223   9.814  1.00  0.00     0.029 A 
ATOM     50  C   UNL     1       0.994  -2.827  11.077  1.00  0.00     0.049 A 
ATOM     51  H   UNL     1       2.883  -3.567  11.547  1.00  0.00     0.167 HD
ATOM     52  C   UNL     1       6.933  -5.051  12.406  1.00  0.00     0.037 A 
ATOM     53  C   UNL     1       0.222  -3.003  12.168  1.00  0.00     0.037 A 
ATOM     54  C   UNL     1       6.204  -5.208  13.636  1.00  0.00     0.049 A 
ATOM     55  C   UNL     1       0.828  -3.617  13.406  1.00  0.00     0.074 A 
ATOM     56  C   UNL     1       6.659  -5.687  14.851  1.00  0.00     0.029 A 
ATOM     57  N   UNL     1       4.862  -4.896  13.806  1.00  0.00    -0.354 N 
ATOM     58  N   UNL     1       2.060  -4.022  13.612  1.00  0.00    -0.248 NA
ATOM     59  C   UNL     1      -0.060  -3.788  14.565  1.00  0.00     0.031 C 
ATOM     60  C   UNL     1       5.580  -5.721  15.739  1.00  0.00     0.029 A 
ATOM     61  C   UNL     1       4.466  -5.199  15.098  1.00  0.00     0.049 A 
ATOM     62  H   UNL     1       4.278  -4.516  13.111  1.00  0.00     0.167 HD
ATOM     63  C   UNL     1       2.101  -4.467  14.931  1.00  0.00     0.074 A 
ATOM     64  C   UNL     1       0.775  -4.266  15.477  1.00  0.00     0.031 C 
ATOM     65  C   UNL     1       3.141  -4.992  15.628  1.00  0.00     0.037 A 
BRANCH  52  66
ATOM     66  C   UNL     1       8.373  -5.484  12.362  1.00  0.00     0.058 A 
ATOM     67  C   UNL     1       9.425  -4.560  12.247  1.00  0.00     0.135 A 
ATOM     68  C   UNL     1       8.707  -6.845  12.457  1.00  0.00     0.135 A 
ATOM     69  F   UNL     1       9.163  -3.248  12.128  1.00  0.00    -0.206 F 
ATOM     70  C   UNL     1      10.753  -4.971  12.203  1.00  0.00     0.059 A 
ATOM     71  C   UNL     1      10.029  -7.276  12.446  1.00  0.00     0.059 A 
ATOM     72  F   UNL     1       7.741  -7.771  12.560  1.00  0.00    -0.206 F 
ATOM     73  C   UNL     1      11.045  -6.332  12.305  1.00  0.00     0.060 A 
BRANCH  73  74
ATOM     74  S   UNL     1      12.774  -6.849  12.255  1.00  0.00     0.124 S 
ATOM     75  O   UNL     1      13.109  -6.608  10.855  1.00  0.00    -0.237 OA
ATOM     76  O   UNL     1      13.396  -5.948  13.220  1.00  0.00    -0.237 OA
ATOM     77  O   UNL     1      12.722  -8.252  12.654  1.00  0.00    -0.744 OA
ENDBRANCH  73  74
ENDBRANCH  52  66
BRANCH  53  78
ATOM     78  C   UNL     1      -1.212  -2.603  12.141  1.00  0.00     0.058 A 
ATOM     79  C   UNL     1      -1.690  -1.543  12.925  1.00  0.00     0.135 A 
ATOM     80  C   UNL     1      -2.137  -3.285  11.334  1.00  0.00     0.135 A 
ATOM     81  F   UNL     1      -0.849  -0.868  13.724  1.00  0.00    -0.206 F 
ATOM     82  C   UNL     1      -3.034  -1.184  12.925  1.00  0.00     0.059 A 
ATOM     83  C   UNL     1      -3.480  -2.926  11.294  1.00  0.00     0.059 A 
ATOM     84  F   UNL     1      -1.731  -4.302  10.558  1.00  0.00    -0.206 F 
ATOM     85  C   UNL     1      -3.922  -1.880  12.103  1.00  0.00     0.060 A 
BRANCH  85  86
ATOM     86  S   UNL     1      -5.656  -1.376  12.075  1.00  0.00     0.124 S 
ATOM     87  O   UNL     1      -6.116  -1.835  13.381  1.00  0.00    -0.237 OA
ATOM     88  O   UNL     1      -5.550   0.069  11.906  1.00  0.00    -0.237 OA
ATOM     89  O   UNL     1      -6.196  -2.097  10.927  1.00  0.00    -0.744 OA
ENDBRANCH  85  86
ENDBRANCH  53  78
BRANCH  65  90
ATOM     90  C   UNL     1       2.899  -5.349  17.071  1.00  0.00     0.058 A 
ATOM     91  C   UNL     1       2.086  -6.432  17.442  1.00  0.00     0.135 A 
ATOM     92  C   UNL     1       3.519  -4.617  18.097  1.00  0.00     0.135 A 
ATOM     93  F   UNL     1       1.468  -7.167  16.503  1.00  0.00    -0.206 F 
ATOM     94  C   UNL     1       1.863  -6.750  18.779  1.00  0.00     0.059 A 
ATOM     95  C   UNL     1       3.338  -4.938  19.439  1.00  0.00     0.059 A 
ATOM     96  F   UNL     1       4.321  -3.582  17.800  1.00  0.00    -0.206 F 
ATOM     97  C   UNL     1       2.492  -5.995  19.770  1.00  0.00     0.060 A 
BRANCH  97  98
ATOM     98  S   UNL     1       2.199  -6.420  21.500  1.00  0.00     0.124 S 
ATOM     99  O   UNL     1       0.831  -5.950  21.690  1.00  0.00    -0.237 OA
ATOM    100  O   UNL     1       2.377  -7.869  21.499  1.00  0.00    -0.237 OA
ATOM    101  O   UNL     1       3.227  -5.669  22.214  1.00  0.00    -0.744 OA
ENDBRANCH  97  98
ENDBRANCH  65  90
ENDBRANCH  39  40
ENDBRANCH  32  34
ENDBRANCH  31  32
ENDBRANCH  30  31
ENDBRANCH  29  30
ENDBRANCH  28  29
ENDBRANCH  27  28
ENDBRANCH   1  27
TORSDOF 25
