REMARK SMILES Cc1cccc(-c2ncc([C@@H]3[NH2+][C@H](C(=O)OCCOCCOCCOCCOC(=O)c4ccc(-c5c6nc(c(-c7c(F)cc(S(=O)(=O)[O-])cc7F)c7ccc([nH]7)c(-c7c(F)cc(S(=O)(=O)[O-])cc7F)c7nc(c(-c8c(F)cc(S(=O)(=O)[O-])cc8F)c8ccc5[nH]8)C=C7)C=C6)cc4)C(C)(C)S3)s2)c1
REMARK SMILES IDX 23 1 22 2 21 3 20 4 19 5 18 6 17 7 16 8 14 9 15 10 13 11
REMARK SMILES IDX 11 12 12 13 100 14 97 17 98 18 99 19 10 20 7 21 8 22 101 23
REMARK SMILES IDX 9 24 6 25 1 26 2 27 3 28 102 29 4 30 5 31 24 32 25 33 26 34
REMARK SMILES IDX 27 35 28 36 29 37 30 38 31 39 32 40 96 41 33 42 95 43 34 44
REMARK SMILES IDX 35 45 36 46 89 47 37 48 94 49 88 50 90 51 38 52 93 53 87 54
REMARK SMILES IDX 86 55 39 57 73 58 52 59 72 60 53 61 56 62 71 63 91 64 54 65
REMARK SMILES IDX 55 66 70 68 92 69 57 70 40 71 41 72 50 73 42 74 43 75 49 76
REMARK SMILES IDX 51 77 44 78 45 79 46 80 47 81 48 82 74 83 75 84 84 85 76 86
REMARK SMILES IDX 77 87 83 88 85 89 78 90 79 91 80 92 81 93 82 94 58 95 59 96
REMARK SMILES IDX 68 97 60 98 61 99 67 100 69 101 62 102 63 103 64 104 65 105
REMARK SMILES IDX 66 106
REMARK H PARENT 12 15 12 16 90 56 56 67
REMARK Flexibility Score: inf
ROOT
ATOM      1  C   UNL     1      -8.981   5.794   1.305  1.00  0.00     0.188 C 
ENDROOT
BRANCH   1   2
ATOM      2  O   UNL     1      -8.009   6.545   0.598  1.00  0.00    -0.377 OA
BRANCH   2   3
ATOM      3  C   UNL     1      -6.722   6.006   0.779  1.00  0.00     0.188 C 
BRANCH   3   4
ATOM      4  C   UNL     1      -5.961   6.632   1.944  1.00  0.00     0.188 C 
BRANCH   4   5
ATOM      5  O   UNL     1      -5.870   6.019   3.207  1.00  0.00    -0.376 OA
BRANCH   5   6
ATOM      6  C   UNL     1      -5.086   6.740   4.162  1.00  0.00     0.202 C 
BRANCH   6   7
ATOM      7  C   UNL     1      -3.971   7.734   3.799  1.00  0.00     0.261 C 
BRANCH   7   8
ATOM      8  O   UNL     1      -3.993   8.200   2.454  1.00  0.00    -0.459 OA
BRANCH   8   9
ATOM      9  C   UNL     1      -2.777   8.321   1.901  1.00  0.00     0.366 C 
ATOM     10  O   UNL     1      -1.829   8.872   2.452  1.00  0.00    -0.245 OA
BRANCH   9  11
ATOM     11  C   UNL     1      -2.621   7.481   0.620  1.00  0.00     0.310 C 
ATOM     12  C   UNL     1      -2.765   4.950   0.565  1.00  0.00     0.286 C 
ATOM     13  N   UNL     1      -2.046   6.138   1.037  1.00  0.00    -0.318 N 
ATOM     14  S   UNL     1      -3.901   5.553  -0.752  1.00  0.00    -0.080 SA
ATOM     15  H   UNL     1      -1.091   6.085   0.683  1.00  0.00     0.348 HD
ATOM     16  H   UNL     1      -2.118   6.114   2.054  1.00  0.00     0.348 HD
ATOM     17  C   UNL     1      -3.694   7.432  -0.507  1.00  0.00     0.079 C 
ATOM     18  C   UNL     1      -3.133   8.000  -1.836  1.00  0.00     0.030 C 
ATOM     19  C   UNL     1      -4.991   8.305  -0.412  1.00  0.00     0.030 C 
BRANCH  12  20
ATOM     20  C   UNL     1      -3.314   3.993   1.695  1.00  0.00     0.093 A 
ATOM     21  C   UNL     1      -3.873   2.259   3.490  1.00  0.00     0.123 A 
ATOM     22  N   UNL     1      -4.694   3.266   3.471  1.00  0.00    -0.244 NA
ATOM     23  S   UNL     1      -2.565   2.476   2.336  1.00  0.00    -0.112 S 
ATOM     24  C   UNL     1      -4.549   3.918   2.291  1.00  0.00     0.134 A 
BRANCH  21  25
ATOM     25  C   UNL     1      -4.247   1.139   4.402  1.00  0.00     0.011 A 
ATOM     26  C   UNL     1      -7.671  -0.297   5.569  1.00  0.00     0.044 C 
ATOM     27  C   UNL     1      -6.197   0.007   5.494  1.00  0.00    -0.050 A 
ATOM     28  C   UNL     1      -5.359  -0.411   6.522  1.00  0.00     0.003 A 
ATOM     29  C   UNL     1      -5.627   0.753   4.440  1.00  0.00     0.014 A 
ATOM     30  C   UNL     1      -4.004  -0.063   6.504  1.00  0.00     0.001 A 
ATOM     31  C   UNL     1      -3.450   0.708   5.460  1.00  0.00     0.011 A 
ENDBRANCH  21  25
ENDBRANCH  12  20
ENDBRANCH   9  11
ENDBRANCH   8   9
ENDBRANCH   7   8
ENDBRANCH   6   7
ENDBRANCH   5   6
ENDBRANCH   4   5
ENDBRANCH   3   4
ENDBRANCH   2   3
ENDBRANCH   1   2
BRANCH   1  32
ATOM     32  C   UNL     1      -9.053   4.349   0.871  1.00  0.00     0.188 C 
BRANCH  32  33
ATOM     33  O   UNL     1      -8.029   3.681   1.621  1.00  0.00    -0.376 OA
BRANCH  33  34
ATOM     34  C   UNL     1      -7.723   2.368   1.210  1.00  0.00     0.202 C 
BRANCH  34  35
ATOM     35  C   UNL     1      -8.886   1.452   1.548  1.00  0.00     0.261 C 
BRANCH  35  36
ATOM     36  O   UNL     1      -9.132   1.571   2.968  1.00  0.00    -0.460 OA
BRANCH  36  37
ATOM     37  C   UNL     1     -10.254   2.285   3.311  1.00  0.00     0.338 C 
ATOM     38  O   UNL     1     -11.367   1.962   2.997  1.00  0.00    -0.246 OA
BRANCH  37  39
ATOM     39  C   UNL     1      -9.883   3.544   4.062  1.00  0.00     0.060 A 
ATOM     40  C   UNL     1     -10.792   4.614   4.160  1.00  0.00     0.016 A 
ATOM     41  C   UNL     1      -8.581   3.750   4.492  1.00  0.00     0.016 A 
ATOM     42  C   UNL     1     -10.368   5.914   4.554  1.00  0.00     0.010 A 
ATOM     43  C   UNL     1      -8.171   5.030   4.860  1.00  0.00     0.010 A 
ATOM     44  C   UNL     1      -9.029   6.153   4.857  1.00  0.00    -0.014 A 
BRANCH  44  45
ATOM     45  C   UNL     1      -8.355   7.477   5.071  1.00  0.00     0.031 A 
ATOM     46  C   UNL     1      -7.460   7.597   6.304  1.00  0.00     0.074 A 
ATOM     47  C   UNL     1      -8.168   8.344   4.023  1.00  0.00     0.049 A 
ATOM     48  N   UNL     1      -6.582   8.522   6.519  1.00  0.00    -0.248 NA
ATOM     49  C   UNL     1      -7.398   6.580   7.358  1.00  0.00     0.031 C 
ATOM     50  C   UNL     1      -7.020   9.255   3.837  1.00  0.00     0.029 A 
ATOM     51  N   UNL     1      -8.873   8.558   2.825  1.00  0.00    -0.354 N 
ATOM     52  C   UNL     1      -5.634   8.057   7.423  1.00  0.00     0.074 A 
ATOM     53  C   UNL     1      -6.253   6.885   7.989  1.00  0.00     0.031 C 
ATOM     54  C   UNL     1      -7.117   9.961   2.702  1.00  0.00     0.029 A 
ATOM     55  C   UNL     1      -8.489   9.823   2.308  1.00  0.00     0.049 A 
ATOM     56  H   UNL     1      -9.521   7.939   2.416  1.00  0.00     0.167 HD
ATOM     57  C   UNL     1      -4.401   8.663   7.489  1.00  0.00     0.037 A 
ATOM     58  C   UNL     1      -9.346  10.887   2.347  1.00  0.00     0.037 A 
ATOM     59  C   UNL     1      -4.362   9.882   6.652  1.00  0.00     0.049 A 
ATOM     60  C   UNL     1      -8.816  11.946   3.325  1.00  0.00     0.074 A 
ATOM     61  C   UNL     1      -3.502  10.417   5.704  1.00  0.00     0.029 A 
ATOM     62  N   UNL     1      -5.454  10.747   6.685  1.00  0.00    -0.354 N 
ATOM     63  N   UNL     1      -8.088  11.656   4.385  1.00  0.00    -0.248 NA
ATOM     64  C   UNL     1      -8.814  13.386   3.062  1.00  0.00     0.031 C 
ATOM     65  C   UNL     1      -4.194  11.470   5.027  1.00  0.00     0.029 A 
ATOM     66  C   UNL     1      -5.408  11.674   5.670  1.00  0.00     0.049 A 
ATOM     67  H   UNL     1      -6.174  10.700   7.355  1.00  0.00     0.167 HD
ATOM     68  C   UNL     1      -7.417  12.771   4.820  1.00  0.00     0.074 A 
ATOM     69  C   UNL     1      -7.964  13.843   4.005  1.00  0.00     0.031 C 
ATOM     70  C   UNL     1      -6.349  12.782   5.681  1.00  0.00     0.037 A 
BRANCH  57  71
ATOM     71  C   UNL     1      -3.131   8.157   8.208  1.00  0.00     0.058 A 
ATOM     72  C   UNL     1      -2.004   9.009   8.356  1.00  0.00     0.135 A 
ATOM     73  C   UNL     1      -2.913   6.852   8.706  1.00  0.00     0.135 A 
ATOM     74  F   UNL     1      -2.043  10.290   7.964  1.00  0.00    -0.206 F 
ATOM     75  C   UNL     1      -0.783   8.609   8.918  1.00  0.00     0.059 A 
ATOM     76  C   UNL     1      -1.713   6.443   9.326  1.00  0.00     0.059 A 
ATOM     77  F   UNL     1      -3.840   5.894   8.588  1.00  0.00    -0.206 F 
ATOM     78  C   UNL     1      -0.645   7.325   9.418  1.00  0.00     0.060 A 
BRANCH  78  79
ATOM     79  S   UNL     1       0.910   6.867  10.222  1.00  0.00     0.124 S 
ATOM     80  O   UNL     1       1.843   6.840   9.100  1.00  0.00    -0.237 OA
ATOM     81  O   UNL     1       1.102   7.954  11.177  1.00  0.00    -0.237 OA
ATOM     82  O   UNL     1       0.617   5.566  10.818  1.00  0.00    -0.744 OA
ENDBRANCH  78  79
ENDBRANCH  57  71
BRANCH  58  83
ATOM     83  C   UNL     1     -10.713  10.447   1.899  1.00  0.00     0.058 A 
ATOM     84  C   UNL     1     -10.802  10.126   0.519  1.00  0.00     0.135 A 
ATOM     85  C   UNL     1     -11.522   9.684   2.762  1.00  0.00     0.135 A 
ATOM     86  F   UNL     1     -10.089  10.837  -0.372  1.00  0.00    -0.206 F 
ATOM     87  C   UNL     1     -11.444   8.971   0.055  1.00  0.00     0.059 A 
ATOM     88  C   UNL     1     -12.175   8.520   2.314  1.00  0.00     0.059 A 
ATOM     89  F   UNL     1     -11.508   9.930   4.081  1.00  0.00    -0.206 F 
ATOM     90  C   UNL     1     -12.080   8.138   0.971  1.00  0.00     0.060 A 
BRANCH  90  91
ATOM     91  S   UNL     1     -12.567   6.457   0.449  1.00  0.00     0.124 S 
ATOM     92  O   UNL     1     -13.908   6.674  -0.076  1.00  0.00    -0.237 OA
ATOM     93  O   UNL     1     -11.556   6.102  -0.546  1.00  0.00    -0.237 OA
ATOM     94  O   UNL     1     -12.485   5.696   1.691  1.00  0.00    -0.744 OA
ENDBRANCH  90  91
ENDBRANCH  58  83
BRANCH  70  95
ATOM     95  C   UNL     1      -6.094  13.856   6.727  1.00  0.00     0.058 A 
ATOM     96  C   UNL     1      -7.034  14.838   7.059  1.00  0.00     0.135 A 
ATOM     97  C   UNL     1      -4.977  13.765   7.613  1.00  0.00     0.135 A 
ATOM     98  F   UNL     1      -8.169  14.989   6.365  1.00  0.00    -0.206 F 
ATOM     99  C   UNL     1      -6.869  15.684   8.154  1.00  0.00     0.059 A 
ATOM    100  C   UNL     1      -4.829  14.552   8.746  1.00  0.00     0.059 A 
ATOM    101  F   UNL     1      -3.984  12.882   7.438  1.00  0.00    -0.206 F 
ATOM    102  C   UNL     1      -5.770  15.530   8.994  1.00  0.00     0.060 A 
BRANCH 102 103
ATOM    103  S   UNL     1      -5.590  16.615  10.411  1.00  0.00     0.124 S 
ATOM    104  O   UNL     1      -5.109  17.836   9.772  1.00  0.00    -0.237 OA
ATOM    105  O   UNL     1      -6.950  16.669  10.938  1.00  0.00    -0.237 OA
ATOM    106  O   UNL     1      -4.623  15.922  11.257  1.00  0.00    -0.744 OA
ENDBRANCH 102 103
ENDBRANCH  70  95
ENDBRANCH  44  45
ENDBRANCH  37  39
ENDBRANCH  36  37
ENDBRANCH  35  36
ENDBRANCH  34  35
ENDBRANCH  33  34
ENDBRANCH  32  33
ENDBRANCH   1  32
TORSDOF 25
