REMARK SMILES COC(=O)CCS(=O)(=O)Nc1ccc(C(=O)OCCOCCOCCOCCOC(=O)c2ccc(-c3c4nc(c(-c5c(F)cc(S(=O)(=O)[O-])cc5F)c5ccc([nH]5)c(-c5c(F)cc(S(=O)(=O)[O-])cc5F)c5nc(c(-c6c(F)cc(S(=O)(=O)[O-])cc6F)c6ccc3[nH]6)C=C5)C=C4)cc2)cc1
REMARK SMILES IDX 21 1 20 2 19 3 18 4 17 5 15 6 16 7 14 8 11 9 12 10 99 11
REMARK SMILES IDX 13 12 98 13 10 14 7 16 8 17 9 18 6 19 5 20 3 21 4 22 2 23
REMARK SMILES IDX 1 24 22 25 23 26 24 27 25 28 26 29 27 30 28 31 29 32 30 33
REMARK SMILES IDX 31 34 32 35 33 36 97 37 34 38 96 39 35 40 36 41 37 42 90 43
REMARK SMILES IDX 38 44 95 45 89 46 91 47 39 48 94 49 88 50 87 51 40 53 74 54
REMARK SMILES IDX 53 55 73 56 54 57 57 58 72 59 92 60 55 61 56 62 71 64 93 65
REMARK SMILES IDX 58 66 41 67 42 68 51 69 43 70 44 71 50 72 52 73 45 74 46 75
REMARK SMILES IDX 47 76 48 77 49 78 75 79 76 80 85 81 77 82 78 83 84 84 86 85
REMARK SMILES IDX 79 86 80 87 81 88 82 89 83 90 59 91 60 92 69 93 61 94 62 95
REMARK SMILES IDX 68 96 70 97 63 98 64 99 65 100 66 101 67 102
REMARK H PARENT 10 15 91 52 57 63
REMARK Flexibility Score: inf
ROOT
ATOM      1  C   UNL     1       4.382  -3.565   0.288  1.00  0.00     0.188 C 
ENDROOT
BRANCH   1   2
ATOM      2  O   UNL     1       5.084  -4.499   1.094  1.00  0.00    -0.376 OA
BRANCH   2   3
ATOM      3  C   UNL     1       6.107  -4.035   1.956  1.00  0.00     0.202 C 
BRANCH   3   4
ATOM      4  C   UNL     1       5.589  -3.240   3.149  1.00  0.00     0.261 C 
BRANCH   4   5
ATOM      5  O   UNL     1       4.974  -1.997   2.797  1.00  0.00    -0.460 OA
BRANCH   5   6
ATOM      6  C   UNL     1       5.678  -1.066   2.105  1.00  0.00     0.338 C 
ATOM      7  O   UNL     1       6.816  -1.126   1.710  1.00  0.00    -0.246 OA
BRANCH   6   8
ATOM      8  C   UNL     1       4.696  -0.009   1.773  1.00  0.00     0.060 A 
ATOM      9  C   UNL     1       2.571   1.697   1.114  1.00  0.00     0.049 A 
ATOM     10  C   UNL     1       3.549   1.388   0.162  1.00  0.00     0.027 A 
ATOM     11  C   UNL     1       2.685   1.150   2.387  1.00  0.00     0.027 A 
ATOM     12  C   UNL     1       4.626   0.547   0.492  1.00  0.00     0.018 A 
ATOM     13  C   UNL     1       3.738   0.318   2.725  1.00  0.00     0.018 A 
BRANCH   9  14
ATOM     14  N   UNL     1       1.357   2.294   0.679  1.00  0.00    -0.284 N 
ATOM     15  H   UNL     1       0.936   1.920  -0.129  1.00  0.00     0.180 HD
BRANCH  14  16
ATOM     16  S   UNL     1       0.592   3.566   1.416  1.00  0.00     0.233 S 
ATOM     17  O   UNL     1      -0.643   3.755   0.681  1.00  0.00    -0.207 OA
ATOM     18  O   UNL     1       1.543   4.652   1.526  1.00  0.00    -0.207 OA
BRANCH  16  19
ATOM     19  C   UNL     1       0.139   3.077   3.076  1.00  0.00     0.171 C 
BRANCH  19  20
ATOM     20  C   UNL     1      -0.895   1.975   3.216  1.00  0.00     0.141 C 
BRANCH  20  21
ATOM     21  C   UNL     1      -0.550   0.650   2.591  1.00  0.00     0.306 C 
ATOM     22  O   UNL     1      -0.033  -0.272   3.207  1.00  0.00    -0.252 OA
BRANCH  21  23
ATOM     23  O   UNL     1      -0.857   0.630   1.268  1.00  0.00    -0.469 OA
ATOM     24  C   UNL     1      -0.525  -0.595   0.606  1.00  0.00     0.282 C 
ENDBRANCH  21  23
ENDBRANCH  20  21
ENDBRANCH  19  20
ENDBRANCH  16  19
ENDBRANCH  14  16
ENDBRANCH   9  14
ENDBRANCH   6   8
ENDBRANCH   5   6
ENDBRANCH   4   5
ENDBRANCH   3   4
ENDBRANCH   2   3
ENDBRANCH   1   2
BRANCH   1  25
ATOM     25  C   UNL     1       2.895  -3.383   0.670  1.00  0.00     0.188 C 
BRANCH  25  26
ATOM     26  O   UNL     1       2.077  -4.458   1.131  1.00  0.00    -0.377 OA
BRANCH  26  27
ATOM     27  C   UNL     1       2.700  -5.657   1.571  1.00  0.00     0.188 C 
BRANCH  27  28
ATOM     28  C   UNL     1       3.284  -6.516   0.432  1.00  0.00     0.188 C 
BRANCH  28  29
ATOM     29  O   UNL     1       3.194  -5.881  -0.842  1.00  0.00    -0.376 OA
BRANCH  29  30
ATOM     30  C   UNL     1       2.246  -6.421  -1.749  1.00  0.00     0.202 C 
BRANCH  30  31
ATOM     31  C   UNL     1       0.773  -6.191  -1.381  1.00  0.00     0.261 C 
BRANCH  31  32
ATOM     32  O   UNL     1       0.350  -6.766  -0.134  1.00  0.00    -0.460 OA
BRANCH  32  33
ATOM     33  C   UNL     1       0.454  -8.107  -0.017  1.00  0.00     0.338 C 
ATOM     34  O   UNL     1       0.824  -8.894  -0.870  1.00  0.00    -0.246 OA
BRANCH  33  35
ATOM     35  C   UNL     1       0.224  -8.460   1.397  1.00  0.00     0.060 A 
ATOM     36  C   UNL     1       1.205  -9.194   2.075  1.00  0.00     0.016 A 
ATOM     37  C   UNL     1      -0.963  -8.093   2.036  1.00  0.00     0.016 A 
ATOM     38  C   UNL     1       0.973  -9.618   3.381  1.00  0.00     0.010 A 
ATOM     39  C   UNL     1      -1.203  -8.535   3.339  1.00  0.00     0.010 A 
ATOM     40  C   UNL     1      -0.257  -9.342   3.995  1.00  0.00    -0.014 A 
BRANCH  40  41
ATOM     41  C   UNL     1      -0.639 -10.113   5.201  1.00  0.00     0.031 A 
ATOM     42  C   UNL     1      -1.466 -11.359   5.006  1.00  0.00     0.074 A 
ATOM     43  C   UNL     1      -0.227  -9.751   6.429  1.00  0.00     0.049 A 
ATOM     44  N   UNL     1      -1.901 -12.213   5.893  1.00  0.00    -0.248 NA
ATOM     45  C   UNL     1      -1.854 -11.682   3.621  1.00  0.00     0.031 C 
ATOM     46  C   UNL     1       0.587  -8.577   6.739  1.00  0.00     0.029 A 
ATOM     47  N   UNL     1      -0.443 -10.342   7.648  1.00  0.00    -0.354 N 
ATOM     48  C   UNL     1      -2.619 -13.166   5.178  1.00  0.00     0.074 A 
ATOM     49  C   UNL     1      -2.584 -12.774   3.788  1.00  0.00     0.031 C 
ATOM     50  C   UNL     1       0.788  -8.525   8.068  1.00  0.00     0.029 A 
ATOM     51  C   UNL     1       0.107  -9.653   8.702  1.00  0.00     0.049 A 
ATOM     52  H   UNL     1      -0.946 -11.182   7.758  1.00  0.00     0.167 HD
ATOM     53  C   UNL     1      -3.242 -14.275   5.638  1.00  0.00     0.037 A 
ATOM     54  C   UNL     1       0.052  -9.901  10.026  1.00  0.00     0.037 A 
ATOM     55  C   UNL     1      -3.260 -14.671   7.021  1.00  0.00     0.049 A 
ATOM     56  C   UNL     1      -0.661 -11.140  10.513  1.00  0.00     0.074 A 
ATOM     57  C   UNL     1      -3.832 -15.799   7.584  1.00  0.00     0.029 A 
ATOM     58  N   UNL     1      -2.683 -13.954   8.057  1.00  0.00    -0.354 N 
ATOM     59  N   UNL     1      -1.292 -12.059   9.820  1.00  0.00    -0.248 NA
ATOM     60  C   UNL     1      -0.652 -11.386  11.962  1.00  0.00     0.031 C 
ATOM     61  C   UNL     1      -3.643 -15.738   8.968  1.00  0.00     0.029 A 
ATOM     62  C   UNL     1      -2.903 -14.603   9.259  1.00  0.00     0.049 A 
ATOM     63  H   UNL     1      -2.191 -13.107   7.953  1.00  0.00     0.167 HD
ATOM     64  C   UNL     1      -1.722 -13.007  10.744  1.00  0.00     0.074 A 
ATOM     65  C   UNL     1      -1.267 -12.557  12.043  1.00  0.00     0.031 C 
ATOM     66  C   UNL     1      -2.428 -14.148  10.541  1.00  0.00     0.037 A 
BRANCH  53  67
ATOM     67  C   UNL     1      -3.975 -15.132   4.647  1.00  0.00     0.058 A 
ATOM     68  C   UNL     1      -3.298 -15.953   3.732  1.00  0.00     0.135 A 
ATOM     69  C   UNL     1      -5.379 -15.181   4.659  1.00  0.00     0.135 A 
ATOM     70  F   UNL     1      -1.958 -15.925   3.661  1.00  0.00    -0.206 F 
ATOM     71  C   UNL     1      -3.987 -16.793   2.863  1.00  0.00     0.059 A 
ATOM     72  C   UNL     1      -6.087 -16.030   3.816  1.00  0.00     0.059 A 
ATOM     73  F   UNL     1      -6.074 -14.406   5.507  1.00  0.00    -0.206 F 
ATOM     74  C   UNL     1      -5.382 -16.831   2.919  1.00  0.00     0.060 A 
BRANCH  74  75
ATOM     75  S   UNL     1      -6.259 -17.965   1.822  1.00  0.00     0.124 S 
ATOM     76  O   UNL     1      -6.091 -17.310   0.529  1.00  0.00    -0.237 OA
ATOM     77  O   UNL     1      -5.518 -19.209   2.004  1.00  0.00    -0.237 OA
ATOM     78  O   UNL     1      -7.620 -17.966   2.352  1.00  0.00    -0.744 OA
ENDBRANCH  74  75
ENDBRANCH  53  67
BRANCH  54  79
ATOM     79  C   UNL     1       0.671  -8.958  10.998  1.00  0.00     0.058 A 
ATOM     80  C   UNL     1       1.781  -9.325  11.773  1.00  0.00     0.135 A 
ATOM     81  C   UNL     1       0.128  -7.680  11.203  1.00  0.00     0.135 A 
ATOM     82  F   UNL     1       2.333 -10.539  11.621  1.00  0.00    -0.206 F 
ATOM     83  C   UNL     1       2.307  -8.477  12.743  1.00  0.00     0.059 A 
ATOM     84  C   UNL     1       0.654  -6.803  12.146  1.00  0.00     0.059 A 
ATOM     85  F   UNL     1      -0.926  -7.272  10.479  1.00  0.00    -0.206 F 
ATOM     86  C   UNL     1       1.732  -7.218  12.926  1.00  0.00     0.060 A 
BRANCH  86  87
ATOM     87  S   UNL     1       2.424  -6.118  14.180  1.00  0.00     0.124 S 
ATOM     88  O   UNL     1       1.931  -6.728  15.409  1.00  0.00    -0.237 OA
ATOM     89  O   UNL     1       3.858  -6.238  13.937  1.00  0.00    -0.237 OA
ATOM     90  O   UNL     1       1.846  -4.821  13.842  1.00  0.00    -0.744 OA
ENDBRANCH  86  87
ENDBRANCH  54  79
BRANCH  66  91
ATOM     91  C   UNL     1      -2.700 -15.017  11.739  1.00  0.00     0.058 A 
ATOM     92  C   UNL     1      -3.601 -14.637  12.745  1.00  0.00     0.135 A 
ATOM     93  C   UNL     1      -2.061 -16.262  11.867  1.00  0.00     0.135 A 
ATOM     94  F   UNL     1      -4.241 -13.460  12.670  1.00  0.00    -0.206 F 
ATOM     95  C   UNL     1      -3.822 -15.438  13.862  1.00  0.00     0.059 A 
ATOM     96  C   UNL     1      -2.291 -17.092  12.959  1.00  0.00     0.059 A 
ATOM     97  F   UNL     1      -1.204 -16.684  10.924  1.00  0.00    -0.206 F 
ATOM     98  C   UNL     1      -3.156 -16.660  13.963  1.00  0.00     0.060 A 
BRANCH  98  99
ATOM     99  S   UNL     1      -3.437 -17.685  15.422  1.00  0.00     0.124 S 
ATOM    100  O   UNL     1      -2.649 -16.982  16.429  1.00  0.00    -0.237 OA
ATOM    101  O   UNL     1      -4.886 -17.611  15.585  1.00  0.00    -0.237 OA
ATOM    102  O   UNL     1      -2.924 -18.992  15.023  1.00  0.00    -0.744 OA
ENDBRANCH  98  99
ENDBRANCH  66  91
ENDBRANCH  40  41
ENDBRANCH  33  35
ENDBRANCH  32  33
ENDBRANCH  31  32
ENDBRANCH  30  31
ENDBRANCH  29  30
ENDBRANCH  28  29
ENDBRANCH  27  28
ENDBRANCH  26  27
ENDBRANCH  25  26
ENDBRANCH   1  25
TORSDOF 29
