REMARK SMILES Cc1nsc(NC(=O)[C@@H]2C=C[C@@H]([NH3+])C2)c1C(=O)OCCOCCOCCOCCOC(=O)c1ccc(-c2c3nc(c(-c4c(F)cc(S(=O)(=O)[O-])cc4F)c4ccc([nH]4)c(-c4c(F)cc(S(=O)(=O)[O-])cc4F)c4nc(c(-c5c(F)cc(S(=O)(=O)[O-])cc5F)c5ccc2[nH]5)C=C4)C=C3)cc1
REMARK SMILES IDX 24 1 23 2 22 3 21 4 20 5 19 6 18 7 16 8 17 9 15 10 1 11 2 12
REMARK SMILES IDX 3 13 4 14 5 15 6 16 7 17 8 19 9 20 10 21 14 22 11 23 12 24
REMARK SMILES IDX 13 25 25 29 26 30 27 31 28 32 29 33 30 34 31 35 32 36 33 37
REMARK SMILES IDX 34 38 98 39 35 40 97 41 36 42 37 43 38 44 91 45 39 46 96 47
REMARK SMILES IDX 90 48 92 49 40 50 95 51 89 52 88 53 41 55 75 56 54 57 74 58
REMARK SMILES IDX 55 59 58 60 73 61 93 62 56 63 57 64 72 66 94 67 59 68 42 69
REMARK SMILES IDX 43 70 52 71 44 72 45 73 51 74 53 75 46 76 47 77 48 78 49 79
REMARK SMILES IDX 50 80 76 81 77 82 86 83 78 84 79 85 85 86 87 87 80 88 81 89
REMARK SMILES IDX 82 90 83 91 84 92 60 93 61 94 70 95 62 96 63 97 69 98 71 99
REMARK SMILES IDX 64 100 65 101 66 102 67 103 68 104
REMARK H PARENT 6 18 13 26 13 27 13 28 92 54 58 65
REMARK Flexibility Score: inf
ROOT
ATOM      1  O   UNL     1      -5.867   6.853  -2.307  1.00  0.00    -0.377 OA
ENDROOT
BRANCH   1   2
ATOM      2  C   UNL     1      -4.768   6.607  -3.162  1.00  0.00     0.188 C 
BRANCH   2   3
ATOM      3  C   UNL     1      -5.159   5.889  -4.471  1.00  0.00     0.188 C 
BRANCH   3   4
ATOM      4  O   UNL     1      -6.511   5.651  -4.850  1.00  0.00    -0.376 OA
BRANCH   4   5
ATOM      5  C   UNL     1      -7.521   5.342  -3.905  1.00  0.00     0.202 C 
BRANCH   5   6
ATOM      6  C   UNL     1      -7.357   4.203  -2.886  1.00  0.00     0.261 C 
BRANCH   6   7
ATOM      7  O   UNL     1      -6.056   4.044  -2.316  1.00  0.00    -0.460 OA
BRANCH   7   8
ATOM      8  C   UNL     1      -5.238   3.155  -2.937  1.00  0.00     0.343 C 
ATOM      9  O   UNL     1      -5.581   2.418  -3.856  1.00  0.00    -0.246 OA
BRANCH   8  10
ATOM     10  C   UNL     1      -3.846   3.315  -2.541  1.00  0.00     0.117 A 
ATOM     11  C   UNL     1      -4.128   4.048  -0.029  1.00  0.00     0.069 C 
ATOM     12  C   UNL     1      -3.337   3.702  -1.244  1.00  0.00     0.068 A 
ATOM     13  N   UNL     1      -2.013   3.825  -1.158  1.00  0.00    -0.195 NA
ATOM     14  S   UNL     1      -1.356   3.615  -2.648  1.00  0.00    -0.017 S 
ATOM     15  C   UNL     1      -2.804   3.291  -3.468  1.00  0.00     0.131 A 
BRANCH  15  16
ATOM     16  N   UNL     1      -2.917   3.203  -4.850  1.00  0.00    -0.315 N 
ATOM     17  C   UNL     1      -2.002   3.230  -5.866  1.00  0.00     0.232 C 
ATOM     18  H   UNL     1      -3.845   3.101  -5.162  1.00  0.00     0.170 HD
ATOM     19  O   UNL     1      -2.424   3.505  -6.994  1.00  0.00    -0.274 OA
BRANCH  17  20
ATOM     20  C   UNL     1      -0.540   2.866  -5.626  1.00  0.00     0.107 C 
ATOM     21  C   UNL     1       0.264   2.738  -6.893  1.00  0.00    -0.012 C 
ATOM     22  C   UNL     1      -0.440   1.442  -5.058  1.00  0.00     0.087 C 
ATOM     23  C   UNL     1       0.485   1.459  -7.222  1.00  0.00     0.033 C 
ATOM     24  C   UNL     1      -0.185   0.535  -6.265  1.00  0.00     0.205 C 
BRANCH  24  25
ATOM     25  N   UNL     1       0.628  -0.602  -5.888  1.00  0.00    -0.352 N 
ATOM     26  H   UNL     1       1.498  -0.274  -5.470  1.00  0.00     0.345 HD
ATOM     27  H   UNL     1       0.837  -1.160  -6.716  1.00  0.00     0.345 HD
ATOM     28  H   UNL     1       0.120  -1.173  -5.213  1.00  0.00     0.345 HD
ENDBRANCH  24  25
ENDBRANCH  17  20
ENDBRANCH  15  16
ENDBRANCH   8  10
ENDBRANCH   7   8
ENDBRANCH   6   7
ENDBRANCH   5   6
ENDBRANCH   4   5
ENDBRANCH   3   4
ENDBRANCH   2   3
ENDBRANCH   1   2
BRANCH   1  29
ATOM     29  C   UNL     1      -6.439   8.153  -2.435  1.00  0.00     0.188 C 
BRANCH  29  30
ATOM     30  C   UNL     1      -6.650   8.743  -3.860  1.00  0.00     0.188 C 
BRANCH  30  31
ATOM     31  O   UNL     1      -5.594   8.487  -4.782  1.00  0.00    -0.376 OA
BRANCH  31  32
ATOM     32  C   UNL     1      -4.719   9.501  -5.252  1.00  0.00     0.202 C 
BRANCH  32  33
ATOM     33  C   UNL     1      -3.672  10.017  -4.266  1.00  0.00     0.261 C 
BRANCH  33  34
ATOM     34  O   UNL     1      -4.207  10.213  -2.975  1.00  0.00    -0.460 OA
BRANCH  34  35
ATOM     35  C   UNL     1      -5.154  11.168  -2.908  1.00  0.00     0.338 C 
ATOM     36  O   UNL     1      -5.606  11.825  -3.829  1.00  0.00    -0.246 OA
BRANCH  35  37
ATOM     37  C   UNL     1      -5.524  11.335  -1.498  1.00  0.00     0.060 A 
ATOM     38  C   UNL     1      -6.415  12.381  -1.274  1.00  0.00     0.016 A 
ATOM     39  C   UNL     1      -4.586  10.902  -0.548  1.00  0.00     0.016 A 
ATOM     40  C   UNL     1      -6.050  13.282  -0.316  1.00  0.00     0.010 A 
ATOM     41  C   UNL     1      -4.201  11.814   0.383  1.00  0.00     0.010 A 
ATOM     42  C   UNL     1      -4.865  13.036   0.383  1.00  0.00    -0.014 A 
BRANCH  42  43
ATOM     43  C   UNL     1      -4.309  14.111   1.151  1.00  0.00     0.031 A 
ATOM     44  C   UNL     1      -4.998  14.262   2.440  1.00  0.00     0.074 A 
ATOM     45  C   UNL     1      -3.233  14.784   0.710  1.00  0.00     0.049 A 
ATOM     46  N   UNL     1      -5.774  15.227   2.796  1.00  0.00    -0.248 NA
ATOM     47  C   UNL     1      -5.045  13.085   3.325  1.00  0.00     0.031 C 
ATOM     48  C   UNL     1      -2.389  14.505  -0.456  1.00  0.00     0.029 A 
ATOM     49  N   UNL     1      -2.591  15.810   1.318  1.00  0.00    -0.354 N 
ATOM     50  C   UNL     1      -6.210  14.882   4.067  1.00  0.00     0.074 A 
ATOM     51  C   UNL     1      -5.947  13.478   4.221  1.00  0.00     0.031 C 
ATOM     52  C   UNL     1      -1.228  15.187  -0.332  1.00  0.00     0.029 A 
ATOM     53  C   UNL     1      -1.295  16.015   0.858  1.00  0.00     0.049 A 
ATOM     54  H   UNL     1      -3.004  16.361   2.022  1.00  0.00     0.167 HD
ATOM     55  C   UNL     1      -6.492  15.837   4.990  1.00  0.00     0.037 A 
ATOM     56  C   UNL     1      -0.345  16.698   1.547  1.00  0.00     0.037 A 
ATOM     57  C   UNL     1      -6.657  17.126   4.365  1.00  0.00     0.049 A 
ATOM     58  C   UNL     1      -1.079  17.581   2.510  1.00  0.00     0.074 A 
ATOM     59  C   UNL     1      -7.531  17.622   3.417  1.00  0.00     0.029 A 
ATOM     60  N   UNL     1      -5.586  17.992   4.389  1.00  0.00    -0.354 N 
ATOM     61  N   UNL     1      -1.853  18.568   2.130  1.00  0.00    -0.248 NA
ATOM     62  C   UNL     1      -1.374  17.050   3.837  1.00  0.00     0.031 C 
ATOM     63  C   UNL     1      -6.746  18.486   2.602  1.00  0.00     0.029 A 
ATOM     64  C   UNL     1      -5.455  18.528   3.131  1.00  0.00     0.049 A 
ATOM     65  H   UNL     1      -5.018  18.191   5.168  1.00  0.00     0.167 HD
ATOM     66  C   UNL     1      -2.966  18.503   2.963  1.00  0.00     0.074 A 
ATOM     67  C   UNL     1      -2.580  17.593   4.040  1.00  0.00     0.031 C 
ATOM     68  C   UNL     1      -4.193  18.945   2.552  1.00  0.00     0.037 A 
BRANCH  55  69
ATOM     69  C   UNL     1      -6.248  15.663   6.464  1.00  0.00     0.058 A 
ATOM     70  C   UNL     1      -6.735  16.640   7.351  1.00  0.00     0.135 A 
ATOM     71  C   UNL     1      -5.338  14.732   7.017  1.00  0.00     0.135 A 
ATOM     72  F   UNL     1      -7.606  17.571   6.931  1.00  0.00    -0.206 F 
ATOM     73  C   UNL     1      -6.284  16.738   8.666  1.00  0.00     0.059 A 
ATOM     74  C   UNL     1      -4.923  14.774   8.339  1.00  0.00     0.059 A 
ATOM     75  F   UNL     1      -4.720  13.797   6.286  1.00  0.00    -0.206 F 
ATOM     76  C   UNL     1      -5.362  15.810   9.142  1.00  0.00     0.060 A 
BRANCH  76  77
ATOM     77  S   UNL     1      -4.674  16.011  10.790  1.00  0.00     0.124 S 
ATOM     78  O   UNL     1      -3.861  17.210  10.619  1.00  0.00    -0.237 OA
ATOM     79  O   UNL     1      -5.876  16.160  11.603  1.00  0.00    -0.237 OA
ATOM     80  O   UNL     1      -3.933  14.770  10.998  1.00  0.00    -0.744 OA
ENDBRANCH  76  77
ENDBRANCH  55  69
BRANCH  56  81
ATOM     81  C   UNL     1       1.086  16.307   1.692  1.00  0.00     0.058 A 
ATOM     82  C   UNL     1       2.024  17.162   2.297  1.00  0.00     0.135 A 
ATOM     83  C   UNL     1       1.526  14.984   1.459  1.00  0.00     0.135 A 
ATOM     84  F   UNL     1       1.692  18.430   2.582  1.00  0.00    -0.206 F 
ATOM     85  C   UNL     1       3.300  16.723   2.681  1.00  0.00     0.059 A 
ATOM     86  C   UNL     1       2.794  14.531   1.814  1.00  0.00     0.059 A 
ATOM     87  F   UNL     1       0.707  14.049   0.959  1.00  0.00    -0.206 F 
ATOM     88  C   UNL     1       3.669  15.398   2.450  1.00  0.00     0.060 A 
BRANCH  88  89
ATOM     89  S   UNL     1       5.236  14.768   3.097  1.00  0.00     0.124 S 
ATOM     90  O   UNL     1       6.208  15.444   2.245  1.00  0.00    -0.237 OA
ATOM     91  O   UNL     1       5.191  15.204   4.488  1.00  0.00    -0.237 OA
ATOM     92  O   UNL     1       5.129  13.325   2.898  1.00  0.00    -0.744 OA
ENDBRANCH  88  89
ENDBRANCH  56  81
BRANCH  68  93
ATOM     93  C   UNL     1      -4.281  19.720   1.259  1.00  0.00     0.058 A 
ATOM     94  C   UNL     1      -3.978  19.180  -0.005  1.00  0.00     0.135 A 
ATOM     95  C   UNL     1      -4.878  20.989   1.279  1.00  0.00     0.135 A 
ATOM     96  F   UNL     1      -3.517  17.928  -0.122  1.00  0.00    -0.206 F 
ATOM     97  C   UNL     1      -4.215  19.882  -1.187  1.00  0.00     0.059 A 
ATOM     98  C   UNL     1      -5.156  21.695   0.110  1.00  0.00     0.059 A 
ATOM     99  F   UNL     1      -5.261  21.532   2.446  1.00  0.00    -0.206 F 
ATOM    100  C   UNL     1      -4.809  21.141  -1.120  1.00  0.00     0.060 A 
BRANCH 100 101
ATOM    101  S   UNL     1      -5.194  22.014  -2.653  1.00  0.00     0.124 S 
ATOM    102  O   UNL     1      -3.872  22.435  -3.105  1.00  0.00    -0.237 OA
ATOM    103  O   UNL     1      -5.838  20.978  -3.456  1.00  0.00    -0.237 OA
ATOM    104  O   UNL     1      -6.079  23.092  -2.218  1.00  0.00    -0.744 OA
ENDBRANCH 100 101
ENDBRANCH  68  93
ENDBRANCH  42  43
ENDBRANCH  35  37
ENDBRANCH  34  35
ENDBRANCH  33  34
ENDBRANCH  32  33
ENDBRANCH  31  32
ENDBRANCH  30  31
ENDBRANCH  29  30
ENDBRANCH   1  29
TORSDOF 26
