REMARK SMILES O=C(OCCOCCOCCOCCOC(=O)[C@H]1[C@@H](C(=O)NN2CCOCC2)[C@H]2C=C[C@@H]1CC2)c1ccc(-c2c3nc(c(-c4c(F)cc(S(=O)(=O)[O-])cc4F)c4ccc([nH]4)c(-c4c(F)cc(S(=O)(=O)[O-])cc4F)c4nc(c(-c5c(F)cc(S(=O)(=O)[O-])cc5F)c5ccc2[nH]5)C=C4)C=C3)cc1
REMARK SMILES IDX 8 1 7 2 6 3 5 4 4 5 3 6 2 7 1 8 35 9 36 10 100 11 37 12
REMARK SMILES IDX 99 13 38 14 39 15 40 16 93 17 41 18 98 19 92 20 94 21 42 22
REMARK SMILES IDX 97 23 91 24 90 25 43 27 77 28 56 29 76 30 57 31 60 32 75 33
REMARK SMILES IDX 95 34 58 35 59 36 74 38 96 39 61 40 44 41 45 42 54 43 46 44
REMARK SMILES IDX 47 45 53 46 55 47 48 48 49 49 50 50 51 51 52 52 78 53 79 54
REMARK SMILES IDX 88 55 80 56 81 57 87 58 89 59 82 60 83 61 84 62 85 63 86 64
REMARK SMILES IDX 62 65 63 66 72 67 64 68 65 69 71 70 73 71 66 72 67 73 68 74
REMARK SMILES IDX 69 75 70 76 9 77 10 78 11 79 12 80 13 81 14 82 15 83 16 84
REMARK SMILES IDX 17 85 18 86 19 87 32 88 29 89 31 90 33 91 30 92 34 93 20 94
REMARK SMILES IDX 21 95 22 96 23 98 24 99 28 100 25 101 27 102 26 103
REMARK H PARENT 94 26 60 37 22 97
REMARK Flexibility Score: inf
ROOT
ATOM      1  C   UNL     1       8.952   4.514   0.615  1.00  0.00     0.188 C 
ENDROOT
BRANCH   1   2
ATOM      2  C   UNL     1       9.005   5.042  -0.811  1.00  0.00     0.188 C 
BRANCH   2   3
ATOM      3  O   UNL     1       8.897   6.451  -0.728  1.00  0.00    -0.376 OA
BRANCH   3   4
ATOM      4  C   UNL     1       8.296   7.128  -1.816  1.00  0.00     0.202 C 
BRANCH   4   5
ATOM      5  C   UNL     1       9.276   7.410  -2.954  1.00  0.00     0.261 C 
BRANCH   5   6
ATOM      6  O   UNL     1      10.364   6.468  -3.007  1.00  0.00    -0.460 OA
BRANCH   6   7
ATOM      7  C   UNL     1      11.598   6.584  -2.445  1.00  0.00     0.338 C 
ATOM      8  O   UNL     1      12.454   5.745  -2.722  1.00  0.00    -0.246 OA
BRANCH   7   9
ATOM      9  C   UNL     1      11.983   7.696  -1.524  1.00  0.00     0.060 A 
ATOM     10  C   UNL     1      11.107   8.312  -0.639  1.00  0.00     0.016 A 
ATOM     11  C   UNL     1      13.327   8.098  -1.486  1.00  0.00     0.016 A 
ATOM     12  C   UNL     1      11.485   9.363   0.168  1.00  0.00     0.010 A 
ATOM     13  C   UNL     1      13.742   9.128  -0.628  1.00  0.00     0.010 A 
ATOM     14  C   UNL     1      12.804   9.788   0.175  1.00  0.00    -0.014 A 
BRANCH  14  15
ATOM     15  C   UNL     1      13.066  11.053   0.884  1.00  0.00     0.031 A 
ATOM     16  C   UNL     1      13.311  12.272   0.046  1.00  0.00     0.074 A 
ATOM     17  C   UNL     1      12.836  11.136   2.209  1.00  0.00     0.049 A 
ATOM     18  N   UNL     1      13.606  13.484   0.419  1.00  0.00    -0.248 NA
ATOM     19  C   UNL     1      13.188  12.106  -1.415  1.00  0.00     0.031 C 
ATOM     20  C   UNL     1      12.404  10.023   3.066  1.00  0.00     0.029 A 
ATOM     21  N   UNL     1      12.873  12.207   3.060  1.00  0.00    -0.354 N 
ATOM     22  C   UNL     1      13.750  14.211  -0.756  1.00  0.00     0.074 A 
ATOM     23  C   UNL     1      13.508  13.311  -1.858  1.00  0.00     0.031 C 
ATOM     24  C   UNL     1      12.186  10.481   4.309  1.00  0.00     0.029 A 
ATOM     25  C   UNL     1      12.556  11.888   4.361  1.00  0.00     0.049 A 
ATOM     26  H   UNL     1      13.104  13.119   2.769  1.00  0.00     0.167 HD
ATOM     27  C   UNL     1      14.064  15.518  -0.890  1.00  0.00     0.037 A 
ATOM     28  C   UNL     1      12.620  12.645   5.472  1.00  0.00     0.037 A 
ATOM     29  C   UNL     1      14.280  16.379   0.238  1.00  0.00     0.049 A 
ATOM     30  C   UNL     1      13.085  14.068   5.307  1.00  0.00     0.074 A 
ATOM     31  C   UNL     1      14.720  17.688   0.262  1.00  0.00     0.029 A 
ATOM     32  N   UNL     1      14.049  16.004   1.557  1.00  0.00    -0.354 N 
ATOM     33  N   UNL     1      13.367  14.718   4.199  1.00  0.00    -0.248 NA
ATOM     34  C   UNL     1      13.268  14.854   6.531  1.00  0.00     0.031 C 
ATOM     35  C   UNL     1      14.785  18.093   1.600  1.00  0.00     0.029 A 
ATOM     36  C   UNL     1      14.341  17.053   2.405  1.00  0.00     0.049 A 
ATOM     37  H   UNL     1      13.725  15.119   1.843  1.00  0.00     0.167 HD
ATOM     38  C   UNL     1      13.760  15.989   4.592  1.00  0.00     0.074 A 
ATOM     39  C   UNL     1      13.643  16.026   6.038  1.00  0.00     0.031 C 
ATOM     40  C   UNL     1      14.196  17.031   3.840  1.00  0.00     0.037 A 
BRANCH  27  41
ATOM     41  C   UNL     1      14.261  16.038  -2.283  1.00  0.00     0.058 A 
ATOM     42  C   UNL     1      13.185  16.263  -3.155  1.00  0.00     0.135 A 
ATOM     43  C   UNL     1      15.558  16.275  -2.768  1.00  0.00     0.135 A 
ATOM     44  F   UNL     1      11.928  16.008  -2.759  1.00  0.00    -0.206 F 
ATOM     45  C   UNL     1      13.388  16.692  -4.464  1.00  0.00     0.059 A 
ATOM     46  C   UNL     1      15.783  16.724  -4.065  1.00  0.00     0.059 A 
ATOM     47  F   UNL     1      16.623  16.050  -1.983  1.00  0.00    -0.206 F 
ATOM     48  C   UNL     1      14.692  16.919  -4.910  1.00  0.00     0.060 A 
BRANCH  48  49
ATOM     49  S   UNL     1      14.939  17.476  -6.610  1.00  0.00     0.124 S 
ATOM     50  O   UNL     1      14.625  16.265  -7.362  1.00  0.00    -0.237 OA
ATOM     51  O   UNL     1      13.971  18.561  -6.725  1.00  0.00    -0.237 OA
ATOM     52  O   UNL     1      16.340  17.884  -6.634  1.00  0.00    -0.744 OA
ENDBRANCH  48  49
ENDBRANCH  27  41
BRANCH  28  53
ATOM     53  C   UNL     1      12.353  12.059   6.817  1.00  0.00     0.058 A 
ATOM     54  C   UNL     1      11.318  12.530   7.638  1.00  0.00     0.135 A 
ATOM     55  C   UNL     1      13.165  11.031   7.328  1.00  0.00     0.135 A 
ATOM     56  F   UNL     1      10.513  13.513   7.206  1.00  0.00    -0.206 F 
ATOM     57  C   UNL     1      11.120  12.032   8.925  1.00  0.00     0.059 A 
ATOM     58  C   UNL     1      12.966  10.493   8.595  1.00  0.00     0.059 A 
ATOM     59  F   UNL     1      14.167  10.532   6.588  1.00  0.00    -0.206 F 
ATOM     60  C   UNL     1      11.955  11.017   9.397  1.00  0.00     0.060 A 
BRANCH  60  61
ATOM     61  S   UNL     1      11.705  10.382  11.069  1.00  0.00     0.124 S 
ATOM     62  O   UNL     1      12.258  11.463  11.877  1.00  0.00    -0.237 OA
ATOM     63  O   UNL     1      10.255  10.220  11.125  1.00  0.00    -0.237 OA
ATOM     64  O   UNL     1      12.467   9.137  11.073  1.00  0.00    -0.744 OA
ENDBRANCH  60  61
ENDBRANCH  28  53
BRANCH  40  65
ATOM     65  C   UNL     1      14.541  18.289   4.577  1.00  0.00     0.058 A 
ATOM     66  C   UNL     1      15.714  18.391   5.340  1.00  0.00     0.135 A 
ATOM     67  C   UNL     1      13.707  19.413   4.483  1.00  0.00     0.135 A 
ATOM     68  F   UNL     1      16.537  17.337   5.461  1.00  0.00    -0.206 F 
ATOM     69  C   UNL     1      16.034  19.561   6.014  1.00  0.00     0.059 A 
ATOM     70  C   UNL     1      14.024  20.603   5.125  1.00  0.00     0.059 A 
ATOM     71  F   UNL     1      12.582  19.363   3.753  1.00  0.00    -0.206 F 
ATOM     72  C   UNL     1      15.181  20.661   5.900  1.00  0.00     0.060 A 
BRANCH  72  73
ATOM     73  S   UNL     1      15.617  22.184   6.761  1.00  0.00     0.124 S 
ATOM     74  O   UNL     1      15.261  21.854   8.137  1.00  0.00    -0.237 OA
ATOM     75  O   UNL     1      17.046  22.303   6.486  1.00  0.00    -0.237 OA
ATOM     76  O   UNL     1      14.776  23.189   6.118  1.00  0.00    -0.744 OA
ENDBRANCH  72  73
ENDBRANCH  40  65
ENDBRANCH  14  15
ENDBRANCH   7   9
ENDBRANCH   6   7
ENDBRANCH   5   6
ENDBRANCH   4   5
ENDBRANCH   3   4
ENDBRANCH   2   3
ENDBRANCH   1   2
BRANCH   1  77
ATOM     77  O   UNL     1       7.709   4.805   1.240  1.00  0.00    -0.377 OA
BRANCH  77  78
ATOM     78  C   UNL     1       7.446   6.171   1.576  1.00  0.00     0.188 C 
BRANCH  78  79
ATOM     79  C   UNL     1       8.254   6.828   2.689  1.00  0.00     0.188 C 
BRANCH  79  80
ATOM     80  O   UNL     1       9.251   6.028   3.275  1.00  0.00    -0.376 OA
BRANCH  80  81
ATOM     81  C   UNL     1       8.870   4.973   4.151  1.00  0.00     0.202 C 
BRANCH  81  82
ATOM     82  C   UNL     1       7.411   4.635   4.548  1.00  0.00     0.261 C 
BRANCH  82  83
ATOM     83  O   UNL     1       6.450   4.563   3.477  1.00  0.00    -0.463 OA
BRANCH  83  84
ATOM     84  C   UNL     1       5.149   4.588   3.853  1.00  0.00     0.310 C 
ATOM     85  O   UNL     1       4.778   4.387   5.011  1.00  0.00    -0.252 OA
BRANCH  84  86
ATOM     86  C   UNL     1       4.130   4.903   2.743  1.00  0.00     0.119 C 
ATOM     87  C   UNL     1       3.617   6.390   2.555  1.00  0.00     0.101 C 
ATOM     88  C   UNL     1       4.297   4.211   1.345  1.00  0.00     0.026 C 
ATOM     89  C   UNL     1       3.115   6.524   1.086  1.00  0.00     0.025 C 
ATOM     90  C   UNL     1       4.872   5.126   0.275  1.00  0.00    -0.027 C 
ATOM     91  C   UNL     1       2.852   3.985   0.825  1.00  0.00     0.009 C 
ATOM     92  C   UNL     1       4.276   6.321   0.149  1.00  0.00    -0.027 C 
ATOM     93  C   UNL     1       2.120   5.357   0.788  1.00  0.00     0.009 C 
BRANCH  87  94
ATOM     94  C   UNL     1       4.573   7.453   3.127  1.00  0.00     0.238 C 
ATOM     95  O   UNL     1       5.254   7.203   4.128  1.00  0.00    -0.273 OA
ATOM     96  N   UNL     1       4.667   8.746   2.696  1.00  0.00    -0.288 N 
ATOM     97  H   UNL     1       5.368   9.290   3.121  1.00  0.00     0.185 HD
BRANCH  96  98
ATOM     98  N   UNL     1       3.894   9.395   1.726  1.00  0.00    -0.217 NA
ATOM     99  C   UNL     1       4.592  10.605   1.204  1.00  0.00     0.136 C 
ATOM    100  C   UNL     1       2.588   9.823   2.282  1.00  0.00     0.136 C 
ATOM    101  C   UNL     1       4.615  11.798   2.182  1.00  0.00     0.177 C 
ATOM    102  C   UNL     1       2.700  10.984   3.275  1.00  0.00     0.177 C 
ATOM    103  O   UNL     1       3.298  12.121   2.646  1.00  0.00    -0.379 OA
ENDBRANCH  96  98
ENDBRANCH  87  94
ENDBRANCH  84  86
ENDBRANCH  83  84
ENDBRANCH  82  83
ENDBRANCH  81  82
ENDBRANCH  80  81
ENDBRANCH  79  80
ENDBRANCH  78  79
ENDBRANCH  77  78
ENDBRANCH   1  77
TORSDOF 25
