REMARK SMILES O=C(OCCOCCOCCOCCOC(=O)c1ccc2c(=O)n(CCC[NH+]3CCOCC3)c(=O)[nH]c2c1)c1ccc(-c2c3nc(c(-c4c(F)cc(S(=O)(=O)[O-])cc4F)c4ccc([nH]4)c(-c4c(F)cc(S(=O)(=O)[O-])cc4F)c4nc(c(-c5c(F)cc(S(=O)(=O)[O-])cc5F)c5ccc2[nH]5)C=C4)C=C3)cc1
REMARK SMILES IDX 10 1 9 2 8 3 7 4 6 5 5 6 4 7 3 8 2 9 1 10 39 11 40 12 104 13
REMARK SMILES IDX 41 14 103 15 42 16 43 17 44 18 97 19 45 20 102 21 96 22
REMARK SMILES IDX 98 23 46 24 101 25 95 26 94 27 47 29 81 30 60 31 80 32 61 33
REMARK SMILES IDX 64 34 79 35 99 36 62 37 63 38 78 40 100 41 65 42 48 43 49 44
REMARK SMILES IDX 58 45 50 46 51 47 57 48 59 49 52 50 53 51 54 52 55 53 56 54
REMARK SMILES IDX 82 55 83 56 92 57 84 58 85 59 91 60 93 61 86 62 87 63 88 64
REMARK SMILES IDX 89 65 90 66 66 67 67 68 76 69 68 70 69 71 75 72 77 73 70 74
REMARK SMILES IDX 71 75 72 76 73 77 74 78 11 79 12 80 13 81 14 82 15 83 16 84
REMARK SMILES IDX 17 85 18 86 19 87 38 88 20 89 37 90 21 91 36 92 22 93 34 94
REMARK SMILES IDX 23 96 24 97 35 98 25 99 26 100 27 101 28 102 29 103 33 104
REMARK SMILES IDX 30 106 32 107 31 108
REMARK H PARENT 98 28 64 39 36 95 28 105
REMARK Flexibility Score: inf
ROOT
ATOM      1  C   UNL     1       3.896  -3.622  -1.082  1.00  0.00     0.188 C 
ENDROOT
BRANCH   1   2
ATOM      2  O   UNL     1       2.476  -3.612  -1.038  1.00  0.00    -0.377 OA
BRANCH   2   3
ATOM      3  C   UNL     1       1.838  -2.341  -1.110  1.00  0.00     0.188 C 
BRANCH   3   4
ATOM      4  C   UNL     1       2.395  -1.252  -0.189  1.00  0.00     0.188 C 
BRANCH   4   5
ATOM      5  O   UNL     1       3.721  -0.842  -0.529  1.00  0.00    -0.376 OA
BRANCH   5   6
ATOM      6  C   UNL     1       4.673  -0.820   0.529  1.00  0.00     0.202 C 
BRANCH   6   7
ATOM      7  C   UNL     1       4.536   0.309   1.544  1.00  0.00     0.261 C 
BRANCH   7   8
ATOM      8  O   UNL     1       3.233   0.894   1.641  1.00  0.00    -0.460 OA
BRANCH   8   9
ATOM      9  C   UNL     1       2.582   1.746   0.817  1.00  0.00     0.338 C 
ATOM     10  O   UNL     1       1.452   2.095   1.165  1.00  0.00    -0.246 OA
BRANCH   9  11
ATOM     11  C   UNL     1       3.073   2.227  -0.521  1.00  0.00     0.060 A 
ATOM     12  C   UNL     1       2.186   3.048  -1.246  1.00  0.00     0.016 A 
ATOM     13  C   UNL     1       4.284   1.896  -1.132  1.00  0.00     0.016 A 
ATOM     14  C   UNL     1       2.486   3.492  -2.537  1.00  0.00     0.010 A 
ATOM     15  C   UNL     1       4.567   2.281  -2.441  1.00  0.00     0.010 A 
ATOM     16  C   UNL     1       3.680   3.098  -3.141  1.00  0.00    -0.014 A 
BRANCH  16  17
ATOM     17  C   UNL     1       4.159   3.712  -4.391  1.00  0.00     0.031 A 
ATOM     18  C   UNL     1       4.076   3.002  -5.702  1.00  0.00     0.074 A 
ATOM     19  C   UNL     1       4.816   4.878  -4.256  1.00  0.00     0.049 A 
ATOM     20  N   UNL     1       4.479   3.406  -6.877  1.00  0.00    -0.248 NA
ATOM     21  C   UNL     1       3.486   1.656  -5.691  1.00  0.00     0.031 C 
ATOM     22  C   UNL     1       5.011   5.580  -2.983  1.00  0.00     0.029 A 
ATOM     23  N   UNL     1       5.467   5.655  -5.171  1.00  0.00    -0.354 N 
ATOM     24  C   UNL     1       4.157   2.384  -7.760  1.00  0.00     0.074 A 
ATOM     25  C   UNL     1       3.592   1.310  -6.968  1.00  0.00     0.031 C 
ATOM     26  C   UNL     1       5.734   6.685  -3.198  1.00  0.00     0.029 A 
ATOM     27  C   UNL     1       6.052   6.766  -4.617  1.00  0.00     0.049 A 
ATOM     28  H   UNL     1       5.512   5.440  -6.130  1.00  0.00     0.167 HD
ATOM     29  C   UNL     1       4.304   2.369  -9.109  1.00  0.00     0.037 A 
ATOM     30  C   UNL     1       6.751   7.754  -5.200  1.00  0.00     0.037 A 
ATOM     31  C   UNL     1       4.942   3.436  -9.845  1.00  0.00     0.049 A 
ATOM     32  C   UNL     1       6.925   7.707  -6.686  1.00  0.00     0.074 A 
ATOM     33  C   UNL     1       5.135   3.558 -11.210  1.00  0.00     0.029 A 
ATOM     34  N   UNL     1       5.516   4.564  -9.263  1.00  0.00    -0.354 N 
ATOM     35  N   UNL     1       6.529   6.784  -7.532  1.00  0.00    -0.248 NA
ATOM     36  C   UNL     1       7.616   8.842  -7.301  1.00  0.00     0.031 C 
ATOM     37  C   UNL     1       5.866   4.730 -11.446  1.00  0.00     0.029 A 
ATOM     38  C   UNL     1       6.083   5.372 -10.236  1.00  0.00     0.049 A 
ATOM     39  H   UNL     1       5.519   4.759  -8.299  1.00  0.00     0.167 HD
ATOM     40  C   UNL     1       6.908   7.231  -8.788  1.00  0.00     0.074 A 
ATOM     41  C   UNL     1       7.543   8.523  -8.587  1.00  0.00     0.031 C 
ATOM     42  C   UNL     1       6.748   6.634  -9.997  1.00  0.00     0.037 A 
BRANCH  29  43
ATOM     43  C   UNL     1       3.756   1.177  -9.855  1.00  0.00     0.058 A 
ATOM     44  C   UNL     1       2.375   0.908  -9.882  1.00  0.00     0.135 A 
ATOM     45  C   UNL     1       4.596   0.298 -10.559  1.00  0.00     0.135 A 
ATOM     46  F   UNL     1       1.518   1.708  -9.228  1.00  0.00    -0.206 F 
ATOM     47  C   UNL     1       1.856  -0.207 -10.532  1.00  0.00     0.059 A 
ATOM     48  C   UNL     1       4.094  -0.809 -11.245  1.00  0.00     0.059 A 
ATOM     49  F   UNL     1       5.922   0.501 -10.580  1.00  0.00    -0.206 F 
ATOM     50  C   UNL     1       2.724  -1.065 -11.207  1.00  0.00     0.060 A 
BRANCH  50  51
ATOM     51  S   UNL     1       2.030  -2.525 -12.011  1.00  0.00     0.124 S 
ATOM     52  O   UNL     1       1.615  -3.322 -10.860  1.00  0.00    -0.237 OA
ATOM     53  O   UNL     1       0.949  -1.956 -12.809  1.00  0.00    -0.237 OA
ATOM     54  O   UNL     1       3.153  -3.063 -12.773  1.00  0.00    -0.744 OA
ENDBRANCH  50  51
ENDBRANCH  29  43
BRANCH  30  55
ATOM     55  C   UNL     1       7.195   8.899  -4.369  1.00  0.00     0.058 A 
ATOM     56  C   UNL     1       6.492  10.111  -4.418  1.00  0.00     0.135 A 
ATOM     57  C   UNL     1       8.214   8.768  -3.412  1.00  0.00     0.135 A 
ATOM     58  F   UNL     1       5.503  10.275  -5.309  1.00  0.00    -0.206 F 
ATOM     59  C   UNL     1       6.774  11.150  -3.540  1.00  0.00     0.059 A 
ATOM     60  C   UNL     1       8.501   9.787  -2.509  1.00  0.00     0.059 A 
ATOM     61  F   UNL     1       8.891   7.613  -3.304  1.00  0.00    -0.206 F 
ATOM     62  C   UNL     1       7.769  10.973  -2.578  1.00  0.00     0.060 A 
BRANCH  62  63
ATOM     63  S   UNL     1       8.043  12.294  -1.378  1.00  0.00     0.124 S 
ATOM     64  O   UNL     1       8.568  13.358  -2.225  1.00  0.00    -0.237 OA
ATOM     65  O   UNL     1       6.699  12.503  -0.848  1.00  0.00    -0.237 OA
ATOM     66  O   UNL     1       8.995  11.707  -0.440  1.00  0.00    -0.744 OA
ENDBRANCH  62  63
ENDBRANCH  30  55
BRANCH  42  67
ATOM     67  C   UNL     1       7.295   7.381 -11.183  1.00  0.00     0.058 A 
ATOM     68  C   UNL     1       8.677   7.536 -11.376  1.00  0.00     0.135 A 
ATOM     69  C   UNL     1       6.431   7.953 -12.130  1.00  0.00     0.135 A 
ATOM     70  F   UNL     1       9.546   7.016 -10.495  1.00  0.00    -0.206 F 
ATOM     71  C   UNL     1       9.182   8.276 -12.439  1.00  0.00     0.059 A 
ATOM     72  C   UNL     1       6.916   8.666 -13.221  1.00  0.00     0.059 A 
ATOM     73  F   UNL     1       5.101   7.824 -11.999  1.00  0.00    -0.206 F 
ATOM     74  C   UNL     1       8.292   8.841 -13.354  1.00  0.00     0.060 A 
BRANCH  74  75
ATOM     75  S   UNL     1       8.965   9.811 -14.717  1.00  0.00     0.124 S 
ATOM     76  O   UNL     1       9.442  11.002 -14.022  1.00  0.00    -0.237 OA
ATOM     77  O   UNL     1       9.999   8.928 -15.246  1.00  0.00    -0.237 OA
ATOM     78  O   UNL     1       7.813  10.014 -15.592  1.00  0.00    -0.744 OA
ENDBRANCH  74  75
ENDBRANCH  42  67
ENDBRANCH  16  17
ENDBRANCH   9  11
ENDBRANCH   8   9
ENDBRANCH   7   8
ENDBRANCH   6   7
ENDBRANCH   5   6
ENDBRANCH   4   5
ENDBRANCH   3   4
ENDBRANCH   2   3
ENDBRANCH   1   2
BRANCH   1  79
ATOM     79  C   UNL     1       4.625  -2.902  -2.244  1.00  0.00     0.188 C 
BRANCH  79  80
ATOM     80  O   UNL     1       3.761  -2.220  -3.128  1.00  0.00    -0.376 OA
BRANCH  80  81
ATOM     81  C   UNL     1       3.498  -2.854  -4.374  1.00  0.00     0.202 C 
BRANCH  81  82
ATOM     82  C   UNL     1       2.940  -4.292  -4.380  1.00  0.00     0.261 C 
BRANCH  82  83
ATOM     83  O   UNL     1       3.533  -5.232  -3.462  1.00  0.00    -0.460 OA
BRANCH  83  84
ATOM     84  C   UNL     1       4.752  -5.724  -3.757  1.00  0.00     0.338 C 
ATOM     85  O   UNL     1       5.434  -5.489  -4.744  1.00  0.00    -0.246 OA
BRANCH  84  86
ATOM     86  C   UNL     1       5.257  -6.455  -2.577  1.00  0.00     0.062 A 
ATOM     87  C   UNL     1       4.667  -7.668  -2.207  1.00  0.00     0.016 A 
ATOM     88  C   UNL     1       6.315  -5.900  -1.821  1.00  0.00     0.042 A 
ATOM     89  C   UNL     1       5.255  -8.412  -1.190  1.00  0.00     0.017 A 
ATOM     90  C   UNL     1       6.790  -6.583  -0.715  1.00  0.00     0.056 A 
ATOM     91  C   UNL     1       6.346  -7.872  -0.504  1.00  0.00     0.064 A 
ATOM     92  N   UNL     1       7.676  -6.022   0.210  1.00  0.00    -0.307 N 
ATOM     93  C   UNL     1       7.210  -8.692   0.329  1.00  0.00     0.264 A 
ATOM     94  C   UNL     1       8.122  -6.695   1.330  1.00  0.00     0.328 A 
ATOM     95  H   UNL     1       7.997  -5.105   0.055  1.00  0.00     0.171 HD
ATOM     96  O   UNL     1       7.404  -9.840  -0.050  1.00  0.00    -0.268 OA
ATOM     97  N   UNL     1       7.832  -8.052   1.386  1.00  0.00    -0.260 N 
ATOM     98  O   UNL     1       8.770  -6.087   2.180  1.00  0.00    -0.248 OA
BRANCH  97  99
ATOM     99  C   UNL     1       8.444  -8.884   2.421  1.00  0.00     0.137 C 
BRANCH  99 100
ATOM    100  C   UNL     1       7.431  -9.501   3.404  1.00  0.00     0.083 C 
BRANCH 100 101
ATOM    101  C   UNL     1       6.476 -10.555   2.813  1.00  0.00     0.264 C 
BRANCH 101 102
ATOM    102  N   UNL     1       7.165 -11.609   2.068  1.00  0.00    -0.331 N 
ATOM    103  C   UNL     1       6.262 -12.355   1.167  1.00  0.00     0.291 C 
ATOM    104  C   UNL     1       7.926 -12.565   2.878  1.00  0.00     0.291 C 
ATOM    105  H   UNL     1       7.845 -11.081   1.522  1.00  0.00     0.348 HD
ATOM    106  C   UNL     1       5.396 -13.389   1.898  1.00  0.00     0.221 C 
ATOM    107  C   UNL     1       7.026 -13.574   3.601  1.00  0.00     0.221 C 
ATOM    108  O   UNL     1       6.192 -14.291   2.680  1.00  0.00    -0.370 OA
ENDBRANCH 101 102
ENDBRANCH 100 101
ENDBRANCH  99 100
ENDBRANCH  97  99
ENDBRANCH  84  86
ENDBRANCH  83  84
ENDBRANCH  82  83
ENDBRANCH  81  82
ENDBRANCH  80  81
ENDBRANCH  79  80
ENDBRANCH   1  79
TORSDOF 27
