REMARK SMILES Cc1ccccc1O[C@@H](C)C(=O)Oc1ccccc1C(=O)OCCOCCOCCOCCOC(=O)c1ccc(-c2c3nc(c(-c4c(F)cc(S(=O)(=O)[O-])cc4F)c4ccc([nH]4)c(-c4c(F)cc(S(=O)(=O)[O-])cc4F)c4nc(c(-c5c(F)cc(S(=O)(=O)[O-])cc5F)c5ccc2[nH]5)C=C4)C=C3)cc1
REMARK SMILES IDX 27 1 26 2 25 3 24 4 23 5 22 6 20 7 21 8 19 9 14 10 15 11
REMARK SMILES IDX 16 12 18 13 17 14 13 15 11 16 12 17 9 18 10 19 8 20 7 21
REMARK SMILES IDX 1 22 2 23 3 24 4 25 6 26 5 27 28 28 29 29 30 30 31 31 32 32
REMARK SMILES IDX 33 33 34 34 35 35 36 36 37 37 38 38 102 39 39 40 101 41
REMARK SMILES IDX 40 42 41 43 42 44 95 45 43 46 100 47 94 48 96 49 44 50 99 51
REMARK SMILES IDX 93 52 92 53 45 55 79 56 58 57 78 58 59 59 62 60 77 61 97 62
REMARK SMILES IDX 60 63 61 64 76 66 98 67 63 68 46 69 47 70 56 71 48 72 49 73
REMARK SMILES IDX 55 74 57 75 50 76 51 77 52 78 53 79 54 80 80 81 81 82 90 83
REMARK SMILES IDX 82 84 83 85 89 86 91 87 84 88 85 89 86 90 87 91 88 92 64 93
REMARK SMILES IDX 65 94 74 95 66 96 67 97 73 98 75 99 68 100 69 101 70 102
REMARK SMILES IDX 71 103 72 104
REMARK H PARENT 96 54 62 65
REMARK Flexibility Score: inf
ROOT
ATOM      1  C   UNL     1       3.975   2.160  -4.934  1.00  0.00     0.188 C 
ENDROOT
BRANCH   1   2
ATOM      2  C   UNL     1       3.146   2.394  -3.664  1.00  0.00     0.188 C 
BRANCH   2   3
ATOM      3  O   UNL     1       3.626   3.036  -2.493  1.00  0.00    -0.376 OA
BRANCH   3   4
ATOM      4  C   UNL     1       4.904   2.677  -1.996  1.00  0.00     0.202 C 
BRANCH   4   5
ATOM      5  C   UNL     1       5.303   1.222  -1.829  1.00  0.00     0.261 C 
BRANCH   5   6
ATOM      6  O   UNL     1       4.476   0.310  -2.481  1.00  0.00    -0.460 OA
BRANCH   6   7
ATOM      7  C   UNL     1       4.431  -0.932  -1.996  1.00  0.00     0.342 C 
ATOM      8  O   UNL     1       4.980  -1.483  -1.066  1.00  0.00    -0.246 OA
BRANCH   7   9
ATOM      9  C   UNL     1       3.460  -1.501  -2.893  1.00  0.00     0.102 A 
ATOM     10  C   UNL     1       2.138  -1.055  -2.766  1.00  0.00     0.145 A 
ATOM     11  C   UNL     1       1.223  -1.418  -3.737  1.00  0.00     0.048 A 
ATOM     12  C   UNL     1       1.672  -2.171  -4.844  1.00  0.00     0.004 A 
ATOM     13  C   UNL     1       3.929  -2.201  -4.005  1.00  0.00     0.019 A 
ATOM     14  C   UNL     1       3.019  -2.538  -4.992  1.00  0.00     0.001 A 
BRANCH  10  15
ATOM     15  O   UNL     1       1.883  -0.172  -1.661  1.00  0.00    -0.423 OA
BRANCH  15  16
ATOM     16  C   UNL     1       1.153   1.028  -1.672  1.00  0.00     0.352 C 
ATOM     17  O   UNL     1       0.435   1.369  -2.614  1.00  0.00    -0.247 OA
BRANCH  16  18
ATOM     18  C   UNL     1       1.291   1.872  -0.336  1.00  0.00     0.280 C 
ATOM     19  C   UNL     1       2.629   2.014   0.390  1.00  0.00     0.066 C 
BRANCH  18  20
ATOM     20  O   UNL     1       0.344   1.669   0.714  1.00  0.00    -0.479 OA
BRANCH  20  21
ATOM     21  C   UNL     1      -0.351   0.506   0.574  1.00  0.00     0.123 A 
ATOM     22  C   UNL     1       1.626  -1.093   1.069  1.00  0.00     0.048 C 
ATOM     23  C   UNL     1       0.212  -0.779   0.652  1.00  0.00    -0.009 A 
ATOM     24  C   UNL     1      -0.620  -1.864   0.349  1.00  0.00     0.007 A 
ATOM     25  C   UNL     1      -1.963  -1.675   0.018  1.00  0.00     0.001 A 
ATOM     26  C   UNL     1      -1.704   0.695   0.286  1.00  0.00     0.047 A 
ATOM     27  C   UNL     1      -2.512  -0.397   0.004  1.00  0.00     0.004 A 
ENDBRANCH  20  21
ENDBRANCH  18  20
ENDBRANCH  16  18
ENDBRANCH  15  16
ENDBRANCH  10  15
ENDBRANCH   7   9
ENDBRANCH   6   7
ENDBRANCH   5   6
ENDBRANCH   4   5
ENDBRANCH   3   4
ENDBRANCH   2   3
ENDBRANCH   1   2
BRANCH   1  28
ATOM     28  O   UNL     1       5.328   1.840  -4.702  1.00  0.00    -0.377 OA
BRANCH  28  29
ATOM     29  C   UNL     1       6.307   2.744  -5.213  1.00  0.00     0.188 C 
BRANCH  29  30
ATOM     30  C   UNL     1       5.959   4.238  -5.315  1.00  0.00     0.188 C 
BRANCH  30  31
ATOM     31  O   UNL     1       5.130   4.683  -4.248  1.00  0.00    -0.376 OA
BRANCH  31  32
ATOM     32  C   UNL     1       4.039   5.529  -4.598  1.00  0.00     0.202 C 
BRANCH  32  33
ATOM     33  C   UNL     1       4.482   6.859  -5.202  1.00  0.00     0.261 C 
BRANCH  33  34
ATOM     34  O   UNL     1       5.125   7.650  -4.186  1.00  0.00    -0.460 OA
BRANCH  34  35
ATOM     35  C   UNL     1       6.488   7.624  -4.242  1.00  0.00     0.338 C 
ATOM     36  O   UNL     1       7.134   8.129  -5.143  1.00  0.00    -0.246 OA
BRANCH  35  37
ATOM     37  C   UNL     1       7.039   6.831  -3.102  1.00  0.00     0.060 A 
ATOM     38  C   UNL     1       8.343   6.319  -3.144  1.00  0.00     0.016 A 
ATOM     39  C   UNL     1       6.194   6.416  -2.084  1.00  0.00     0.016 A 
ATOM     40  C   UNL     1       8.737   5.261  -2.292  1.00  0.00     0.010 A 
ATOM     41  C   UNL     1       6.586   5.373  -1.260  1.00  0.00     0.010 A 
ATOM     42  C   UNL     1       7.830   4.717  -1.386  1.00  0.00    -0.014 A 
BRANCH  42  43
ATOM     43  C   UNL     1       7.965   3.434  -0.631  1.00  0.00     0.031 A 
ATOM     44  C   UNL     1       7.327   3.366   0.739  1.00  0.00     0.074 A 
ATOM     45  C   UNL     1       8.312   2.249  -1.220  1.00  0.00     0.049 A 
ATOM     46  N   UNL     1       6.841   2.289   1.240  1.00  0.00    -0.248 NA
ATOM     47  C   UNL     1       7.061   4.507   1.615  1.00  0.00     0.031 C 
ATOM     48  C   UNL     1       7.920   0.917  -0.733  1.00  0.00     0.029 A 
ATOM     49  N   UNL     1       8.922   1.911  -2.424  1.00  0.00    -0.354 N 
ATOM     50  C   UNL     1       6.152   2.535   2.390  1.00  0.00     0.074 A 
ATOM     51  C   UNL     1       6.262   3.963   2.553  1.00  0.00     0.031 C 
ATOM     52  C   UNL     1       8.229  -0.060  -1.593  1.00  0.00     0.029 A 
ATOM     53  C   UNL     1       9.192   0.521  -2.471  1.00  0.00     0.049 A 
ATOM     54  H   UNL     1       9.136   2.549  -3.142  1.00  0.00     0.167 HD
ATOM     55  C   UNL     1       5.562   1.462   2.995  1.00  0.00     0.037 A 
ATOM     56  C   UNL     1      10.470   0.028  -2.456  1.00  0.00     0.037 A 
ATOM     57  C   UNL     1       6.193   0.208   2.533  1.00  0.00     0.049 A 
ATOM     58  C   UNL     1      10.766  -0.653  -1.110  1.00  0.00     0.074 A 
ATOM     59  C   UNL     1       5.765  -0.922   1.863  1.00  0.00     0.029 A 
ATOM     60  N   UNL     1       7.587   0.085   2.630  1.00  0.00    -0.354 N 
ATOM     61  N   UNL     1      10.224  -0.265   0.026  1.00  0.00    -0.248 NA
ATOM     62  C   UNL     1      11.434  -1.950  -0.969  1.00  0.00     0.031 C 
ATOM     63  C   UNL     1       6.920  -1.676   1.482  1.00  0.00     0.029 A 
ATOM     64  C   UNL     1       8.056  -1.024   1.948  1.00  0.00     0.049 A 
ATOM     65  H   UNL     1       8.163   0.713   3.123  1.00  0.00     0.167 HD
ATOM     66  C   UNL     1      10.266  -1.294   0.933  1.00  0.00     0.074 A 
ATOM     67  C   UNL     1      11.120  -2.289   0.298  1.00  0.00     0.031 C 
ATOM     68  C   UNL     1       9.457  -1.431   2.035  1.00  0.00     0.037 A 
BRANCH  55  69
ATOM     69  C   UNL     1       4.391   1.489   3.969  1.00  0.00     0.058 A 
ATOM     70  C   UNL     1       3.889   0.288   4.530  1.00  0.00     0.135 A 
ATOM     71  C   UNL     1       3.634   2.635   4.296  1.00  0.00     0.135 A 
ATOM     72  F   UNL     1       4.473  -0.894   4.290  1.00  0.00    -0.206 F 
ATOM     73  C   UNL     1       2.752   0.231   5.346  1.00  0.00     0.059 A 
ATOM     74  C   UNL     1       2.514   2.608   5.141  1.00  0.00     0.059 A 
ATOM     75  F   UNL     1       3.914   3.835   3.774  1.00  0.00    -0.206 F 
ATOM     76  C   UNL     1       2.072   1.399   5.657  1.00  0.00     0.060 A 
BRANCH  76  77
ATOM     77  S   UNL     1       0.627   1.310   6.736  1.00  0.00     0.124 S 
ATOM     78  O   UNL     1      -0.306   0.519   5.942  1.00  0.00    -0.237 OA
ATOM     79  O   UNL     1       1.166   0.650   7.921  1.00  0.00    -0.237 OA
ATOM     80  O   UNL     1       0.255   2.710   6.925  1.00  0.00    -0.744 OA
ENDBRANCH  76  77
ENDBRANCH  55  69
BRANCH  56  81
ATOM     81  C   UNL     1      11.307   0.785  -3.432  1.00  0.00     0.058 A 
ATOM     82  C   UNL     1      10.953   0.554  -4.785  1.00  0.00     0.135 A 
ATOM     83  C   UNL     1      11.734   2.081  -3.099  1.00  0.00     0.135 A 
ATOM     84  F   UNL     1      10.561  -0.673  -5.172  1.00  0.00    -0.206 F 
ATOM     85  C   UNL     1      10.760   1.603  -5.682  1.00  0.00     0.059 A 
ATOM     86  C   UNL     1      11.554   3.147  -3.990  1.00  0.00     0.059 A 
ATOM     87  F   UNL     1      12.082   2.367  -1.835  1.00  0.00    -0.206 F 
ATOM     88  C   UNL     1      10.994   2.905  -5.249  1.00  0.00     0.060 A 
BRANCH  88  89
ATOM     89  S   UNL     1      10.337   4.263  -6.254  1.00  0.00     0.124 S 
ATOM     90  O   UNL     1      11.210   4.231  -7.419  1.00  0.00    -0.237 OA
ATOM     91  O   UNL     1       8.959   3.830  -6.480  1.00  0.00    -0.237 OA
ATOM     92  O   UNL     1      10.485   5.421  -5.382  1.00  0.00    -0.744 OA
ENDBRANCH  88  89
ENDBRANCH  56  81
BRANCH  68  93
ATOM     93  C   UNL     1       9.931  -2.033   3.344  1.00  0.00     0.058 A 
ATOM     94  C   UNL     1      11.284  -2.272   3.630  1.00  0.00     0.135 A 
ATOM     95  C   UNL     1       9.043  -2.173   4.447  1.00  0.00     0.135 A 
ATOM     96  F   UNL     1      12.239  -2.108   2.704  1.00  0.00    -0.206 F 
ATOM     97  C   UNL     1      11.722  -2.646   4.899  1.00  0.00     0.059 A 
ATOM     98  C   UNL     1       9.467  -2.490   5.731  1.00  0.00     0.059 A 
ATOM     99  F   UNL     1       7.723  -1.970   4.334  1.00  0.00    -0.206 F 
ATOM    100  C   UNL     1      10.809  -2.743   5.944  1.00  0.00     0.060 A 
BRANCH 100 101
ATOM    101  S   UNL     1      11.405  -3.166   7.585  1.00  0.00     0.124 S 
ATOM    102  O   UNL     1      11.603  -4.606   7.455  1.00  0.00    -0.237 OA
ATOM    103  O   UNL     1      12.623  -2.368   7.691  1.00  0.00    -0.237 OA
ATOM    104  O   UNL     1      10.316  -2.754   8.463  1.00  0.00    -0.744 OA
ENDBRANCH 100 101
ENDBRANCH  68  93
ENDBRANCH  42  43
ENDBRANCH  35  37
ENDBRANCH  34  35
ENDBRANCH  33  34
ENDBRANCH  32  33
ENDBRANCH  31  32
ENDBRANCH  30  31
ENDBRANCH  29  30
ENDBRANCH  28  29
ENDBRANCH   1  28
TORSDOF 28
