REMARK SMILES CCCN1C(=O)CO[C@H](C(=O)OCCOCCOCCOCCOC(=O)c2ccc(-c3c4nc(c(-c5c(F)cc(S(=O)(=O)[O-])cc5F)c5ccc([nH]5)c(-c5c(F)cc(S(=O)(=O)[O-])cc5F)c5nc(c(-c6c(F)cc(S(=O)(=O)[O-])cc6F)c6ccc3[nH]6)C=C5)C=C4)cc2)[C@@H]1c1cncn1C1CC1
REMARK SMILES IDX 19 1 18 2 17 3 16 4 15 5 14 6 13 7 12 8 10 9 11 10 9 11 4 12
REMARK SMILES IDX 5 13 93 14 6 15 7 16 8 17 3 18 2 19 1 20 94 21 95 22 98 23
REMARK SMILES IDX 96 24 97 25 99 26 100 27 101 28 20 29 21 30 22 31 23 32
REMARK SMILES IDX 24 33 25 34 26 35 27 36 28 37 92 38 29 39 91 40 30 41 31 42
REMARK SMILES IDX 32 43 85 44 33 45 90 46 84 47 86 48 34 49 89 50 83 51 82 52
REMARK SMILES IDX 35 54 69 55 48 56 68 57 49 58 52 59 67 60 87 61 50 62 51 63
REMARK SMILES IDX 66 65 88 66 53 67 36 68 37 69 46 70 38 71 39 72 45 73 47 74
REMARK SMILES IDX 40 75 41 76 42 77 43 78 44 79 70 80 71 81 80 82 72 83 73 84
REMARK SMILES IDX 79 85 81 86 74 87 75 88 76 89 77 90 78 91 54 92 55 93 64 94
REMARK SMILES IDX 56 95 57 96 63 97 65 98 58 99 59 100 60 101 61 102 62 103
REMARK H PARENT 86 53 52 64
REMARK Flexibility Score: inf
ROOT
ATOM      1  C   UNL     1       2.070   2.236   8.921  1.00  0.00     0.188 C 
ENDROOT
BRANCH   1   2
ATOM      2  O   UNL     1       1.469   1.473   7.884  1.00  0.00    -0.377 OA
BRANCH   2   3
ATOM      3  C   UNL     1       0.186   1.877   7.463  1.00  0.00     0.188 C 
BRANCH   3   4
ATOM      4  C   UNL     1      -0.962   1.029   8.036  1.00  0.00     0.188 C 
BRANCH   4   5
ATOM      5  O   UNL     1      -0.816   0.263   9.226  1.00  0.00    -0.376 OA
BRANCH   5   6
ATOM      6  C   UNL     1       0.314  -0.567   9.466  1.00  0.00     0.202 C 
BRANCH   6   7
ATOM      7  C   UNL     1       0.896  -1.506   8.403  1.00  0.00     0.261 C 
BRANCH   7   8
ATOM      8  O   UNL     1       0.913  -0.969   7.083  1.00  0.00    -0.461 OA
BRANCH   8   9
ATOM      9  C   UNL     1      -0.008  -1.461   6.231  1.00  0.00     0.337 C 
ATOM     10  O   UNL     1      -0.800  -2.364   6.480  1.00  0.00    -0.249 OA
BRANCH   9  11
ATOM     11  C   UNL     1       0.013  -0.749   4.881  1.00  0.00     0.257 C 
ATOM     12  N   UNL     1       0.344  -1.121   2.455  1.00  0.00    -0.329 N 
ATOM     13  C   UNL     1      -0.242   0.153   2.374  1.00  0.00     0.249 C 
ATOM     14  C   UNL     1       0.633  -1.651   3.799  1.00  0.00     0.174 C 
ATOM     15  O   UNL     1      -0.990   0.532   1.476  1.00  0.00    -0.272 OA
ATOM     16  C   UNL     1       0.110   1.118   3.526  1.00  0.00     0.261 C 
ATOM     17  O   UNL     1       0.603   0.530   4.719  1.00  0.00    -0.354 OA
BRANCH  12  18
ATOM     18  C   UNL     1       0.295  -2.099   1.365  1.00  0.00     0.120 C 
BRANCH  18  19
ATOM     19  C   UNL     1      -0.140  -1.660  -0.039  1.00  0.00     0.018 C 
ATOM     20  C   UNL     1       0.721  -0.604  -0.718  1.00  0.00     0.006 C 
ENDBRANCH  18  19
ENDBRANCH  12  18
BRANCH  14  21
ATOM     21  C   UNL     1       2.055  -2.050   4.133  1.00  0.00     0.064 A 
ATOM     22  C   UNL     1       2.329  -3.044   5.082  1.00  0.00     0.136 A 
ATOM     23  N   UNL     1       3.327  -1.607   3.802  1.00  0.00    -0.330 N 
ATOM     24  N   UNL     1       3.639  -3.119   5.417  1.00  0.00    -0.245 NA
ATOM     25  C   UNL     1       4.215  -2.232   4.650  1.00  0.00     0.199 A 
BRANCH  23  26
ATOM     26  C   UNL     1       3.900  -0.782   2.760  1.00  0.00     0.088 C 
ATOM     27  C   UNL     1       3.237  -0.140   1.585  1.00  0.00     0.027 C 
ATOM     28  C   UNL     1       3.747   0.719   2.695  1.00  0.00     0.027 C 
ENDBRANCH  23  26
ENDBRANCH  14  21
ENDBRANCH   9  11
ENDBRANCH   8   9
ENDBRANCH   7   8
ENDBRANCH   6   7
ENDBRANCH   5   6
ENDBRANCH   4   5
ENDBRANCH   3   4
ENDBRANCH   2   3
ENDBRANCH   1   2
BRANCH   1  29
ATOM     29  C   UNL     1       1.159   2.789  10.041  1.00  0.00     0.188 C 
BRANCH  29  30
ATOM     30  O   UNL     1      -0.014   3.450   9.584  1.00  0.00    -0.376 OA
BRANCH  30  31
ATOM     31  C   UNL     1      -0.005   4.864   9.471  1.00  0.00     0.202 C 
BRANCH  31  32
ATOM     32  C   UNL     1       0.975   5.516   8.479  1.00  0.00     0.261 C 
BRANCH  32  33
ATOM     33  O   UNL     1       2.368   5.217   8.656  1.00  0.00    -0.460 OA
BRANCH  33  34
ATOM     34  C   UNL     1       2.930   5.513   9.845  1.00  0.00     0.338 C 
ATOM     35  O   UNL     1       2.394   6.074  10.788  1.00  0.00    -0.246 OA
BRANCH  34  36
ATOM     36  C   UNL     1       4.252   4.855   9.897  1.00  0.00     0.060 A 
ATOM     37  C   UNL     1       4.506   3.919  10.908  1.00  0.00     0.016 A 
ATOM     38  C   UNL     1       5.235   5.159   8.952  1.00  0.00     0.016 A 
ATOM     39  C   UNL     1       5.759   3.316  11.005  1.00  0.00     0.010 A 
ATOM     40  C   UNL     1       6.498   4.573   9.065  1.00  0.00     0.010 A 
ATOM     41  C   UNL     1       6.777   3.681  10.116  1.00  0.00    -0.014 A 
BRANCH  41  42
ATOM     42  C   UNL     1       8.180   3.306  10.416  1.00  0.00     0.031 A 
ATOM     43  C   UNL     1       9.058   4.329  11.085  1.00  0.00     0.074 A 
ATOM     44  C   UNL     1       8.661   2.085  10.126  1.00  0.00     0.049 A 
ATOM     45  N   UNL     1      10.328   4.266  11.389  1.00  0.00    -0.248 NA
ATOM     46  C   UNL     1       8.412   5.599  11.456  1.00  0.00     0.031 C 
ATOM     47  C   UNL     1       7.897   0.998   9.517  1.00  0.00     0.029 A 
ATOM     48  N   UNL     1       9.919   1.562  10.293  1.00  0.00    -0.354 N 
ATOM     49  C   UNL     1      10.634   5.486  11.981  1.00  0.00     0.074 A 
ATOM     50  C   UNL     1       9.429   6.284  11.955  1.00  0.00     0.031 C 
ATOM     51  C   UNL     1       8.711  -0.057   9.337  1.00  0.00     0.029 A 
ATOM     52  C   UNL     1      10.059   0.293   9.785  1.00  0.00     0.049 A 
ATOM     53  H   UNL     1      10.652   2.050  10.734  1.00  0.00     0.167 HD
ATOM     54  C   UNL     1      11.811   5.899  12.509  1.00  0.00     0.037 A 
ATOM     55  C   UNL     1      11.156  -0.482   9.666  1.00  0.00     0.037 A 
ATOM     56  C   UNL     1      13.009   5.102  12.517  1.00  0.00     0.049 A 
ATOM     57  C   UNL     1      12.477   0.024  10.189  1.00  0.00     0.074 A 
ATOM     58  C   UNL     1      14.254   5.425  13.027  1.00  0.00     0.029 A 
ATOM     59  N   UNL     1      13.117   3.828  11.977  1.00  0.00    -0.354 N 
ATOM     60  N   UNL     1      12.754   1.172  10.762  1.00  0.00    -0.248 NA
ATOM     61  C   UNL     1      13.634  -0.873  10.056  1.00  0.00     0.031 C 
ATOM     62  C   UNL     1      15.129   4.370  12.743  1.00  0.00     0.029 A 
ATOM     63  C   UNL     1      14.413   3.361  12.117  1.00  0.00     0.049 A 
ATOM     64  H   UNL     1      12.380   3.329  11.556  1.00  0.00     0.167 HD
ATOM     65  C   UNL     1      14.108   1.125  11.081  1.00  0.00     0.074 A 
ATOM     66  C   UNL     1      14.591  -0.170  10.648  1.00  0.00     0.031 C 
ATOM     67  C   UNL     1      14.881   2.066  11.681  1.00  0.00     0.037 A 
BRANCH  54  68
ATOM     68  C   UNL     1      11.858   7.288  13.088  1.00  0.00     0.058 A 
ATOM     69  C   UNL     1      11.157   7.630  14.257  1.00  0.00     0.135 A 
ATOM     70  C   UNL     1      12.613   8.294  12.464  1.00  0.00     0.135 A 
ATOM     71  F   UNL     1      10.403   6.714  14.886  1.00  0.00    -0.206 F 
ATOM     72  C   UNL     1      11.170   8.926  14.762  1.00  0.00     0.059 A 
ATOM     73  C   UNL     1      12.668   9.590  12.970  1.00  0.00     0.059 A 
ATOM     74  F   UNL     1      13.301   8.027  11.343  1.00  0.00    -0.206 F 
ATOM     75  C   UNL     1      11.926   9.900  14.109  1.00  0.00     0.060 A 
BRANCH  75  76
ATOM     76  S   UNL     1      11.916  11.582  14.765  1.00  0.00     0.124 S 
ATOM     77  O   UNL     1      10.564  12.017  14.426  1.00  0.00    -0.237 OA
ATOM     78  O   UNL     1      12.174  11.364  16.184  1.00  0.00    -0.237 OA
ATOM     79  O   UNL     1      12.989  12.242  14.028  1.00  0.00    -0.744 OA
ENDBRANCH  75  76
ENDBRANCH  54  68
BRANCH  55  80
ATOM     80  C   UNL     1      11.051  -1.808   8.999  1.00  0.00     0.058 A 
ATOM     81  C   UNL     1      11.200  -3.003   9.716  1.00  0.00     0.135 A 
ATOM     82  C   UNL     1      10.778  -1.903   7.624  1.00  0.00     0.135 A 
ATOM     83  F   UNL     1      11.476  -2.968  11.029  1.00  0.00    -0.206 F 
ATOM     84  C   UNL     1      11.088  -4.245   9.097  1.00  0.00     0.059 A 
ATOM     85  C   UNL     1      10.634  -3.131   6.988  1.00  0.00     0.059 A 
ATOM     86  F   UNL     1      10.620  -0.789   6.891  1.00  0.00    -0.206 F 
ATOM     87  C   UNL     1      10.797  -4.298   7.732  1.00  0.00     0.060 A 
BRANCH  87  88
ATOM     88  S   UNL     1      10.592  -5.913   6.951  1.00  0.00     0.124 S 
ATOM     89  O   UNL     1      11.962  -6.415   6.949  1.00  0.00    -0.237 OA
ATOM     90  O   UNL     1       9.670  -6.579   7.865  1.00  0.00    -0.237 OA
ATOM     91  O   UNL     1      10.040  -5.585   5.640  1.00  0.00    -0.744 OA
ENDBRANCH  87  88
ENDBRANCH  55  80
BRANCH  67  92
ATOM     92  C   UNL     1      16.325   1.723  11.944  1.00  0.00     0.058 A 
ATOM     93  C   UNL     1      17.266   1.624  10.907  1.00  0.00     0.135 A 
ATOM     94  C   UNL     1      16.784   1.552  13.261  1.00  0.00     0.135 A 
ATOM     95  F   UNL     1      16.883   1.774   9.629  1.00  0.00    -0.206 F 
ATOM     96  C   UNL     1      18.605   1.342  11.164  1.00  0.00     0.059 A 
ATOM     97  C   UNL     1      18.124   1.302  13.543  1.00  0.00     0.059 A 
ATOM     98  F   UNL     1      15.931   1.649  14.293  1.00  0.00    -0.206 F 
ATOM     99  C   UNL     1      19.025   1.187  12.487  1.00  0.00     0.060 A 
BRANCH  99 100
ATOM    100  S   UNL     1      20.771   0.856  12.807  1.00  0.00     0.124 S 
ATOM    101  O   UNL     1      20.901  -0.519  12.336  1.00  0.00    -0.237 OA
ATOM    102  O   UNL     1      21.434   1.870  11.994  1.00  0.00    -0.237 OA
ATOM    103  O   UNL     1      20.894   1.038  14.250  1.00  0.00    -0.744 OA
ENDBRANCH  99 100
ENDBRANCH  67  92
ENDBRANCH  41  42
ENDBRANCH  34  36
ENDBRANCH  33  34
ENDBRANCH  32  33
ENDBRANCH  31  32
ENDBRANCH  30  31
ENDBRANCH  29  30
ENDBRANCH   1  29
TORSDOF 27
