REMARK SMILES CCC1(C(=O)NCCc2ccc(C(=O)OCCOCCOCCOCCOC(=O)c3ccc(-c4c5nc(c(-c6c(F)cc(S(=O)(=O)[O-])cc6F)c6ccc([nH]6)c(-c6c(F)cc(S(=O)(=O)[O-])cc6F)c6nc(c(-c7c(F)cc(S(=O)(=O)[O-])cc7F)c7ccc4[nH]7)C=C6)C=C5)cc3)cc2)CCCC1
REMARK SMILES IDX 20 1 19 2 18 3 17 4 16 5 15 6 13 7 14 8 12 9 9 10 10 11
REMARK SMILES IDX 97 12 11 13 96 14 8 15 7 16 6 17 4 18 5 19 3 21 98 22 101 23
REMARK SMILES IDX 99 24 100 25 2 26 1 27 21 28 22 29 23 30 24 31 25 32 26 33
REMARK SMILES IDX 27 34 28 35 29 36 30 37 31 38 95 39 32 40 94 41 33 42 34 43
REMARK SMILES IDX 35 44 88 45 36 46 93 47 87 48 89 49 37 50 92 51 86 52 85 53
REMARK SMILES IDX 38 55 72 56 51 57 71 58 52 59 55 60 70 61 90 62 53 63 54 64
REMARK SMILES IDX 69 66 91 67 56 68 39 69 40 70 49 71 41 72 42 73 48 74 50 75
REMARK SMILES IDX 43 76 44 77 45 78 46 79 47 80 73 81 74 82 83 83 75 84 76 85
REMARK SMILES IDX 82 86 84 87 77 88 78 89 79 90 80 91 81 92 57 93 58 94 67 95
REMARK SMILES IDX 59 96 60 97 66 98 68 99 61 100 62 101 63 102 64 103 65 104
REMARK H PARENT 6 20 89 54 55 65
REMARK Flexibility Score: inf
ROOT
ATOM      1  C   UNL     1       9.593   4.944  -1.787  1.00  0.00     0.188 C 
ENDROOT
BRANCH   1   2
ATOM      2  C   UNL     1      10.061   3.927  -2.850  1.00  0.00     0.188 C 
BRANCH   2   3
ATOM      3  O   UNL     1      11.336   4.206  -3.401  1.00  0.00    -0.376 OA
BRANCH   3   4
ATOM      4  C   UNL     1      11.428   4.628  -4.751  1.00  0.00     0.202 C 
BRANCH   4   5
ATOM      5  C   UNL     1      10.742   5.937  -5.178  1.00  0.00     0.261 C 
BRANCH   5   6
ATOM      6  O   UNL     1       9.424   6.134  -4.661  1.00  0.00    -0.460 OA
BRANCH   6   7
ATOM      7  C   UNL     1       8.445   5.439  -5.272  1.00  0.00     0.338 C 
ATOM      8  O   UNL     1       8.557   4.713  -6.246  1.00  0.00    -0.246 OA
BRANCH   7   9
ATOM      9  C   UNL     1       7.255   5.460  -4.400  1.00  0.00     0.060 A 
ATOM     10  C   UNL     1       4.984   5.311  -2.771  1.00  0.00    -0.046 A 
ATOM     11  C   UNL     1       5.572   4.148  -3.286  1.00  0.00     0.004 A 
ATOM     12  C   UNL     1       5.624   6.543  -2.987  1.00  0.00     0.004 A 
ATOM     13  C   UNL     1       6.673   4.223  -4.124  1.00  0.00     0.016 A 
ATOM     14  C   UNL     1       6.765   6.620  -3.794  1.00  0.00     0.016 A 
BRANCH  10  15
ATOM     15  C   UNL     1       3.659   5.275  -2.039  1.00  0.00     0.056 C 
BRANCH  15  16
ATOM     16  C   UNL     1       2.771   4.084  -2.435  1.00  0.00     0.120 C 
BRANCH  16  17
ATOM     17  N   UNL     1       3.004   2.945  -1.569  1.00  0.00    -0.355 N 
ATOM     18  C   UNL     1       2.256   2.305  -0.647  1.00  0.00     0.226 C 
ATOM     19  O   UNL     1       2.904   1.538   0.075  1.00  0.00    -0.274 OA
ATOM     20  H   UNL     1       3.902   2.555  -1.677  1.00  0.00     0.163 HD
BRANCH  18  21
ATOM     21  C   UNL     1       0.737   2.517  -0.443  1.00  0.00     0.049 C 
ATOM     22  C   UNL     1      -0.108   2.499  -1.730  1.00  0.00     0.017 C 
ATOM     23  C   UNL     1       0.456   3.884   0.212  1.00  0.00     0.017 C 
ATOM     24  C   UNL     1      -0.656   3.904  -1.970  1.00  0.00     0.001 C 
ATOM     25  C   UNL     1      -0.178   4.792  -0.832  1.00  0.00     0.001 C 
BRANCH  21  26
ATOM     26  C   UNL     1       0.237   1.392   0.524  1.00  0.00     0.013 C 
ATOM     27  C   UNL     1       0.397  -0.041   0.008  1.00  0.00     0.005 C 
ENDBRANCH  21  26
ENDBRANCH  18  21
ENDBRANCH  16  17
ENDBRANCH  15  16
ENDBRANCH  10  15
ENDBRANCH   7   9
ENDBRANCH   6   7
ENDBRANCH   5   6
ENDBRANCH   4   5
ENDBRANCH   3   4
ENDBRANCH   2   3
ENDBRANCH   1   2
BRANCH   1  28
ATOM     28  O   UNL     1      10.235   6.207  -1.736  1.00  0.00    -0.377 OA
BRANCH  28  29
ATOM     29  C   UNL     1      11.657   6.276  -1.643  1.00  0.00     0.188 C 
BRANCH  29  30
ATOM     30  C   UNL     1      12.509   5.090  -1.125  1.00  0.00     0.188 C 
BRANCH  30  31
ATOM     31  O   UNL     1      11.769   4.045  -0.515  1.00  0.00    -0.376 OA
BRANCH  31  32
ATOM     32  C   UNL     1      11.866   3.911   0.891  1.00  0.00     0.202 C 
BRANCH  32  33
ATOM     33  C   UNL     1      11.330   5.075   1.736  1.00  0.00     0.261 C 
BRANCH  33  34
ATOM     34  O   UNL     1      11.849   6.377   1.428  1.00  0.00    -0.460 OA
BRANCH  34  35
ATOM     35  C   UNL     1      13.164   6.593   1.649  1.00  0.00     0.338 C 
ATOM     36  O   UNL     1      13.975   5.795   2.093  1.00  0.00    -0.246 OA
BRANCH  35  37
ATOM     37  C   UNL     1      13.501   7.912   1.075  1.00  0.00     0.060 A 
ATOM     38  C   UNL     1      14.442   7.994   0.038  1.00  0.00     0.016 A 
ATOM     39  C   UNL     1      12.868   9.063   1.549  1.00  0.00     0.016 A 
ATOM     40  C   UNL     1      14.778   9.236  -0.502  1.00  0.00     0.010 A 
ATOM     41  C   UNL     1      13.224  10.307   1.023  1.00  0.00     0.010 A 
ATOM     42  C   UNL     1      14.206  10.402   0.021  1.00  0.00    -0.014 A 
BRANCH  42  43
ATOM     43  C   UNL     1      14.783  11.727  -0.314  1.00  0.00     0.031 A 
ATOM     44  C   UNL     1      15.751  12.341   0.662  1.00  0.00     0.074 A 
ATOM     45  C   UNL     1      14.464  12.371  -1.451  1.00  0.00     0.049 A 
ATOM     46  N   UNL     1      16.324  13.515   0.639  1.00  0.00    -0.248 NA
ATOM     47  C   UNL     1      16.115  11.515   1.826  1.00  0.00     0.031 C 
ATOM     48  C   UNL     1      13.574  11.861  -2.492  1.00  0.00     0.029 A 
ATOM     49  N   UNL     1      14.847  13.607  -1.910  1.00  0.00    -0.354 N 
ATOM     50  C   UNL     1      17.105  13.575   1.788  1.00  0.00     0.074 A 
ATOM     51  C   UNL     1      16.908  12.333   2.501  1.00  0.00     0.031 C 
ATOM     52  C   UNL     1      13.466  12.786  -3.463  1.00  0.00     0.029 A 
ATOM     53  C   UNL     1      14.247  13.966  -3.094  1.00  0.00     0.049 A 
ATOM     54  H   UNL     1      15.490  14.182  -1.436  1.00  0.00     0.167 HD
ATOM     55  C   UNL     1      17.918  14.573   2.206  1.00  0.00     0.037 A 
ATOM     56  C   UNL     1      14.302  15.125  -3.782  1.00  0.00     0.037 A 
ATOM     57  C   UNL     1      18.105  15.807   1.491  1.00  0.00     0.049 A 
ATOM     58  C   UNL     1      15.156  16.254  -3.259  1.00  0.00     0.074 A 
ATOM     59  C   UNL     1      18.919  16.877   1.821  1.00  0.00     0.029 A 
ATOM     60  N   UNL     1      17.463  16.143   0.307  1.00  0.00    -0.354 N 
ATOM     61  N   UNL     1      15.907  16.293  -2.183  1.00  0.00    -0.248 NA
ATOM     62  C   UNL     1      15.174  17.496  -4.045  1.00  0.00     0.031 C 
ATOM     63  C   UNL     1      18.722  17.883   0.870  1.00  0.00     0.029 A 
ATOM     64  C   UNL     1      17.840  17.415  -0.091  1.00  0.00     0.049 A 
ATOM     65  H   UNL     1      16.833  15.563  -0.177  1.00  0.00     0.167 HD
ATOM     66  C   UNL     1      16.511  17.547  -2.182  1.00  0.00     0.074 A 
ATOM     67  C   UNL     1      16.045  18.233  -3.369  1.00  0.00     0.031 C 
ATOM     68  C   UNL     1      17.376  18.082  -1.283  1.00  0.00     0.037 A 
BRANCH  55  69
ATOM     69  C   UNL     1      18.639  14.383   3.513  1.00  0.00     0.058 A 
ATOM     70  C   UNL     1      19.677  13.448   3.660  1.00  0.00     0.135 A 
ATOM     71  C   UNL     1      18.303  15.166   4.628  1.00  0.00     0.135 A 
ATOM     72  F   UNL     1      20.027  12.657   2.633  1.00  0.00    -0.206 F 
ATOM     73  C   UNL     1      20.337  13.279   4.873  1.00  0.00     0.059 A 
ATOM     74  C   UNL     1      18.971  15.037   5.842  1.00  0.00     0.059 A 
ATOM     75  F   UNL     1      17.315  16.071   4.546  1.00  0.00    -0.206 F 
ATOM     76  C   UNL     1      19.978  14.081   5.958  1.00  0.00     0.060 A 
BRANCH  76  77
ATOM     77  S   UNL     1      20.850  13.854   7.522  1.00  0.00     0.124 S 
ATOM     78  O   UNL     1      20.340  12.557   7.955  1.00  0.00    -0.237 OA
ATOM     79  O   UNL     1      22.248  13.877   7.104  1.00  0.00    -0.237 OA
ATOM     80  O   UNL     1      20.419  14.996   8.322  1.00  0.00    -0.744 OA
ENDBRANCH  76  77
ENDBRANCH  55  69
BRANCH  56  81
ATOM     81  C   UNL     1      13.514  15.287  -5.035  1.00  0.00     0.058 A 
ATOM     82  C   UNL     1      14.146  15.410  -6.281  1.00  0.00     0.135 A 
ATOM     83  C   UNL     1      12.110  15.331  -5.011  1.00  0.00     0.135 A 
ATOM     84  F   UNL     1      15.486  15.391  -6.358  1.00  0.00    -0.206 F 
ATOM     85  C   UNL     1      13.420  15.583  -7.456  1.00  0.00     0.059 A 
ATOM     86  C   UNL     1      11.361  15.473  -6.175  1.00  0.00     0.059 A 
ATOM     87  F   UNL     1      11.453  15.213  -3.847  1.00  0.00    -0.206 F 
ATOM     88  C   UNL     1      12.025  15.608  -7.392  1.00  0.00     0.060 A 
BRANCH  88  89
ATOM     89  S   UNL     1      11.092  15.779  -8.929  1.00  0.00     0.124 S 
ATOM     90  O   UNL     1      11.365  17.166  -9.287  1.00  0.00    -0.237 OA
ATOM     91  O   UNL     1      11.713  14.765  -9.776  1.00  0.00    -0.237 OA
ATOM     92  O   UNL     1       9.720  15.490  -8.523  1.00  0.00    -0.744 OA
ENDBRANCH  88  89
ENDBRANCH  56  81
BRANCH  68  93
ATOM     93  C   UNL     1      17.919  19.458  -1.565  1.00  0.00     0.058 A 
ATOM     94  C   UNL     1      17.122  20.609  -1.464  1.00  0.00     0.135 A 
ATOM     95  C   UNL     1      19.278  19.631  -1.881  1.00  0.00     0.135 A 
ATOM     96  F   UNL     1      15.816  20.503  -1.169  1.00  0.00    -0.206 F 
ATOM     97  C   UNL     1      17.645  21.879  -1.691  1.00  0.00     0.059 A 
ATOM     98  C   UNL     1      19.830  20.893  -2.079  1.00  0.00     0.059 A 
ATOM     99  F   UNL     1      20.090  18.566  -1.979  1.00  0.00    -0.206 F 
ATOM    100  C   UNL     1      19.002  22.011  -1.993  1.00  0.00     0.060 A 
BRANCH 100 101
ATOM    101  S   UNL     1      19.675  23.666  -2.250  1.00  0.00     0.124 S 
ATOM    102  O   UNL     1      19.094  24.023  -3.540  1.00  0.00    -0.237 OA
ATOM    103  O   UNL     1      19.155  24.395  -1.097  1.00  0.00    -0.237 OA
ATOM    104  O   UNL     1      21.119  23.452  -2.250  1.00  0.00    -0.744 OA
ENDBRANCH 100 101
ENDBRANCH  68  93
ENDBRANCH  42  43
ENDBRANCH  35  37
ENDBRANCH  34  35
ENDBRANCH  33  34
ENDBRANCH  32  33
ENDBRANCH  31  32
ENDBRANCH  30  31
ENDBRANCH  29  30
ENDBRANCH  28  29
ENDBRANCH   1  28
TORSDOF 28
