REMARK SMILES Cn1c(SCC(=O)Nc2ccc(C(=O)OCCOCCOCCOCCOC(=O)c3ccc(-c4c5nc(c(-c6c(F)cc(S(=O)(=O)[O-])cc6F)c6ccc([nH]6)c(-c6c(F)cc(S(=O)(=O)[O-])cc6F)c6nc(c(-c7c(F)cc(S(=O)(=O)[O-])cc7F)c7ccc4[nH]7)C=C6)C=C5)cc3)cc2)nc2ccccc2c1=O
REMARK SMILES IDX 20 1 19 2 18 3 17 4 16 5 15 6 13 7 14 8 12 9 9 10 10 11
REMARK SMILES IDX 97 12 11 13 96 14 8 15 6 16 7 17 5 19 4 20 3 21 1 22 2 23
REMARK SMILES IDX 105 24 98 25 104 26 106 27 99 28 103 29 100 30 102 31 101 32
REMARK SMILES IDX 21 33 22 34 23 35 24 36 25 37 26 38 27 39 28 40 29 41 30 42
REMARK SMILES IDX 31 43 95 44 32 45 94 46 33 47 34 48 35 49 88 50 36 51 93 52
REMARK SMILES IDX 87 53 89 54 37 55 92 56 86 57 85 58 38 60 72 61 51 62 71 63
REMARK SMILES IDX 52 64 55 65 70 66 90 67 53 68 54 69 69 71 91 72 56 73 39 74
REMARK SMILES IDX 40 75 49 76 41 77 42 78 48 79 50 80 43 81 44 82 45 83 46 84
REMARK SMILES IDX 47 85 73 86 74 87 83 88 75 89 76 90 82 91 84 92 77 93 78 94
REMARK SMILES IDX 79 95 80 96 81 97 57 98 58 99 67 100 59 101 60 102 66 103
REMARK SMILES IDX 68 104 61 105 62 106 63 107 64 108 65 109
REMARK H PARENT 8 18 89 59 55 70
REMARK Flexibility Score: inf
ROOT
ATOM      1  C   UNL     1       5.942   4.397  -3.963  1.00  0.00     0.188 C 
ENDROOT
BRANCH   1   2
ATOM      2  C   UNL     1       5.726   5.844  -3.485  1.00  0.00     0.188 C 
BRANCH   2   3
ATOM      3  O   UNL     1       6.727   6.757  -3.914  1.00  0.00    -0.376 OA
BRANCH   3   4
ATOM      4  C   UNL     1       7.527   7.350  -2.899  1.00  0.00     0.202 C 
BRANCH   4   5
ATOM      5  C   UNL     1       8.581   6.430  -2.267  1.00  0.00     0.261 C 
BRANCH   5   6
ATOM      6  O   UNL     1       8.054   5.217  -1.714  1.00  0.00    -0.460 OA
BRANCH   6   7
ATOM      7  C   UNL     1       7.311   5.322  -0.589  1.00  0.00     0.338 C 
ATOM      8  O   UNL     1       7.077   6.336   0.043  1.00  0.00    -0.246 OA
BRANCH   7   9
ATOM      9  C   UNL     1       6.596   4.034  -0.416  1.00  0.00     0.060 A 
ATOM     10  C   UNL     1       5.070   1.691  -0.442  1.00  0.00     0.041 A 
ATOM     11  C   UNL     1       4.471   2.908  -0.118  1.00  0.00     0.027 A 
ATOM     12  C   UNL     1       6.447   1.637  -0.685  1.00  0.00     0.027 A 
ATOM     13  C   UNL     1       5.236   4.076  -0.089  1.00  0.00     0.018 A 
ATOM     14  C   UNL     1       7.207   2.809  -0.702  1.00  0.00     0.018 A 
BRANCH  10  15
ATOM     15  N   UNL     1       4.364   0.486  -0.476  1.00  0.00    -0.325 N 
ATOM     16  C   UNL     1       3.088   0.204  -0.870  1.00  0.00     0.234 C 
ATOM     17  O   UNL     1       2.687  -0.948  -0.677  1.00  0.00    -0.274 OA
ATOM     18  H   UNL     1       4.875  -0.294  -0.162  1.00  0.00     0.169 HD
BRANCH  16  19
ATOM     19  C   UNL     1       2.318   1.145  -1.762  1.00  0.00     0.178 C 
BRANCH  19  20
ATOM     20  S   UNL     1       0.981   2.163  -1.176  1.00  0.00    -0.078 SA
BRANCH  20  21
ATOM     21  C   UNL     1       0.534   1.889   0.484  1.00  0.00     0.171 A 
ATOM     22  C   UNL     1       0.029  -0.564   0.183  1.00  0.00     0.156 C 
ATOM     23  N   UNL     1       0.044   0.677   0.935  1.00  0.00    -0.290 N 
ATOM     24  C   UNL     1      -0.504   0.568   2.216  1.00  0.00     0.261 A 
ATOM     25  N   UNL     1       0.503   2.978   1.188  1.00  0.00    -0.224 NA
ATOM     26  C   UNL     1      -0.685   1.813   2.972  1.00  0.00     0.066 A 
ATOM     27  O   UNL     1      -0.874  -0.490   2.723  1.00  0.00    -0.269 OA
ATOM     28  C   UNL     1      -0.150   2.973   2.427  1.00  0.00     0.079 A 
ATOM     29  C   UNL     1      -1.434   1.839   4.157  1.00  0.00     0.016 A 
ATOM     30  C   UNL     1      -0.372   4.183   3.095  1.00  0.00     0.029 A 
ATOM     31  C   UNL     1      -1.657   3.051   4.807  1.00  0.00     0.001 A 
ATOM     32  C   UNL     1      -1.123   4.224   4.276  1.00  0.00     0.002 A 
ENDBRANCH  20  21
ENDBRANCH  19  20
ENDBRANCH  16  19
ENDBRANCH  10  15
ENDBRANCH   7   9
ENDBRANCH   6   7
ENDBRANCH   5   6
ENDBRANCH   4   5
ENDBRANCH   3   4
ENDBRANCH   2   3
ENDBRANCH   1   2
BRANCH   1  33
ATOM     33  O   UNL     1       7.201   4.056  -4.515  1.00  0.00    -0.377 OA
BRANCH  33  34
ATOM     34  C   UNL     1       7.720   4.817  -5.603  1.00  0.00     0.188 C 
BRANCH  34  35
ATOM     35  C   UNL     1       6.811   5.673  -6.516  1.00  0.00     0.188 C 
BRANCH  35  36
ATOM     36  O   UNL     1       5.427   5.356  -6.454  1.00  0.00    -0.376 OA
BRANCH  36  37
ATOM     37  C   UNL     1       4.868   4.765  -7.617  1.00  0.00     0.202 C 
BRANCH  37  38
ATOM     38  C   UNL     1       5.247   3.294  -7.814  1.00  0.00     0.261 C 
BRANCH  38  39
ATOM     39  O   UNL     1       6.651   3.038  -7.968  1.00  0.00    -0.460 OA
BRANCH  39  40
ATOM     40  C   UNL     1       7.281   3.592  -9.028  1.00  0.00     0.338 C 
ATOM     41  O   UNL     1       6.785   4.286  -9.899  1.00  0.00    -0.246 OA
BRANCH  40  42
ATOM     42  C   UNL     1       8.729   3.364  -8.839  1.00  0.00     0.060 A 
ATOM     43  C   UNL     1       9.206   2.074  -8.594  1.00  0.00     0.016 A 
ATOM     44  C   UNL     1       9.608   4.455  -8.853  1.00  0.00     0.016 A 
ATOM     45  C   UNL     1      10.570   1.872  -8.384  1.00  0.00     0.010 A 
ATOM     46  C   UNL     1      10.974   4.251  -8.634  1.00  0.00     0.010 A 
ATOM     47  C   UNL     1      11.466   2.955  -8.419  1.00  0.00    -0.014 A 
BRANCH  47  48
ATOM     48  C   UNL     1      12.925   2.688  -8.419  1.00  0.00     0.031 A 
ATOM     49  C   UNL     1      13.772   2.861  -7.194  1.00  0.00     0.074 A 
ATOM     50  C   UNL     1      13.477   2.257  -9.570  1.00  0.00     0.049 A 
ATOM     51  N   UNL     1      15.038   2.573  -7.030  1.00  0.00    -0.248 NA
ATOM     52  C   UNL     1      13.124   3.429  -6.003  1.00  0.00     0.031 C 
ATOM     53  C   UNL     1      12.748   2.076 -10.829  1.00  0.00     0.029 A 
ATOM     54  N   UNL     1      14.760   1.881  -9.870  1.00  0.00    -0.354 N 
ATOM     55  C   UNL     1      15.338   2.897  -5.713  1.00  0.00     0.074 A 
ATOM     56  C   UNL     1      14.129   3.449  -5.135  1.00  0.00     0.031 C 
ATOM     57  C   UNL     1      13.590   1.599 -11.758  1.00  0.00     0.029 A 
ATOM     58  C   UNL     1      14.919   1.462 -11.170  1.00  0.00     0.049 A 
ATOM     59  H   UNL     1      15.497   1.909  -9.218  1.00  0.00     0.167 HD
ATOM     60  C   UNL     1      16.509   2.728  -5.050  1.00  0.00     0.037 A 
ATOM     61  C   UNL     1      16.010   1.011 -11.817  1.00  0.00     0.037 A 
ATOM     62  C   UNL     1      17.711   2.191  -5.643  1.00  0.00     0.049 A 
ATOM     63  C   UNL     1      17.306   0.882 -11.068  1.00  0.00     0.074 A 
ATOM     64  C   UNL     1      18.935   1.954  -5.039  1.00  0.00     0.029 A 
ATOM     65  N   UNL     1      17.848   1.817  -6.972  1.00  0.00    -0.354 N 
ATOM     66  N   UNL     1      17.553   1.128  -9.803  1.00  0.00    -0.248 NA
ATOM     67  C   UNL     1      18.470   0.408 -11.829  1.00  0.00     0.031 C 
ATOM     68  C   UNL     1      19.823   1.484  -6.011  1.00  0.00     0.029 A 
ATOM     69  C   UNL     1      19.142   1.378  -7.212  1.00  0.00     0.049 A 
ATOM     70  H   UNL     1      17.132   1.857  -7.647  1.00  0.00     0.167 HD
ATOM     71  C   UNL     1      18.895   0.819  -9.613  1.00  0.00     0.074 A 
ATOM     72  C   UNL     1      19.401   0.351 -10.887  1.00  0.00     0.031 C 
ATOM     73  C   UNL     1      19.639   0.915  -8.484  1.00  0.00     0.037 A 
BRANCH  60  74
ATOM     74  C   UNL     1      16.563   3.104  -3.594  1.00  0.00     0.058 A 
ATOM     75  C   UNL     1      15.941   2.311  -2.616  1.00  0.00     0.135 A 
ATOM     76  C   UNL     1      17.335   4.193  -3.157  1.00  0.00     0.135 A 
ATOM     77  F   UNL     1      15.185   1.262  -2.977  1.00  0.00    -0.206 F 
ATOM     78  C   UNL     1      16.079   2.586  -1.260  1.00  0.00     0.059 A 
ATOM     79  C   UNL     1      17.505   4.474  -1.804  1.00  0.00     0.059 A 
ATOM     80  F   UNL     1      17.955   4.982  -4.050  1.00  0.00    -0.206 F 
ATOM     81  C   UNL     1      16.870   3.666  -0.863  1.00  0.00     0.060 A 
BRANCH  81  82
ATOM     82  S   UNL     1      17.064   3.982   0.905  1.00  0.00     0.124 S 
ATOM     83  O   UNL     1      15.720   4.418   1.272  1.00  0.00    -0.237 OA
ATOM     84  O   UNL     1      17.465   2.673   1.411  1.00  0.00    -0.237 OA
ATOM     85  O   UNL     1      18.093   5.015   0.957  1.00  0.00    -0.744 OA
ENDBRANCH  81  82
ENDBRANCH  60  74
BRANCH  61  86
ATOM     86  C   UNL     1      15.912   0.623 -13.247  1.00  0.00     0.058 A 
ATOM     87  C   UNL     1      16.012  -0.720 -13.637  1.00  0.00     0.135 A 
ATOM     88  C   UNL     1      15.701   1.583 -14.249  1.00  0.00     0.135 A 
ATOM     89  F   UNL     1      16.215  -1.673 -12.714  1.00  0.00    -0.206 F 
ATOM     90  C   UNL     1      15.927  -1.098 -14.972  1.00  0.00     0.059 A 
ATOM     91  C   UNL     1      15.585   1.227 -15.588  1.00  0.00     0.059 A 
ATOM     92  F   UNL     1      15.578   2.879 -13.924  1.00  0.00    -0.206 F 
ATOM     93  C   UNL     1      15.712  -0.116 -15.941  1.00  0.00     0.060 A 
BRANCH  93  94
ATOM     94  S   UNL     1      15.572  -0.623 -17.668  1.00  0.00     0.124 S 
ATOM     95  O   UNL     1      16.947  -1.001 -17.974  1.00  0.00    -0.237 OA
ATOM     96  O   UNL     1      14.611  -1.719 -17.586  1.00  0.00    -0.237 OA
ATOM     97  O   UNL     1      15.085   0.581 -18.333  1.00  0.00    -0.744 OA
ENDBRANCH  93  94
ENDBRANCH  61  86
BRANCH  73  98
ATOM     98  C   UNL     1      21.082   0.498  -8.566  1.00  0.00     0.058 A 
ATOM     99  C   UNL     1      22.036   1.282  -9.232  1.00  0.00     0.135 A 
ATOM    100  C   UNL     1      21.527  -0.668  -7.920  1.00  0.00     0.135 A 
ATOM    101  F   UNL     1      21.663   2.401  -9.873  1.00  0.00    -0.206 F 
ATOM    102  C   UNL     1      23.378   0.917  -9.270  1.00  0.00     0.059 A 
ATOM    103  C   UNL     1      22.869  -1.037  -7.922  1.00  0.00     0.059 A 
ATOM    104  F   UNL     1      20.657  -1.451  -7.263  1.00  0.00    -0.206 F 
ATOM    105  C   UNL     1      23.786  -0.241  -8.607  1.00  0.00     0.060 A 
BRANCH 105 106
ATOM    106  S   UNL     1      25.539  -0.675  -8.628  1.00  0.00     0.124 S 
ATOM    107  O   UNL     1      25.725  -1.085 -10.016  1.00  0.00    -0.237 OA
ATOM    108  O   UNL     1      26.174   0.583  -8.249  1.00  0.00    -0.237 OA
ATOM    109  O   UNL     1      25.638  -1.744  -7.639  1.00  0.00    -0.744 OA
ENDBRANCH 105 106
ENDBRANCH  73  98
ENDBRANCH  47  48
ENDBRANCH  40  42
ENDBRANCH  39  40
ENDBRANCH  38  39
ENDBRANCH  37  38
ENDBRANCH  36  37
ENDBRANCH  35  36
ENDBRANCH  34  35
ENDBRANCH  33  34
ENDBRANCH   1  33
TORSDOF 27
