REMARK SMILES CC(C)CC[C@H](C(=O)OCCOCCOCCOCCOC(=O)c1ccc(-c2c3nc(c(-c4c(F)cc(S(=O)(=O)[O-])cc4F)c4ccc([nH]4)c(-c4c(F)cc(S(=O)(=O)[O-])cc4F)c4nc(c(-c5c(F)cc(S(=O)(=O)[O-])cc5F)c5ccc2[nH]5)C=C4)C=C3)cc1)c1ccc(F)cc1
REMARK SMILES IDX 15 1 14 2 13 3 12 4 11 5 10 6 9 7 7 8 8 9 6 10 5 11 4 12
REMARK SMILES IDX 2 13 1 14 3 15 90 16 91 17 96 18 92 19 95 20 93 21 94 22
REMARK SMILES IDX 16 23 17 24 18 25 19 26 20 27 21 28 22 29 23 30 24 31 25 32
REMARK SMILES IDX 89 33 26 34 88 35 27 36 28 37 29 38 82 39 30 40 87 41 81 42
REMARK SMILES IDX 83 43 31 44 86 45 80 46 79 47 32 49 66 50 45 51 65 52 46 53
REMARK SMILES IDX 49 54 64 55 84 56 47 57 48 58 63 60 85 61 50 62 33 63 34 64
REMARK SMILES IDX 43 65 35 66 36 67 42 68 44 69 37 70 38 71 39 72 40 73 41 74
REMARK SMILES IDX 67 75 68 76 77 77 69 78 70 79 76 80 78 81 71 82 72 83 73 84
REMARK SMILES IDX 74 85 75 86 51 87 52 88 61 89 53 90 54 91 60 92 62 93 55 94
REMARK SMILES IDX 56 95 57 96 58 97 59 98
REMARK H PARENT 83 48 49 59
REMARK Flexibility Score: inf
ROOT
ATOM      1  O   UNL     1       0.574  -0.328   0.481  1.00  0.00    -0.377 OA
ENDROOT
BRANCH   1   2
ATOM      2  C   UNL     1       0.635   0.097  -0.865  1.00  0.00     0.188 C 
BRANCH   2   3
ATOM      3  C   UNL     1      -0.386   1.192  -1.243  1.00  0.00     0.188 C 
BRANCH   3   4
ATOM      4  O   UNL     1      -1.050   1.944  -0.244  1.00  0.00    -0.376 OA
BRANCH   4   5
ATOM      5  C   UNL     1      -1.795   1.319   0.789  1.00  0.00     0.202 C 
BRANCH   5   6
ATOM      6  C   UNL     1      -2.483  -0.044   0.661  1.00  0.00     0.261 C 
BRANCH   6   7
ATOM      7  O   UNL     1      -1.845  -1.042  -0.142  1.00  0.00    -0.463 OA
BRANCH   7   8
ATOM      8  C   UNL     1      -2.385  -1.265  -1.372  1.00  0.00     0.313 C 
ATOM      9  O   UNL     1      -3.278  -0.583  -1.861  1.00  0.00    -0.252 OA
BRANCH   8  10
ATOM     10  C   UNL     1      -1.737  -2.486  -2.040  1.00  0.00     0.129 C 
BRANCH  10  11
ATOM     11  C   UNL     1      -2.244  -3.820  -1.417  1.00  0.00     0.020 C 
BRANCH  11  12
ATOM     12  C   UNL     1      -2.956  -3.805  -0.045  1.00  0.00     0.004 C 
BRANCH  12  13
ATOM     13  C   UNL     1      -4.288  -3.027   0.042  1.00  0.00    -0.017 C 
ATOM     14  C   UNL     1      -5.270  -3.352  -1.077  1.00  0.00     0.007 C 
ATOM     15  C   UNL     1      -4.920  -3.145   1.425  1.00  0.00     0.007 C 
ENDBRANCH  12  13
ENDBRANCH  11  12
ENDBRANCH  10  11
BRANCH  10  16
ATOM     16  C   UNL     1      -1.835  -2.340  -3.575  1.00  0.00    -0.034 A 
ATOM     17  C   UNL     1      -1.503  -1.098  -4.164  1.00  0.00     0.007 A 
ATOM     18  C   UNL     1      -2.323  -3.339  -4.426  1.00  0.00     0.007 A 
ATOM     19  C   UNL     1      -1.826  -0.799  -5.486  1.00  0.00     0.039 A 
ATOM     20  C   UNL     1      -2.624  -3.051  -5.763  1.00  0.00     0.039 A 
ATOM     21  C   UNL     1      -2.413  -1.775  -6.268  1.00  0.00     0.123 A 
ATOM     22  F   UNL     1      -2.781  -1.485  -7.522  1.00  0.00    -0.207 F 
ENDBRANCH  10  16
ENDBRANCH   8  10
ENDBRANCH   7   8
ENDBRANCH   6   7
ENDBRANCH   5   6
ENDBRANCH   4   5
ENDBRANCH   3   4
ENDBRANCH   2   3
ENDBRANCH   1   2
BRANCH   1  23
ATOM     23  C   UNL     1       1.333   0.405   1.435  1.00  0.00     0.188 C 
BRANCH  23  24
ATOM     24  C   UNL     1       1.639   1.897   1.175  1.00  0.00     0.188 C 
BRANCH  24  25
ATOM     25  O   UNL     1       2.045   2.194  -0.153  1.00  0.00    -0.376 OA
BRANCH  25  26
ATOM     26  C   UNL     1       3.424   2.284  -0.466  1.00  0.00     0.202 C 
BRANCH  26  27
ATOM     27  C   UNL     1       4.311   1.048  -0.242  1.00  0.00     0.261 C 
BRANCH  27  28
ATOM     28  O   UNL     1       4.324   0.495   1.081  1.00  0.00    -0.460 OA
BRANCH  28  29
ATOM     29  C   UNL     1       4.672   1.308   2.099  1.00  0.00     0.338 C 
ATOM     30  O   UNL     1       5.051   2.466   2.016  1.00  0.00    -0.246 OA
BRANCH  29  31
ATOM     31  C   UNL     1       4.304   0.629   3.359  1.00  0.00     0.060 A 
ATOM     32  C   UNL     1       3.420   1.267   4.240  1.00  0.00     0.016 A 
ATOM     33  C   UNL     1       4.824  -0.631   3.665  1.00  0.00     0.016 A 
ATOM     34  C   UNL     1       3.093   0.668   5.455  1.00  0.00     0.010 A 
ATOM     35  C   UNL     1       4.519  -1.217   4.895  1.00  0.00     0.010 A 
ATOM     36  C   UNL     1       3.690  -0.547   5.812  1.00  0.00    -0.014 A 
BRANCH  36  37
ATOM     37  C   UNL     1       3.646  -0.979   7.228  1.00  0.00     0.031 A 
ATOM     38  C   UNL     1       4.819  -0.630   8.105  1.00  0.00     0.074 A 
ATOM     39  C   UNL     1       2.579  -1.618   7.736  1.00  0.00     0.049 A 
ATOM     40  N   UNL     1       5.031  -0.914   9.363  1.00  0.00    -0.248 NA
ATOM     41  C   UNL     1       5.902   0.143   7.472  1.00  0.00     0.031 C 
ATOM     42  C   UNL     1       1.366  -1.962   6.997  1.00  0.00     0.029 A 
ATOM     43  N   UNL     1       2.350  -2.095   9.002  1.00  0.00    -0.354 N 
ATOM     44  C   UNL     1       6.270  -0.361   9.669  1.00  0.00     0.074 A 
ATOM     45  C   UNL     1       6.778   0.243   8.458  1.00  0.00     0.031 C 
ATOM     46  C   UNL     1       0.522  -2.607   7.822  1.00  0.00     0.029 A 
ATOM     47  C   UNL     1       1.149  -2.749   9.136  1.00  0.00     0.049 A 
ATOM     48  H   UNL     1       2.986  -1.980   9.744  1.00  0.00     0.167 HD
ATOM     49  C   UNL     1       6.920  -0.348  10.857  1.00  0.00     0.037 A 
ATOM     50  C   UNL     1       0.629  -3.403  10.193  1.00  0.00     0.037 A 
ATOM     51  C   UNL     1       6.407  -0.958  12.055  1.00  0.00     0.049 A 
ATOM     52  C   UNL     1       1.405  -3.442  11.487  1.00  0.00     0.074 A 
ATOM     53  C   UNL     1       6.982  -0.999  13.313  1.00  0.00     0.029 A 
ATOM     54  N   UNL     1       5.203  -1.643  12.143  1.00  0.00    -0.354 N 
ATOM     55  N   UNL     1       2.569  -2.905  11.770  1.00  0.00    -0.248 NA
ATOM     56  C   UNL     1       0.793  -4.171  12.606  1.00  0.00     0.031 C 
ATOM     57  C   UNL     1       6.154  -1.759  14.146  1.00  0.00     0.029 A 
ATOM     58  C   UNL     1       5.029  -2.132  13.427  1.00  0.00     0.049 A 
ATOM     59  H   UNL     1       4.566  -1.762  11.402  1.00  0.00     0.167 HD
ATOM     60  C   UNL     1       2.811  -3.201  13.109  1.00  0.00     0.074 A 
ATOM     61  C   UNL     1       1.666  -3.954  13.579  1.00  0.00     0.031 C 
ATOM     62  C   UNL     1       3.881  -2.879  13.880  1.00  0.00     0.037 A 
BRANCH  49  63
ATOM     63  C   UNL     1       8.270   0.314  10.903  1.00  0.00     0.058 A 
ATOM     64  C   UNL     1       8.421   1.705  10.781  1.00  0.00     0.135 A 
ATOM     65  C   UNL     1       9.430  -0.455  11.092  1.00  0.00     0.135 A 
ATOM     66  F   UNL     1       7.350   2.487  10.575  1.00  0.00    -0.206 F 
ATOM     67  C   UNL     1       9.676   2.307  10.817  1.00  0.00     0.059 A 
ATOM     68  C   UNL     1      10.691   0.129  11.163  1.00  0.00     0.059 A 
ATOM     69  F   UNL     1       9.345  -1.789  11.207  1.00  0.00    -0.206 F 
ATOM     70  C   UNL     1      10.805   1.509  11.011  1.00  0.00     0.060 A 
BRANCH  70  71
ATOM     71  S   UNL     1      12.424   2.306  11.061  1.00  0.00     0.124 S 
ATOM     72  O   UNL     1      12.600   2.697   9.666  1.00  0.00    -0.237 OA
ATOM     73  O   UNL     1      12.203   3.399  12.003  1.00  0.00    -0.237 OA
ATOM     74  O   UNL     1      13.311   1.246  11.531  1.00  0.00    -0.744 OA
ENDBRANCH  70  71
ENDBRANCH  49  63
BRANCH  50  75
ATOM     75  C   UNL     1      -0.690  -4.083  10.076  1.00  0.00     0.058 A 
ATOM     76  C   UNL     1      -1.811  -3.625  10.784  1.00  0.00     0.135 A 
ATOM     77  C   UNL     1      -0.855  -5.209   9.254  1.00  0.00     0.135 A 
ATOM     78  F   UNL     1      -1.703  -2.560  11.594  1.00  0.00    -0.206 F 
ATOM     79  C   UNL     1      -3.043  -4.265  10.695  1.00  0.00     0.059 A 
ATOM     80  C   UNL     1      -2.083  -5.849   9.125  1.00  0.00     0.059 A 
ATOM     81  F   UNL     1       0.183  -5.685   8.548  1.00  0.00    -0.206 F 
ATOM     82  C   UNL     1      -3.170  -5.375   9.857  1.00  0.00     0.060 A 
BRANCH  82  83
ATOM     83  S   UNL     1      -4.787  -6.165   9.707  1.00  0.00     0.124 S 
ATOM     84  O   UNL     1      -4.926  -6.804  11.010  1.00  0.00    -0.237 OA
ATOM     85  O   UNL     1      -5.661  -5.022   9.459  1.00  0.00    -0.237 OA
ATOM     86  O   UNL     1      -4.615  -7.069   8.574  1.00  0.00    -0.744 OA
ENDBRANCH  82  83
ENDBRANCH  50  75
BRANCH  62  87
ATOM     87  C   UNL     1       3.844  -3.298  15.327  1.00  0.00     0.058 A 
ATOM     88  C   UNL     1       3.948  -4.643  15.716  1.00  0.00     0.135 A 
ATOM     89  C   UNL     1       3.736  -2.331  16.341  1.00  0.00     0.135 A 
ATOM     90  F   UNL     1       4.052  -5.609  14.790  1.00  0.00    -0.206 F 
ATOM     91  C   UNL     1       3.903  -5.018  17.056  1.00  0.00     0.059 A 
ATOM     92  C   UNL     1       3.726  -2.680  17.688  1.00  0.00     0.059 A 
ATOM     93  F   UNL     1       3.651  -1.028  16.029  1.00  0.00    -0.206 F 
ATOM     94  C   UNL     1       3.790  -4.029  18.035  1.00  0.00     0.060 A 
BRANCH  94  95
ATOM     95  S   UNL     1       3.739  -4.528  19.768  1.00  0.00     0.124 S 
ATOM     96  O   UNL     1       2.405  -5.112  19.866  1.00  0.00    -0.237 OA
ATOM     97  O   UNL     1       4.851  -5.470  19.855  1.00  0.00    -0.237 OA
ATOM     98  O   UNL     1       3.929  -3.274  20.490  1.00  0.00    -0.744 OA
ENDBRANCH  94  95
ENDBRANCH  62  87
ENDBRANCH  36  37
ENDBRANCH  29  31
ENDBRANCH  28  29
ENDBRANCH  27  28
ENDBRANCH  26  27
ENDBRANCH  25  26
ENDBRANCH  24  25
ENDBRANCH  23  24
ENDBRANCH   1  23
TORSDOF 27
