REMARK SMILES O=C(C[NH+]1CCN(c2ncc(C(F)(F)F)cc2Cl)CC1)OCCOCCOCCOCCOC(=O)c1ccc(-c2c3nc(c(-c4c(F)cc(S(=O)(=O)[O-])cc4F)c4ccc([nH]4)c(-c4c(F)cc(S(=O)(=O)[O-])cc4F)c4nc(c(-c5c(F)cc(S(=O)(=O)[O-])cc5F)c5ccc2[nH]5)C=C4)C=C3)cc1
REMARK SMILES IDX 27 1 26 2 25 3 24 4 23 5 22 6 21 7 2 8 1 9 3 10 4 11 5 12
REMARK SMILES IDX 20 13 6 15 19 16 7 17 8 18 9 19 17 20 10 21 16 22 18 23
REMARK SMILES IDX 11 24 12 25 13 26 14 27 15 28 28 29 29 30 30 31 31 32 32 33
REMARK SMILES IDX 33 34 34 35 35 36 36 37 37 38 101 39 38 40 100 41 39 42
REMARK SMILES IDX 40 43 41 44 94 45 42 46 99 47 93 48 95 49 43 50 98 51 92 52
REMARK SMILES IDX 91 53 44 55 78 56 57 57 77 58 58 59 61 60 76 61 96 62 59 63
REMARK SMILES IDX 60 64 75 66 97 67 62 68 45 69 46 70 55 71 47 72 48 73 54 74
REMARK SMILES IDX 56 75 49 76 50 77 51 78 52 79 53 80 79 81 80 82 89 83 81 84
REMARK SMILES IDX 82 85 88 86 90 87 83 88 84 89 85 90 86 91 87 92 63 93 64 94
REMARK SMILES IDX 73 95 65 96 66 97 72 98 74 99 67 100 68 101 69 102 70 103
REMARK SMILES IDX 71 104
REMARK H PARENT 4 14 95 54 61 65
REMARK Flexibility Score: inf
ROOT
ATOM      1  O   UNL     1       2.350  -3.886   0.392  1.00  0.00    -0.377 OA
ENDROOT
BRANCH   1   2
ATOM      2  C   UNL     1       1.914  -2.637  -0.124  1.00  0.00     0.188 C 
BRANCH   2   3
ATOM      3  C   UNL     1       2.672  -2.092  -1.339  1.00  0.00     0.188 C 
BRANCH   3   4
ATOM      4  O   UNL     1       4.074  -1.997  -1.208  1.00  0.00    -0.376 OA
BRANCH   4   5
ATOM      5  C   UNL     1       4.681  -1.065  -0.347  1.00  0.00     0.202 C 
BRANCH   5   6
ATOM      6  C   UNL     1       3.896  -0.392   0.775  1.00  0.00     0.261 C 
BRANCH   6   7
ATOM      7  O   UNL     1       2.643   0.307   0.521  1.00  0.00    -0.459 OA
BRANCH   7   8
ATOM      8  C   UNL     1       2.090   1.317  -0.166  1.00  0.00     0.361 C 
ATOM      9  O   UNL     1       0.927   1.625   0.110  1.00  0.00    -0.245 OA
BRANCH   8  10
ATOM     10  C   UNL     1       2.766   1.976  -1.351  1.00  0.00     0.386 C 
BRANCH  10  11
ATOM     11  N   UNL     1       3.856   2.937  -1.143  1.00  0.00    -0.323 N 
ATOM     12  C   UNL     1       3.591   4.313  -0.656  1.00  0.00     0.284 C 
ATOM     13  C   UNL     1       5.020   2.381  -0.495  1.00  0.00     0.284 C 
ATOM     14  H   UNL     1       4.035   3.113  -2.132  1.00  0.00     0.348 HD
ATOM     15  C   UNL     1       4.062   4.766   0.810  1.00  0.00     0.179 C 
ATOM     16  C   UNL     1       4.909   2.534   1.010  1.00  0.00     0.179 C 
ATOM     17  N   UNL     1       5.173   3.928   1.288  1.00  0.00    -0.344 N 
BRANCH  17  18
ATOM     18  C   UNL     1       5.842   4.018   2.507  1.00  0.00     0.147 A 
ATOM     19  N   UNL     1       5.171   4.465   3.590  1.00  0.00    -0.237 NA
ATOM     20  C   UNL     1       7.109   3.385   2.653  1.00  0.00     0.084 A 
ATOM     21  C   UNL     1       5.700   4.195   4.821  1.00  0.00     0.126 A 
ATOM     22  C   UNL     1       7.591   3.075   3.917  1.00  0.00     0.039 A 
ATOM     23  Cl  UNL     1       8.071   2.853   1.304  1.00  0.00    -0.080 Cl
ATOM     24  C   UNL     1       6.870   3.474   5.037  1.00  0.00     0.075 A 
BRANCH  24  25
ATOM     25  C   UNL     1       7.357   3.160   6.422  1.00  0.00     0.417 C 
ATOM     26  F   UNL     1       7.785   4.266   7.072  1.00  0.00    -0.166 F 
ATOM     27  F   UNL     1       6.415   2.552   7.184  1.00  0.00    -0.166 F 
ATOM     28  F   UNL     1       8.423   2.303   6.404  1.00  0.00    -0.166 F 
ENDBRANCH  24  25
ENDBRANCH  17  18
ENDBRANCH  10  11
ENDBRANCH   8  10
ENDBRANCH   7   8
ENDBRANCH   6   7
ENDBRANCH   5   6
ENDBRANCH   4   5
ENDBRANCH   3   4
ENDBRANCH   2   3
ENDBRANCH   1   2
BRANCH   1  29
ATOM     29  C   UNL     1       3.687  -3.951   0.882  1.00  0.00     0.188 C 
BRANCH  29  30
ATOM     30  C   UNL     1       4.679  -4.529  -0.140  1.00  0.00     0.188 C 
BRANCH  30  31
ATOM     31  O   UNL     1       4.021  -5.000  -1.307  1.00  0.00    -0.376 OA
BRANCH  31  32
ATOM     32  C   UNL     1       3.662  -6.377  -1.293  1.00  0.00     0.202 C 
BRANCH  32  33
ATOM     33  C   UNL     1       2.752  -6.884  -0.156  1.00  0.00     0.261 C 
BRANCH  33  34
ATOM     34  O   UNL     1       3.234  -6.784   1.204  1.00  0.00    -0.460 OA
BRANCH  34  35
ATOM     35  C   UNL     1       4.465  -7.236   1.528  1.00  0.00     0.338 C 
ATOM     36  O   UNL     1       5.229  -7.852   0.805  1.00  0.00    -0.246 OA
BRANCH  35  37
ATOM     37  C   UNL     1       4.846  -6.639   2.841  1.00  0.00     0.060 A 
ATOM     38  C   UNL     1       6.069  -5.959   2.957  1.00  0.00     0.016 A 
ATOM     39  C   UNL     1       3.990  -6.712   3.945  1.00  0.00     0.016 A 
ATOM     40  C   UNL     1       6.467  -5.411   4.184  1.00  0.00     0.010 A 
ATOM     41  C   UNL     1       4.399  -6.188   5.179  1.00  0.00     0.010 A 
ATOM     42  C   UNL     1       5.662  -5.580   5.318  1.00  0.00    -0.014 A 
BRANCH  42  43
ATOM     43  C   UNL     1       6.255  -5.433   6.677  1.00  0.00     0.031 A 
ATOM     44  C   UNL     1       6.829  -6.678   7.310  1.00  0.00     0.074 A 
ATOM     45  C   UNL     1       6.299  -4.265   7.345  1.00  0.00     0.049 A 
ATOM     46  N   UNL     1       7.316  -6.859   8.509  1.00  0.00    -0.248 NA
ATOM     47  C   UNL     1       6.846  -7.887   6.466  1.00  0.00     0.031 C 
ATOM     48  C   UNL     1       5.830  -2.977   6.841  1.00  0.00     0.029 A 
ATOM     49  N   UNL     1       6.754  -3.984   8.613  1.00  0.00    -0.354 N 
ATOM     50  C   UNL     1       7.682  -8.200   8.568  1.00  0.00     0.074 A 
ATOM     51  C   UNL     1       7.339  -8.792   7.295  1.00  0.00     0.031 C 
ATOM     52  C   UNL     1       6.003  -2.045   7.799  1.00  0.00     0.029 A 
ATOM     53  C   UNL     1       6.563  -2.676   8.995  1.00  0.00     0.049 A 
ATOM     54  H   UNL     1       7.178  -4.657   9.193  1.00  0.00     0.167 HD
ATOM     55  C   UNL     1       8.256  -8.882   9.586  1.00  0.00     0.037 A 
ATOM     56  C   UNL     1       6.786  -2.069  10.181  1.00  0.00     0.037 A 
ATOM     57  C   UNL     1       8.596  -8.301  10.855  1.00  0.00     0.049 A 
ATOM     58  C   UNL     1       7.361  -2.864  11.331  1.00  0.00     0.074 A 
ATOM     59  C   UNL     1       9.190  -8.908  11.947  1.00  0.00     0.029 A 
ATOM     60  N   UNL     1       8.364  -6.980  11.207  1.00  0.00    -0.354 N 
ATOM     61  N   UNL     1       7.713  -4.128  11.369  1.00  0.00    -0.248 NA
ATOM     62  C   UNL     1       7.567  -2.150  12.601  1.00  0.00     0.031 C 
ATOM     63  C   UNL     1       9.273  -7.966  12.977  1.00  0.00     0.029 A 
ATOM     64  C   UNL     1       8.783  -6.758  12.507  1.00  0.00     0.049 A 
ATOM     65  H   UNL     1       7.961  -6.301  10.619  1.00  0.00     0.167 HD
ATOM     66  C   UNL     1       8.208  -4.350  12.652  1.00  0.00     0.074 A 
ATOM     67  C   UNL     1       8.118  -3.090  13.358  1.00  0.00     0.031 C 
ATOM     68  C   UNL     1       8.698  -5.494  13.195  1.00  0.00     0.037 A 
BRANCH  55  69
ATOM     69  C   UNL     1       8.520 -10.347   9.373  1.00  0.00     0.058 A 
ATOM     70  C   UNL     1       9.528 -10.800   8.508  1.00  0.00     0.135 A 
ATOM     71  C   UNL     1       7.761 -11.310  10.056  1.00  0.00     0.135 A 
ATOM     72  F   UNL     1      10.266  -9.921   7.810  1.00  0.00    -0.206 F 
ATOM     73  C   UNL     1       9.758 -12.156   8.307  1.00  0.00     0.059 A 
ATOM     74  C   UNL     1       7.992 -12.672   9.893  1.00  0.00     0.059 A 
ATOM     75  F   UNL     1       6.778 -10.931  10.889  1.00  0.00    -0.206 F 
ATOM     76  C   UNL     1       8.984 -13.085   9.006  1.00  0.00     0.060 A 
BRANCH  76  77
ATOM     77  S   UNL     1       9.299 -14.843   8.740  1.00  0.00     0.124 S 
ATOM     78  O   UNL     1       8.749 -15.037   7.402  1.00  0.00    -0.237 OA
ATOM     79  O   UNL     1      10.752 -14.918   8.845  1.00  0.00    -0.237 OA
ATOM     80  O   UNL     1       8.561 -15.488   9.821  1.00  0.00    -0.744 OA
ENDBRANCH  76  77
ENDBRANCH  55  69
BRANCH  56  81
ATOM     81  C   UNL     1       6.446  -0.629  10.360  1.00  0.00     0.058 A 
ATOM     82  C   UNL     1       7.444   0.342  10.530  1.00  0.00     0.135 A 
ATOM     83  C   UNL     1       5.110  -0.196  10.377  1.00  0.00     0.135 A 
ATOM     84  F   UNL     1       8.736  -0.022  10.546  1.00  0.00    -0.206 F 
ATOM     85  C   UNL     1       7.134   1.687  10.713  1.00  0.00     0.059 A 
ATOM     86  C   UNL     1       4.775   1.146  10.533  1.00  0.00     0.059 A 
ATOM     87  F   UNL     1       4.114  -1.083  10.222  1.00  0.00    -0.206 F 
ATOM     88  C   UNL     1       5.795   2.080  10.704  1.00  0.00     0.060 A 
BRANCH  88  89
ATOM     89  S   UNL     1       5.404   3.837  10.867  1.00  0.00     0.124 S 
ATOM     90  O   UNL     1       5.724   4.082  12.268  1.00  0.00    -0.237 OA
ATOM     91  O   UNL     1       6.302   4.442   9.888  1.00  0.00    -0.237 OA
ATOM     92  O   UNL     1       3.987   3.900  10.522  1.00  0.00    -0.744 OA
ENDBRANCH  88  89
ENDBRANCH  56  81
BRANCH  68  93
ATOM     93  C   UNL     1       9.218  -5.437  14.607  1.00  0.00     0.058 A 
ATOM     94  C   UNL     1       8.359  -5.336  15.712  1.00  0.00     0.135 A 
ATOM     95  C   UNL     1      10.596  -5.560  14.859  1.00  0.00     0.135 A 
ATOM     96  F   UNL     1       7.035  -5.216  15.528  1.00  0.00    -0.206 F 
ATOM     97  C   UNL     1       8.847  -5.335  17.015  1.00  0.00     0.059 A 
ATOM     98  C   UNL     1      11.103  -5.589  16.155  1.00  0.00     0.059 A 
ATOM     99  F   UNL     1      11.462  -5.675  13.840  1.00  0.00    -0.206 F 
ATOM    100  C   UNL     1      10.222  -5.464  17.227  1.00  0.00     0.060 A 
BRANCH 100 101
ATOM    101  S   UNL     1      10.839  -5.496  18.923  1.00  0.00     0.124 S 
ATOM    102  O   UNL     1      10.701  -4.097  19.312  1.00  0.00    -0.237 OA
ATOM    103  O   UNL     1       9.923  -6.428  19.573  1.00  0.00    -0.237 OA
ATOM    104  O   UNL     1      12.211  -5.974  18.777  1.00  0.00    -0.744 OA
ENDBRANCH 100 101
ENDBRANCH  68  93
ENDBRANCH  42  43
ENDBRANCH  35  37
ENDBRANCH  34  35
ENDBRANCH  33  34
ENDBRANCH  32  33
ENDBRANCH  31  32
ENDBRANCH  30  31
ENDBRANCH  29  30
ENDBRANCH   1  29
TORSDOF 26
