REMARK SMILES Cc1ccc(C)c(S(=O)(=O)N[C@@H](CC2=c3ccccc3=NC2)C(=O)OCCOCCOCCOCCOC(=O)c2ccc(-c3c4nc(c(-c5c(F)cc(S(=O)(=O)[O-])cc5F)c5ccc([nH]5)c(-c5c(F)cc(S(=O)(=O)[O-])cc5F)c5nc(c(-c6c(F)cc(S(=O)(=O)[O-])cc6F)c6ccc3[nH]6)C=C5)C=C4)cc2)c1
REMARK SMILES IDX 31 1 30 2 29 3 28 4 27 5 26 6 25 7 23 8 24 9 12 10 11 11
REMARK SMILES IDX 8 13 9 14 10 15 7 16 1 17 2 18 3 19 106 20 4 21 5 22 6 23
REMARK SMILES IDX 13 24 14 25 15 26 22 27 16 28 20 29 21 30 17 31 19 32 18 33
REMARK SMILES IDX 32 34 33 35 34 36 35 37 36 38 37 39 38 40 39 41 40 42 41 43
REMARK SMILES IDX 105 44 42 45 104 46 43 47 44 48 45 49 98 50 46 51 103 52
REMARK SMILES IDX 97 53 99 54 47 55 102 56 96 57 95 58 48 60 82 61 61 62 81 63
REMARK SMILES IDX 62 64 65 65 80 66 100 67 63 68 64 69 79 71 101 72 66 73
REMARK SMILES IDX 49 74 50 75 59 76 51 77 52 78 58 79 60 80 53 81 54 82 55 83
REMARK SMILES IDX 56 84 57 85 83 86 84 87 93 88 85 89 86 90 92 91 94 92 87 93
REMARK SMILES IDX 88 94 89 95 90 96 91 97 67 98 68 99 77 100 69 101 70 102
REMARK SMILES IDX 76 103 78 104 71 105 72 106 73 107 74 108 75 109
REMARK H PARENT 11 12 99 59 65 70
REMARK Flexibility Score: inf
ROOT
ATOM      1  O   UNL     1      -0.037   7.864   2.933  1.00  0.00    -0.377 OA
ENDROOT
BRANCH   1   2
ATOM      2  C   UNL     1       0.462   6.802   2.154  1.00  0.00     0.188 C 
BRANCH   2   3
ATOM      3  C   UNL     1       1.485   7.214   1.116  1.00  0.00     0.188 C 
BRANCH   3   4
ATOM      4  O   UNL     1       1.598   8.472   0.478  1.00  0.00    -0.376 OA
BRANCH   4   5
ATOM      5  C   UNL     1       0.660   8.835  -0.529  1.00  0.00     0.202 C 
BRANCH   5   6
ATOM      6  C   UNL     1       0.802   8.183  -1.939  1.00  0.00     0.261 C 
BRANCH   6   7
ATOM      7  O   UNL     1      -0.238   7.272  -2.395  1.00  0.00    -0.462 OA
BRANCH   7   8
ATOM      8  C   UNL     1      -0.672   6.428  -1.456  1.00  0.00     0.324 C 
ATOM      9  O   UNL     1      -0.465   6.598  -0.272  1.00  0.00    -0.250 OA
BRANCH   8  10
ATOM     10  C   UNL     1      -1.412   5.219  -1.837  1.00  0.00     0.183 C 
BRANCH  10  11
ATOM     11  N   UNL     1      -0.527   4.137  -2.601  1.00  0.00    -0.197 NA
ATOM     12  H   UNL     1      -0.717   3.233  -2.168  1.00  0.00     0.142 HD
BRANCH  11  13
ATOM     13  S   UNL     1       1.451   4.368  -2.632  1.00  0.00     0.241 S 
ATOM     14  O   UNL     1       1.611   5.403  -1.685  1.00  0.00    -0.207 OA
ATOM     15  O   UNL     1       1.624   4.756  -4.043  1.00  0.00    -0.207 OA
BRANCH  13  16
ATOM     16  C   UNL     1       2.725   2.445  -2.101  1.00  0.00     0.085 A 
ATOM     17  C   UNL     1       2.103   0.324   1.234  1.00  0.00     0.044 C 
ATOM     18  C   UNL     1       2.744   0.517  -0.135  1.00  0.00    -0.050 A 
ATOM     19  C   UNL     1       2.591  -0.331  -1.145  1.00  0.00     0.004 A 
ATOM     20  C   UNL     1       3.132   1.746  -0.666  1.00  0.00     0.025 A 
ATOM     21  C   UNL     1       2.709   0.225  -2.484  1.00  0.00     0.005 A 
ATOM     22  C   UNL     1       2.746   1.542  -2.998  1.00  0.00    -0.031 A 
ATOM     23  C   UNL     1       2.225   2.075  -4.203  1.00  0.00     0.046 C 
ENDBRANCH  13  16
ENDBRANCH  11  13
ENDBRANCH  10  11
BRANCH  10  24
ATOM     24  C   UNL     1      -2.168   4.654  -0.459  1.00  0.00     0.065 C 
BRANCH  24  25
ATOM     25  C   UNL     1      -2.646   5.556   0.758  1.00  0.00    -0.037 C 
ATOM     26  C   UNL     1      -2.491   5.363   2.087  1.00  0.00     0.001 A 
ATOM     27  C   UNL     1      -3.174   6.968   0.555  1.00  0.00     0.174 C 
ATOM     28  C   UNL     1      -1.948   4.334   2.937  1.00  0.00     0.010 A 
ATOM     29  C   UNL     1      -2.807   6.690   2.686  1.00  0.00     0.065 A 
ATOM     30  N   UNL     1      -3.298   7.597   1.902  1.00  0.00    -0.280 NA
ATOM     31  C   UNL     1      -1.638   4.609   4.221  1.00  0.00     0.001 A 
ATOM     32  C   UNL     1      -2.447   6.912   4.116  1.00  0.00     0.028 A 
ATOM     33  C   UNL     1      -1.840   5.927   4.796  1.00  0.00     0.002 A 
ENDBRANCH  24  25
ENDBRANCH  10  24
ENDBRANCH   8  10
ENDBRANCH   7   8
ENDBRANCH   6   7
ENDBRANCH   5   6
ENDBRANCH   4   5
ENDBRANCH   3   4
ENDBRANCH   2   3
ENDBRANCH   1   2
BRANCH   1  34
ATOM     34  C   UNL     1       0.978   8.651   3.529  1.00  0.00     0.188 C 
BRANCH  34  35
ATOM     35  C   UNL     1       1.780   7.873   4.573  1.00  0.00     0.188 C 
BRANCH  35  36
ATOM     36  O   UNL     1       2.540   6.833   3.966  1.00  0.00    -0.376 OA
BRANCH  36  37
ATOM     37  C   UNL     1       2.809   5.721   4.797  1.00  0.00     0.202 C 
BRANCH  37  38
ATOM     38  C   UNL     1       4.124   5.915   5.549  1.00  0.00     0.261 C 
BRANCH  38  39
ATOM     39  O   UNL     1       5.363   6.089   4.809  1.00  0.00    -0.460 OA
BRANCH  39  40
ATOM     40  C   UNL     1       5.369   6.722   3.611  1.00  0.00     0.338 C 
ATOM     41  O   UNL     1       5.672   7.895   3.463  1.00  0.00    -0.246 OA
BRANCH  40  42
ATOM     42  C   UNL     1       4.965   5.796   2.518  1.00  0.00     0.060 A 
ATOM     43  C   UNL     1       4.566   6.363   1.346  1.00  0.00     0.016 A 
ATOM     44  C   UNL     1       4.671   4.437   2.738  1.00  0.00     0.016 A 
ATOM     45  C   UNL     1       3.586   5.662   0.642  1.00  0.00     0.010 A 
ATOM     46  C   UNL     1       3.624   3.762   2.033  1.00  0.00     0.010 A 
ATOM     47  C   UNL     1       2.924   4.403   1.010  1.00  0.00    -0.014 A 
BRANCH  47  48
ATOM     48  C   UNL     1       2.114   3.712  -0.230  1.00  0.00     0.031 A 
ATOM     49  C   UNL     1       3.735   4.164  -1.257  1.00  0.00     0.074 A 
ATOM     50  C   UNL     1       0.849   2.676  -0.705  1.00  0.00     0.049 A 
ATOM     51  N   UNL     1       3.904   4.707  -2.466  1.00  0.00    -0.248 NA
ATOM     52  C   UNL     1       5.136   3.796  -0.768  1.00  0.00     0.031 C 
ATOM     53  C   UNL     1      -0.164   1.647  -0.154  1.00  0.00     0.029 A 
ATOM     54  N   UNL     1       0.403   2.068  -2.236  1.00  0.00    -0.354 N 
ATOM     55  C   UNL     1       5.212   4.550  -2.919  1.00  0.00     0.074 A 
ATOM     56  C   UNL     1       5.952   4.230  -1.732  1.00  0.00     0.031 C 
ATOM     57  C   UNL     1      -0.533   0.586  -1.049  1.00  0.00     0.029 A 
ATOM     58  C   UNL     1      -0.035   0.653  -2.508  1.00  0.00     0.049 A 
ATOM     59  H   UNL     1       0.435   2.689  -2.999  1.00  0.00     0.167 HD
ATOM     60  C   UNL     1       5.618   4.482  -4.235  1.00  0.00     0.037 A 
ATOM     61  C   UNL     1       0.193  -0.308  -3.746  1.00  0.00     0.037 A 
ATOM     62  C   UNL     1       4.604   4.760  -5.246  1.00  0.00     0.049 A 
ATOM     63  C   UNL     1       0.813   0.113  -5.431  1.00  0.00     0.074 A 
ATOM     64  C   UNL     1       3.962   5.911  -5.630  1.00  0.00     0.029 A 
ATOM     65  N   UNL     1       4.109   3.747  -6.088  1.00  0.00    -0.354 N 
ATOM     66  N   UNL     1       0.401   1.071  -6.272  1.00  0.00    -0.248 NA
ATOM     67  C   UNL     1       2.252  -0.219  -5.803  1.00  0.00     0.031 C 
ATOM     68  C   UNL     1       2.898   5.508  -6.489  1.00  0.00     0.029 A 
ATOM     69  C   UNL     1       2.861   4.098  -6.629  1.00  0.00     0.049 A 
ATOM     70  H   UNL     1       4.577   2.901  -6.273  1.00  0.00     0.167 HD
ATOM     71  C   UNL     1       1.574   1.767  -6.805  1.00  0.00     0.074 A 
ATOM     72  C   UNL     1       2.654   0.804  -6.592  1.00  0.00     0.031 C 
ATOM     73  C   UNL     1       1.655   3.167  -6.949  1.00  0.00     0.037 A 
BRANCH  60  74
ATOM     74  C   UNL     1       6.984   3.983  -4.710  1.00  0.00     0.058 A 
ATOM     75  C   UNL     1       7.477   4.345  -5.989  1.00  0.00     0.135 A 
ATOM     76  C   UNL     1       7.696   2.952  -4.068  1.00  0.00     0.135 A 
ATOM     77  F   UNL     1       6.936   5.368  -6.671  1.00  0.00    -0.206 F 
ATOM     78  C   UNL     1       8.489   3.626  -6.637  1.00  0.00     0.059 A 
ATOM     79  C   UNL     1       8.752   2.272  -4.665  1.00  0.00     0.059 A 
ATOM     80  F   UNL     1       7.333   2.472  -2.873  1.00  0.00    -0.206 F 
ATOM     81  C   UNL     1       9.087   2.558  -5.977  1.00  0.00     0.060 A 
BRANCH  81  82
ATOM     82  S   UNL     1      10.180   1.438  -6.874  1.00  0.00     0.124 S 
ATOM     83  O   UNL     1       9.258   0.839  -7.832  1.00  0.00    -0.237 OA
ATOM     84  O   UNL     1      11.176   2.348  -7.426  1.00  0.00    -0.237 OA
ATOM     85  O   UNL     1      10.670   0.539  -5.831  1.00  0.00    -0.744 OA
ENDBRANCH  81  82
ENDBRANCH  60  74
BRANCH  61  86
ATOM     86  C   UNL     1       0.593  -1.985  -3.638  1.00  0.00     0.058 A 
ATOM     87  C   UNL     1      -0.082  -3.061  -4.247  1.00  0.00     0.135 A 
ATOM     88  C   UNL     1       1.884  -2.485  -3.214  1.00  0.00     0.135 A 
ATOM     89  F   UNL     1      -1.095  -2.826  -5.096  1.00  0.00    -0.206 F 
ATOM     90  C   UNL     1       0.343  -4.441  -4.103  1.00  0.00     0.059 A 
ATOM     91  C   UNL     1       2.227  -3.768  -2.849  1.00  0.00     0.059 A 
ATOM     92  F   UNL     1       3.050  -1.873  -3.487  1.00  0.00    -0.206 F 
ATOM     93  C   UNL     1       1.446  -4.776  -3.308  1.00  0.00     0.060 A 
BRANCH  93  94
ATOM     94  S   UNL     1       2.026  -6.427  -2.878  1.00  0.00     0.124 S 
ATOM     95  O   UNL     1       0.851  -7.255  -3.110  1.00  0.00    -0.237 OA
ATOM     96  O   UNL     1       3.143  -6.621  -3.797  1.00  0.00    -0.237 OA
ATOM     97  O   UNL     1       2.401  -6.261  -1.473  1.00  0.00    -0.744 OA
ENDBRANCH  93  94
ENDBRANCH  61  86
BRANCH  73  98
ATOM     98  C   UNL     1       0.325   3.935  -7.077  1.00  0.00     0.058 A 
ATOM     99  C   UNL     1      -0.770   3.738  -6.218  1.00  0.00     0.135 A 
ATOM    100  C   UNL     1       0.225   5.065  -7.928  1.00  0.00     0.135 A 
ATOM    101  F   UNL     1      -0.789   2.796  -5.268  1.00  0.00    -0.206 F 
ATOM    102  C   UNL     1      -1.869   4.587  -6.190  1.00  0.00     0.059 A 
ATOM    103  C   UNL     1      -0.829   5.987  -7.845  1.00  0.00     0.059 A 
ATOM    104  F   UNL     1       1.211   5.355  -8.796  1.00  0.00    -0.206 F 
ATOM    105  C   UNL     1      -1.872   5.737  -6.963  1.00  0.00     0.060 A 
BRANCH 105 106
ATOM    106  S   UNL     1      -3.264   6.864  -6.779  1.00  0.00     0.124 S 
ATOM    107  O   UNL     1      -4.398   5.947  -6.684  1.00  0.00    -0.237 OA
ATOM    108  O   UNL     1      -2.927   7.560  -5.541  1.00  0.00    -0.237 OA
ATOM    109  O   UNL     1      -3.216   7.667  -7.996  1.00  0.00    -0.744 OA
ENDBRANCH 105 106
ENDBRANCH  73  98
ENDBRANCH  47  48
ENDBRANCH  40  42
ENDBRANCH  39  40
ENDBRANCH  38  39
ENDBRANCH  37  38
ENDBRANCH  36  37
ENDBRANCH  35  36
ENDBRANCH  34  35
ENDBRANCH   1  34
TORSDOF 28
