REMARK SMILES O=C(OCCOCCOCCOCCOC(=O)[C@H]1[C@@H]2C[C@H]3C[C@@H](C2)C[C@]1(n1ncc(N2CCN(c4ccc(F)cc4)CC2)c(Cl)c1=O)C3)c1ccc(-c2c3nc(c(-c4c(F)cc(S(=O)(=O)[O-])cc4F)c4ccc([nH]4)c(-c4c(F)cc(S(=O)(=O)[O-])cc4F)c4nc(c(-c5c(F)cc(S(=O)(=O)[O-])cc5F)c5ccc2[nH]5)C=C4)C=C3)cc1
REMARK SMILES IDX 9 1 8 2 7 3 6 4 5 5 4 6 3 7 2 8 1 9 49 10 50 11 114 12 51 13
REMARK SMILES IDX 113 14 52 15 53 16 54 17 107 18 55 19 112 20 106 21 108 22
REMARK SMILES IDX 56 23 111 24 105 25 104 26 57 28 91 29 70 30 90 31 71 32
REMARK SMILES IDX 74 33 89 34 109 35 72 36 73 37 88 39 110 40 75 41 58 42
REMARK SMILES IDX 59 43 68 44 60 45 61 46 67 47 69 48 62 49 63 50 64 51 65 52
REMARK SMILES IDX 66 53 92 54 93 55 102 56 94 57 95 58 101 59 103 60 96 61
REMARK SMILES IDX 97 62 98 63 99 64 100 65 76 66 77 67 86 68 78 69 79 70 85 71
REMARK SMILES IDX 87 72 80 73 81 74 82 75 83 76 84 77 10 78 11 79 12 80 13 81
REMARK SMILES IDX 14 82 15 83 16 84 17 85 18 86 19 87 26 88 24 89 20 90 48 91
REMARK SMILES IDX 25 92 23 93 21 94 22 95 27 96 28 97 46 98 29 99 44 100
REMARK SMILES IDX 47 101 30 102 45 103 31 104 32 105 43 106 33 107 42 108
REMARK SMILES IDX 34 109 35 110 36 111 41 112 37 113 40 114 38 115 39 116
REMARK H PARENT 108 27 74 38
REMARK Flexibility Score: inf
ROOT
ATOM      1  O   UNL     1       3.322   2.068  -2.764  1.00  0.00    -0.377 OA
ENDROOT
BRANCH   1   2
ATOM      2  C   UNL     1       2.550   1.114  -2.057  1.00  0.00     0.188 C 
BRANCH   2   3
ATOM      3  C   UNL     1       2.909   0.912  -0.589  1.00  0.00     0.188 C 
BRANCH   3   4
ATOM      4  O   UNL     1       4.230   0.411  -0.356  1.00  0.00    -0.376 OA
BRANCH   4   5
ATOM      5  C   UNL     1       4.555  -0.853  -0.920  1.00  0.00     0.202 C 
BRANCH   5   6
ATOM      6  C   UNL     1       4.325  -2.031   0.011  1.00  0.00     0.261 C 
BRANCH   6   7
ATOM      7  O   UNL     1       2.995  -2.059   0.539  1.00  0.00    -0.460 OA
BRANCH   7   8
ATOM      8  C   UNL     1       2.623  -1.638   1.775  1.00  0.00     0.338 C 
ATOM      9  O   UNL     1       1.652  -2.170   2.309  1.00  0.00    -0.246 OA
BRANCH   8  10
ATOM     10  C   UNL     1       3.186  -0.397   2.402  1.00  0.00     0.060 A 
ATOM     11  C   UNL     1       2.266   0.421   3.084  1.00  0.00     0.016 A 
ATOM     12  C   UNL     1       4.529  -0.003   2.384  1.00  0.00     0.016 A 
ATOM     13  C   UNL     1       2.681   1.583   3.743  1.00  0.00     0.010 A 
ATOM     14  C   UNL     1       4.941   1.186   2.988  1.00  0.00     0.010 A 
ATOM     15  C   UNL     1       4.029   1.955   3.714  1.00  0.00    -0.014 A 
BRANCH  15  16
ATOM     16  C   UNL     1       4.557   2.925   4.694  1.00  0.00     0.031 A 
ATOM     17  C   UNL     1       4.751   4.370   4.374  1.00  0.00     0.074 A 
ATOM     18  C   UNL     1       4.925   2.413   5.885  1.00  0.00     0.049 A 
ATOM     19  N   UNL     1       5.092   5.338   5.183  1.00  0.00    -0.248 NA
ATOM     20  C   UNL     1       4.554   4.784   2.978  1.00  0.00     0.031 C 
ATOM     21  C   UNL     1       4.839   0.991   6.240  1.00  0.00     0.029 A 
ATOM     22  N   UNL     1       5.450   3.002   7.001  1.00  0.00    -0.354 N 
ATOM     23  C   UNL     1       5.117   6.490   4.409  1.00  0.00     0.074 A 
ATOM     24  C   UNL     1       4.809   6.087   3.050  1.00  0.00     0.031 C 
ATOM     25  C   UNL     1       5.296   0.819   7.486  1.00  0.00     0.029 A 
ATOM     26  C   UNL     1       5.689   2.115   8.023  1.00  0.00     0.049 A 
ATOM     27  H   UNL     1       5.638   3.966   7.067  1.00  0.00     0.167 HD
ATOM     28  C   UNL     1       5.359   7.760   4.817  1.00  0.00     0.037 A 
ATOM     29  C   UNL     1       6.148   2.324   9.269  1.00  0.00     0.037 A 
ATOM     30  C   UNL     1       5.704   8.104   6.177  1.00  0.00     0.049 A 
ATOM     31  C   UNL     1       6.408   3.734   9.698  1.00  0.00     0.074 A 
ATOM     32  C   UNL     1       5.891   9.359   6.729  1.00  0.00     0.029 A 
ATOM     33  N   UNL     1       5.943   7.184   7.192  1.00  0.00    -0.354 N 
ATOM     34  N   UNL     1       6.277   4.836   8.998  1.00  0.00    -0.248 NA
ATOM     35  C   UNL     1       6.858   3.939  11.078  1.00  0.00     0.031 C 
ATOM     36  C   UNL     1       6.294   9.195   8.060  1.00  0.00     0.029 A 
ATOM     37  C   UNL     1       6.317   7.840   8.354  1.00  0.00     0.049 A 
ATOM     38  H   UNL     1       5.858   6.207   7.098  1.00  0.00     0.167 HD
ATOM     39  C   UNL     1       6.623   5.872   9.853  1.00  0.00     0.074 A 
ATOM     40  C   UNL     1       6.952   5.262  11.129  1.00  0.00     0.031 C 
ATOM     41  C   UNL     1       6.666   7.203   9.603  1.00  0.00     0.037 A 
BRANCH  28  42
ATOM     42  C   UNL     1       5.247   8.865   3.800  1.00  0.00     0.058 A 
ATOM     43  C   UNL     1       4.003   9.243   3.267  1.00  0.00     0.135 A 
ATOM     44  C   UNL     1       6.374   9.603   3.401  1.00  0.00     0.135 A 
ATOM     45  F   UNL     1       2.889   8.577   3.612  1.00  0.00    -0.206 F 
ATOM     46  C   UNL     1       3.884  10.290   2.357  1.00  0.00     0.059 A 
ATOM     47  C   UNL     1       6.275  10.671   2.509  1.00  0.00     0.059 A 
ATOM     48  F   UNL     1       7.588   9.296   3.882  1.00  0.00    -0.206 F 
ATOM     49  C   UNL     1       5.027  10.999   1.984  1.00  0.00     0.060 A 
BRANCH  49  50
ATOM     50  S   UNL     1       4.849  12.357   0.806  1.00  0.00     0.124 S 
ATOM     51  O   UNL     1       4.534  11.639  -0.425  1.00  0.00    -0.237 OA
ATOM     52  O   UNL     1       3.755  13.131   1.385  1.00  0.00    -0.237 OA
ATOM     53  O   UNL     1       6.155  13.008   0.833  1.00  0.00    -0.744 OA
ENDBRANCH  49  50
ENDBRANCH  28  42
BRANCH  29  54
ATOM     54  C   UNL     1       6.281   1.164  10.184  1.00  0.00     0.058 A 
ATOM     55  C   UNL     1       5.318   0.923  11.173  1.00  0.00     0.135 A 
ATOM     56  C   UNL     1       7.284   0.199   9.994  1.00  0.00     0.135 A 
ATOM     57  F   UNL     1       4.335   1.812  11.382  1.00  0.00    -0.206 F 
ATOM     58  C   UNL     1       5.333  -0.241  11.934  1.00  0.00     0.059 A 
ATOM     59  C   UNL     1       7.310  -0.981  10.731  1.00  0.00     0.059 A 
ATOM     60  F   UNL     1       8.209   0.371   9.037  1.00  0.00    -0.206 F 
ATOM     61  C   UNL     1       6.326  -1.194  11.696  1.00  0.00     0.060 A 
BRANCH  61  62
ATOM     62  S   UNL     1       6.269  -2.746  12.617  1.00  0.00     0.124 S 
ATOM     63  O   UNL     1       6.627  -2.303  13.962  1.00  0.00    -0.237 OA
ATOM     64  O   UNL     1       4.883  -3.161  12.431  1.00  0.00    -0.237 OA
ATOM     65  O   UNL     1       7.261  -3.576  11.943  1.00  0.00    -0.744 OA
ENDBRANCH  61  62
ENDBRANCH  29  54
BRANCH  41  66
ATOM     66  C   UNL     1       7.126   8.091  10.722  1.00  0.00     0.058 A 
ATOM     67  C   UNL     1       8.485   8.177  11.062  1.00  0.00     0.135 A 
ATOM     68  C   UNL     1       6.222   8.927  11.396  1.00  0.00     0.135 A 
ATOM     69  F   UNL     1       9.384   7.385  10.457  1.00  0.00    -0.206 F 
ATOM     70  C   UNL     1       8.934   9.069  12.028  1.00  0.00     0.059 A 
ATOM     71  C   UNL     1       6.653   9.843  12.350  1.00  0.00     0.059 A 
ATOM     72  F   UNL     1       4.912   8.880  11.105  1.00  0.00    -0.206 F 
ATOM     73  C   UNL     1       8.012   9.907  12.657  1.00  0.00     0.060 A 
BRANCH  73  74
ATOM     74  S   UNL     1       8.626  11.117  13.848  1.00  0.00     0.124 S 
ATOM     75  O   UNL     1       9.016  10.261  14.964  1.00  0.00    -0.237 OA
ATOM     76  O   UNL     1       9.722  11.742  13.115  1.00  0.00    -0.237 OA
ATOM     77  O   UNL     1       7.470  11.975  14.089  1.00  0.00    -0.744 OA
ENDBRANCH  73  74
ENDBRANCH  41  66
ENDBRANCH  15  16
ENDBRANCH   8  10
ENDBRANCH   7   8
ENDBRANCH   6   7
ENDBRANCH   5   6
ENDBRANCH   4   5
ENDBRANCH   3   4
ENDBRANCH   2   3
ENDBRANCH   1   2
BRANCH   1  78
ATOM     78  C   UNL     1       4.728   2.071  -2.592  1.00  0.00     0.188 C 
BRANCH  78  79
ATOM     79  C   UNL     1       5.244   3.249  -1.760  1.00  0.00     0.188 C 
BRANCH  79  80
ATOM     80  O   UNL     1       4.293   4.009  -1.030  1.00  0.00    -0.376 OA
BRANCH  80  81
ATOM     81  C   UNL     1       3.239   4.675  -1.734  1.00  0.00     0.202 C 
BRANCH  81  82
ATOM     82  C   UNL     1       3.506   5.270  -3.128  1.00  0.00     0.261 C 
BRANCH  82  83
ATOM     83  O   UNL     1       3.322   4.306  -4.198  1.00  0.00    -0.463 OA
BRANCH  83  84
ATOM     84  C   UNL     1       4.408   4.013  -4.948  1.00  0.00     0.311 C 
ATOM     85  O   UNL     1       5.534   4.472  -4.753  1.00  0.00    -0.252 OA
BRANCH  84  86
ATOM     86  C   UNL     1       4.169   3.039  -6.097  1.00  0.00     0.130 C 
ATOM     87  C   UNL     1       3.206   1.841  -5.874  1.00  0.00     0.006 C 
ATOM     88  C   UNL     1       3.852   3.732  -7.451  1.00  0.00     0.081 C 
ATOM     89  C   UNL     1       1.729   2.255  -5.961  1.00  0.00     0.008 C 
ATOM     90  C   UNL     1       3.465   0.790  -6.974  1.00  0.00     0.008 C 
ATOM     91  C   UNL     1       4.091   2.627  -8.550  1.00  0.00     0.035 C 
ATOM     92  C   UNL     1       2.345   4.109  -7.519  1.00  0.00     0.035 C 
ATOM     93  C   UNL     1       1.441   2.880  -7.333  1.00  0.00    -0.008 C 
ATOM     94  C   UNL     1       3.190   1.403  -8.352  1.00  0.00    -0.008 C 
ATOM     95  C   UNL     1       1.729   1.853  -8.435  1.00  0.00     0.007 C 
BRANCH  88  96
ATOM     96  N   UNL     1       4.737   4.913  -7.721  1.00  0.00    -0.222 N 
ATOM     97  N   UNL     1       5.712   4.716  -8.673  1.00  0.00    -0.175 NA
ATOM     98  C   UNL     1       4.603   6.126  -7.030  1.00  0.00     0.288 A 
ATOM     99  C   UNL     1       6.490   5.704  -8.948  1.00  0.00     0.161 A 
ATOM    100  C   UNL     1       5.614   7.180  -7.322  1.00  0.00     0.132 A 
ATOM    101  O   UNL     1       3.685   6.364  -6.247  1.00  0.00    -0.266 OA
ATOM    102  C   UNL     1       6.487   7.045  -8.327  1.00  0.00     0.082 A 
ATOM    103  Cl  UNL     1       5.466   8.652  -6.426  1.00  0.00    -0.076 Cl
BRANCH 102 104
ATOM    104  N   UNL     1       7.335   7.979  -8.908  1.00  0.00    -0.365 N 
ATOM    105  C   UNL     1       6.963   8.607 -10.195  1.00  0.00     0.138 C 
ATOM    106  C   UNL     1       8.456   8.636  -8.202  1.00  0.00     0.138 C 
ATOM    107  C   UNL     1       6.683  10.114 -10.011  1.00  0.00     0.138 C 
ATOM    108  C   UNL     1       8.279  10.167  -8.100  1.00  0.00     0.138 C 
ATOM    109  N   UNL     1       7.848  10.743  -9.383  1.00  0.00    -0.368 N 
BRANCH 109 110
ATOM    110  C   UNL     1       8.575  11.705 -10.037  1.00  0.00     0.037 A 
ATOM    111  C   UNL     1       9.954  11.562 -10.243  1.00  0.00     0.029 A 
ATOM    112  C   UNL     1       7.953  12.867 -10.513  1.00  0.00     0.029 A 
ATOM    113  C   UNL     1      10.691  12.551 -10.897  1.00  0.00     0.041 A 
ATOM    114  C   UNL     1       8.686  13.870 -11.151  1.00  0.00     0.041 A 
ATOM    115  C   UNL     1      10.050  13.700 -11.338  1.00  0.00     0.123 A 
ATOM    116  F   UNL     1      10.758  14.658 -11.951  1.00  0.00    -0.207 F 
ENDBRANCH 109 110
ENDBRANCH 102 104
ENDBRANCH  88  96
ENDBRANCH  84  86
ENDBRANCH  83  84
ENDBRANCH  82  83
ENDBRANCH  81  82
ENDBRANCH  80  81
ENDBRANCH  79  80
ENDBRANCH  78  79
ENDBRANCH   1  78
TORSDOF 26
