REMARK SMILES COC(=O)N[C@@H](C(=O)OCCOCCOCCOCCOC(=O)c1ccc(-c2c3nc(c(-c4c(F)cc(S(=O)(=O)[O-])cc4F)c4ccc([nH]4)c(-c4c(F)cc(S(=O)(=O)[O-])cc4F)c4nc(c(-c5c(F)cc(S(=O)(=O)[O-])cc5F)c5ccc2[nH]5)C=C4)C=C3)cc1)C1COC1
REMARK SMILES IDX 16 1 15 2 14 3 13 4 12 5 11 6 10 7 9 8 7 9 8 10 6 11 5 12
REMARK SMILES IDX 3 13 4 14 2 16 1 17 90 18 91 19 93 20 92 21 17 22 18 23
REMARK SMILES IDX 19 24 20 25 21 26 22 27 23 28 24 29 25 30 89 31 26 32 88 33
REMARK SMILES IDX 27 34 28 35 29 36 82 37 30 38 87 39 81 40 83 41 31 42 86 43
REMARK SMILES IDX 80 44 79 45 32 47 66 48 45 49 65 50 46 51 49 52 64 53 84 54
REMARK SMILES IDX 47 55 48 56 63 58 85 59 50 60 33 61 34 62 43 63 35 64 36 65
REMARK SMILES IDX 42 66 44 67 37 68 38 69 39 70 40 71 41 72 67 73 68 74 77 75
REMARK SMILES IDX 69 76 70 77 76 78 78 79 71 80 72 81 73 82 74 83 75 84 51 85
REMARK SMILES IDX 52 86 61 87 53 88 54 89 60 90 62 91 55 92 56 93 57 94 58 95
REMARK SMILES IDX 59 96
REMARK H PARENT 5 15 83 46 49 57
REMARK Flexibility Score: inf
ROOT
ATOM      1  C   UNL     1      -2.350  -3.841   5.205  1.00  0.00     0.188 C 
ENDROOT
BRANCH   1   2
ATOM      2  O   UNL     1      -1.967  -2.531   4.806  1.00  0.00    -0.377 OA
BRANCH   2   3
ATOM      3  C   UNL     1      -1.238  -1.786   5.754  1.00  0.00     0.188 C 
BRANCH   3   4
ATOM      4  C   UNL     1      -2.093  -0.817   6.576  1.00  0.00     0.188 C 
BRANCH   4   5
ATOM      5  O   UNL     1      -3.505  -0.916   6.578  1.00  0.00    -0.376 OA
BRANCH   5   6
ATOM      6  C   UNL     1      -4.210  -0.988   5.344  1.00  0.00     0.202 C 
BRANCH   6   7
ATOM      7  C   UNL     1      -3.819  -0.158   4.100  1.00  0.00     0.261 C 
BRANCH   7   8
ATOM      8  O   UNL     1      -2.414  -0.004   3.819  1.00  0.00    -0.462 OA
BRANCH   8   9
ATOM      9  C   UNL     1      -1.919   1.261   3.834  1.00  0.00     0.329 C 
ATOM     10  O   UNL     1      -2.579   2.258   4.109  1.00  0.00    -0.250 OA
BRANCH   9  11
ATOM     11  C   UNL     1      -0.403   1.342   3.561  1.00  0.00     0.203 C 
BRANCH  11  12
ATOM     12  N   UNL     1       0.306   0.103   3.221  1.00  0.00    -0.307 N 
ATOM     13  C   UNL     1       0.697  -0.335   1.996  1.00  0.00     0.407 C 
ATOM     14  O   UNL     1       1.369  -1.352   1.884  1.00  0.00    -0.225 OA
ATOM     15  H   UNL     1       0.526  -0.486   3.978  1.00  0.00     0.168 HD
BRANCH  13  16
ATOM     16  O   UNL     1       0.338   0.488   0.985  1.00  0.00    -0.453 OA
ATOM     17  C   UNL     1       0.865   0.083  -0.280  1.00  0.00     0.284 C 
ENDBRANCH  13  16
ENDBRANCH  11  12
BRANCH  11  18
ATOM     18  C   UNL     1       0.404   1.952   4.711  1.00  0.00     0.075 C 
ATOM     19  C   UNL     1       0.323   3.482   4.867  1.00  0.00     0.168 C 
ATOM     20  C   UNL     1      -0.067   1.989   6.186  1.00  0.00     0.168 C 
ATOM     21  O   UNL     1       0.472   3.338   6.312  1.00  0.00    -0.380 OA
ENDBRANCH  11  18
ENDBRANCH   9  11
ENDBRANCH   8   9
ENDBRANCH   7   8
ENDBRANCH   6   7
ENDBRANCH   5   6
ENDBRANCH   4   5
ENDBRANCH   3   4
ENDBRANCH   2   3
ENDBRANCH   1   2
BRANCH   1  22
ATOM     22  C   UNL     1      -2.708  -4.074   6.689  1.00  0.00     0.188 C 
BRANCH  22  23
ATOM     23  O   UNL     1      -1.688  -3.679   7.605  1.00  0.00    -0.376 OA
BRANCH  23  24
ATOM     24  C   UNL     1      -0.804  -4.680   8.095  1.00  0.00     0.202 C 
BRANCH  24  25
ATOM     25  C   UNL     1       0.207  -5.260   7.093  1.00  0.00     0.261 C 
BRANCH  25  26
ATOM     26  O   UNL     1      -0.340  -5.985   5.981  1.00  0.00    -0.460 OA
BRANCH  26  27
ATOM     27  C   UNL     1      -1.222  -6.977   6.223  1.00  0.00     0.338 C 
ATOM     28  O   UNL     1      -1.564  -7.412   7.307  1.00  0.00    -0.246 OA
BRANCH  27  29
ATOM     29  C   UNL     1      -1.873  -7.304   4.938  1.00  0.00     0.060 A 
ATOM     30  C   UNL     1      -3.269  -7.222   4.837  1.00  0.00     0.016 A 
ATOM     31  C   UNL     1      -1.099  -7.662   3.832  1.00  0.00     0.016 A 
ATOM     32  C   UNL     1      -3.901  -7.535   3.633  1.00  0.00     0.010 A 
ATOM     33  C   UNL     1      -1.733  -8.000   2.638  1.00  0.00     0.010 A 
ATOM     34  C   UNL     1      -3.136  -7.973   2.545  1.00  0.00    -0.014 A 
BRANCH  34  35
ATOM     35  C   UNL     1      -3.777  -8.652   1.396  1.00  0.00     0.031 A 
ATOM     36  C   UNL     1      -3.845 -10.153   1.431  1.00  0.00     0.074 A 
ATOM     37  C   UNL     1      -4.231  -7.970   0.331  1.00  0.00     0.049 A 
ATOM     38  N   UNL     1      -4.194 -10.993   0.495  1.00  0.00    -0.248 NA
ATOM     39  C   UNL     1      -3.450 -10.791   2.699  1.00  0.00     0.031 C 
ATOM     40  C   UNL     1      -4.274  -6.515   0.209  1.00  0.00     0.029 A 
ATOM     41  N   UNL     1      -4.725  -8.425  -0.866  1.00  0.00    -0.354 N 
ATOM     42  C   UNL     1      -4.030 -12.258   1.048  1.00  0.00     0.074 A 
ATOM     43  C   UNL     1      -3.541 -12.076   2.396  1.00  0.00     0.031 C 
ATOM     44  C   UNL     1      -4.753  -6.195  -1.006  1.00  0.00     0.029 A 
ATOM     45  C   UNL     1      -5.003  -7.421  -1.764  1.00  0.00     0.049 A 
ATOM     46  H   UNL     1      -4.866  -9.379  -1.064  1.00  0.00     0.167 HD
ATOM     47  C   UNL     1      -4.260 -13.463   0.478  1.00  0.00     0.037 A 
ATOM     48  C   UNL     1      -5.383  -7.494  -3.056  1.00  0.00     0.037 A 
ATOM     49  C   UNL     1      -4.742 -13.630  -0.866  1.00  0.00     0.049 A 
ATOM     50  C   UNL     1      -5.551  -8.848  -3.700  1.00  0.00     0.074 A 
ATOM     51  C   UNL     1      -5.032 -14.805  -1.534  1.00  0.00     0.029 A 
ATOM     52  N   UNL     1      -4.988 -12.590  -1.750  1.00  0.00    -0.354 N 
ATOM     53  N   UNL     1      -5.410 -10.039  -3.168  1.00  0.00    -0.248 NA
ATOM     54  C   UNL     1      -5.917  -8.870  -5.125  1.00  0.00     0.031 C 
ATOM     55  C   UNL     1      -5.398 -14.478  -2.844  1.00  0.00     0.029 A 
ATOM     56  C   UNL     1      -5.398 -13.097  -2.971  1.00  0.00     0.049 A 
ATOM     57  H   UNL     1      -4.885 -11.634  -1.541  1.00  0.00     0.167 HD
ATOM     58  C   UNL     1      -5.715 -10.949  -4.177  1.00  0.00     0.074 A 
ATOM     59  C   UNL     1      -6.034 -10.171  -5.356  1.00  0.00     0.031 C 
ATOM     60  C   UNL     1      -5.739 -12.304  -4.127  1.00  0.00     0.037 A 
BRANCH  47  61
ATOM     61  C   UNL     1      -3.938 -14.685   1.292  1.00  0.00     0.058 A 
ATOM     62  C   UNL     1      -4.693 -15.053   2.417  1.00  0.00     0.135 A 
ATOM     63  C   UNL     1      -2.846 -15.496   0.942  1.00  0.00     0.135 A 
ATOM     64  F   UNL     1      -5.734 -14.301   2.808  1.00  0.00    -0.206 F 
ATOM     65  C   UNL     1      -4.351 -16.158   3.191  1.00  0.00     0.059 A 
ATOM     66  C   UNL     1      -2.505 -16.623   1.683  1.00  0.00     0.059 A 
ATOM     67  F   UNL     1      -2.087 -15.188  -0.122  1.00  0.00    -0.206 F 
ATOM     68  C   UNL     1      -3.252 -16.933   2.818  1.00  0.00     0.060 A 
BRANCH  68  69
ATOM     69  S   UNL     1      -2.804 -18.347   3.847  1.00  0.00     0.124 S 
ATOM     70  O   UNL     1      -2.232 -17.685   5.016  1.00  0.00    -0.237 OA
ATOM     71  O   UNL     1      -4.092 -19.001   4.057  1.00  0.00    -0.237 OA
ATOM     72  O   UNL     1      -1.857 -19.085   3.018  1.00  0.00    -0.744 OA
ENDBRANCH  68  69
ENDBRANCH  47  61
BRANCH  48  73
ATOM     73  C   UNL     1      -5.633  -6.247  -3.829  1.00  0.00     0.058 A 
ATOM     74  C   UNL     1      -6.934  -5.897  -4.220  1.00  0.00     0.135 A 
ATOM     75  C   UNL     1      -4.590  -5.377  -4.182  1.00  0.00     0.135 A 
ATOM     76  F   UNL     1      -7.964  -6.704  -3.921  1.00  0.00    -0.206 F 
ATOM     77  C   UNL     1      -7.193  -4.731  -4.933  1.00  0.00     0.059 A 
ATOM     78  C   UNL     1      -4.826  -4.193  -4.875  1.00  0.00     0.059 A 
ATOM     79  F   UNL     1      -3.327  -5.664  -3.830  1.00  0.00    -0.206 F 
ATOM     80  C   UNL     1      -6.132  -3.881  -5.250  1.00  0.00     0.060 A 
BRANCH  80  81
ATOM     81  S   UNL     1      -6.492  -2.338  -6.117  1.00  0.00     0.124 S 
ATOM     82  O   UNL     1      -6.844  -2.822  -7.447  1.00  0.00    -0.237 OA
ATOM     83  O   UNL     1      -7.590  -1.792  -5.324  1.00  0.00    -0.237 OA
ATOM     84  O   UNL     1      -5.236  -1.600  -6.025  1.00  0.00    -0.744 OA
ENDBRANCH  80  81
ENDBRANCH  48  73
BRANCH  60  85
ATOM     85  C   UNL     1      -6.186 -13.052  -5.353  1.00  0.00     0.058 A 
ATOM     86  C   UNL     1      -5.356 -13.210  -6.471  1.00  0.00     0.135 A 
ATOM     87  C   UNL     1      -7.420 -13.725  -5.350  1.00  0.00     0.135 A 
ATOM     88  F   UNL     1      -4.171 -12.581  -6.528  1.00  0.00    -0.206 F 
ATOM     89  C   UNL     1      -5.729 -14.015  -7.543  1.00  0.00     0.059 A 
ATOM     90  C   UNL     1      -7.802 -14.556  -6.398  1.00  0.00     0.059 A 
ATOM     91  F   UNL     1      -8.247 -13.614  -4.298  1.00  0.00    -0.206 F 
ATOM     92  C   UNL     1      -6.949 -14.695  -7.491  1.00  0.00     0.060 A 
BRANCH  92  93
ATOM     93  S   UNL     1      -7.379 -15.808  -8.846  1.00  0.00     0.124 S 
ATOM     94  O   UNL     1      -7.694 -14.866  -9.914  1.00  0.00    -0.237 OA
ATOM     95  O   UNL     1      -6.151 -16.577  -9.019  1.00  0.00    -0.237 OA
ATOM     96  O   UNL     1      -8.514 -16.562  -8.320  1.00  0.00    -0.744 OA
ENDBRANCH  92  93
ENDBRANCH  60  85
ENDBRANCH  34  35
ENDBRANCH  27  29
ENDBRANCH  26  27
ENDBRANCH  25  26
ENDBRANCH  24  25
ENDBRANCH  23  24
ENDBRANCH  22  23
ENDBRANCH   1  22
TORSDOF 26
