REMARK SMILES CCC[C@@H]([NH2+]Cc1cc(Cl)cs1)C(=O)OCCOCCOCCOCCOC(=O)c1ccc(-c2c3nc(c(-c4c(F)cc(S(=O)(=O)[O-])cc4F)c4ccc([nH]4)c(-c4c(F)cc(S(=O)(=O)[O-])cc4F)c4nc(c(-c5c(F)cc(S(=O)(=O)[O-])cc5F)c5ccc2[nH]5)C=C4)C=C3)cc1
REMARK SMILES IDX 21 1 20 2 19 3 18 4 17 5 16 6 15 7 13 8 14 9 4 10 3 11 2 12
REMARK SMILES IDX 1 13 5 14 6 17 7 18 8 19 12 20 9 21 11 22 10 23 22 24 23 25
REMARK SMILES IDX 24 26 25 27 26 28 27 29 28 30 29 31 30 32 31 33 95 34 32 35
REMARK SMILES IDX 94 36 33 37 34 38 35 39 88 40 36 41 93 42 87 43 89 44 37 45
REMARK SMILES IDX 92 46 86 47 85 48 38 50 72 51 51 52 71 53 52 54 55 55 70 56
REMARK SMILES IDX 90 57 53 58 54 59 69 61 91 62 56 63 39 64 40 65 49 66 41 67
REMARK SMILES IDX 42 68 48 69 50 70 43 71 44 72 45 73 46 74 47 75 73 76 74 77
REMARK SMILES IDX 83 78 75 79 76 80 82 81 84 82 77 83 78 84 79 85 80 86 81 87
REMARK SMILES IDX 57 88 58 89 67 90 59 91 60 92 66 93 68 94 61 95 62 96 63 97
REMARK SMILES IDX 64 98 65 99
REMARK H PARENT 5 15 5 16 89 49 55 60
REMARK Flexibility Score: inf
ROOT
ATOM      1  O   UNL     1       2.699   0.561   4.963  1.00  0.00    -0.377 OA
ENDROOT
BRANCH   1   2
ATOM      2  C   UNL     1       3.165   1.309   3.862  1.00  0.00     0.188 C 
BRANCH   2   3
ATOM      3  C   UNL     1       3.098   2.831   4.029  1.00  0.00     0.188 C 
BRANCH   3   4
ATOM      4  O   UNL     1       3.014   3.434   5.305  1.00  0.00    -0.376 OA
BRANCH   4   5
ATOM      5  C   UNL     1       2.065   3.061   6.292  1.00  0.00     0.202 C 
BRANCH   5   6
ATOM      6  C   UNL     1       0.619   2.593   6.033  1.00  0.00     0.261 C 
BRANCH   6   7
ATOM      7  O   UNL     1       0.369   1.708   4.933  1.00  0.00    -0.459 OA
BRANCH   7   8
ATOM      8  C   UNL     1      -0.048   2.333   3.811  1.00  0.00     0.364 C 
ATOM      9  O   UNL     1      -0.143   3.558   3.730  1.00  0.00    -0.245 OA
BRANCH   8  10
ATOM     10  C   UNL     1      -0.331   1.410   2.602  1.00  0.00     0.293 C 
BRANCH  10  11
ATOM     11  C   UNL     1       0.043  -0.088   2.717  1.00  0.00     0.077 C 
BRANCH  11  12
ATOM     12  C   UNL     1       0.055  -0.858   1.375  1.00  0.00     0.003 C 
ATOM     13  C   UNL     1       0.995  -0.298   0.312  1.00  0.00     0.004 C 
ENDBRANCH  11  12
ENDBRANCH  10  11
BRANCH  10  14
ATOM     14  N   UNL     1      -1.752   1.474   2.174  1.00  0.00    -0.330 N 
ATOM     15  H   UNL     1      -2.305   0.954   2.855  1.00  0.00     0.347 HD
ATOM     16  H   UNL     1      -1.769   1.086   1.231  1.00  0.00     0.347 HD
BRANCH  14  17
ATOM     17  C   UNL     1      -2.335   2.811   2.055  1.00  0.00     0.309 C 
BRANCH  17  18
ATOM     18  C   UNL     1      -1.669   3.709   1.050  1.00  0.00     0.060 A 
ATOM     19  C   UNL     1      -1.346   5.045   1.213  1.00  0.00     0.041 A 
ATOM     20  S   UNL     1      -1.256   3.161  -0.522  1.00  0.00    -0.141 S 
ATOM     21  C   UNL     1      -0.738   5.603   0.058  1.00  0.00     0.052 A 
ATOM     22  C   UNL     1      -0.587   4.676  -0.945  1.00  0.00     0.085 A 
ATOM     23  Cl  UNL     1      -0.260   7.239  -0.042  1.00  0.00    -0.083 Cl
ENDBRANCH  17  18
ENDBRANCH  14  17
ENDBRANCH  10  14
ENDBRANCH   8  10
ENDBRANCH   7   8
ENDBRANCH   6   7
ENDBRANCH   5   6
ENDBRANCH   4   5
ENDBRANCH   3   4
ENDBRANCH   2   3
ENDBRANCH   1   2
BRANCH   1  24
ATOM     24  C   UNL     1       3.619   0.199   5.987  1.00  0.00     0.188 C 
BRANCH  24  25
ATOM     25  C   UNL     1       4.929   0.995   6.155  1.00  0.00     0.188 C 
BRANCH  25  26
ATOM     26  O   UNL     1       5.619   1.259   4.942  1.00  0.00    -0.376 OA
BRANCH  26  27
ATOM     27  C   UNL     1       6.649   0.365   4.543  1.00  0.00     0.202 C 
BRANCH  27  28
ATOM     28  C   UNL     1       6.247  -1.087   4.231  1.00  0.00     0.261 C 
BRANCH  28  29
ATOM     29  O   UNL     1       5.707  -1.848   5.325  1.00  0.00    -0.460 OA
BRANCH  29  30
ATOM     30  C   UNL     1       6.440  -1.931   6.451  1.00  0.00     0.338 C 
ATOM     31  O   UNL     1       7.575  -1.506   6.619  1.00  0.00    -0.246 OA
BRANCH  30  32
ATOM     32  C   UNL     1       5.581  -2.442   7.537  1.00  0.00     0.060 A 
ATOM     33  C   UNL     1       5.463  -1.679   8.706  1.00  0.00     0.016 A 
ATOM     34  C   UNL     1       4.941  -3.680   7.430  1.00  0.00     0.016 A 
ATOM     35  C   UNL     1       4.776  -2.190   9.803  1.00  0.00     0.010 A 
ATOM     36  C   UNL     1       4.266  -4.199   8.539  1.00  0.00     0.010 A 
ATOM     37  C   UNL     1       4.235  -3.482   9.749  1.00  0.00    -0.014 A 
BRANCH  37  38
ATOM     38  C   UNL     1       3.889  -4.156  11.025  1.00  0.00     0.031 A 
ATOM     39  C   UNL     1       4.905  -5.091  11.630  1.00  0.00     0.074 A 
ATOM     40  C   UNL     1       2.746  -3.880  11.678  1.00  0.00     0.049 A 
ATOM     41  N   UNL     1       4.858  -5.758  12.754  1.00  0.00    -0.248 NA
ATOM     42  C   UNL     1       6.145  -5.300  10.863  1.00  0.00     0.031 C 
ATOM     43  C   UNL     1       1.708  -2.962  11.215  1.00  0.00     0.029 A 
ATOM     44  N   UNL     1       2.275  -4.345  12.880  1.00  0.00    -0.354 N 
ATOM     45  C   UNL     1       6.054  -6.464  12.826  1.00  0.00     0.074 A 
ATOM     46  C   UNL     1       6.789  -6.179  11.614  1.00  0.00     0.031 C 
ATOM     47  C   UNL     1       0.718  -2.931  12.125  1.00  0.00     0.029 A 
ATOM     48  C   UNL     1       1.042  -3.844  13.221  1.00  0.00     0.049 A 
ATOM     49  H   UNL     1       2.774  -4.977  13.446  1.00  0.00     0.167 HD
ATOM     50  C   UNL     1       6.509  -7.265  13.819  1.00  0.00     0.037 A 
ATOM     51  C   UNL     1       0.262  -4.103  14.289  1.00  0.00     0.037 A 
ATOM     52  C   UNL     1       5.775  -7.543  15.025  1.00  0.00     0.049 A 
ATOM     53  C   UNL     1       0.763  -5.046  15.355  1.00  0.00     0.074 A 
ATOM     54  C   UNL     1       6.150  -8.331  16.098  1.00  0.00     0.029 A 
ATOM     55  N   UNL     1       4.511  -7.048  15.315  1.00  0.00    -0.354 N 
ATOM     56  N   UNL     1       1.906  -5.689  15.421  1.00  0.00    -0.248 NA
ATOM     57  C   UNL     1      -0.128  -5.289  16.498  1.00  0.00     0.031 C 
ATOM     58  C   UNL     1       5.089  -8.360  17.010  1.00  0.00     0.029 A 
ATOM     59  C   UNL     1       4.080  -7.536  16.538  1.00  0.00     0.049 A 
ATOM     60  H   UNL     1       3.996  -6.441  14.736  1.00  0.00     0.167 HD
ATOM     61  C   UNL     1       1.882  -6.387  16.625  1.00  0.00     0.074 A 
ATOM     62  C   UNL     1       0.620  -6.072  17.262  1.00  0.00     0.031 C 
ATOM     63  C   UNL     1       2.819  -7.213  17.159  1.00  0.00     0.037 A 
BRANCH  50  64
ATOM     64  C   UNL     1       7.851  -7.920  13.626  1.00  0.00     0.058 A 
ATOM     65  C   UNL     1       9.048  -7.186  13.646  1.00  0.00     0.135 A 
ATOM     66  C   UNL     1       7.941  -9.309  13.439  1.00  0.00     0.135 A 
ATOM     67  F   UNL     1       9.022  -5.852  13.798  1.00  0.00    -0.206 F 
ATOM     68  C   UNL     1      10.283  -7.801  13.462  1.00  0.00     0.059 A 
ATOM     69  C   UNL     1       9.166  -9.950  13.285  1.00  0.00     0.059 A 
ATOM     70  F   UNL     1       6.829 -10.060  13.405  1.00  0.00    -0.206 F 
ATOM     71  C   UNL     1      10.332  -9.185  13.284  1.00  0.00     0.060 A 
BRANCH  71  72
ATOM     72  S   UNL     1      11.941  -9.969  13.055  1.00  0.00     0.124 S 
ATOM     73  O   UNL     1      12.301  -9.511  11.716  1.00  0.00    -0.237 OA
ATOM     74  O   UNL     1      12.722  -9.400  14.149  1.00  0.00    -0.237 OA
ATOM     75  O   UNL     1      11.647 -11.393  13.172  1.00  0.00    -0.744 OA
ENDBRANCH  71  72
ENDBRANCH  50  64
BRANCH  51  76
ATOM     76  C   UNL     1      -1.079  -3.465  14.408  1.00  0.00     0.058 A 
ATOM     77  C   UNL     1      -1.354  -2.521  15.408  1.00  0.00     0.135 A 
ATOM     78  C   UNL     1      -2.118  -3.799  13.524  1.00  0.00     0.135 A 
ATOM     79  F   UNL     1      -0.400  -2.178  16.287  1.00  0.00    -0.206 F 
ATOM     80  C   UNL     1      -2.613  -1.944  15.541  1.00  0.00     0.059 A 
ATOM     81  C   UNL     1      -3.376  -3.213  13.617  1.00  0.00     0.059 A 
ATOM     82  F   UNL     1      -1.907  -4.691  12.543  1.00  0.00    -0.206 F 
ATOM     83  C   UNL     1      -3.618  -2.293  14.636  1.00  0.00     0.060 A 
BRANCH  83  84
ATOM     84  S   UNL     1      -5.233  -1.501  14.787  1.00  0.00     0.124 S 
ATOM     85  O   UNL     1      -5.754  -2.122  15.999  1.00  0.00    -0.237 OA
ATOM     86  O   UNL     1      -4.872  -0.091  14.895  1.00  0.00    -0.237 OA
ATOM     87  O   UNL     1      -5.907  -1.874  13.547  1.00  0.00    -0.744 OA
ENDBRANCH  83  84
ENDBRANCH  51  76
BRANCH  63  88
ATOM     88  C   UNL     1       2.531  -7.802  18.516  1.00  0.00     0.058 A 
ATOM     89  C   UNL     1       1.530  -8.766  18.711  1.00  0.00     0.135 A 
ATOM     90  C   UNL     1       3.286  -7.409  19.634  1.00  0.00     0.135 A 
ATOM     91  F   UNL     1       0.778  -9.179  17.678  1.00  0.00    -0.206 F 
ATOM     92  C   UNL     1       1.254  -9.283  19.974  1.00  0.00     0.059 A 
ATOM     93  C   UNL     1       3.052  -7.939  20.899  1.00  0.00     0.059 A 
ATOM     94  F   UNL     1       4.269  -6.504  19.504  1.00  0.00    -0.206 F 
ATOM     95  C   UNL     1       2.018  -8.860  21.062  1.00  0.00     0.060 A 
BRANCH  95  96
ATOM     96  S   UNL     1       1.645  -9.532  22.696  1.00  0.00     0.124 S 
ATOM     97  O   UNL     1       0.397  -8.848  23.016  1.00  0.00    -0.237 OA
ATOM     98  O   UNL     1       1.534 -10.962  22.427  1.00  0.00    -0.237 OA
ATOM     99  O   UNL     1       2.800  -9.139  23.497  1.00  0.00    -0.744 OA
ENDBRANCH  95  96
ENDBRANCH  63  88
ENDBRANCH  37  38
ENDBRANCH  30  32
ENDBRANCH  29  30
ENDBRANCH  28  29
ENDBRANCH  27  28
ENDBRANCH  26  27
ENDBRANCH  25  26
ENDBRANCH  24  25
ENDBRANCH   1  24
TORSDOF 28
