REMARK SMILES O=C(OCCOCCOCCOCCOC(=O)c1ccc(S(=O)(=O)NCC[NH+]2CCCC2)c(F)c1)c1ccc(-c2c3nc(c(-c4c(F)cc(S(=O)(=O)[O-])cc4F)c4ccc([nH]4)c(-c4c(F)cc(S(=O)(=O)[O-])cc4F)c4nc(c(-c5c(F)cc(S(=O)(=O)[O-])cc5F)c5ccc2[nH]5)C=C4)C=C3)cc1
REMARK SMILES IDX 10 1 9 2 8 3 7 4 6 5 5 6 4 7 3 8 2 9 1 10 36 11 37 12 101 13
REMARK SMILES IDX 38 14 100 15 39 16 40 17 41 18 94 19 42 20 99 21 93 22 95 23
REMARK SMILES IDX 43 24 98 25 92 26 91 27 44 29 78 30 57 31 77 32 58 33 61 34
REMARK SMILES IDX 76 35 96 36 59 37 60 38 75 40 97 41 62 42 45 43 46 44 55 45
REMARK SMILES IDX 47 46 48 47 54 48 56 49 49 50 50 51 51 52 52 53 53 54 79 55
REMARK SMILES IDX 80 56 89 57 81 58 82 59 88 60 90 61 83 62 84 63 85 64 86 65
REMARK SMILES IDX 87 66 63 67 64 68 73 69 65 70 66 71 72 72 74 73 67 74 68 75
REMARK SMILES IDX 69 76 70 77 71 78 11 79 12 80 13 81 14 82 15 83 16 84 17 85
REMARK SMILES IDX 18 86 19 87 35 88 20 89 33 90 21 91 34 92 22 93 23 94 24 95
REMARK SMILES IDX 25 96 26 98 27 99 28 100 29 101 32 102 30 104 31 105
REMARK H PARENT 95 28 61 39 25 97 28 103
REMARK Flexibility Score: inf
ROOT
ATOM      1  C   UNL     1       3.971  -1.455   3.588  1.00  0.00     0.188 C 
ENDROOT
BRANCH   1   2
ATOM      2  O   UNL     1       2.550  -1.424   3.673  1.00  0.00    -0.377 OA
BRANCH   2   3
ATOM      3  C   UNL     1       1.835  -1.212   2.455  1.00  0.00     0.188 C 
BRANCH   3   4
ATOM      4  C   UNL     1       2.283   0.002   1.641  1.00  0.00     0.188 C 
BRANCH   4   5
ATOM      5  O   UNL     1       3.612  -0.183   1.153  1.00  0.00    -0.376 OA
BRANCH   5   6
ATOM      6  C   UNL     1       4.422   0.989   1.109  1.00  0.00     0.202 C 
BRANCH   6   7
ATOM      7  C   UNL     1       4.210   1.859  -0.132  1.00  0.00     0.261 C 
BRANCH   7   8
ATOM      8  O   UNL     1       2.844   1.859  -0.568  1.00  0.00    -0.460 OA
BRANCH   8   9
ATOM      9  C   UNL     1       2.293   1.087  -1.539  1.00  0.00     0.338 C 
ATOM     10  O   UNL     1       1.121   1.299  -1.850  1.00  0.00    -0.246 OA
BRANCH   9  11
ATOM     11  C   UNL     1       3.021  -0.006  -2.262  1.00  0.00     0.060 A 
ATOM     12  C   UNL     1       4.088  -0.749  -1.751  1.00  0.00     0.016 A 
ATOM     13  C   UNL     1       2.523  -0.367  -3.525  1.00  0.00     0.016 A 
ATOM     14  C   UNL     1       4.673  -1.784  -2.468  1.00  0.00     0.010 A 
ATOM     15  C   UNL     1       3.089  -1.423  -4.248  1.00  0.00     0.010 A 
ATOM     16  C   UNL     1       4.177  -2.126  -3.720  1.00  0.00    -0.014 A 
BRANCH  16  17
ATOM     17  C   UNL     1       4.891  -3.147  -4.503  1.00  0.00     0.031 A 
ATOM     18  C   UNL     1       5.776  -2.679  -5.617  1.00  0.00     0.074 A 
ATOM     19  C   UNL     1       4.811  -4.443  -4.152  1.00  0.00     0.049 A 
ATOM     20  N   UNL     1       6.398  -3.379  -6.522  1.00  0.00    -0.248 NA
ATOM     21  C   UNL     1       6.000  -1.224  -5.718  1.00  0.00     0.031 C 
ATOM     22  C   UNL     1       4.076  -4.959  -2.994  1.00  0.00     0.029 A 
ATOM     23  N   UNL     1       5.355  -5.562  -4.725  1.00  0.00    -0.354 N 
ATOM     24  C   UNL     1       7.053  -2.453  -7.322  1.00  0.00     0.074 A 
ATOM     25  C   UNL     1       6.771  -1.140  -6.792  1.00  0.00     0.031 C 
ATOM     26  C   UNL     1       4.208  -6.295  -2.950  1.00  0.00     0.029 A 
ATOM     27  C   UNL     1       4.970  -6.734  -4.114  1.00  0.00     0.049 A 
ATOM     28  H   UNL     1       5.963  -5.532  -5.499  1.00  0.00     0.167 HD
ATOM     29  C   UNL     1       7.811  -2.695  -8.413  1.00  0.00     0.037 A 
ATOM     30  C   UNL     1       5.165  -8.011  -4.496  1.00  0.00     0.037 A 
ATOM     31  C   UNL     1       8.079  -4.021  -8.896  1.00  0.00     0.049 A 
ATOM     32  C   UNL     1       5.925  -8.252  -5.775  1.00  0.00     0.074 A 
ATOM     33  C   UNL     1       8.806  -4.401 -10.007  1.00  0.00     0.029 A 
ATOM     34  N   UNL     1       7.623  -5.184  -8.289  1.00  0.00    -0.354 N 
ATOM     35  N   UNL     1       6.504  -7.372  -6.561  1.00  0.00    -0.248 NA
ATOM     36  C   UNL     1       6.037  -9.639  -6.241  1.00  0.00     0.031 C 
ATOM     37  C   UNL     1       8.748  -5.793 -10.100  1.00  0.00     0.029 A 
ATOM     38  C   UNL     1       8.025  -6.284  -9.021  1.00  0.00     0.049 A 
ATOM     39  H   UNL     1       7.093  -5.219  -7.460  1.00  0.00     0.167 HD
ATOM     40  C   UNL     1       7.044  -8.098  -7.615  1.00  0.00     0.074 A 
ATOM     41  C   UNL     1       6.746  -9.492  -7.353  1.00  0.00     0.031 C 
ATOM     42  C   UNL     1       7.712  -7.657  -8.708  1.00  0.00     0.037 A 
BRANCH  29  43
ATOM     43  C   UNL     1       8.345  -1.524  -9.181  1.00  0.00     0.058 A 
ATOM     44  C   UNL     1       7.781  -1.183 -10.420  1.00  0.00     0.135 A 
ATOM     45  C   UNL     1       9.444  -0.777  -8.731  1.00  0.00     0.135 A 
ATOM     46  F   UNL     1       6.712  -1.850 -10.883  1.00  0.00    -0.206 F 
ATOM     47  C   UNL     1       8.309  -0.164 -11.204  1.00  0.00     0.059 A 
ATOM     48  C   UNL     1       9.978   0.261  -9.490  1.00  0.00     0.059 A 
ATOM     49  F   UNL     1       9.993  -1.038  -7.534  1.00  0.00    -0.206 F 
ATOM     50  C   UNL     1       9.415   0.546 -10.735  1.00  0.00     0.060 A 
BRANCH  50  51
ATOM     51  S   UNL     1      10.096   1.857 -11.774  1.00  0.00     0.124 S 
ATOM     52  O   UNL     1      10.643   1.099 -12.893  1.00  0.00    -0.237 OA
ATOM     53  O   UNL     1       8.912   2.660 -12.066  1.00  0.00    -0.237 OA
ATOM     54  O   UNL     1      11.080   2.499 -10.907  1.00  0.00    -0.744 OA
ENDBRANCH  50  51
ENDBRANCH  29  43
BRANCH  30  55
ATOM     55  C   UNL     1       4.554  -9.131  -3.725  1.00  0.00     0.058 A 
ATOM     56  C   UNL     1       3.158  -9.268  -3.633  1.00  0.00     0.135 A 
ATOM     57  C   UNL     1       5.340 -10.088  -3.066  1.00  0.00     0.135 A 
ATOM     58  F   UNL     1       2.352  -8.385  -4.244  1.00  0.00    -0.206 F 
ATOM     59  C   UNL     1       2.566 -10.289  -2.898  1.00  0.00     0.059 A 
ATOM     60  C   UNL     1       4.771 -11.139  -2.348  1.00  0.00     0.059 A 
ATOM     61  F   UNL     1       6.679 -10.017  -3.136  1.00  0.00    -0.206 F 
ATOM     62  C   UNL     1       3.381 -11.222  -2.259  1.00  0.00     0.060 A 
BRANCH  62  63
ATOM     63  S   UNL     1       2.589 -12.556  -1.333  1.00  0.00     0.124 S 
ATOM     64  O   UNL     1       2.055 -11.836  -0.182  1.00  0.00    -0.237 OA
ATOM     65  O   UNL     1       1.601 -13.048  -2.289  1.00  0.00    -0.237 OA
ATOM     66  O   UNL     1       3.691 -13.470  -1.049  1.00  0.00    -0.744 OA
ENDBRANCH  62  63
ENDBRANCH  30  55
BRANCH  42  67
ATOM     67  C   UNL     1       8.164  -8.679  -9.706  1.00  0.00     0.058 A 
ATOM     68  C   UNL     1       9.527  -8.983  -9.840  1.00  0.00     0.135 A 
ATOM     69  C   UNL     1       7.264  -9.229 -10.631  1.00  0.00     0.135 A 
ATOM     70  F   UNL     1      10.423  -8.472  -8.981  1.00  0.00    -0.206 F 
ATOM     71  C   UNL     1       9.991  -9.762 -10.892  1.00  0.00     0.059 A 
ATOM     72  C   UNL     1       7.704 -10.031 -11.677  1.00  0.00     0.059 A 
ATOM     73  F   UNL     1       5.951  -8.972 -10.530  1.00  0.00    -0.206 F 
ATOM     74  C   UNL     1       9.072 -10.267 -11.814  1.00  0.00     0.060 A 
BRANCH  74  75
ATOM     75  S   UNL     1       9.700 -11.223 -13.209  1.00  0.00     0.124 S 
ATOM     76  O   UNL     1      10.386 -10.198 -13.988  1.00  0.00    -0.237 OA
ATOM     77  O   UNL     1      10.559 -12.201 -12.549  1.00  0.00    -0.237 OA
ATOM     78  O   UNL     1       8.491 -11.770 -13.817  1.00  0.00    -0.744 OA
ENDBRANCH  74  75
ENDBRANCH  42  67
ENDBRANCH  16  17
ENDBRANCH   9  11
ENDBRANCH   8   9
ENDBRANCH   7   8
ENDBRANCH   6   7
ENDBRANCH   5   6
ENDBRANCH   4   5
ENDBRANCH   3   4
ENDBRANCH   2   3
ENDBRANCH   1   2
BRANCH   1  79
ATOM     79  C   UNL     1       4.655  -2.471   2.646  1.00  0.00     0.188 C 
BRANCH  79  80
ATOM     80  O   UNL     1       3.773  -3.297   1.901  1.00  0.00    -0.376 OA
BRANCH  80  81
ATOM     81  C   UNL     1       3.716  -4.662   2.313  1.00  0.00     0.202 C 
BRANCH  81  82
ATOM     82  C   UNL     1       2.901  -4.887   3.593  1.00  0.00     0.261 C 
BRANCH  82  83
ATOM     83  O   UNL     1       3.429  -4.237   4.765  1.00  0.00    -0.460 OA
BRANCH  83  84
ATOM     84  C   UNL     1       4.657  -4.600   5.196  1.00  0.00     0.338 C 
ATOM     85  O   UNL     1       5.373  -5.477   4.747  1.00  0.00    -0.246 OA
BRANCH  84  86
ATOM     86  C   UNL     1       5.098  -3.595   6.189  1.00  0.00     0.063 A 
ATOM     87  C   UNL     1       4.225  -3.146   7.184  1.00  0.00     0.017 A 
ATOM     88  C   UNL     1       6.369  -3.014   6.054  1.00  0.00     0.056 A 
ATOM     89  C   UNL     1       4.632  -2.131   8.049  1.00  0.00     0.026 A 
ATOM     90  C   UNL     1       6.762  -1.984   6.913  1.00  0.00     0.144 A 
ATOM     91  C   UNL     1       5.907  -1.554   7.916  1.00  0.00     0.118 A 
ATOM     92  F   UNL     1       7.964  -1.425   6.724  1.00  0.00    -0.205 F 
BRANCH  91  93
ATOM     93  S   UNL     1       6.347  -0.312   9.084  1.00  0.00     0.243 S 
ATOM     94  O   UNL     1       5.141   0.445   9.345  1.00  0.00    -0.207 OA
ATOM     95  O   UNL     1       7.039  -0.995  10.156  1.00  0.00    -0.207 OA
BRANCH  93  96
ATOM     96  N   UNL     1       7.463   0.716   8.396  1.00  0.00    -0.205 NA
ATOM     97  H   UNL     1       8.138   0.121   7.917  1.00  0.00     0.141 HD
BRANCH  96  98
ATOM     98  C   UNL     1       7.091   1.762   7.438  1.00  0.00     0.160 C 
BRANCH  98  99
ATOM     99  C   UNL     1       6.351   2.968   8.056  1.00  0.00     0.278 C 
BRANCH  99 100
ATOM    100  N   UNL     1       7.082   3.587   9.191  1.00  0.00    -0.334 N 
ATOM    101  C   UNL     1       6.363   3.379  10.466  1.00  0.00     0.262 C 
ATOM    102  C   UNL     1       7.127   5.060   9.074  1.00  0.00     0.262 C 
ATOM    103  H   UNL     1       8.008   3.159   9.172  1.00  0.00     0.348 HD
ATOM    104  C   UNL     1       5.259   4.423  10.470  1.00  0.00     0.067 C 
ATOM    105  C   UNL     1       5.912   5.623   9.809  1.00  0.00     0.067 C 
ENDBRANCH  99 100
ENDBRANCH  98  99
ENDBRANCH  96  98
ENDBRANCH  93  96
ENDBRANCH  91  93
ENDBRANCH  84  86
ENDBRANCH  83  84
ENDBRANCH  82  83
ENDBRANCH  81  82
ENDBRANCH  80  81
ENDBRANCH  79  80
ENDBRANCH   1  79
TORSDOF 28
