REMARK SMILES CC(C)(C)C[N@H+]1[C@@H](C(=O)OCCOCCOCCOCCOC(=O)c2ccc(-c3c4nc(c(-c5c(F)cc(S(=O)(=O)[O-])cc5F)c5ccc([nH]5)c(-c5c(F)cc(S(=O)(=O)[O-])cc5F)c5nc(c(-c6c(F)cc(S(=O)(=O)[O-])cc6F)c6ccc3[nH]6)C=C5)C=C4)cc2)CC[C@H]2CCCC[C@@H]21
REMARK SMILES IDX 17 1 16 2 15 3 14 4 13 5 12 6 11 7 10 8 8 9 9 10 7 11 6 12
REMARK SMILES IDX 98 13 91 15 93 16 97 17 92 18 94 19 96 20 95 21 5 22 2 23
REMARK SMILES IDX 1 24 3 25 4 26 18 27 19 28 20 29 21 30 22 31 23 32 24 33
REMARK SMILES IDX 25 34 26 35 90 36 27 37 89 38 28 39 29 40 30 41 83 42 31 43
REMARK SMILES IDX 88 44 82 45 84 46 32 47 87 48 81 49 80 50 33 52 67 53 46 54
REMARK SMILES IDX 66 55 47 56 50 57 65 58 85 59 48 60 49 61 64 63 86 64 51 65
REMARK SMILES IDX 34 66 35 67 44 68 36 69 37 70 43 71 45 72 38 73 39 74 40 75
REMARK SMILES IDX 41 76 42 77 68 78 69 79 78 80 70 81 71 82 77 83 79 84 72 85
REMARK SMILES IDX 73 86 74 87 75 88 76 89 52 90 53 91 62 92 54 93 55 94 61 95
REMARK SMILES IDX 63 96 56 97 57 98 58 99 59 100 60 101
REMARK H PARENT 6 14 84 51 50 62
REMARK Flexibility Score: inf
ROOT
ATOM      1  C   UNL     1       4.786  -3.308   0.765  1.00  0.00     0.188 C 
ENDROOT
BRANCH   1   2
ATOM      2  O   UNL     1       3.434  -3.437   0.365  1.00  0.00    -0.377 OA
BRANCH   2   3
ATOM      3  C   UNL     1       3.085  -4.408  -0.606  1.00  0.00     0.188 C 
BRANCH   3   4
ATOM      4  C   UNL     1       4.003  -4.731  -1.800  1.00  0.00     0.188 C 
BRANCH   4   5
ATOM      5  O   UNL     1       5.234  -4.041  -1.777  1.00  0.00    -0.376 OA
BRANCH   5   6
ATOM      6  C   UNL     1       5.422  -2.972  -2.684  1.00  0.00     0.202 C 
BRANCH   6   7
ATOM      7  C   UNL     1       4.411  -1.813  -2.768  1.00  0.00     0.261 C 
BRANCH   7   8
ATOM      8  O   UNL     1       3.044  -2.096  -2.439  1.00  0.00    -0.459 OA
BRANCH   8   9
ATOM      9  C   UNL     1       2.223  -2.499  -3.432  1.00  0.00     0.364 C 
ATOM     10  O   UNL     1       2.630  -2.786  -4.558  1.00  0.00    -0.245 OA
BRANCH   9  11
ATOM     11  C   UNL     1       0.749  -2.706  -3.027  1.00  0.00     0.295 C 
ATOM     12  N   UNL     1       0.133  -1.809  -1.982  1.00  0.00    -0.320 N 
ATOM     13  C   UNL     1      -1.338  -2.006  -1.996  1.00  0.00     0.187 C 
ATOM     14  H   UNL     1       0.396  -0.860  -2.248  1.00  0.00     0.349 HD
ATOM     15  C   UNL     1       0.390  -4.215  -2.933  1.00  0.00     0.078 C 
ATOM     16  C   UNL     1      -1.866  -3.279  -2.707  1.00  0.00     0.048 C 
ATOM     17  C   UNL     1      -2.029  -0.796  -2.633  1.00  0.00     0.065 C 
ATOM     18  C   UNL     1      -0.994  -4.464  -2.331  1.00  0.00     0.016 C 
ATOM     19  C   UNL     1      -3.346  -3.451  -2.367  1.00  0.00     0.010 C 
ATOM     20  C   UNL     1      -3.543  -0.899  -2.431  1.00  0.00     0.006 C 
ATOM     21  C   UNL     1      -4.127  -2.240  -2.889  1.00  0.00     0.001 C 
BRANCH  12  22
ATOM     22  C   UNL     1       0.666  -1.935  -0.597  1.00  0.00     0.269 C 
BRANCH  22  23
ATOM     23  C   UNL     1       0.362  -0.838   0.502  1.00  0.00     0.011 C 
ATOM     24  C   UNL     1       0.900   0.530   0.053  1.00  0.00     0.017 C 
ATOM     25  C   UNL     1       1.107  -1.250   1.799  1.00  0.00     0.017 C 
ATOM     26  C   UNL     1      -1.117  -0.682   0.896  1.00  0.00     0.017 C 
ENDBRANCH  22  23
ENDBRANCH  12  22
ENDBRANCH   9  11
ENDBRANCH   8   9
ENDBRANCH   7   8
ENDBRANCH   6   7
ENDBRANCH   5   6
ENDBRANCH   4   5
ENDBRANCH   3   4
ENDBRANCH   2   3
ENDBRANCH   1   2
BRANCH   1  27
ATOM     27  C   UNL     1       5.588  -4.596   1.027  1.00  0.00     0.188 C 
BRANCH  27  28
ATOM     28  O   UNL     1       4.870  -5.798   0.785  1.00  0.00    -0.376 OA
BRANCH  28  29
ATOM     29  C   UNL     1       4.325  -6.464   1.916  1.00  0.00     0.202 C 
BRANCH  29  30
ATOM     30  C   UNL     1       3.258  -5.733   2.752  1.00  0.00     0.261 C 
BRANCH  30  31
ATOM     31  O   UNL     1       3.616  -4.445   3.272  1.00  0.00    -0.460 OA
BRANCH  31  32
ATOM     32  C   UNL     1       4.644  -4.389   4.142  1.00  0.00     0.338 C 
ATOM     33  O   UNL     1       5.314  -5.326   4.551  1.00  0.00    -0.246 OA
BRANCH  32  34
ATOM     34  C   UNL     1       4.946  -2.967   4.389  1.00  0.00     0.060 A 
ATOM     35  C   UNL     1       6.182  -2.450   3.977  1.00  0.00     0.016 A 
ATOM     36  C   UNL     1       4.006  -2.145   5.015  1.00  0.00     0.016 A 
ATOM     37  C   UNL     1       6.490  -1.111   4.211  1.00  0.00     0.010 A 
ATOM     38  C   UNL     1       4.331  -0.812   5.279  1.00  0.00     0.010 A 
ATOM     39  C   UNL     1       5.586  -0.299   4.906  1.00  0.00    -0.014 A 
BRANCH  39  40
ATOM     40  C   UNL     1       6.037   1.012   5.429  1.00  0.00     0.031 A 
ATOM     41  C   UNL     1       6.511   1.079   6.855  1.00  0.00     0.074 A 
ATOM     42  C   UNL     1       6.047   2.112   4.656  1.00  0.00     0.049 A 
ATOM     43  N   UNL     1       6.905   2.111   7.552  1.00  0.00    -0.248 NA
ATOM     44  C   UNL     1       6.543  -0.195   7.595  1.00  0.00     0.031 C 
ATOM     45  C   UNL     1       5.653   2.161   3.249  1.00  0.00     0.029 A 
ATOM     46  N   UNL     1       6.394   3.406   4.955  1.00  0.00    -0.354 N 
ATOM     47  C   UNL     1       7.217   1.617   8.814  1.00  0.00     0.074 A 
ATOM     48  C   UNL     1       6.945   0.197   8.794  1.00  0.00     0.031 C 
ATOM     49  C   UNL     1       5.766   3.428   2.811  1.00  0.00     0.029 A 
ATOM     50  C   UNL     1       6.205   4.283   3.914  1.00  0.00     0.049 A 
ATOM     51  H   UNL     1       6.746   3.680   5.833  1.00  0.00     0.167 HD
ATOM     52  C   UNL     1       7.689   2.288   9.889  1.00  0.00     0.037 A 
ATOM     53  C   UNL     1       6.344   5.624   3.867  1.00  0.00     0.037 A 
ATOM     54  C   UNL     1       7.957   3.703   9.899  1.00  0.00     0.049 A 
ATOM     55  C   UNL     1       6.812   6.361   5.098  1.00  0.00     0.074 A 
ATOM     56  C   UNL     1       8.463   4.473  10.931  1.00  0.00     0.029 A 
ATOM     57  N   UNL     1       7.728   4.562   8.834  1.00  0.00    -0.354 N 
ATOM     58  N   UNL     1       7.128   5.881   6.278  1.00  0.00    -0.248 NA
ATOM     59  C   UNL     1       6.946   7.821   4.990  1.00  0.00     0.031 C 
ATOM     60  C   UNL     1       8.477   5.807  10.513  1.00  0.00     0.029 A 
ATOM     61  C   UNL     1       8.051   5.859   9.195  1.00  0.00     0.049 A 
ATOM     62  H   UNL     1       7.386   4.289   7.952  1.00  0.00     0.167 HD
ATOM     63  C   UNL     1       7.526   6.975   7.042  1.00  0.00     0.074 A 
ATOM     64  C   UNL     1       7.420   8.139   6.187  1.00  0.00     0.031 C 
ATOM     65  C   UNL     1       7.945   7.011   8.332  1.00  0.00     0.037 A 
BRANCH  52  66
ATOM     66  C   UNL     1       7.911   1.511  11.158  1.00  0.00     0.058 A 
ATOM     67  C   UNL     1       8.948   0.575  11.288  1.00  0.00     0.135 A 
ATOM     68  C   UNL     1       7.093   1.741  12.277  1.00  0.00     0.135 A 
ATOM     69  F   UNL     1       9.746   0.299  10.244  1.00  0.00    -0.206 F 
ATOM     70  C   UNL     1       9.156  -0.120  12.476  1.00  0.00     0.059 A 
ATOM     71  C   UNL     1       7.302   1.081  13.484  1.00  0.00     0.059 A 
ATOM     72  F   UNL     1       6.081   2.620  12.206  1.00  0.00    -0.206 F 
ATOM     73  C   UNL     1       8.330   0.144  13.570  1.00  0.00     0.060 A 
BRANCH  73  74
ATOM     74  S   UNL     1       8.628  -0.749  15.110  1.00  0.00     0.124 S 
ATOM     75  O   UNL     1       8.199  -2.097  14.753  1.00  0.00    -0.237 OA
ATOM     76  O   UNL     1      10.064  -0.570  15.299  1.00  0.00    -0.237 OA
ATOM     77  O   UNL     1       7.780  -0.056  16.075  1.00  0.00    -0.744 OA
ENDBRANCH  73  74
ENDBRANCH  52  66
BRANCH  53  78
ATOM     78  C   UNL     1       6.023   6.359   2.613  1.00  0.00     0.058 A 
ATOM     79  C   UNL     1       7.026   6.983   1.857  1.00  0.00     0.135 A 
ATOM     80  C   UNL     1       4.703   6.443   2.140  1.00  0.00     0.135 A 
ATOM     81  F   UNL     1       8.301   6.946   2.275  1.00  0.00    -0.206 F 
ATOM     82  C   UNL     1       6.734   7.667   0.681  1.00  0.00     0.059 A 
ATOM     83  C   UNL     1       4.390   7.097   0.953  1.00  0.00     0.059 A 
ATOM     84  F   UNL     1       3.705   5.861   2.824  1.00  0.00    -0.206 F 
ATOM     85  C   UNL     1       5.413   7.712   0.233  1.00  0.00     0.060 A 
BRANCH  85  86
ATOM     86  S   UNL     1       5.059   8.543  -1.331  1.00  0.00     0.124 S 
ATOM     87  O   UNL     1       5.273   9.942  -0.977  1.00  0.00    -0.237 OA
ATOM     88  O   UNL     1       6.051   7.950  -2.222  1.00  0.00    -0.237 OA
ATOM     89  O   UNL     1       3.675   8.167  -1.606  1.00  0.00    -0.744 OA
ENDBRANCH  85  86
ENDBRANCH  53  78
BRANCH  65  90
ATOM     90  C   UNL     1       8.364   8.343   8.897  1.00  0.00     0.058 A 
ATOM     91  C   UNL     1       7.436   9.356   9.182  1.00  0.00     0.135 A 
ATOM     92  C   UNL     1       9.711   8.582   9.220  1.00  0.00     0.135 A 
ATOM     93  F   UNL     1       6.136   9.183   8.893  1.00  0.00    -0.206 F 
ATOM     94  C   UNL     1       7.830  10.567   9.743  1.00  0.00     0.059 A 
ATOM     95  C   UNL     1      10.123   9.773   9.811  1.00  0.00     0.059 A 
ATOM     96  F   UNL     1      10.641   7.644   8.981  1.00  0.00    -0.206 F 
ATOM     97  C   UNL     1       9.176  10.765  10.057  1.00  0.00     0.060 A 
BRANCH  97  98
ATOM     98  S   UNL     1       9.668  12.328  10.815  1.00  0.00     0.124 S 
ATOM     99  O   UNL     1       9.531  13.254   9.695  1.00  0.00    -0.237 OA
ATOM    100  O   UNL     1       8.687  12.478  11.885  1.00  0.00    -0.237 OA
ATOM    101  O   UNL     1      11.037  12.078  11.257  1.00  0.00    -0.744 OA
ENDBRANCH  97  98
ENDBRANCH  65  90
ENDBRANCH  39  40
ENDBRANCH  32  34
ENDBRANCH  31  32
ENDBRANCH  30  31
ENDBRANCH  29  30
ENDBRANCH  28  29
ENDBRANCH  27  28
ENDBRANCH   1  27
TORSDOF 25
