REMARK SMILES CCC([NH3+])(CC)C(=O)N(CCC(=O)OCCOCCOCCOCCOC(=O)c1ccc(-c2c3nc(c(-c4c(F)cc(S(=O)(=O)[O-])cc4F)c4ccc([nH]4)c(-c4c(F)cc(S(=O)(=O)[O-])cc4F)c4nc(c(-c5c(F)cc(S(=O)(=O)[O-])cc5F)c5ccc2[nH]5)C=C4)C=C3)cc1)C(C)C
REMARK SMILES IDX 19 1 18 2 17 3 16 4 15 5 14 6 12 7 13 8 11 9 10 10 9 11 7 12
REMARK SMILES IDX 8 13 3 14 2 15 1 16 4 17 5 21 6 22 95 23 96 24 97 25 20 26
REMARK SMILES IDX 21 27 22 28 23 29 24 30 25 31 26 32 27 33 28 34 29 35 30 36
REMARK SMILES IDX 94 37 31 38 93 39 32 40 33 41 34 42 87 43 35 44 92 45 86 46
REMARK SMILES IDX 88 47 36 48 91 49 85 50 84 51 37 53 71 54 50 55 70 56 51 57
REMARK SMILES IDX 54 58 69 59 89 60 52 61 53 62 68 64 90 65 55 66 38 67 39 68
REMARK SMILES IDX 48 69 40 70 41 71 47 72 49 73 42 74 43 75 44 76 45 77 46 78
REMARK SMILES IDX 72 79 73 80 82 81 74 82 75 83 81 84 83 85 76 86 77 87 78 88
REMARK SMILES IDX 79 89 80 90 56 91 57 92 66 93 58 94 59 95 65 96 67 97 60 98
REMARK SMILES IDX 61 99 62 100 63 101 64 102
REMARK H PARENT 4 18 4 19 4 20 88 52 54 63
REMARK Flexibility Score: inf
ROOT
ATOM      1  C   UNL     1       4.620   5.225   4.648  1.00  0.00     0.188 C 
ENDROOT
BRANCH   1   2
ATOM      2  C   UNL     1       5.425   5.032   5.941  1.00  0.00     0.188 C 
BRANCH   2   3
ATOM      3  O   UNL     1       6.765   4.631   5.721  1.00  0.00    -0.376 OA
BRANCH   3   4
ATOM      4  C   UNL     1       7.194   3.504   6.469  1.00  0.00     0.202 C 
BRANCH   4   5
ATOM      5  C   UNL     1       6.616   2.143   6.045  1.00  0.00     0.261 C 
BRANCH   5   6
ATOM      6  O   UNL     1       5.292   2.181   5.482  1.00  0.00    -0.463 OA
BRANCH   6   7
ATOM      7  C   UNL     1       4.255   1.836   6.265  1.00  0.00     0.307 C 
ATOM      8  O   UNL     1       4.341   1.685   7.480  1.00  0.00    -0.252 OA
BRANCH   7   9
ATOM      9  C   UNL     1       2.940   1.668   5.528  1.00  0.00     0.144 C 
BRANCH   9  10
ATOM     10  C   UNL     1       2.782   2.071   4.056  1.00  0.00     0.131 C 
BRANCH  10  11
ATOM     11  N   UNL     1       3.192   1.103   3.025  1.00  0.00    -0.334 N 
BRANCH  11  12
ATOM     12  C   UNL     1       2.366   0.268   2.266  1.00  0.00     0.284 C 
ATOM     13  O   UNL     1       2.871  -0.654   1.614  1.00  0.00    -0.268 OA
BRANCH  12  14
ATOM     14  C   UNL     1       0.803   0.457   2.196  1.00  0.00     0.173 C 
BRANCH  14  15
ATOM     15  C   UNL     1       0.210  -0.507   1.110  1.00  0.00     0.075 C 
ATOM     16  C   UNL     1       0.602  -0.214  -0.344  1.00  0.00     0.011 C 
ENDBRANCH  14  15
BRANCH  14  17
ATOM     17  N   UNL     1       0.441   1.832   1.749  1.00  0.00    -0.345 N 
ATOM     18  H   UNL     1      -0.575   1.922   1.714  1.00  0.00     0.345 HD
ATOM     19  H   UNL     1       0.829   2.001   0.821  1.00  0.00     0.345 HD
ATOM     20  H   UNL     1       0.820   2.514   2.405  1.00  0.00     0.345 HD
ENDBRANCH  14  17
BRANCH  14  21
ATOM     21  C   UNL     1       0.123   0.136   3.553  1.00  0.00     0.075 C 
ATOM     22  C   UNL     1       0.630  -1.137   4.226  1.00  0.00     0.011 C 
ENDBRANCH  14  21
ENDBRANCH  12  14
ENDBRANCH  11  12
BRANCH  11  23
ATOM     23  C   UNL     1       4.646   1.033   2.752  1.00  0.00     0.079 C 
ATOM     24  C   UNL     1       5.297  -0.252   3.262  1.00  0.00     0.031 C 
ATOM     25  C   UNL     1       5.010   1.339   1.294  1.00  0.00     0.031 C 
ENDBRANCH  11  23
ENDBRANCH  10  11
ENDBRANCH   9  10
ENDBRANCH   7   9
ENDBRANCH   6   7
ENDBRANCH   5   6
ENDBRANCH   4   5
ENDBRANCH   3   4
ENDBRANCH   2   3
ENDBRANCH   1   2
BRANCH   1  26
ATOM     26  O   UNL     1       4.957   4.499   3.470  1.00  0.00    -0.377 OA
BRANCH  26  27
ATOM     27  C   UNL     1       6.320   4.371   3.070  1.00  0.00     0.188 C 
BRANCH  27  28
ATOM     28  C   UNL     1       7.205   5.626   3.086  1.00  0.00     0.188 C 
BRANCH  28  29
ATOM     29  O   UNL     1       6.501   6.823   3.340  1.00  0.00    -0.376 OA
BRANCH  29  30
ATOM     30  C   UNL     1       5.842   7.483   2.271  1.00  0.00     0.202 C 
BRANCH  30  31
ATOM     31  C   UNL     1       5.239   6.752   1.056  1.00  0.00     0.261 C 
BRANCH  31  32
ATOM     32  O   UNL     1       5.974   5.674   0.462  1.00  0.00    -0.460 OA
BRANCH  32  33
ATOM     33  C   UNL     1       7.118   5.955  -0.191  1.00  0.00     0.338 C 
ATOM     34  O   UNL     1       7.645   7.051  -0.314  1.00  0.00    -0.246 OA
BRANCH  33  35
ATOM     35  C   UNL     1       7.709   4.668  -0.615  1.00  0.00     0.060 A 
ATOM     36  C   UNL     1       8.871   4.200   0.012  1.00  0.00     0.016 A 
ATOM     37  C   UNL     1       7.111   3.922  -1.635  1.00  0.00     0.016 A 
ATOM     38  C   UNL     1       9.450   2.996  -0.396  1.00  0.00     0.010 A 
ATOM     39  C   UNL     1       7.704   2.725  -2.054  1.00  0.00     0.010 A 
ATOM     40  C   UNL     1       8.889   2.266  -1.452  1.00  0.00    -0.014 A 
BRANCH  40  41
ATOM     41  C   UNL     1       9.601   1.084  -2.004  1.00  0.00     0.031 A 
ATOM     42  C   UNL     1      10.400   1.240  -3.270  1.00  0.00     0.074 A 
ATOM     43  C   UNL     1       9.536  -0.110  -1.384  1.00  0.00     0.049 A 
ATOM     44  N   UNL     1      11.025   0.331  -3.971  1.00  0.00    -0.248 NA
ATOM     45  C   UNL     1      10.512   2.602  -3.818  1.00  0.00     0.031 C 
ATOM     46  C   UNL     1       8.825  -0.373  -0.133  1.00  0.00     0.029 A 
ATOM     47  N   UNL     1      10.058  -1.331  -1.735  1.00  0.00    -0.354 N 
ATOM     48  C   UNL     1      11.585   1.002  -5.052  1.00  0.00     0.074 A 
ATOM     49  C   UNL     1      11.224   2.397  -4.918  1.00  0.00     0.031 C 
ATOM     50  C   UNL     1       8.931  -1.680   0.163  1.00  0.00     0.029 A 
ATOM     51  C   UNL     1       9.678  -2.354  -0.896  1.00  0.00     0.049 A 
ATOM     52  H   UNL     1      10.647  -1.462  -2.513  1.00  0.00     0.167 HD
ATOM     53  C   UNL     1      12.329   0.497  -6.064  1.00  0.00     0.037 A 
ATOM     54  C   UNL     1       9.873  -3.685  -0.998  1.00  0.00     0.037 A 
ATOM     55  C   UNL     1      12.697  -0.891  -6.178  1.00  0.00     0.049 A 
ATOM     56  C   UNL     1      10.649  -4.227  -2.175  1.00  0.00     0.074 A 
ATOM     57  C   UNL     1      13.497  -1.488  -7.137  1.00  0.00     0.029 A 
ATOM     58  N   UNL     1      12.280  -1.897  -5.322  1.00  0.00    -0.354 N 
ATOM     59  N   UNL     1      11.224  -3.573  -3.157  1.00  0.00    -0.248 NA
ATOM     60  C   UNL     1      10.798  -5.688  -2.262  1.00  0.00     0.031 C 
ATOM     61  C   UNL     1      13.505  -2.866  -6.902  1.00  0.00     0.029 A 
ATOM     62  C   UNL     1      12.765  -3.119  -5.758  1.00  0.00     0.049 A 
ATOM     63  H   UNL     1      11.721  -1.764  -4.522  1.00  0.00     0.167 HD
ATOM     64  C   UNL     1      11.814  -4.541  -3.965  1.00  0.00     0.074 A 
ATOM     65  C   UNL     1      11.553  -5.821  -3.344  1.00  0.00     0.031 C 
ATOM     66  C   UNL     1      12.503  -4.386  -5.123  1.00  0.00     0.037 A 
BRANCH  53  67
ATOM     67  C   UNL     1      12.780   1.426  -7.157  1.00  0.00     0.058 A 
ATOM     68  C   UNL     1      13.813   2.355  -6.966  1.00  0.00     0.135 A 
ATOM     69  C   UNL     1      12.240   1.302  -8.448  1.00  0.00     0.135 A 
ATOM     70  F   UNL     1      14.351   2.528  -5.748  1.00  0.00    -0.206 F 
ATOM     71  C   UNL     1      14.301   3.123  -8.019  1.00  0.00     0.059 A 
ATOM     72  C   UNL     1      12.729   2.042  -9.521  1.00  0.00     0.059 A 
ATOM     73  F   UNL     1      11.244   0.433  -8.683  1.00  0.00    -0.206 F 
ATOM     74  C   UNL     1      13.761   2.950  -9.295  1.00  0.00     0.060 A 
BRANCH  74  75
ATOM     75  S   UNL     1      14.454   3.905 -10.662  1.00  0.00     0.124 S 
ATOM     76  O   UNL     1      14.001   5.254 -10.335  1.00  0.00    -0.237 OA
ATOM     77  O   UNL     1      15.886   3.665 -10.512  1.00  0.00    -0.237 OA
ATOM     78  O   UNL     1      13.840   3.308 -11.843  1.00  0.00    -0.744 OA
ENDBRANCH  74  75
ENDBRANCH  53  67
BRANCH  54  79
ATOM     79  C   UNL     1       9.277  -4.616   0.002  1.00  0.00     0.058 A 
ATOM     80  C   UNL     1      10.081  -5.411   0.832  1.00  0.00     0.135 A 
ATOM     81  C   UNL     1       7.884  -4.769   0.107  1.00  0.00     0.135 A 
ATOM     82  F   UNL     1      11.417  -5.315   0.764  1.00  0.00    -0.206 F 
ATOM     83  C   UNL     1       9.530  -6.348   1.702  1.00  0.00     0.059 A 
ATOM     84  C   UNL     1       7.308  -5.672   0.995  1.00  0.00     0.059 A 
ATOM     85  F   UNL     1       7.067  -4.029  -0.658  1.00  0.00    -0.206 F 
ATOM     86  C   UNL     1       8.141  -6.473   1.774  1.00  0.00     0.060 A 
BRANCH  86  87
ATOM     87  S   UNL     1       7.439  -7.690   2.908  1.00  0.00     0.124 S 
ATOM     88  O   UNL     1       7.763  -8.942   2.233  1.00  0.00    -0.237 OA
ATOM     89  O   UNL     1       8.175  -7.420   4.139  1.00  0.00    -0.237 OA
ATOM     90  O   UNL     1       6.022  -7.340   2.944  1.00  0.00    -0.744 OA
ENDBRANCH  86  87
ENDBRANCH  54  79
BRANCH  66  91
ATOM     91  C   UNL     1      13.041  -5.624  -5.788  1.00  0.00     0.058 A 
ATOM     92  C   UNL     1      12.194  -6.542  -6.429  1.00  0.00     0.135 A 
ATOM     93  C   UNL     1      14.425  -5.861  -5.845  1.00  0.00     0.135 A 
ATOM     94  F   UNL     1      10.863  -6.369  -6.398  1.00  0.00    -0.206 F 
ATOM     95  C   UNL     1      12.698  -7.660  -7.086  1.00  0.00     0.059 A 
ATOM     96  C   UNL     1      14.953  -6.955  -6.525  1.00  0.00     0.059 A 
ATOM     97  F   UNL     1      15.282  -5.009  -5.259  1.00  0.00    -0.206 F 
ATOM     98  C   UNL     1      14.080  -7.854  -7.134  1.00  0.00     0.060 A 
BRANCH  98  99
ATOM     99  S   UNL     1      14.719  -9.284  -8.032  1.00  0.00     0.124 S 
ATOM    100  O   UNL     1      14.333 -10.382  -7.152  1.00  0.00    -0.237 OA
ATOM    101  O   UNL     1      13.999  -9.203  -9.299  1.00  0.00    -0.237 OA
ATOM    102  O   UNL     1      16.153  -9.022  -8.114  1.00  0.00    -0.744 OA
ENDBRANCH  98  99
ENDBRANCH  66  91
ENDBRANCH  40  41
ENDBRANCH  33  35
ENDBRANCH  32  33
ENDBRANCH  31  32
ENDBRANCH  30  31
ENDBRANCH  29  30
ENDBRANCH  28  29
ENDBRANCH  27  28
ENDBRANCH  26  27
ENDBRANCH   1  26
TORSDOF 31
