REMARK SMILES Cc1nsc(N[C@H](C)c2cccs2)c1C(=O)OCCOCCOCCOCCOC(=O)c1ccc(-c2c3nc(c(-c4c(F)cc(S(=O)(=O)[O-])cc4F)c4ccc([nH]4)c(-c4c(F)cc(S(=O)(=O)[O-])cc4F)c4nc(c(-c5c(F)cc(S(=O)(=O)[O-])cc5F)c5ccc2[nH]5)C=C4)C=C3)cc1
REMARK SMILES IDX 23 1 22 2 21 3 20 4 19 5 18 6 17 7 15 8 16 9 14 10 1 11 2 12
REMARK SMILES IDX 3 13 4 14 5 15 6 16 7 18 8 19 9 20 10 21 13 22 11 23 12 24
REMARK SMILES IDX 24 25 25 26 26 27 27 28 28 29 29 30 30 31 31 32 32 33 33 34
REMARK SMILES IDX 97 35 34 36 96 37 35 38 36 39 37 40 90 41 38 42 95 43 89 44
REMARK SMILES IDX 91 45 39 46 94 47 88 48 87 49 40 51 74 52 53 53 73 54 54 55
REMARK SMILES IDX 57 56 72 57 92 58 55 59 56 60 71 62 93 63 58 64 41 65 42 66
REMARK SMILES IDX 51 67 43 68 44 69 50 70 52 71 45 72 46 73 47 74 48 75 49 76
REMARK SMILES IDX 75 77 76 78 85 79 77 80 78 81 84 82 86 83 79 84 80 85 81 86
REMARK SMILES IDX 82 87 83 88 59 89 60 90 69 91 61 92 62 93 68 94 70 95 63 96
REMARK SMILES IDX 64 97 65 98 66 99 67 100
REMARK H PARENT 6 17 91 50 57 61
REMARK Flexibility Score: inf
ROOT
ATOM      1  O   UNL     1      -6.537   3.692  -7.485  1.00  0.00    -0.377 OA
ENDROOT
BRANCH   1   2
ATOM      2  C   UNL     1      -5.192   3.514  -7.076  1.00  0.00     0.188 C 
BRANCH   2   3
ATOM      3  C   UNL     1      -4.426   2.434  -7.873  1.00  0.00     0.188 C 
BRANCH   3   4
ATOM      4  O   UNL     1      -5.035   1.641  -8.889  1.00  0.00    -0.376 OA
BRANCH   4   5
ATOM      5  C   UNL     1      -6.424   1.362  -8.883  1.00  0.00     0.202 C 
BRANCH   5   6
ATOM      6  C   UNL     1      -7.042   0.612  -7.696  1.00  0.00     0.261 C 
BRANCH   6   7
ATOM      7  O   UNL     1      -6.545   0.980  -6.405  1.00  0.00    -0.460 OA
BRANCH   7   8
ATOM      8  C   UNL     1      -5.491   0.245  -5.939  1.00  0.00     0.343 C 
ATOM      9  O   UNL     1      -5.036  -0.734  -6.501  1.00  0.00    -0.246 OA
BRANCH   8  10
ATOM     10  C   UNL     1      -4.879   0.845  -4.753  1.00  0.00     0.117 A 
ATOM     11  C   UNL     1      -6.997   1.966  -3.626  1.00  0.00     0.069 C 
ATOM     12  C   UNL     1      -5.558   1.572  -3.700  1.00  0.00     0.068 A 
ATOM     13  N   UNL     1      -4.790   1.965  -2.689  1.00  0.00    -0.195 NA
ATOM     14  S   UNL     1      -3.233   1.576  -3.014  1.00  0.00    -0.018 S 
ATOM     15  C   UNL     1      -3.486   0.895  -4.570  1.00  0.00     0.124 A 
BRANCH  15  16
ATOM     16  N   UNL     1      -2.539   0.514  -5.487  1.00  0.00    -0.368 N 
ATOM     17  H   UNL     1      -2.918   0.140  -6.316  1.00  0.00     0.162 HD
BRANCH  16  18
ATOM     18  C   UNL     1      -1.073   0.555  -5.476  1.00  0.00     0.117 C 
ATOM     19  C   UNL     1      -0.395   1.206  -4.272  1.00  0.00     0.037 C 
BRANCH  18  20
ATOM     20  C   UNL     1      -0.467   1.171  -6.735  1.00  0.00     0.027 A 
ATOM     21  C   UNL     1      -0.482   2.491  -7.157  1.00  0.00     0.017 A 
ATOM     22  S   UNL     1       0.483   0.202  -7.793  1.00  0.00    -0.147 S 
ATOM     23  C   UNL     1       0.353   2.715  -8.292  1.00  0.00     0.012 A 
ATOM     24  C   UNL     1       0.945   1.553  -8.733  1.00  0.00     0.065 A 
ENDBRANCH  18  20
ENDBRANCH  16  18
ENDBRANCH  15  16
ENDBRANCH   8  10
ENDBRANCH   7   8
ENDBRANCH   6   7
ENDBRANCH   5   6
ENDBRANCH   4   5
ENDBRANCH   3   4
ENDBRANCH   2   3
ENDBRANCH   1   2
BRANCH   1  25
ATOM     25  C   UNL     1      -6.735   4.774  -8.390  1.00  0.00     0.188 C 
BRANCH  25  26
ATOM     26  C   UNL     1      -5.834   4.823  -9.649  1.00  0.00     0.188 C 
BRANCH  26  27
ATOM     27  O   UNL     1      -4.441   4.683  -9.374  1.00  0.00    -0.376 OA
BRANCH  27  28
ATOM     28  C   UNL     1      -3.561   5.779  -9.578  1.00  0.00     0.202 C 
BRANCH  28  29
ATOM     29  C   UNL     1      -3.510   6.747  -8.397  1.00  0.00     0.261 C 
BRANCH  29  30
ATOM     30  O   UNL     1      -4.799   7.187  -8.005  1.00  0.00    -0.460 OA
BRANCH  30  31
ATOM     31  C   UNL     1      -5.501   7.819  -8.966  1.00  0.00     0.338 C 
ATOM     32  O   UNL     1      -5.145   8.058 -10.105  1.00  0.00    -0.246 OA
BRANCH  31  33
ATOM     33  C   UNL     1      -6.790   8.230  -8.403  1.00  0.00     0.060 A 
ATOM     34  C   UNL     1      -7.614   8.940  -9.275  1.00  0.00     0.016 A 
ATOM     35  C   UNL     1      -6.929   8.272  -7.007  1.00  0.00     0.016 A 
ATOM     36  C   UNL     1      -8.304   9.995  -8.745  1.00  0.00     0.010 A 
ATOM     37  C   UNL     1      -7.603   9.334  -6.480  1.00  0.00     0.010 A 
ATOM     38  C   UNL     1      -8.143  10.246  -7.381  1.00  0.00    -0.014 A 
BRANCH  38  39
ATOM     39  C   UNL     1      -8.361  11.600  -6.944  1.00  0.00     0.031 A 
ATOM     40  C   UNL     1      -9.743  11.878  -6.542  1.00  0.00     0.074 A 
ATOM     41  C   UNL     1      -7.321  12.447  -6.840  1.00  0.00     0.049 A 
ATOM     42  N   UNL     1     -10.612  12.614  -7.146  1.00  0.00    -0.248 NA
ATOM     43  C   UNL     1     -10.283  11.079  -5.431  1.00  0.00     0.031 C 
ATOM     44  C   UNL     1      -5.885  12.139  -6.889  1.00  0.00     0.029 A 
ATOM     45  N   UNL     1      -7.338  13.763  -6.530  1.00  0.00    -0.354 N 
ATOM     46  C   UNL     1     -11.754  12.536  -6.361  1.00  0.00     0.074 A 
ATOM     47  C   UNL     1     -11.569  11.416  -5.478  1.00  0.00     0.031 C 
ATOM     48  C   UNL     1      -5.197  13.182  -6.371  1.00  0.00     0.029 A 
ATOM     49  C   UNL     1      -6.130  14.253  -6.065  1.00  0.00     0.049 A 
ATOM     50  H   UNL     1      -8.141  14.325  -6.627  1.00  0.00     0.167 HD
ATOM     51  C   UNL     1     -12.658  13.550  -6.314  1.00  0.00     0.037 A 
ATOM     52  C   UNL     1      -5.987  15.390  -5.341  1.00  0.00     0.037 A 
ATOM     53  C   UNL     1     -12.466  14.477  -7.399  1.00  0.00     0.049 A 
ATOM     54  C   UNL     1      -7.226  16.201  -5.555  1.00  0.00     0.074 A 
ATOM     55  C   UNL     1     -12.502  14.366  -8.776  1.00  0.00     0.029 A 
ATOM     56  N   UNL     1     -11.814  15.659  -7.130  1.00  0.00    -0.354 N 
ATOM     57  N   UNL     1      -7.573  16.724  -6.704  1.00  0.00    -0.248 NA
ATOM     58  C   UNL     1      -8.321  16.028  -4.606  1.00  0.00     0.031 C 
ATOM     59  C   UNL     1     -11.483  15.242  -9.248  1.00  0.00     0.029 A 
ATOM     60  C   UNL     1     -10.906  15.864  -8.139  1.00  0.00     0.049 A 
ATOM     61  H   UNL     1     -11.970  16.248  -6.357  1.00  0.00     0.167 HD
ATOM     62  C   UNL     1      -8.957  16.590  -6.769  1.00  0.00     0.074 A 
ATOM     63  C   UNL     1      -9.365  16.225  -5.416  1.00  0.00     0.031 C 
ATOM     64  C   UNL     1      -9.616  16.501  -7.963  1.00  0.00     0.037 A 
BRANCH  51  65
ATOM     65  C   UNL     1     -13.481  13.877  -5.098  1.00  0.00     0.058 A 
ATOM     66  C   UNL     1     -14.543  14.792  -5.219  1.00  0.00     0.135 A 
ATOM     67  C   UNL     1     -13.112  13.536  -3.777  1.00  0.00     0.135 A 
ATOM     68  F   UNL     1     -14.971  15.187  -6.429  1.00  0.00    -0.206 F 
ATOM     69  C   UNL     1     -15.139  15.387  -4.109  1.00  0.00     0.059 A 
ATOM     70  C   UNL     1     -13.738  14.064  -2.658  1.00  0.00     0.059 A 
ATOM     71  F   UNL     1     -12.057  12.761  -3.498  1.00  0.00    -0.206 F 
ATOM     72  C   UNL     1     -14.712  15.031  -2.833  1.00  0.00     0.060 A 
BRANCH  72  73
ATOM     73  S   UNL     1     -15.360  15.905  -1.402  1.00  0.00     0.124 S 
ATOM     74  O   UNL     1     -14.699  17.199  -1.536  1.00  0.00    -0.237 OA
ATOM     75  O   UNL     1     -16.796  15.888  -1.657  1.00  0.00    -0.237 OA
ATOM     76  O   UNL     1     -14.918  15.082  -0.279  1.00  0.00    -0.744 OA
ENDBRANCH  72  73
ENDBRANCH  51  65
BRANCH  52  77
ATOM     77  C   UNL     1      -5.067  15.576  -4.184  1.00  0.00     0.058 A 
ATOM     78  C   UNL     1      -4.807  16.851  -3.656  1.00  0.00     0.135 A 
ATOM     79  C   UNL     1      -4.597  14.485  -3.419  1.00  0.00     0.135 A 
ATOM     80  F   UNL     1      -5.249  17.946  -4.294  1.00  0.00    -0.206 F 
ATOM     81  C   UNL     1      -4.139  17.033  -2.438  1.00  0.00     0.059 A 
ATOM     82  C   UNL     1      -3.912  14.641  -2.217  1.00  0.00     0.059 A 
ATOM     83  F   UNL     1      -4.864  13.219  -3.769  1.00  0.00    -0.206 F 
ATOM     84  C   UNL     1      -3.704  15.919  -1.720  1.00  0.00     0.060 A 
BRANCH  84  85
ATOM     85  S   UNL     1      -2.963  16.137  -0.086  1.00  0.00     0.124 S 
ATOM     86  O   UNL     1      -1.698  16.784  -0.412  1.00  0.00    -0.237 OA
ATOM     87  O   UNL     1      -3.952  16.970   0.590  1.00  0.00    -0.237 OA
ATOM     88  O   UNL     1      -2.852  14.772   0.422  1.00  0.00    -0.744 OA
ENDBRANCH  84  85
ENDBRANCH  52  77
BRANCH  64  89
ATOM     89  C   UNL     1      -8.867  16.819  -9.232  1.00  0.00     0.058 A 
ATOM     90  C   UNL     1      -7.819  16.026  -9.731  1.00  0.00     0.135 A 
ATOM     91  C   UNL     1      -9.384  17.808 -10.082  1.00  0.00     0.135 A 
ATOM     92  F   UNL     1      -7.342  14.994  -9.022  1.00  0.00    -0.206 F 
ATOM     93  C   UNL     1      -7.300  16.215 -11.012  1.00  0.00     0.059 A 
ATOM     94  C   UNL     1      -8.901  17.995 -11.376  1.00  0.00     0.059 A 
ATOM     95  F   UNL     1     -10.429  18.555  -9.687  1.00  0.00    -0.206 F 
ATOM     96  C   UNL     1      -7.857  17.194 -11.834  1.00  0.00     0.060 A 
BRANCH  96  97
ATOM     97  S   UNL     1      -7.289  17.331 -13.544  1.00  0.00     0.124 S 
ATOM     98  O   UNL     1      -5.992  17.981 -13.384  1.00  0.00    -0.237 OA
ATOM     99  O   UNL     1      -7.250  15.938 -13.980  1.00  0.00    -0.237 OA
ATOM    100  O   UNL     1      -8.322  18.144 -14.182  1.00  0.00    -0.744 OA
ENDBRANCH  96  97
ENDBRANCH  64  89
ENDBRANCH  38  39
ENDBRANCH  31  33
ENDBRANCH  30  31
ENDBRANCH  29  30
ENDBRANCH  28  29
ENDBRANCH  27  28
ENDBRANCH  26  27
ENDBRANCH  25  26
ENDBRANCH   1  25
TORSDOF 26
