REMARK SMILES C=CCN(CC(=O)OCCOCCOCCOCCOC(=O)c1ccc(-c2c3nc(c(-c4c(F)cc(S(=O)(=O)[O-])cc4F)c4ccc([nH]4)c(-c4c(F)cc(S(=O)(=O)[O-])cc4F)c4nc(c(-c5c(F)cc(S(=O)(=O)[O-])cc5F)c5ccc2[nH]5)C=C4)C=C3)cc1)c1nccn(C)c1=O
REMARK SMILES IDX 14 1 13 2 12 3 11 4 10 5 9 6 8 7 6 8 7 9 5 10 4 11 3 12 2 13
REMARK SMILES IDX 1 14 89 15 90 16 95 17 91 18 93 19 96 20 92 21 94 22 15 23
REMARK SMILES IDX 16 24 17 25 18 26 19 27 20 28 21 29 22 30 23 31 24 32 88 33
REMARK SMILES IDX 25 34 87 35 26 36 27 37 28 38 81 39 29 40 86 41 80 42 82 43
REMARK SMILES IDX 30 44 85 45 79 46 78 47 31 49 65 50 44 51 64 52 45 53 48 54
REMARK SMILES IDX 63 55 83 56 46 57 47 58 62 60 84 61 49 62 32 63 33 64 42 65
REMARK SMILES IDX 34 66 35 67 41 68 43 69 36 70 37 71 38 72 39 73 40 74 66 75
REMARK SMILES IDX 67 76 76 77 68 78 69 79 75 80 77 81 70 82 71 83 72 84 73 85
REMARK SMILES IDX 74 86 50 87 51 88 60 89 52 90 53 91 59 92 61 93 54 94 55 95
REMARK SMILES IDX 56 96 57 97 58 98
REMARK H PARENT 82 48 48 59
REMARK Flexibility Score: inf
ROOT
ATOM      1  O   UNL     1      -5.288   1.170  -2.631  1.00  0.00    -0.377 OA
ENDROOT
BRANCH   1   2
ATOM      2  C   UNL     1      -4.312   0.291  -3.160  1.00  0.00     0.188 C 
BRANCH   2   3
ATOM      3  C   UNL     1      -4.907  -0.665  -4.206  1.00  0.00     0.188 C 
BRANCH   3   4
ATOM      4  O   UNL     1      -6.215  -1.190  -3.968  1.00  0.00    -0.376 OA
BRANCH   4   5
ATOM      5  C   UNL     1      -6.562  -1.490  -2.619  1.00  0.00     0.202 C 
BRANCH   5   6
ATOM      6  C   UNL     1      -5.747  -2.604  -1.948  1.00  0.00     0.261 C 
BRANCH   6   7
ATOM      7  O   UNL     1      -4.324  -2.359  -2.006  1.00  0.00    -0.462 OA
BRANCH   7   8
ATOM      8  C   UNL     1      -3.522  -3.442  -2.141  1.00  0.00     0.325 C 
ATOM      9  O   UNL     1      -3.921  -4.599  -2.034  1.00  0.00    -0.250 OA
BRANCH   8  10
ATOM     10  C   UNL     1      -2.059  -3.125  -2.485  1.00  0.00     0.241 C 
BRANCH  10  11
ATOM     11  N   UNL     1      -1.568  -1.744  -2.275  1.00  0.00    -0.337 N 
BRANCH  11  12
ATOM     12  C   UNL     1      -1.471  -1.318  -0.873  1.00  0.00     0.146 C 
BRANCH  12  13
ATOM     13  C   UNL     1      -0.066  -1.503  -0.363  1.00  0.00    -0.014 C 
ATOM     14  C   UNL     1       0.668  -0.522   0.185  1.00  0.00     0.006 C 
ENDBRANCH  12  13
ENDBRANCH  11  12
BRANCH  11  15
ATOM     15  C   UNL     1      -0.961  -0.960  -3.282  1.00  0.00     0.196 A 
ATOM     16  N   UNL     1      -0.094  -0.035  -2.940  1.00  0.00    -0.233 NA
ATOM     17  C   UNL     1      -1.345  -1.116  -4.804  1.00  0.00     0.293 A 
ATOM     18  C   UNL     1       0.481   0.743  -3.902  1.00  0.00     0.131 A 
ATOM     19  N   UNL     1      -0.825  -0.132  -5.647  1.00  0.00    -0.314 N 
ATOM     20  O   UNL     1      -2.089  -2.013  -5.177  1.00  0.00    -0.265 OA
ATOM     21  C   UNL     1       0.133   0.739  -5.189  1.00  0.00     0.109 A 
ATOM     22  C   UNL     1      -1.350   0.033  -6.991  1.00  0.00     0.153 C 
ENDBRANCH  11  15
ENDBRANCH  10  11
ENDBRANCH   8  10
ENDBRANCH   7   8
ENDBRANCH   6   7
ENDBRANCH   5   6
ENDBRANCH   4   5
ENDBRANCH   3   4
ENDBRANCH   2   3
ENDBRANCH   1   2
BRANCH   1  23
ATOM     23  C   UNL     1      -5.239   2.530  -3.014  1.00  0.00     0.188 C 
BRANCH  23  24
ATOM     24  C   UNL     1      -5.098   2.783  -4.519  1.00  0.00     0.188 C 
BRANCH  24  25
ATOM     25  O   UNL     1      -3.825   2.533  -5.125  1.00  0.00    -0.376 OA
BRANCH  25  26
ATOM     26  C   UNL     1      -2.639   2.930  -4.442  1.00  0.00     0.202 C 
BRANCH  26  27
ATOM     27  C   UNL     1      -2.050   4.266  -4.876  1.00  0.00     0.261 C 
BRANCH  27  28
ATOM     28  O   UNL     1      -2.496   5.258  -3.949  1.00  0.00    -0.460 OA
BRANCH  28  29
ATOM     29  C   UNL     1      -3.683   5.812  -4.270  1.00  0.00     0.338 C 
ATOM     30  O   UNL     1      -4.158   5.909  -5.391  1.00  0.00    -0.246 OA
BRANCH  29  31
ATOM     31  C   UNL     1      -4.438   6.060  -3.022  1.00  0.00     0.060 A 
ATOM     32  C   UNL     1      -5.831   6.136  -3.125  1.00  0.00     0.016 A 
ATOM     33  C   UNL     1      -3.814   6.154  -1.768  1.00  0.00     0.016 A 
ATOM     34  C   UNL     1      -6.597   6.383  -1.995  1.00  0.00     0.010 A 
ATOM     35  C   UNL     1      -4.582   6.407  -0.632  1.00  0.00     0.010 A 
ATOM     36  C   UNL     1      -5.967   6.578  -0.760  1.00  0.00    -0.014 A 
BRANCH  36  37
ATOM     37  C   UNL     1      -6.746   7.233   0.306  1.00  0.00     0.031 A 
ATOM     38  C   UNL     1      -6.725   8.736   0.347  1.00  0.00     0.074 A 
ATOM     39  C   UNL     1      -7.514   6.513   1.139  1.00  0.00     0.049 A 
ATOM     40  N   UNL     1      -7.439   9.555   1.069  1.00  0.00    -0.248 NA
ATOM     41  C   UNL     1      -5.775   9.408  -0.560  1.00  0.00     0.031 C 
ATOM     42  C   UNL     1      -7.596   5.053   1.171  1.00  0.00     0.029 A 
ATOM     43  N   UNL     1      -8.383   6.922   2.115  1.00  0.00    -0.354 N 
ATOM     44  C   UNL     1      -7.040  10.831   0.693  1.00  0.00     0.074 A 
ATOM     45  C   UNL     1      -5.995  10.685  -0.293  1.00  0.00     0.031 C 
ATOM     46  C   UNL     1      -8.468   4.687   2.127  1.00  0.00     0.029 A 
ATOM     47  C   UNL     1      -9.005   5.886   2.767  1.00  0.00     0.049 A 
ATOM     48  H   UNL     1      -8.547   7.869   2.328  1.00  0.00     0.167 HD
ATOM     49  C   UNL     1      -7.516  12.020   1.125  1.00  0.00     0.037 A 
ATOM     50  C   UNL     1      -9.909   5.917   3.764  1.00  0.00     0.037 A 
ATOM     51  C   UNL     1      -8.550  12.146   2.114  1.00  0.00     0.049 A 
ATOM     52  C   UNL     1     -10.410   7.256   4.242  1.00  0.00     0.074 A 
ATOM     53  C   UNL     1      -9.133  13.296   2.611  1.00  0.00     0.029 A 
ATOM     54  N   UNL     1      -9.144  11.075   2.766  1.00  0.00    -0.354 N 
ATOM     55  N   UNL     1     -10.078   8.457   3.826  1.00  0.00    -0.248 NA
ATOM     56  C   UNL     1     -11.420   7.246   5.307  1.00  0.00     0.031 C 
ATOM     57  C   UNL     1     -10.051  12.921   3.598  1.00  0.00     0.029 A 
ATOM     58  C   UNL     1     -10.069  11.536   3.683  1.00  0.00     0.049 A 
ATOM     59  H   UNL     1      -8.938  10.127   2.599  1.00  0.00     0.167 HD
ATOM     60  C   UNL     1     -10.849   9.344   4.569  1.00  0.00     0.074 A 
ATOM     61  C   UNL     1     -11.680   8.539   5.442  1.00  0.00     0.031 C 
ATOM     62  C   UNL     1     -10.872  10.701   4.540  1.00  0.00     0.037 A 
BRANCH  49  63
ATOM     63  C   UNL     1      -6.906  13.264   0.548  1.00  0.00     0.058 A 
ATOM     64  C   UNL     1      -7.189  13.686  -0.761  1.00  0.00     0.135 A 
ATOM     65  C   UNL     1      -6.041  14.054   1.320  1.00  0.00     0.135 A 
ATOM     66  F   UNL     1      -7.986  12.950  -1.552  1.00  0.00    -0.206 F 
ATOM     67  C   UNL     1      -6.627  14.845  -1.288  1.00  0.00     0.059 A 
ATOM     68  C   UNL     1      -5.484  15.227   0.821  1.00  0.00     0.059 A 
ATOM     69  F   UNL     1      -5.725  13.684   2.571  1.00  0.00    -0.206 F 
ATOM     70  C   UNL     1      -5.777  15.610  -0.488  1.00  0.00     0.060 A 
BRANCH  70  71
ATOM     71  S   UNL     1      -5.072  17.123  -1.175  1.00  0.00     0.124 S 
ATOM     72  O   UNL     1      -4.066  16.588  -2.087  1.00  0.00    -0.237 OA
ATOM     73  O   UNL     1      -6.229  17.750  -1.805  1.00  0.00    -0.237 OA
ATOM     74  O   UNL     1      -4.548  17.817  -0.002  1.00  0.00    -0.744 OA
ENDBRANCH  70  71
ENDBRANCH  49  63
BRANCH  50  75
ATOM     75  C   UNL     1     -10.394   4.651   4.375  1.00  0.00     0.058 A 
ATOM     76  C   UNL     1     -11.711   4.204   4.195  1.00  0.00     0.135 A 
ATOM     77  C   UNL     1      -9.540   3.864   5.164  1.00  0.00     0.135 A 
ATOM     78  F   UNL     1     -12.567   4.923   3.453  1.00  0.00    -0.206 F 
ATOM     79  C   UNL     1     -12.173   3.035   4.794  1.00  0.00     0.059 A 
ATOM     80  C   UNL     1      -9.972   2.680   5.755  1.00  0.00     0.059 A 
ATOM     81  F   UNL     1      -8.266   4.239   5.356  1.00  0.00    -0.206 F 
ATOM     82  C   UNL     1     -11.295   2.281   5.576  1.00  0.00     0.060 A 
BRANCH  82  83
ATOM     83  S   UNL     1     -11.888   0.749   6.325  1.00  0.00     0.124 S 
ATOM     84  O   UNL     1     -12.671   1.255   7.447  1.00  0.00    -0.237 OA
ATOM     85  O   UNL     1     -12.649   0.145   5.236  1.00  0.00    -0.237 OA
ATOM     86  O   UNL     1     -10.655   0.051   6.678  1.00  0.00    -0.744 OA
ENDBRANCH  82  83
ENDBRANCH  50  75
BRANCH  62  87
ATOM     87  C   UNL     1     -11.828  11.384   5.473  1.00  0.00     0.058 A 
ATOM     88  C   UNL     1     -11.579  11.452   6.853  1.00  0.00     0.135 A 
ATOM     89  C   UNL     1     -12.985  12.005   4.979  1.00  0.00     0.135 A 
ATOM     90  F   UNL     1     -10.484  10.872   7.371  1.00  0.00    -0.206 F 
ATOM     91  C   UNL     1     -12.465  12.082   7.717  1.00  0.00     0.059 A 
ATOM     92  C   UNL     1     -13.872  12.664   5.823  1.00  0.00     0.059 A 
ATOM     93  F   UNL     1     -13.257  11.982   3.665  1.00  0.00    -0.206 F 
ATOM     94  C   UNL     1     -13.613  12.680   7.193  1.00  0.00     0.060 A 
BRANCH  94  95
ATOM     95  S   UNL     1     -14.757  13.501   8.321  1.00  0.00     0.124 S 
ATOM     96  O   UNL     1     -15.474  12.363   8.887  1.00  0.00    -0.237 OA
ATOM     97  O   UNL     1     -13.856  14.200   9.233  1.00  0.00    -0.237 OA
ATOM     98  O   UNL     1     -15.539  14.363   7.441  1.00  0.00    -0.744 OA
ENDBRANCH  94  95
ENDBRANCH  62  87
ENDBRANCH  36  37
ENDBRANCH  29  31
ENDBRANCH  28  29
ENDBRANCH  27  28
ENDBRANCH  26  27
ENDBRANCH  25  26
ENDBRANCH  24  25
ENDBRANCH  23  24
ENDBRANCH   1  23
TORSDOF 27
