REMARK SMILES Cc1ccccc1/[NH+]=C1\S[C@@H](CC(=O)Nc2ccc(C(=O)OCCOCCOCCOCCOC(=O)c3ccc(-c4c5nc(c(-c6c(F)cc(S(=O)(=O)[O-])cc6F)c6ccc([nH]6)c(-c6c(F)cc(S(=O)(=O)[O-])cc6F)c6nc(c(-c7c(F)cc(S(=O)(=O)[O-])cc7F)c7ccc4[nH]7)C=C6)C=C5)cc3)cc2)C(=O)N1C
REMARK SMILES IDX 27 1 26 2 25 3 24 4 23 5 22 6 20 7 21 8 19 9 16 10 17 11
REMARK SMILES IDX 104 12 18 13 103 14 15 15 13 16 14 17 12 19 11 20 8 21 9 22
REMARK SMILES IDX 10 24 107 25 105 26 108 27 106 28 7 29 1 30 2 31 3 32 4 33
REMARK SMILES IDX 6 34 5 35 28 36 29 37 30 38 31 39 32 40 33 41 34 42 35 43
REMARK SMILES IDX 36 44 37 45 38 46 102 47 39 48 101 49 40 50 41 51 42 52
REMARK SMILES IDX 95 53 43 54 100 55 94 56 96 57 44 58 99 59 93 60 92 61 45 63
REMARK SMILES IDX 79 64 58 65 78 66 59 67 62 68 77 69 97 70 60 71 61 72 76 74
REMARK SMILES IDX 98 75 63 76 46 77 47 78 56 79 48 80 49 81 55 82 57 83 50 84
REMARK SMILES IDX 51 85 52 86 53 87 54 88 80 89 81 90 90 91 82 92 83 93 89 94
REMARK SMILES IDX 91 95 84 96 85 97 86 98 87 99 88 100 64 101 65 102 74 103
REMARK SMILES IDX 66 104 67 105 73 106 75 107 68 108 69 109 70 110 71 111
REMARK SMILES IDX 72 112
REMARK H PARENT 15 18 8 23 96 62 62 73
REMARK Flexibility Score: inf
ROOT
ATOM      1  C   UNL     1       6.816   8.951  -2.069  1.00  0.00     0.188 C 
ENDROOT
BRANCH   1   2
ATOM      2  C   UNL     1       6.401   9.870  -3.492  1.00  0.00     0.188 C 
BRANCH   2   3
ATOM      3  O   UNL     1       5.721   9.486  -5.125  1.00  0.00    -0.376 OA
BRANCH   3   4
ATOM      4  C   UNL     1       4.582   8.243  -5.774  1.00  0.00     0.202 C 
BRANCH   4   5
ATOM      5  C   UNL     1       4.217   6.494  -5.093  1.00  0.00     0.261 C 
BRANCH   5   6
ATOM      6  O   UNL     1       5.236   5.536  -3.959  1.00  0.00    -0.460 OA
BRANCH   6   7
ATOM      7  C   UNL     1       6.602   5.347  -3.512  1.00  0.00     0.338 C 
ATOM      8  O   UNL     1       7.669   5.866  -3.863  1.00  0.00    -0.246 OA
BRANCH   7   9
ATOM      9  C   UNL     1       7.006   4.595  -2.323  1.00  0.00     0.060 A 
ATOM     10  C   UNL     1       7.746   3.281   0.060  1.00  0.00     0.041 A 
ATOM     11  C   UNL     1       6.627   2.998  -0.709  1.00  0.00     0.027 A 
ATOM     12  C   UNL     1       8.553   4.307  -0.384  1.00  0.00     0.027 A 
ATOM     13  C   UNL     1       6.288   3.532  -1.930  1.00  0.00     0.018 A 
ATOM     14  C   UNL     1       8.161   4.980  -1.553  1.00  0.00     0.018 A 
BRANCH  10  15
ATOM     15  N   UNL     1       7.969   2.610   1.279  1.00  0.00    -0.326 N 
ATOM     16  C   UNL     1       7.349   1.496   1.804  1.00  0.00     0.226 C 
ATOM     17  O   UNL     1       7.551   1.202   2.987  1.00  0.00    -0.275 OA
ATOM     18  H   UNL     1       8.677   2.997   1.844  1.00  0.00     0.169 HD
BRANCH  16  19
ATOM     19  C   UNL     1       6.492   0.558   0.951  1.00  0.00     0.128 C 
BRANCH  19  20
ATOM     20  C   UNL     1       5.000   0.611   1.304  1.00  0.00     0.183 C 
ATOM     21  N   UNL     1       1.509   0.870  -0.027  1.00  0.00    -0.234 N 
ATOM     22  C   UNL     1       2.780   0.779   0.054  1.00  0.00     0.319 C 
ATOM     23  H   UNL     1       1.204   1.804  -0.098  1.00  0.00     0.313 HD
ATOM     24  S   UNL     1       4.016  -0.421   0.119  1.00  0.00    -0.022 SA
ATOM     25  N   UNL     1       3.417   1.949   0.169  1.00  0.00    -0.193 N 
ATOM     26  C   UNL     1       4.353   1.989   1.162  1.00  0.00     0.324 C 
ATOM     27  C   UNL     1       3.263   2.861  -0.913  1.00  0.00     0.301 C 
ATOM     28  O   UNL     1       4.665   2.977   1.813  1.00  0.00    -0.245 OA
BRANCH  21  29
ATOM     29  C   UNL     1       0.462  -0.026  -0.039  1.00  0.00     0.128 A 
ATOM     30  C   UNL     1       1.623  -2.021   1.049  1.00  0.00     0.049 C 
ATOM     31  C   UNL     1       0.455  -1.347   0.410  1.00  0.00    -0.004 A 
ATOM     32  C   UNL     1      -0.726  -2.095   0.300  1.00  0.00     0.008 A 
ATOM     33  C   UNL     1      -1.921  -1.507  -0.107  1.00  0.00     0.001 A 
ATOM     34  C   UNL     1      -0.763   0.563  -0.412  1.00  0.00     0.052 A 
ATOM     35  C   UNL     1      -1.951  -0.160  -0.428  1.00  0.00     0.004 A 
ENDBRANCH  21  29
ENDBRANCH  19  20
ENDBRANCH  16  19
ENDBRANCH  10  15
ENDBRANCH   7   9
ENDBRANCH   6   7
ENDBRANCH   5   6
ENDBRANCH   4   5
ENDBRANCH   3   4
ENDBRANCH   2   3
ENDBRANCH   1   2
BRANCH   1  36
ATOM     36  O   UNL     1       6.032   8.550  -0.917  1.00  0.00    -0.377 OA
BRANCH  36  37
ATOM     37  C   UNL     1       5.124   9.326  -0.145  1.00  0.00     0.188 C 
BRANCH  37  38
ATOM     38  C   UNL     1       4.710  10.565  -0.838  1.00  0.00     0.188 C 
BRANCH  38  39
ATOM     39  O   UNL     1       5.819  11.416  -1.050  1.00  0.00    -0.376 OA
BRANCH  39  40
ATOM     40  C   UNL     1       5.929  12.455  -0.103  1.00  0.00     0.202 C 
BRANCH  40  41
ATOM     41  C   UNL     1       4.670  13.335  -0.087  1.00  0.00     0.261 C 
BRANCH  41  42
ATOM     42  O   UNL     1       4.287  13.619  -1.457  1.00  0.00    -0.460 OA
BRANCH  42  43
ATOM     43  C   UNL     1       2.965  13.395  -1.776  1.00  0.00     0.338 C 
ATOM     44  O   UNL     1       2.035  13.941  -1.244  1.00  0.00    -0.246 OA
BRANCH  43  45
ATOM     45  C   UNL     1       2.909  12.308  -2.813  1.00  0.00     0.060 A 
ATOM     46  C   UNL     1       2.046  11.220  -2.766  1.00  0.00     0.016 A 
ATOM     47  C   UNL     1       3.863  12.247  -3.785  1.00  0.00     0.016 A 
ATOM     48  C   UNL     1       2.437   9.949  -3.312  1.00  0.00     0.010 A 
ATOM     49  C   UNL     1       4.133  11.005  -4.381  1.00  0.00     0.010 A 
ATOM     50  C   UNL     1       3.720   9.726  -3.844  1.00  0.00    -0.014 A 
BRANCH  50  51
ATOM     51  C   UNL     1       4.774   8.222  -3.529  1.00  0.00     0.031 A 
ATOM     52  C   UNL     1       6.352   7.633  -4.596  1.00  0.00     0.074 A 
ATOM     53  C   UNL     1       4.135   7.486  -2.545  1.00  0.00     0.049 A 
ATOM     54  N   UNL     1       6.295   6.653  -5.573  1.00  0.00    -0.248 NA
ATOM     55  C   UNL     1       7.669   8.367  -5.185  1.00  0.00     0.031 C 
ATOM     56  C   UNL     1       4.603   6.449  -1.630  1.00  0.00     0.029 A 
ATOM     57  N   UNL     1       2.762   7.511  -2.230  1.00  0.00    -0.354 N 
ATOM     58  C   UNL     1       7.378   6.474  -6.383  1.00  0.00     0.074 A 
ATOM     59  C   UNL     1       8.023   7.724  -6.304  1.00  0.00     0.031 C 
ATOM     60  C   UNL     1       3.561   5.843  -1.056  1.00  0.00     0.029 A 
ATOM     61  C   UNL     1       2.361   6.310  -1.653  1.00  0.00     0.049 A 
ATOM     62  H   UNL     1       2.165   8.276  -2.396  1.00  0.00     0.167 HD
ATOM     63  C   UNL     1       7.751   5.275  -6.933  1.00  0.00     0.037 A 
ATOM     64  C   UNL     1       1.366   5.555  -2.180  1.00  0.00     0.037 A 
ATOM     65  C   UNL     1       6.997   4.121  -6.386  1.00  0.00     0.049 A 
ATOM     66  C   UNL     1       1.715   4.431  -3.177  1.00  0.00     0.074 A 
ATOM     67  C   UNL     1       7.346   3.108  -5.503  1.00  0.00     0.029 A 
ATOM     68  N   UNL     1       5.605   4.011  -6.516  1.00  0.00    -0.354 N 
ATOM     69  N   UNL     1       2.863   4.213  -3.799  1.00  0.00    -0.248 NA
ATOM     70  C   UNL     1       0.751   3.365  -3.453  1.00  0.00     0.031 C 
ATOM     71  C   UNL     1       6.158   2.483  -5.021  1.00  0.00     0.029 A 
ATOM     72  C   UNL     1       5.054   3.099  -5.601  1.00  0.00     0.049 A 
ATOM     73  H   UNL     1       5.074   4.515  -7.174  1.00  0.00     0.167 HD
ATOM     74  C   UNL     1       2.747   3.112  -4.664  1.00  0.00     0.074 A 
ATOM     75  C   UNL     1       1.451   2.567  -4.277  1.00  0.00     0.031 C 
ATOM     76  C   UNL     1       3.639   2.671  -5.641  1.00  0.00     0.037 A 
BRANCH  63  77
ATOM     77  C   UNL     1       9.117   5.229  -7.637  1.00  0.00     0.058 A 
ATOM     78  C   UNL     1      10.052   4.192  -7.472  1.00  0.00     0.135 A 
ATOM     79  C   UNL     1       9.585   6.297  -8.441  1.00  0.00     0.135 A 
ATOM     80  F   UNL     1       9.715   3.033  -6.895  1.00  0.00    -0.206 F 
ATOM     81  C   UNL     1      11.384   4.290  -7.909  1.00  0.00     0.059 A 
ATOM     82  C   UNL     1      10.927   6.467  -8.805  1.00  0.00     0.059 A 
ATOM     83  F   UNL     1       8.729   7.218  -8.918  1.00  0.00    -0.206 F 
ATOM     84  C   UNL     1      11.830   5.456  -8.524  1.00  0.00     0.060 A 
BRANCH  84  85
ATOM     85  S   UNL     1      13.564   5.603  -9.014  1.00  0.00     0.124 S 
ATOM     86  O   UNL     1      14.270   5.344  -7.763  1.00  0.00    -0.237 OA
ATOM     87  O   UNL     1      13.679   4.566 -10.033  1.00  0.00    -0.237 OA
ATOM     88  O   UNL     1      13.667   6.974  -9.507  1.00  0.00    -0.744 OA
ENDBRANCH  84  85
ENDBRANCH  63  77
BRANCH  64  89
ATOM     89  C   UNL     1       0.073   6.256  -1.821  1.00  0.00     0.058 A 
ATOM     90  C   UNL     1      -0.117   6.458  -0.424  1.00  0.00     0.135 A 
ATOM     91  C   UNL     1      -0.422   7.262  -2.663  1.00  0.00     0.135 A 
ATOM     92  F   UNL     1       0.289   5.516   0.445  1.00  0.00    -0.206 F 
ATOM     93  C   UNL     1      -0.444   7.708   0.102  1.00  0.00     0.059 A 
ATOM     94  C   UNL     1      -0.799   8.516  -2.153  1.00  0.00     0.059 A 
ATOM     95  F   UNL     1      -0.340   7.118  -3.993  1.00  0.00    -0.206 F 
ATOM     96  C   UNL     1      -0.695   8.753  -0.779  1.00  0.00     0.060 A 
BRANCH  96  97
ATOM     97  S   UNL     1      -0.604  10.445  -0.125  1.00  0.00     0.124 S 
ATOM     98  O   UNL     1      -1.440  10.377   1.067  1.00  0.00    -0.237 OA
ATOM     99  O   UNL     1       0.834  10.561   0.114  1.00  0.00    -0.237 OA
ATOM    100  O   UNL     1      -1.132  11.244  -1.224  1.00  0.00    -0.744 OA
ENDBRANCH  96  97
ENDBRANCH  64  89
BRANCH  76 101
ATOM    101  C   UNL     1       3.341   1.619  -6.760  1.00  0.00     0.058 A 
ATOM    102  C   UNL     1       2.073   1.132  -7.128  1.00  0.00     0.135 A 
ATOM    103  C   UNL     1       4.388   1.145  -7.613  1.00  0.00     0.135 A 
ATOM    104  F   UNL     1       0.946   1.583  -6.568  1.00  0.00    -0.206 F 
ATOM    105  C   UNL     1       1.877   0.198  -8.157  1.00  0.00     0.059 A 
ATOM    106  C   UNL     1       4.207   0.272  -8.683  1.00  0.00     0.059 A 
ATOM    107  F   UNL     1       5.663   1.531  -7.485  1.00  0.00    -0.206 F 
ATOM    108  C   UNL     1       2.948  -0.225  -8.933  1.00  0.00     0.060 A 
BRANCH 108 109
ATOM    109  S   UNL     1       2.682  -1.338 -10.320  1.00  0.00     0.124 S 
ATOM    110  O   UNL     1       2.630  -2.632  -9.649  1.00  0.00    -0.237 OA
ATOM    111  O   UNL     1       1.417  -0.857 -10.868  1.00  0.00    -0.237 OA
ATOM    112  O   UNL     1       3.848  -1.111 -11.167  1.00  0.00    -0.744 OA
ENDBRANCH 108 109
ENDBRANCH  76 101
ENDBRANCH  50  51
ENDBRANCH  43  45
ENDBRANCH  42  43
ENDBRANCH  41  42
ENDBRANCH  40  41
ENDBRANCH  39  40
ENDBRANCH  38  39
ENDBRANCH  37  38
ENDBRANCH  36  37
ENDBRANCH   1  36
TORSDOF 27
