REMARK SMILES Cc1cc([C@@H]([NH3+])C[C@H](C)CC(=O)OCCOCCOCCOCCOC(=O)c2ccc(-c3c4nc(c(-c5c(F)cc(S(=O)(=O)[O-])cc5F)c5ccc([nH]5)c(-c5c(F)cc(S(=O)(=O)[O-])cc5F)c5nc(c(-c6c(F)cc(S(=O)(=O)[O-])cc6F)c6ccc3[nH]6)C=C5)C=C4)cc2)ccc1F
REMARK SMILES IDX 18 1 17 2 16 3 15 4 14 5 13 6 11 7 12 8 10 9 8 10 9 11 7 12
REMARK SMILES IDX 5 13 4 14 1 15 2 16 3 17 96 18 95 19 97 20 94 21 6 22 19 26
REMARK SMILES IDX 20 27 21 28 22 29 23 30 24 31 25 32 26 33 27 34 28 35 29 36
REMARK SMILES IDX 93 37 30 38 92 39 31 40 32 41 33 42 86 43 34 44 91 45 85 46
REMARK SMILES IDX 87 47 35 48 90 49 84 50 83 51 36 53 70 54 49 55 69 56 50 57
REMARK SMILES IDX 53 58 68 59 88 60 51 61 52 62 67 64 89 65 54 66 37 67 38 68
REMARK SMILES IDX 47 69 39 70 40 71 46 72 48 73 41 74 42 75 43 76 44 77 45 78
REMARK SMILES IDX 71 79 72 80 81 81 73 82 74 83 80 84 82 85 75 86 76 87 77 88
REMARK SMILES IDX 78 89 79 90 55 91 56 92 65 93 57 94 58 95 64 96 66 97 59 98
REMARK SMILES IDX 60 99 61 100 62 101 63 102
REMARK H PARENT 6 23 6 24 6 25 87 52 53 63
REMARK Flexibility Score: inf
ROOT
ATOM      1  C   UNL     1      -2.781  -1.123   3.955  1.00  0.00     0.188 C 
ENDROOT
BRANCH   1   2
ATOM      2  C   UNL     1      -3.356  -1.782   5.211  1.00  0.00     0.188 C 
BRANCH   2   3
ATOM      3  O   UNL     1      -3.790  -3.117   5.104  1.00  0.00    -0.376 OA
BRANCH   3   4
ATOM      4  C   UNL     1      -5.074  -3.464   4.620  1.00  0.00     0.202 C 
BRANCH   4   5
ATOM      5  C   UNL     1      -6.047  -2.541   3.849  1.00  0.00     0.261 C 
BRANCH   5   6
ATOM      6  O   UNL     1      -5.599  -1.251   3.415  1.00  0.00    -0.463 OA
BRANCH   6   7
ATOM      7  C   UNL     1      -5.991  -0.177   4.134  1.00  0.00     0.306 C 
ATOM      8  O   UNL     1      -6.699  -0.244   5.135  1.00  0.00    -0.252 OA
BRANCH   7   9
ATOM      9  C   UNL     1      -5.368   1.141   3.686  1.00  0.00     0.126 C 
BRANCH   9  10
ATOM     10  C   UNL     1      -4.677   1.232   2.305  1.00  0.00     0.003 C 
ATOM     11  C   UNL     1      -5.718   1.197   1.183  1.00  0.00     0.008 C 
BRANCH  10  12
ATOM     12  C   UNL     1      -3.711   2.458   2.252  1.00  0.00     0.074 C 
BRANCH  12  13
ATOM     13  C   UNL     1      -2.454   2.250   1.356  1.00  0.00     0.212 C 
BRANCH  13  14
ATOM     14  C   UNL     1      -2.820   2.139  -0.109  1.00  0.00     0.010 A 
ATOM     15  C   UNL     1      -3.732  -0.653  -2.542  1.00  0.00     0.047 C 
ATOM     16  C   UNL     1      -3.479   0.708  -1.972  1.00  0.00    -0.015 A 
ATOM     17  C   UNL     1      -2.947   0.864  -0.687  1.00  0.00     0.016 A 
ATOM     18  C   UNL     1      -3.809   1.849  -2.702  1.00  0.00     0.126 A 
ATOM     19  C   UNL     1      -3.644   3.122  -2.169  1.00  0.00     0.040 A 
ATOM     20  F   UNL     1      -4.334   1.725  -3.930  1.00  0.00    -0.207 F 
ATOM     21  C   UNL     1      -3.158   3.269  -0.871  1.00  0.00     0.013 A 
ENDBRANCH  13  14
BRANCH  13  22
ATOM     22  N   UNL     1      -1.491   3.344   1.574  1.00  0.00    -0.351 N 
ATOM     23  H   UNL     1      -1.918   4.231   1.307  1.00  0.00     0.345 HD
ATOM     24  H   UNL     1      -0.659   3.183   1.006  1.00  0.00     0.345 HD
ATOM     25  H   UNL     1      -1.230   3.376   2.559  1.00  0.00     0.345 HD
ENDBRANCH  13  22
ENDBRANCH  12  13
ENDBRANCH  10  12
ENDBRANCH   9  10
ENDBRANCH   7   9
ENDBRANCH   6   7
ENDBRANCH   5   6
ENDBRANCH   4   5
ENDBRANCH   3   4
ENDBRANCH   2   3
ENDBRANCH   1   2
BRANCH   1  26
ATOM     26  O   UNL     1      -3.156  -1.627   2.687  1.00  0.00    -0.377 OA
BRANCH  26  27
ATOM     27  C   UNL     1      -2.931  -3.001   2.383  1.00  0.00     0.188 C 
BRANCH  27  28
ATOM     28  C   UNL     1      -1.774  -3.723   3.098  1.00  0.00     0.188 C 
BRANCH  28  29
ATOM     29  O   UNL     1      -0.840  -2.838   3.694  1.00  0.00    -0.376 OA
BRANCH  29  30
ATOM     30  C   UNL     1       0.198  -2.356   2.859  1.00  0.00     0.202 C 
BRANCH  30  31
ATOM     31  C   UNL     1      -0.099  -1.462   1.649  1.00  0.00     0.261 C 
BRANCH  31  32
ATOM     32  O   UNL     1      -1.007  -1.814   0.597  1.00  0.00    -0.460 OA
BRANCH  32  33
ATOM     33  C   UNL     1      -1.033  -3.031   0.041  1.00  0.00     0.338 C 
ATOM     34  O   UNL     1      -1.055  -4.141   0.562  1.00  0.00    -0.246 OA
BRANCH  33  35
ATOM     35  C   UNL     1      -1.147  -2.944  -1.393  1.00  0.00     0.060 A 
ATOM     36  C   UNL     1      -1.422  -4.154  -2.056  1.00  0.00     0.016 A 
ATOM     37  C   UNL     1      -0.574  -1.829  -2.000  1.00  0.00     0.016 A 
ATOM     38  C   UNL     1      -0.844  -4.353  -3.275  1.00  0.00     0.010 A 
ATOM     39  C   UNL     1      -0.033  -2.016  -3.226  1.00  0.00     0.010 A 
ATOM     40  C   UNL     1      -0.089  -3.298  -3.779  1.00  0.00    -0.014 A 
BRANCH  40  41
ATOM     41  C   UNL     1       0.640  -3.428  -4.999  1.00  0.00     0.031 A 
ATOM     42  C   UNL     1      -0.230  -3.511  -6.175  1.00  0.00     0.074 A 
ATOM     43  C   UNL     1       1.983  -3.373  -4.893  1.00  0.00     0.049 A 
ATOM     44  N   UNL     1      -0.085  -4.350  -7.134  1.00  0.00    -0.248 NA
ATOM     45  C   UNL     1      -1.512  -2.786  -6.246  1.00  0.00     0.031 C 
ATOM     46  C   UNL     1       2.951  -3.122  -5.938  1.00  0.00     0.029 A 
ATOM     47  N   UNL     1       2.774  -3.648  -3.762  1.00  0.00    -0.354 N 
ATOM     48  C   UNL     1      -0.933  -3.898  -8.125  1.00  0.00     0.074 A 
ATOM     49  C   UNL     1      -1.962  -3.155  -7.448  1.00  0.00     0.031 C 
ATOM     50  C   UNL     1       4.159  -3.529  -5.507  1.00  0.00     0.029 A 
ATOM     51  C   UNL     1       3.976  -4.193  -4.223  1.00  0.00     0.049 A 
ATOM     52  H   UNL     1       2.527  -3.487  -2.823  1.00  0.00     0.167 HD
ATOM     53  C   UNL     1      -0.477  -3.885  -9.408  1.00  0.00     0.037 A 
ATOM     54  C   UNL     1       4.394  -5.469  -3.961  1.00  0.00     0.037 A 
ATOM     55  C   UNL     1       0.913  -4.338  -9.415  1.00  0.00     0.049 A 
ATOM     56  C   UNL     1       4.340  -6.339  -5.174  1.00  0.00     0.074 A 
ATOM     57  C   UNL     1       2.097  -3.620  -9.342  1.00  0.00     0.029 A 
ATOM     58  N   UNL     1       1.217  -5.641  -9.059  1.00  0.00    -0.354 N 
ATOM     59  N   UNL     1       3.640  -6.051  -6.231  1.00  0.00    -0.248 NA
ATOM     60  C   UNL     1       5.054  -7.603  -5.281  1.00  0.00     0.031 C 
ATOM     61  C   UNL     1       3.118  -4.506  -8.924  1.00  0.00     0.029 A 
ATOM     62  C   UNL     1       2.553  -5.754  -8.725  1.00  0.00     0.049 A 
ATOM     63  H   UNL     1       0.571  -6.384  -9.045  1.00  0.00     0.167 HD
ATOM     64  C   UNL     1       3.779  -7.053  -7.145  1.00  0.00     0.074 A 
ATOM     65  C   UNL     1       4.705  -7.981  -6.520  1.00  0.00     0.031 C 
ATOM     66  C   UNL     1       3.102  -7.039  -8.327  1.00  0.00     0.037 A 
BRANCH  53  67
ATOM     67  C   UNL     1      -1.099  -3.130 -10.558  1.00  0.00     0.058 A 
ATOM     68  C   UNL     1      -0.292  -2.704 -11.637  1.00  0.00     0.135 A 
ATOM     69  C   UNL     1      -2.470  -2.824 -10.687  1.00  0.00     0.135 A 
ATOM     70  F   UNL     1       1.023  -2.954 -11.679  1.00  0.00    -0.206 F 
ATOM     71  C   UNL     1      -0.790  -2.012 -12.736  1.00  0.00     0.059 A 
ATOM     72  C   UNL     1      -2.989  -2.099 -11.768  1.00  0.00     0.059 A 
ATOM     73  F   UNL     1      -3.373  -3.265  -9.800  1.00  0.00    -0.206 F 
ATOM     74  C   UNL     1      -2.140  -1.710 -12.796  1.00  0.00     0.060 A 
BRANCH  74  75
ATOM     75  S   UNL     1      -2.755  -0.872 -14.266  1.00  0.00     0.124 S 
ATOM     76  O   UNL     1      -1.958   0.351 -14.277  1.00  0.00    -0.237 OA
ATOM     77  O   UNL     1      -2.448  -1.839 -15.314  1.00  0.00    -0.237 OA
ATOM     78  O   UNL     1      -4.175  -0.686 -13.983  1.00  0.00    -0.744 OA
ENDBRANCH  74  75
ENDBRANCH  53  67
BRANCH  54  79
ATOM     79  C   UNL     1       4.151  -5.981  -2.598  1.00  0.00     0.058 A 
ATOM     80  C   UNL     1       4.985  -5.448  -1.604  1.00  0.00     0.135 A 
ATOM     81  C   UNL     1       2.882  -6.462  -2.252  1.00  0.00     0.135 A 
ATOM     82  F   UNL     1       6.234  -5.059  -1.901  1.00  0.00    -0.206 F 
ATOM     83  C   UNL     1       4.473  -5.104  -0.377  1.00  0.00     0.059 A 
ATOM     84  C   UNL     1       2.335  -6.105  -1.036  1.00  0.00     0.059 A 
ATOM     85  F   UNL     1       2.094  -7.048  -3.163  1.00  0.00    -0.206 F 
ATOM     86  C   UNL     1       3.121  -5.331  -0.175  1.00  0.00     0.060 A 
BRANCH  86  87
ATOM     87  S   UNL     1       2.278  -4.261   0.956  1.00  0.00     0.124 S 
ATOM     88  O   UNL     1       3.321  -3.721   1.822  1.00  0.00    -0.237 OA
ATOM     89  O   UNL     1       1.722  -3.287   0.020  1.00  0.00    -0.237 OA
ATOM     90  O   UNL     1       1.358  -5.189   1.598  1.00  0.00    -0.744 OA
ENDBRANCH  86  87
ENDBRANCH  54  79
BRANCH  66  91
ATOM     91  C   UNL     1       2.977  -8.210  -9.260  1.00  0.00     0.058 A 
ATOM     92  C   UNL     1       3.107  -9.548  -8.857  1.00  0.00     0.135 A 
ATOM     93  C   UNL     1       2.599  -8.011 -10.611  1.00  0.00     0.135 A 
ATOM     94  F   UNL     1       3.284  -9.887  -7.573  1.00  0.00    -0.206 F 
ATOM     95  C   UNL     1       3.014 -10.603  -9.756  1.00  0.00     0.059 A 
ATOM     96  C   UNL     1       2.401  -9.056 -11.499  1.00  0.00     0.059 A 
ATOM     97  F   UNL     1       2.396  -6.787 -11.119  1.00  0.00    -0.206 F 
ATOM     98  C   UNL     1       2.666 -10.347 -11.076  1.00  0.00     0.060 A 
BRANCH  98  99
ATOM     99  S   UNL     1       2.536 -11.716 -12.226  1.00  0.00     0.124 S 
ATOM    100  O   UNL     1       3.936 -11.918 -12.587  1.00  0.00    -0.237 OA
ATOM    101  O   UNL     1       1.937 -12.763 -11.404  1.00  0.00    -0.237 OA
ATOM    102  O   UNL     1       1.678 -11.191 -13.283  1.00  0.00    -0.744 OA
ENDBRANCH  98  99
ENDBRANCH  66  91
ENDBRANCH  40  41
ENDBRANCH  33  35
ENDBRANCH  32  33
ENDBRANCH  31  32
ENDBRANCH  30  31
ENDBRANCH  29  30
ENDBRANCH  28  29
ENDBRANCH  27  28
ENDBRANCH  26  27
ENDBRANCH   1  26
TORSDOF 28
