REMARK SMILES O=C(OCCOCCOCCOCCOC(=O)c1cc(NC(=S)NC(=O)c2ccccc2F)ccc1Cl)c1ccc(-c2c3nc(c(-c4c(F)cc(S(=O)(=O)[O-])cc4F)c4ccc([nH]4)c(-c4c(F)cc(S(=O)(=O)[O-])cc4F)c4nc(c(-c5c(F)cc(S(=O)(=O)[O-])cc5F)c5ccc2[nH]5)C=C4)C=C3)cc1
REMARK SMILES IDX 10 1 9 2 8 3 7 4 6 5 5 6 4 7 3 8 2 9 1 10 38 11 39 12 103 13
REMARK SMILES IDX 40 14 102 15 41 16 42 17 43 18 96 19 44 20 101 21 95 22
REMARK SMILES IDX 97 23 45 24 100 25 94 26 93 27 46 29 80 30 59 31 79 32 60 33
REMARK SMILES IDX 63 34 78 35 98 36 61 37 62 38 77 40 99 41 64 42 47 43 48 44
REMARK SMILES IDX 57 45 49 46 50 47 56 48 58 49 51 50 52 51 53 52 54 53 55 54
REMARK SMILES IDX 81 55 82 56 91 57 83 58 84 59 90 60 92 61 85 62 86 63 87 64
REMARK SMILES IDX 88 65 89 66 65 67 66 68 75 69 67 70 68 71 74 72 76 73 69 74
REMARK SMILES IDX 70 75 71 76 72 77 73 78 11 79 12 80 13 81 14 82 15 83 16 84
REMARK SMILES IDX 17 85 18 86 19 87 36 88 20 89 35 90 37 91 34 92 21 93 22 95
REMARK SMILES IDX 23 96 24 97 25 98 26 100 27 101 28 102 32 103 29 104 31 105
REMARK SMILES IDX 33 106 30 107
REMARK H PARENT 97 28 63 39 21 94 24 99
REMARK Flexibility Score: inf
ROOT
ATOM      1  C   UNL     1       3.522   0.572   3.395  1.00  0.00     0.188 C 
ENDROOT
BRANCH   1   2
ATOM      2  O   UNL     1       2.100   0.660   3.381  1.00  0.00    -0.377 OA
BRANCH   2   3
ATOM      3  C   UNL     1       1.465   0.062   2.256  1.00  0.00     0.188 C 
BRANCH   3   4
ATOM      4  C   UNL     1       1.968   0.608   0.925  1.00  0.00     0.188 C 
BRANCH   4   5
ATOM      5  O   UNL     1       3.325   0.212   0.706  1.00  0.00    -0.376 OA
BRANCH   5   6
ATOM      6  C   UNL     1       4.182   1.224   0.177  1.00  0.00     0.202 C 
BRANCH   6   7
ATOM      7  C   UNL     1       4.185   1.272  -1.348  1.00  0.00     0.261 C 
BRANCH   7   8
ATOM      8  O   UNL     1       2.898   0.971  -1.901  1.00  0.00    -0.460 OA
BRANCH   8   9
ATOM      9  C   UNL     1       2.362  -0.253  -2.149  1.00  0.00     0.338 C 
ATOM     10  O   UNL     1       1.209  -0.287  -2.582  1.00  0.00    -0.246 OA
BRANCH   9  11
ATOM     11  C   UNL     1       3.066  -1.565  -1.937  1.00  0.00     0.060 A 
ATOM     12  C   UNL     1       4.209  -1.779  -1.160  1.00  0.00     0.016 A 
ATOM     13  C   UNL     1       2.485  -2.690  -2.551  1.00  0.00     0.016 A 
ATOM     14  C   UNL     1       4.783  -3.034  -1.025  1.00  0.00     0.010 A 
ATOM     15  C   UNL     1       3.057  -3.961  -2.431  1.00  0.00     0.010 A 
ATOM     16  C   UNL     1       4.229  -4.122  -1.687  1.00  0.00    -0.014 A 
BRANCH  16  17
ATOM     17  C   UNL     1       5.042  -5.344  -1.760  1.00  0.00     0.031 A 
ATOM     18  C   UNL     1       5.860  -5.542  -3.001  1.00  0.00     0.074 A 
ATOM     19  C   UNL     1       5.174  -6.133  -0.680  1.00  0.00     0.049 A 
ATOM     20  N   UNL     1       6.613  -6.548  -3.343  1.00  0.00    -0.248 NA
ATOM     21  C   UNL     1       5.845  -4.441  -3.986  1.00  0.00     0.031 C 
ATOM     22  C   UNL     1       4.543  -5.894   0.621  1.00  0.00     0.029 A 
ATOM     23  N   UNL     1       5.906  -7.274  -0.491  1.00  0.00    -0.354 N 
ATOM     24  C   UNL     1       7.135  -6.216  -4.587  1.00  0.00     0.074 A 
ATOM     25  C   UNL     1       6.624  -4.916  -4.945  1.00  0.00     0.031 C 
ATOM     26  C   UNL     1       4.923  -6.859   1.476  1.00  0.00     0.029 A 
ATOM     27  C   UNL     1       5.762  -7.817   0.764  1.00  0.00     0.049 A 
ATOM     28  H   UNL     1       6.480  -7.668  -1.187  1.00  0.00     0.167 HD
ATOM     29  C   UNL     1       7.966  -6.951  -5.357  1.00  0.00     0.037 A 
ATOM     30  C   UNL     1       6.226  -8.984   1.252  1.00  0.00     0.037 A 
ATOM     31  C   UNL     1       8.457  -8.238  -4.953  1.00  0.00     0.049 A 
ATOM     32  C   UNL     1       7.045  -9.845   0.325  1.00  0.00     0.074 A 
ATOM     33  C   UNL     1       9.236  -9.128  -5.665  1.00  0.00     0.029 A 
ATOM     34  N   UNL     1       8.213  -8.812  -3.711  1.00  0.00    -0.354 N 
ATOM     35  N   UNL     1       7.456  -9.579  -0.895  1.00  0.00    -0.248 NA
ATOM     36  C   UNL     1       7.444 -11.169   0.819  1.00  0.00     0.031 C 
ATOM     37  C   UNL     1       9.425 -10.261  -4.868  1.00  0.00     0.029 A 
ATOM     38  C   UNL     1       8.810 -10.054  -3.641  1.00  0.00     0.049 A 
ATOM     39  H   UNL     1       7.693  -8.393  -2.987  1.00  0.00     0.167 HD
ATOM     40  C   UNL     1       8.167 -10.697  -1.312  1.00  0.00     0.074 A 
ATOM     41  C   UNL     1       8.150 -11.633  -0.205  1.00  0.00     0.031 C 
ATOM     42  C   UNL     1       8.771 -10.940  -2.502  1.00  0.00     0.037 A 
BRANCH  29  43
ATOM     43  C   UNL     1       8.328  -6.417  -6.712  1.00  0.00     0.058 A 
ATOM     44  C   UNL     1       7.765  -6.986  -7.864  1.00  0.00     0.135 A 
ATOM     45  C   UNL     1       9.242  -5.366  -6.880  1.00  0.00     0.135 A 
ATOM     46  F   UNL     1       6.861  -7.974  -7.759  1.00  0.00    -0.206 F 
ATOM     47  C   UNL     1       8.119  -6.555  -9.138  1.00  0.00     0.059 A 
ATOM     48  C   UNL     1       9.597  -4.904  -8.146  1.00  0.00     0.059 A 
ATOM     49  F   UNL     1       9.775  -4.755  -5.809  1.00  0.00    -0.206 F 
ATOM     50  C   UNL     1       9.043  -5.518  -9.269  1.00  0.00     0.060 A 
BRANCH  50  51
ATOM     51  S   UNL     1       9.493  -4.976 -10.931  1.00  0.00     0.124 S 
ATOM     52  O   UNL     1      10.222  -6.134 -11.438  1.00  0.00    -0.237 OA
ATOM     53  O   UNL     1       8.188  -4.730 -11.537  1.00  0.00    -0.237 OA
ATOM     54  O   UNL     1      10.298  -3.781 -10.693  1.00  0.00    -0.744 OA
ENDBRANCH  50  51
ENDBRANCH  29  43
BRANCH  30  55
ATOM     55  C   UNL     1       5.865  -9.431   2.627  1.00  0.00     0.058 A 
ATOM     56  C   UNL     1       4.528  -9.693   2.976  1.00  0.00     0.135 A 
ATOM     57  C   UNL     1       6.837  -9.616   3.622  1.00  0.00     0.135 A 
ATOM     58  F   UNL     1       3.552  -9.538   2.068  1.00  0.00    -0.206 F 
ATOM     59  C   UNL     1       4.168 -10.100   4.256  1.00  0.00     0.059 A 
ATOM     60  C   UNL     1       6.504 -10.052   4.904  1.00  0.00     0.059 A 
ATOM     61  F   UNL     1       8.131  -9.395   3.343  1.00  0.00    -0.206 F 
ATOM     62  C   UNL     1       5.164 -10.281   5.214  1.00  0.00     0.060 A 
BRANCH  62  63
ATOM     63  S   UNL     1       4.674 -10.850   6.857  1.00  0.00     0.124 S 
ATOM     64  O   UNL     1       3.981  -9.677   7.380  1.00  0.00    -0.237 OA
ATOM     65  O   UNL     1       3.831 -11.999   6.544  1.00  0.00    -0.237 OA
ATOM     66  O   UNL     1       5.946 -11.165   7.499  1.00  0.00    -0.744 OA
ENDBRANCH  62  63
ENDBRANCH  30  55
BRANCH  42  67
ATOM     67  C   UNL     1       9.474 -12.254  -2.659  1.00  0.00     0.058 A 
ATOM     68  C   UNL     1      10.875 -12.302  -2.720  1.00  0.00     0.135 A 
ATOM     69  C   UNL     1       8.758 -13.442  -2.866  1.00  0.00     0.135 A 
ATOM     70  F   UNL     1      11.600 -11.187  -2.537  1.00  0.00    -0.206 F 
ATOM     71  C   UNL     1      11.544 -13.482  -3.012  1.00  0.00     0.059 A 
ATOM     72  C   UNL     1       9.409 -14.641  -3.131  1.00  0.00     0.059 A 
ATOM     73  F   UNL     1       7.417 -13.442  -2.807  1.00  0.00    -0.206 F 
ATOM     74  C   UNL     1      10.801 -14.645  -3.224  1.00  0.00     0.060 A 
BRANCH  74  75
ATOM     75  S   UNL     1      11.687 -16.166  -3.617  1.00  0.00     0.124 S 
ATOM     76  O   UNL     1      12.157 -15.895  -4.971  1.00  0.00    -0.237 OA
ATOM     77  O   UNL     1      12.716 -16.198  -2.582  1.00  0.00    -0.237 OA
ATOM     78  O   UNL     1      10.659 -17.196  -3.502  1.00  0.00    -0.744 OA
ENDBRANCH  74  75
ENDBRANCH  42  67
ENDBRANCH  16  17
ENDBRANCH   9  11
ENDBRANCH   8   9
ENDBRANCH   7   8
ENDBRANCH   6   7
ENDBRANCH   5   6
ENDBRANCH   4   5
ENDBRANCH   3   4
ENDBRANCH   2   3
ENDBRANCH   1   2
BRANCH   1  79
ATOM     79  C   UNL     1       4.179  -0.825   3.348  1.00  0.00     0.188 C 
BRANCH  79  80
ATOM     80  O   UNL     1       3.235  -1.864   3.547  1.00  0.00    -0.376 OA
BRANCH  80  81
ATOM     81  C   UNL     1       3.255  -2.488   4.821  1.00  0.00     0.202 C 
BRANCH  81  82
ATOM     82  C   UNL     1       3.118  -1.594   6.067  1.00  0.00     0.261 C 
BRANCH  82  83
ATOM     83  O   UNL     1       3.833  -0.343   5.959  1.00  0.00    -0.460 OA
BRANCH  83  84
ATOM     84  C   UNL     1       4.642   0.124   6.949  1.00  0.00     0.339 C 
ATOM     85  O   UNL     1       4.988  -0.547   7.908  1.00  0.00    -0.246 OA
BRANCH  84  86
ATOM     86  C   UNL     1       4.885   1.902   6.708  1.00  0.00     0.080 A 
ATOM     87  C   UNL     1       6.653   2.927   6.417  1.00  0.00     0.043 A 
ATOM     88  C   UNL     1       3.608   2.050   6.726  1.00  0.00     0.055 A 
ATOM     89  C   UNL     1       7.485   3.915   6.213  1.00  0.00     0.041 A 
ATOM     90  C   UNL     1       4.421   3.026   6.785  1.00  0.00     0.023 A 
ATOM     91  Cl  UNL     1       2.308   1.685   7.737  1.00  0.00    -0.083 Cl
ATOM     92  C   UNL     1       6.240   3.909   6.503  1.00  0.00     0.028 A 
BRANCH  89  93
ATOM     93  N   UNL     1       8.109   4.144   4.979  1.00  0.00    -0.332 N 
ATOM     94  H   UNL     1       8.639   4.973   4.988  1.00  0.00     0.169 HD
BRANCH  93  95
ATOM     95  C   UNL     1       8.172   3.521   3.778  1.00  0.00     0.177 C 
ATOM     96  S   UNL     1       9.009   4.320   2.561  1.00  0.00    -0.040 S 
BRANCH  95  97
ATOM     97  N   UNL     1       7.710   2.260   3.497  1.00  0.00    -0.299 N 
ATOM     98  C   UNL     1       7.007   1.236   4.135  1.00  0.00     0.260 C 
ATOM     99  H   UNL     1       7.942   2.001   2.575  1.00  0.00     0.172 HD
ATOM    100  O   UNL     1       7.180   0.059   3.854  1.00  0.00    -0.269 OA
BRANCH  98 101
ATOM    101  C   UNL     1       6.084   1.630   5.212  1.00  0.00     0.075 A 
ATOM    102  C   UNL     1       6.586   1.231   7.112  1.00  0.00     0.017 A 
ATOM    103  C   UNL     1       5.144   3.316   4.826  1.00  0.00     0.135 A 
ATOM    104  C   UNL     1       6.022   2.647   8.370  1.00  0.00     0.001 A 
ATOM    105  C   UNL     1       4.621   4.744   6.079  1.00  0.00     0.040 A 
ATOM    106  F   UNL     1       4.989   3.620   3.521  1.00  0.00    -0.206 F 
ATOM    107  C   UNL     1       5.111   4.346   7.981  1.00  0.00     0.003 A 
ENDBRANCH  98 101
ENDBRANCH  95  97
ENDBRANCH  93  95
ENDBRANCH  89  93
ENDBRANCH  84  86
ENDBRANCH  83  84
ENDBRANCH  82  83
ENDBRANCH  81  82
ENDBRANCH  80  81
ENDBRANCH  79  80
ENDBRANCH   1  79
TORSDOF 27
