REMARK SMILES C[C@@H](C(=O)OCCOCCOCCOCCOC(=O)c1ccc(-c2c3nc(c(-c4c(F)cc(S(=O)(=O)[O-])cc4F)c4ccc([nH]4)c(-c4c(F)cc(S(=O)(=O)[O-])cc4F)c4nc(c(-c5c(F)cc(S(=O)(=O)[O-])cc5F)c5ccc2[nH]5)C=C4)C=C3)cc1)c1ccc(C[C@@H]2CCC[C@@H]2O)cc1F
REMARK SMILES IDX 10 1 9 2 8 3 7 4 6 5 5 6 3 7 4 8 2 9 1 10 86 11 87 12 98 13
REMARK SMILES IDX 88 14 97 15 99 16 89 17 90 18 91 19 92 20 95 21 93 22 94 23
REMARK SMILES IDX 96 24 11 26 12 27 13 28 14 29 15 30 16 31 17 32 18 33 19 34
REMARK SMILES IDX 20 35 21 36 85 37 22 38 84 39 23 40 24 41 25 42 78 43 26 44
REMARK SMILES IDX 83 45 77 46 79 47 27 48 82 49 76 50 75 51 28 53 62 54 41 55
REMARK SMILES IDX 61 56 42 57 45 58 60 59 80 60 43 61 44 62 59 64 81 65 46 66
REMARK SMILES IDX 29 67 30 68 39 69 31 70 32 71 38 72 40 73 33 74 34 75 35 76
REMARK SMILES IDX 36 77 37 78 63 79 64 80 73 81 65 82 66 83 72 84 74 85 67 86
REMARK SMILES IDX 68 87 69 88 70 89 71 90 47 91 48 92 57 93 49 94 50 95 56 96
REMARK SMILES IDX 58 97 51 98 52 99 53 100 54 101 55 102
REMARK H PARENT 96 25 79 52 45 63
REMARK Flexibility Score: inf
ROOT
ATOM      1  C   UNL     1     -11.559   2.005   7.569  1.00  0.00     0.188 C 
ENDROOT
BRANCH   1   2
ATOM      2  C   UNL     1     -10.387   1.042   7.800  1.00  0.00     0.188 C 
BRANCH   2   3
ATOM      3  O   UNL     1     -10.232   0.437   9.066  1.00  0.00    -0.376 OA
BRANCH   3   4
ATOM      4  C   UNL     1      -9.858   1.204  10.204  1.00  0.00     0.202 C 
BRANCH   4   5
ATOM      5  C   UNL     1      -9.337   2.660  10.190  1.00  0.00     0.261 C 
BRANCH   5   6
ATOM      6  O   UNL     1      -9.600   3.436   9.016  1.00  0.00    -0.463 OA
BRANCH   6   7
ATOM      7  C   UNL     1      -8.546   3.978   8.359  1.00  0.00     0.313 C 
ATOM      8  O   UNL     1      -7.376   3.846   8.707  1.00  0.00    -0.252 OA
BRANCH   7   9
ATOM      9  C   UNL     1      -8.946   4.656   7.039  1.00  0.00     0.129 C 
ATOM     10  C   UNL     1     -10.328   5.333   7.091  1.00  0.00     0.025 C 
BRANCH   9  11
ATOM     11  C   UNL     1      -8.697   3.788   5.800  1.00  0.00     0.002 A 
ATOM     12  C   UNL     1      -8.005   2.569   5.876  1.00  0.00     0.008 A 
ATOM     13  C   UNL     1      -9.062   4.216   4.519  1.00  0.00     0.127 A 
ATOM     14  C   UNL     1      -7.698   1.820   4.741  1.00  0.00     0.004 A 
ATOM     15  C   UNL     1      -8.686   3.512   3.369  1.00  0.00     0.043 A 
ATOM     16  F   UNL     1      -9.723   5.371   4.356  1.00  0.00    -0.207 F 
ATOM     17  C   UNL     1      -7.930   2.339   3.472  1.00  0.00    -0.045 A 
BRANCH  17  18
ATOM     18  C   UNL     1      -7.270   1.712   2.269  1.00  0.00     0.041 C 
BRANCH  18  19
ATOM     19  C   UNL     1      -5.727   1.873   2.155  1.00  0.00     0.022 C 
ATOM     20  C   UNL     1      -4.892   1.198   3.256  1.00  0.00     0.007 C 
ATOM     21  C   UNL     1      -5.164   3.301   2.166  1.00  0.00     0.117 C 
ATOM     22  C   UNL     1      -4.499   2.293   4.257  1.00  0.00     0.003 C 
ATOM     23  C   UNL     1      -4.918   3.622   3.636  1.00  0.00     0.032 C 
BRANCH  21  24
ATOM     24  O   UNL     1      -5.987   4.240   1.508  1.00  0.00    -0.393 OA
ATOM     25  H   UNL     1      -6.854   4.271   1.942  1.00  0.00     0.210 HD
ENDBRANCH  21  24
ENDBRANCH  18  19
ENDBRANCH  17  18
ENDBRANCH   9  11
ENDBRANCH   7   9
ENDBRANCH   6   7
ENDBRANCH   5   6
ENDBRANCH   4   5
ENDBRANCH   3   4
ENDBRANCH   2   3
ENDBRANCH   1   2
BRANCH   1  26
ATOM     26  O   UNL     1     -12.095   2.571   8.746  1.00  0.00    -0.377 OA
BRANCH  26  27
ATOM     27  C   UNL     1     -13.062   1.818   9.468  1.00  0.00     0.188 C 
BRANCH  27  28
ATOM     28  C   UNL     1     -13.222   0.298   9.233  1.00  0.00     0.188 C 
BRANCH  28  29
ATOM     29  O   UNL     1     -13.117  -0.121   7.879  1.00  0.00    -0.376 OA
BRANCH  29  30
ATOM     30  C   UNL     1     -14.309  -0.318   7.132  1.00  0.00     0.202 C 
BRANCH  30  31
ATOM     31  C   UNL     1     -15.199   0.908   6.873  1.00  0.00     0.261 C 
BRANCH  31  32
ATOM     32  O   UNL     1     -15.707   1.585   8.032  1.00  0.00    -0.460 OA
BRANCH  32  33
ATOM     33  C   UNL     1     -16.436   0.868   8.913  1.00  0.00     0.338 C 
ATOM     34  O   UNL     1     -16.776  -0.299   8.805  1.00  0.00    -0.246 OA
BRANCH  33  35
ATOM     35  C   UNL     1     -16.579   1.675  10.143  1.00  0.00     0.060 A 
ATOM     36  C   UNL     1     -16.083   1.167  11.351  1.00  0.00     0.016 A 
ATOM     37  C   UNL     1     -17.189   2.931  10.102  1.00  0.00     0.016 A 
ATOM     38  C   UNL     1     -16.233   1.896  12.530  1.00  0.00     0.010 A 
ATOM     39  C   UNL     1     -17.361   3.649  11.288  1.00  0.00     0.010 A 
ATOM     40  C   UNL     1     -16.917   3.117  12.513  1.00  0.00    -0.014 A 
BRANCH  40  41
ATOM     41  C   UNL     1     -17.358   3.730  13.790  1.00  0.00     0.031 A 
ATOM     42  C   UNL     1     -18.776   3.492  14.237  1.00  0.00     0.074 A 
ATOM     43  C   UNL     1     -16.521   4.458  14.550  1.00  0.00     0.049 A 
ATOM     44  N   UNL     1     -19.412   3.967  15.275  1.00  0.00    -0.248 NA
ATOM     45  C   UNL     1     -19.587   2.597  13.392  1.00  0.00     0.031 C 
ATOM     46  C   UNL     1     -15.115   4.720  14.247  1.00  0.00     0.029 A 
ATOM     47  N   UNL     1     -16.741   5.122  15.731  1.00  0.00    -0.354 N 
ATOM     48  C   UNL     1     -20.696   3.437  15.205  1.00  0.00     0.074 A 
ATOM     49  C   UNL     1     -20.759   2.632  14.006  1.00  0.00     0.031 C 
ATOM     50  C   UNL     1     -14.602   5.506  15.210  1.00  0.00     0.029 A 
ATOM     51  C   UNL     1     -15.651   5.832  16.176  1.00  0.00     0.049 A 
ATOM     52  H   UNL     1     -17.599   5.093  16.214  1.00  0.00     0.167 HD
ATOM     53  C   UNL     1     -21.726   3.598  16.069  1.00  0.00     0.037 A 
ATOM     54  C   UNL     1     -15.526   6.670  17.226  1.00  0.00     0.037 A 
ATOM     55  C   UNL     1     -21.656   4.405  17.259  1.00  0.00     0.049 A 
ATOM     56  C   UNL     1     -16.711   6.899  18.133  1.00  0.00     0.074 A 
ATOM     57  C   UNL     1     -22.641   4.628  18.205  1.00  0.00     0.029 A 
ATOM     58  N   UNL     1     -20.543   5.128  17.663  1.00  0.00    -0.354 N 
ATOM     59  N   UNL     1     -17.915   6.379  18.067  1.00  0.00    -0.248 NA
ATOM     60  C   UNL     1     -16.520   7.824  19.259  1.00  0.00     0.031 C 
ATOM     61  C   UNL     1     -22.144   5.533  19.148  1.00  0.00     0.029 A 
ATOM     62  C   UNL     1     -20.826   5.819  18.829  1.00  0.00     0.049 A 
ATOM     63  H   UNL     1     -19.680   5.147  17.190  1.00  0.00     0.167 HD
ATOM     64  C   UNL     1     -18.612   6.889  19.160  1.00  0.00     0.074 A 
ATOM     65  C   UNL     1     -17.692   7.748  19.875  1.00  0.00     0.031 C 
ATOM     66  C   UNL     1     -19.895   6.664  19.538  1.00  0.00     0.037 A 
BRANCH  53  67
ATOM     67  C   UNL     1     -23.024   2.912  15.743  1.00  0.00     0.058 A 
ATOM     68  C   UNL     1     -23.165   1.517  15.816  1.00  0.00     0.135 A 
ATOM     69  C   UNL     1     -24.155   3.665  15.386  1.00  0.00     0.135 A 
ATOM     70  F   UNL     1     -22.112   0.746  16.131  1.00  0.00    -0.206 F 
ATOM     71  C   UNL     1     -24.372   0.891  15.523  1.00  0.00     0.059 A 
ATOM     72  C   UNL     1     -25.381   3.062  15.119  1.00  0.00     0.059 A 
ATOM     73  F   UNL     1     -24.076   5.002  15.295  1.00  0.00    -0.206 F 
ATOM     74  C   UNL     1     -25.476   1.673  15.179  1.00  0.00     0.060 A 
BRANCH  74  75
ATOM     75  S   UNL     1     -27.038   0.845  14.815  1.00  0.00     0.124 S 
ATOM     76  O   UNL     1     -26.738   0.204  13.539  1.00  0.00    -0.237 OA
ATOM     77  O   UNL     1     -27.186  -0.053  15.956  1.00  0.00    -0.237 OA
ATOM     78  O   UNL     1     -28.000   1.942  14.754  1.00  0.00    -0.744 OA
ENDBRANCH  74  75
ENDBRANCH  53  67
BRANCH  54  79
ATOM     79  C   UNL     1     -14.238   7.377  17.468  1.00  0.00     0.058 A 
ATOM     80  C   UNL     1     -13.453   7.098  18.596  1.00  0.00     0.135 A 
ATOM     81  C   UNL     1     -13.771   8.358  16.577  1.00  0.00     0.135 A 
ATOM     82  F   UNL     1     -13.860   6.180  19.486  1.00  0.00    -0.206 F 
ATOM     83  C   UNL     1     -12.262   7.775  18.843  1.00  0.00     0.059 A 
ATOM     84  C   UNL     1     -12.569   9.027  16.786  1.00  0.00     0.059 A 
ATOM     85  F   UNL     1     -14.480   8.661  15.478  1.00  0.00    -0.206 F 
ATOM     86  C   UNL     1     -11.826   8.735  17.928  1.00  0.00     0.060 A 
BRANCH  86  87
ATOM     87  S   UNL     1     -10.255   9.572  18.234  1.00  0.00     0.124 S 
ATOM     88  O   UNL     1     -10.591  10.425  19.368  1.00  0.00    -0.237 OA
ATOM     89  O   UNL     1      -9.364   8.451  18.519  1.00  0.00    -0.237 OA
ATOM     90  O   UNL     1      -9.994  10.267  16.977  1.00  0.00    -0.744 OA
ENDBRANCH  86  87
ENDBRANCH  54  79
BRANCH  66  91
ATOM     91  C   UNL     1     -20.376   7.317  20.808  1.00  0.00     0.058 A 
ATOM     92  C   UNL     1     -20.604   8.699  20.895  1.00  0.00     0.135 A 
ATOM     93  C   UNL     1     -20.672   6.534  21.937  1.00  0.00     0.135 A 
ATOM     94  F   UNL     1     -20.335   9.495  19.848  1.00  0.00    -0.206 F 
ATOM     95  C   UNL     1     -21.082   9.285  22.063  1.00  0.00     0.059 A 
ATOM     96  C   UNL     1     -21.183   7.094  23.104  1.00  0.00     0.059 A 
ATOM     97  F   UNL     1     -20.486   5.205  21.907  1.00  0.00    -0.206 F 
ATOM     98  C   UNL     1     -21.373   8.474  23.161  1.00  0.00     0.060 A 
BRANCH  98  99
ATOM     99  S   UNL     1     -22.026   9.244  24.658  1.00  0.00     0.124 S 
ATOM    100  O   UNL     1     -20.850   9.943  25.166  1.00  0.00    -0.237 OA
ATOM    101  O   UNL     1     -23.090  10.093  24.132  1.00  0.00    -0.237 OA
ATOM    102  O   UNL     1     -22.474   8.109  25.458  1.00  0.00    -0.744 OA
ENDBRANCH  98  99
ENDBRANCH  66  91
ENDBRANCH  40  41
ENDBRANCH  33  35
ENDBRANCH  32  33
ENDBRANCH  31  32
ENDBRANCH  30  31
ENDBRANCH  29  30
ENDBRANCH  28  29
ENDBRANCH  27  28
ENDBRANCH  26  27
ENDBRANCH   1  26
TORSDOF 27
