REMARK SMILES CC1(C)Oc2ccc(NC(=O)[C@H]3CC=CC[C@@H]3C(=O)OCCOCCOCCOCCOC(=O)c3ccc(-c4c5nc(c(-c6c(F)cc(S(=O)(=O)[O-])cc6F)c6ccc([nH]6)c(-c6c(F)cc(S(=O)(=O)[O-])cc6F)c6nc(c(-c7c(F)cc(S(=O)(=O)[O-])cc7F)c7ccc4[nH]7)C=C6)C=C5)cc3)cc2NC1=O
REMARK SMILES IDX 27 1 26 2 25 3 24 4 23 5 22 6 21 7 20 8 18 9 19 10 17 11
REMARK SMILES IDX 12 12 13 13 14 14 16 15 15 16 10 17 9 18 11 20 8 21 1 22
REMARK SMILES IDX 2 23 3 24 4 25 104 26 5 27 103 28 105 29 6 30 102 31 7 33
REMARK SMILES IDX 101 34 28 35 29 36 30 37 31 38 32 39 33 40 34 41 35 42 36 43
REMARK SMILES IDX 100 44 37 45 99 46 38 47 39 48 40 49 93 50 41 51 98 52 92 53
REMARK SMILES IDX 94 54 42 55 97 56 91 57 90 58 43 60 77 61 56 62 76 63 57 64
REMARK SMILES IDX 60 65 75 66 95 67 58 68 59 69 74 71 96 72 61 73 44 74 45 75
REMARK SMILES IDX 54 76 46 77 47 78 53 79 55 80 48 81 49 82 50 83 51 84 52 85
REMARK SMILES IDX 78 86 79 87 88 88 80 89 81 90 87 91 89 92 82 93 83 94 84 95
REMARK SMILES IDX 85 96 86 97 62 98 63 99 72 100 64 101 65 102 71 103 73 104
REMARK SMILES IDX 66 105 67 106 68 107 69 108 70 109
REMARK H PARENT 9 19 103 32 94 59 60 70
REMARK Flexibility Score: inf
ROOT
ATOM      1  C   UNL     1       4.739  -4.667  -0.466  1.00  0.00     0.188 C 
ENDROOT
BRANCH   1   2
ATOM      2  O   UNL     1       3.494  -4.311  -1.048  1.00  0.00    -0.377 OA
BRANCH   2   3
ATOM      3  C   UNL     1       2.923  -5.372  -1.800  1.00  0.00     0.188 C 
BRANCH   3   4
ATOM      4  C   UNL     1       2.532  -6.579  -0.930  1.00  0.00     0.188 C 
BRANCH   4   5
ATOM      5  O   UNL     1       3.678  -7.218  -0.378  1.00  0.00    -0.376 OA
BRANCH   5   6
ATOM      6  C   UNL     1       4.175  -8.384  -1.020  1.00  0.00     0.202 C 
BRANCH   6   7
ATOM      7  C   UNL     1       4.677  -8.230  -2.465  1.00  0.00     0.261 C 
BRANCH   7   8
ATOM      8  O   UNL     1       3.731  -7.707  -3.418  1.00  0.00    -0.463 OA
BRANCH   8   9
ATOM      9  C   UNL     1       2.522  -8.313  -3.536  1.00  0.00     0.310 C 
ATOM     10  O   UNL     1       2.194  -9.311  -2.910  1.00  0.00    -0.252 OA
BRANCH   9  11
ATOM     11  C   UNL     1       1.592  -7.468  -4.417  1.00  0.00     0.116 C 
ATOM     12  C   UNL     1       0.151  -8.027  -4.391  1.00  0.00     0.097 C 
ATOM     13  C   UNL     1       0.147  -9.464  -4.991  1.00  0.00     0.041 C 
ATOM     14  C   UNL     1       1.117  -9.665  -6.130  1.00  0.00    -0.030 C 
ATOM     15  C   UNL     1       2.162  -7.421  -5.838  1.00  0.00     0.043 C 
ATOM     16  C   UNL     1       2.001  -8.738  -6.532  1.00  0.00    -0.030 C 
BRANCH  12  17
ATOM     17  C   UNL     1      -0.845  -7.145  -5.161  1.00  0.00     0.228 C 
ATOM     18  N   UNL     1      -1.223  -5.883  -4.822  1.00  0.00    -0.326 N 
ATOM     19  H   UNL     1      -1.753  -5.469  -5.541  1.00  0.00     0.169 HD
ATOM     20  O   UNL     1      -1.359  -7.548  -6.214  1.00  0.00    -0.274 OA
BRANCH  18  21
ATOM     21  C   UNL     1      -1.071  -5.006  -3.740  1.00  0.00     0.043 A 
ATOM     22  C   UNL     1       0.171   0.177  -0.243  1.00  0.00     0.067 C 
ATOM     23  C   UNL     1       0.022  -0.782  -1.431  1.00  0.00     0.182 C 
ATOM     24  C   UNL     1       1.324  -0.710  -2.263  1.00  0.00     0.067 C 
ATOM     25  O   UNL     1      -0.166  -2.104  -0.885  1.00  0.00    -0.476 OA
ATOM     26  C   UNL     1      -1.143  -0.356  -2.353  1.00  0.00     0.268 C 
ATOM     27  C   UNL     1      -0.580  -3.031  -1.806  1.00  0.00     0.144 A 
ATOM     28  N   UNL     1      -1.540  -1.346  -3.228  1.00  0.00    -0.319 N 
ATOM     29  O   UNL     1      -1.620   0.773  -2.411  1.00  0.00    -0.270 OA
ATOM     30  C   UNL     1      -0.409  -4.377  -1.498  1.00  0.00     0.051 A 
ATOM     31  C   UNL     1      -1.172  -2.679  -3.014  1.00  0.00     0.086 A 
ATOM     32  H   UNL     1      -2.087  -1.111  -4.012  1.00  0.00     0.170 HD
ATOM     33  C   UNL     1      -0.642  -5.366  -2.467  1.00  0.00     0.030 A 
ATOM     34  C   UNL     1      -1.420  -3.660  -3.976  1.00  0.00     0.056 A 
ENDBRANCH  18  21
ENDBRANCH  12  17
ENDBRANCH   9  11
ENDBRANCH   8   9
ENDBRANCH   7   8
ENDBRANCH   6   7
ENDBRANCH   5   6
ENDBRANCH   4   5
ENDBRANCH   3   4
ENDBRANCH   2   3
ENDBRANCH   1   2
BRANCH   1  35
ATOM     35  C   UNL     1       4.708  -4.859   1.063  1.00  0.00     0.188 C 
BRANCH  35  36
ATOM     36  O   UNL     1       3.509  -4.813   1.821  1.00  0.00    -0.376 OA
BRANCH  36  37
ATOM     37  C   UNL     1       2.465  -3.906   1.522  1.00  0.00     0.202 C 
BRANCH  37  38
ATOM     38  C   UNL     1       2.695  -2.416   1.246  1.00  0.00     0.261 C 
BRANCH  38  39
ATOM     39  O   UNL     1       3.894  -2.055   0.573  1.00  0.00    -0.460 OA
BRANCH  39  40
ATOM     40  C   UNL     1       4.921  -1.665   1.359  1.00  0.00     0.338 C 
ATOM     41  O   UNL     1       4.934  -1.568   2.574  1.00  0.00    -0.246 OA
BRANCH  40  42
ATOM     42  C   UNL     1       6.104  -1.581   0.482  1.00  0.00     0.060 A 
ATOM     43  C   UNL     1       6.055  -0.854  -0.711  1.00  0.00     0.016 A 
ATOM     44  C   UNL     1       7.235  -2.339   0.814  1.00  0.00     0.016 A 
ATOM     45  C   UNL     1       7.154  -0.868  -1.567  1.00  0.00     0.010 A 
ATOM     46  C   UNL     1       8.318  -2.380  -0.058  1.00  0.00     0.010 A 
ATOM     47  C   UNL     1       8.295  -1.619  -1.235  1.00  0.00    -0.014 A 
BRANCH  47  48
ATOM     48  C   UNL     1       9.558  -1.404  -1.970  1.00  0.00     0.031 A 
ATOM     49  C   UNL     1      10.048  -2.348  -3.019  1.00  0.00     0.074 A 
ATOM     50  C   UNL     1      10.281  -0.328  -1.606  1.00  0.00     0.049 A 
ATOM     51  N   UNL     1      11.136  -2.269  -3.741  1.00  0.00    -0.248 NA
ATOM     52  C   UNL     1       9.224  -3.534  -3.293  1.00  0.00     0.031 C 
ATOM     53  C   UNL     1       9.886   0.628  -0.567  1.00  0.00     0.029 A 
ATOM     54  N   UNL     1      11.485   0.140  -2.052  1.00  0.00    -0.354 N 
ATOM     55  C   UNL     1      11.123  -3.378  -4.575  1.00  0.00     0.074 A 
ATOM     56  C   UNL     1       9.936  -4.141  -4.237  1.00  0.00     0.031 C 
ATOM     57  C   UNL     1      10.827   1.577  -0.464  1.00  0.00     0.029 A 
ATOM     58  C   UNL     1      11.898   1.280  -1.408  1.00  0.00     0.049 A 
ATOM     59  H   UNL     1      12.005  -0.297  -2.764  1.00  0.00     0.167 HD
ATOM     60  C   UNL     1      12.017  -3.710  -5.538  1.00  0.00     0.037 A 
ATOM     61  C   UNL     1      13.018   2.008  -1.559  1.00  0.00     0.037 A 
ATOM     62  C   UNL     1      13.206  -2.946  -5.830  1.00  0.00     0.049 A 
ATOM     63  C   UNL     1      14.011   1.589  -2.601  1.00  0.00     0.074 A 
ATOM     64  C   UNL     1      14.164  -3.181  -6.802  1.00  0.00     0.029 A 
ATOM     65  N   UNL     1      13.611  -1.807  -5.145  1.00  0.00    -0.354 N 
ATOM     66  N   UNL     1      13.956   0.571  -3.426  1.00  0.00    -0.248 NA
ATOM     67  C   UNL     1      15.213   2.418  -2.739  1.00  0.00     0.031 C 
ATOM     68  C   UNL     1      15.169  -2.217  -6.672  1.00  0.00     0.029 A 
ATOM     69  C   UNL     1      14.815  -1.345  -5.655  1.00  0.00     0.049 A 
ATOM     70  H   UNL     1      13.114  -1.388  -4.405  1.00  0.00     0.167 HD
ATOM     71  C   UNL     1      15.108   0.647  -4.199  1.00  0.00     0.074 A 
ATOM     72  C   UNL     1      15.830   1.822  -3.751  1.00  0.00     0.031 C 
ATOM     73  C   UNL     1      15.527  -0.179  -5.188  1.00  0.00     0.037 A 
BRANCH  60  74
ATOM     74  C   UNL     1      11.749  -4.946  -6.356  1.00  0.00     0.058 A 
ATOM     75  C   UNL     1      10.714  -4.984  -7.304  1.00  0.00     0.135 A 
ATOM     76  C   UNL     1      12.579  -6.074  -6.252  1.00  0.00     0.135 A 
ATOM     77  F   UNL     1       9.883  -3.938  -7.440  1.00  0.00    -0.206 F 
ATOM     78  C   UNL     1      10.500  -6.100  -8.106  1.00  0.00     0.059 A 
ATOM     79  C   UNL     1      12.399  -7.194  -7.062  1.00  0.00     0.059 A 
ATOM     80  F   UNL     1      13.586  -6.093  -5.365  1.00  0.00    -0.206 F 
ATOM     81  C   UNL     1      11.350  -7.200  -7.979  1.00  0.00     0.060 A 
BRANCH  81  82
ATOM     82  S   UNL     1      11.057  -8.636  -9.034  1.00  0.00     0.124 S 
ATOM     83  O   UNL     1       9.797  -9.139  -8.495  1.00  0.00    -0.237 OA
ATOM     84  O   UNL     1      10.982  -8.035 -10.362  1.00  0.00    -0.237 OA
ATOM     85  O   UNL     1      12.223  -9.481  -8.794  1.00  0.00    -0.744 OA
ENDBRANCH  81  82
ENDBRANCH  60  74
BRANCH  61  86
ATOM     86  C   UNL     1      13.215   3.221  -0.729  1.00  0.00     0.058 A 
ATOM     87  C   UNL     1      13.109   4.499  -1.296  1.00  0.00     0.135 A 
ATOM     88  C   UNL     1      13.445   3.131   0.653  1.00  0.00     0.135 A 
ATOM     89  F   UNL     1      12.885   4.633  -2.612  1.00  0.00    -0.206 F 
ATOM     90  C   UNL     1      13.234   5.648  -0.523  1.00  0.00     0.059 A 
ATOM     91  C   UNL     1      13.547   4.266   1.451  1.00  0.00     0.059 A 
ATOM     92  F   UNL     1      13.527   1.929   1.244  1.00  0.00    -0.206 F 
ATOM     93  C   UNL     1      13.446   5.520   0.851  1.00  0.00     0.060 A 
BRANCH  93  94
ATOM     94  S   UNL     1      13.548   7.021   1.848  1.00  0.00     0.124 S 
ATOM     95  O   UNL     1      14.821   7.580   1.407  1.00  0.00    -0.237 OA
ATOM     96  O   UNL     1      12.352   7.746   1.429  1.00  0.00    -0.237 OA
ATOM     97  O   UNL     1      13.520   6.518   3.218  1.00  0.00    -0.744 OA
ENDBRANCH  93  94
ENDBRANCH  61  86
BRANCH  73  98
ATOM     98  C   UNL     1      16.827   0.165  -5.861  1.00  0.00     0.058 A 
ATOM     99  C   UNL     1      18.059  -0.003  -5.209  1.00  0.00     0.135 A 
ATOM    100  C   UNL     1      16.844   0.625  -7.187  1.00  0.00     0.135 A 
ATOM    101  F   UNL     1      18.097  -0.431  -3.937  1.00  0.00    -0.206 F 
ATOM    102  C   UNL     1      19.261   0.295  -5.841  1.00  0.00     0.059 A 
ATOM    103  C   UNL     1      18.036   0.901  -7.849  1.00  0.00     0.059 A 
ATOM    104  F   UNL     1      15.694   0.797  -7.859  1.00  0.00    -0.206 F 
ATOM    105  C   UNL     1      19.240   0.743  -7.163  1.00  0.00     0.060 A 
BRANCH 105 106
ATOM    106  S   UNL     1      20.811   1.091  -7.979  1.00  0.00     0.124 S 
ATOM    107  O   UNL     1      21.237   2.306  -7.291  1.00  0.00    -0.237 OA
ATOM    108  O   UNL     1      21.587  -0.109  -7.684  1.00  0.00    -0.237 OA
ATOM    109  O   UNL     1      20.438   1.262  -9.380  1.00  0.00    -0.744 OA
ENDBRANCH 105 106
ENDBRANCH  73  98
ENDBRANCH  47  48
ENDBRANCH  40  42
ENDBRANCH  39  40
ENDBRANCH  38  39
ENDBRANCH  37  38
ENDBRANCH  36  37
ENDBRANCH  35  36
ENDBRANCH   1  35
TORSDOF 25
