REMARK SMILES O=C(CCC(=O)N1CCc2[nH]c3ccc(F)cc3c2C1)OCCOCCOCCOCCOC(=O)c1ccc(-c2c3nc(c(-c4c(F)cc(S(=O)(=O)[O-])cc4F)c4ccc([nH]4)c(-c4c(F)cc(S(=O)(=O)[O-])cc4F)c4nc(c(-c5c(F)cc(S(=O)(=O)[O-])cc5F)c5ccc2[nH]5)C=C4)C=C3)cc1
REMARK SMILES IDX 27 1 26 2 25 3 24 4 23 5 22 6 21 7 2 8 1 9 3 10 4 11 5 12
REMARK SMILES IDX 6 13 7 14 8 15 20 16 9 17 19 18 10 19 18 20 11 21 12 22
REMARK SMILES IDX 17 23 13 25 15 26 14 27 16 28 28 29 29 30 30 31 31 32 32 33
REMARK SMILES IDX 33 34 34 35 35 36 36 37 37 38 101 39 38 40 100 41 39 42
REMARK SMILES IDX 40 43 41 44 94 45 42 46 99 47 93 48 95 49 43 50 98 51 92 52
REMARK SMILES IDX 91 53 44 55 78 56 57 57 77 58 58 59 61 60 76 61 96 62 59 63
REMARK SMILES IDX 60 64 75 66 97 67 62 68 45 69 46 70 55 71 47 72 48 73 54 74
REMARK SMILES IDX 56 75 49 76 50 77 51 78 52 79 53 80 79 81 80 82 89 83 81 84
REMARK SMILES IDX 82 85 88 86 90 87 83 88 84 89 85 90 86 91 87 92 63 93 64 94
REMARK SMILES IDX 73 95 65 96 66 97 72 98 74 99 67 100 68 101 69 102 70 103
REMARK SMILES IDX 71 104
REMARK H PARENT 11 24 95 54 61 65
REMARK Flexibility Score: inf
ROOT
ATOM      1  O   UNL     1       2.360   3.296  -1.906  1.00  0.00    -0.377 OA
ENDROOT
BRANCH   1   2
ATOM      2  C   UNL     1       1.884   2.740  -0.697  1.00  0.00     0.188 C 
BRANCH   2   3
ATOM      3  C   UNL     1       2.760   3.018   0.546  1.00  0.00     0.188 C 
BRANCH   3   4
ATOM      4  O   UNL     1       4.161   2.824   0.387  1.00  0.00    -0.376 OA
BRANCH   4   5
ATOM      5  C   UNL     1       4.817   1.618   0.741  1.00  0.00     0.202 C 
BRANCH   5   6
ATOM      6  C   UNL     1       4.424   0.340   0.009  1.00  0.00     0.261 C 
BRANCH   6   7
ATOM      7  O   UNL     1       3.000   0.189  -0.071  1.00  0.00    -0.463 OA
BRANCH   7   8
ATOM      8  C   UNL     1       2.206   0.002   1.005  1.00  0.00     0.306 C 
ATOM      9  O   UNL     1       1.032   0.369   0.998  1.00  0.00    -0.252 OA
BRANCH   8  10
ATOM     10  C   UNL     1       2.778  -0.766   2.134  1.00  0.00     0.132 C 
BRANCH  10  11
ATOM     11  C   UNL     1       2.670  -2.240   1.807  1.00  0.00     0.112 C 
BRANCH  11  12
ATOM     12  C   UNL     1       3.500  -2.647   0.608  1.00  0.00     0.223 C 
ATOM     13  O   UNL     1       4.718  -2.752   0.781  1.00  0.00    -0.275 OA
BRANCH  12  14
ATOM     14  N   UNL     1       2.929  -2.834  -0.637  1.00  0.00    -0.338 N 
ATOM     15  C   UNL     1       1.657  -2.302  -1.161  1.00  0.00     0.126 C 
ATOM     16  C   UNL     1       3.603  -3.813  -1.488  1.00  0.00     0.157 C 
ATOM     17  C   UNL     1       1.879  -1.680  -2.590  1.00  0.00     0.075 C 
ATOM     18  C   UNL     1       3.035  -3.863  -2.870  1.00  0.00     0.000 A 
ATOM     19  C   UNL     1       2.380  -2.797  -3.435  1.00  0.00     0.023 A 
ATOM     20  C   UNL     1       2.973  -4.921  -3.818  1.00  0.00     0.008 A 
ATOM     21  N   UNL     1       2.265  -3.031  -4.775  1.00  0.00    -0.358 N 
ATOM     22  C   UNL     1       2.652  -4.334  -5.045  1.00  0.00     0.046 A 
ATOM     23  C   UNL     1       3.288  -6.293  -3.779  1.00  0.00     0.050 A 
ATOM     24  H   UNL     1       1.956  -2.377  -5.443  1.00  0.00     0.166 HD
ATOM     25  C   UNL     1       2.776  -5.039  -6.255  1.00  0.00     0.030 A 
ATOM     26  C   UNL     1       3.441  -6.989  -4.972  1.00  0.00     0.123 A 
ATOM     27  C   UNL     1       3.216  -6.371  -6.193  1.00  0.00     0.041 A 
ATOM     28  F   UNL     1       3.880  -8.255  -4.943  1.00  0.00    -0.207 F 
ENDBRANCH  12  14
ENDBRANCH  11  12
ENDBRANCH  10  11
ENDBRANCH   8  10
ENDBRANCH   7   8
ENDBRANCH   6   7
ENDBRANCH   5   6
ENDBRANCH   4   5
ENDBRANCH   3   4
ENDBRANCH   2   3
ENDBRANCH   1   2
BRANCH   1  29
ATOM     29  C   UNL     1       3.677   2.901  -2.248  1.00  0.00     0.188 C 
BRANCH  29  30
ATOM     30  C   UNL     1       4.748   3.986  -1.975  1.00  0.00     0.188 C 
BRANCH  30  31
ATOM     31  O   UNL     1       4.322   5.324  -1.760  1.00  0.00    -0.376 OA
BRANCH  31  32
ATOM     32  C   UNL     1       3.267   5.789  -2.588  1.00  0.00     0.202 C 
BRANCH  32  33
ATOM     33  C   UNL     1       3.394   5.622  -4.127  1.00  0.00     0.261 C 
BRANCH  33  34
ATOM     34  O   UNL     1       3.865   4.332  -4.599  1.00  0.00    -0.460 OA
BRANCH  34  35
ATOM     35  C   UNL     1       5.073   4.267  -5.247  1.00  0.00     0.338 C 
ATOM     36  O   UNL     1       5.648   5.194  -5.754  1.00  0.00    -0.246 OA
BRANCH  35  37
ATOM     37  C   UNL     1       5.738   2.938  -4.935  1.00  0.00     0.060 A 
ATOM     38  C   UNL     1       5.097   1.700  -5.021  1.00  0.00     0.016 A 
ATOM     39  C   UNL     1       6.995   2.998  -4.300  1.00  0.00     0.016 A 
ATOM     40  C   UNL     1       5.672   0.569  -4.401  1.00  0.00     0.010 A 
ATOM     41  C   UNL     1       7.548   1.877  -3.653  1.00  0.00     0.010 A 
ATOM     42  C   UNL     1       6.889   0.648  -3.680  1.00  0.00    -0.014 A 
BRANCH  42  43
ATOM     43  C   UNL     1       7.563  -0.615  -3.261  1.00  0.00     0.031 A 
ATOM     44  C   UNL     1       7.991  -1.433  -4.427  1.00  0.00     0.074 A 
ATOM     45  C   UNL     1       7.955  -1.073  -2.038  1.00  0.00     0.049 A 
ATOM     46  N   UNL     1       7.706  -2.670  -4.623  1.00  0.00    -0.248 NA
ATOM     47  C   UNL     1       8.739  -0.812  -5.530  1.00  0.00     0.031 C 
ATOM     48  C   UNL     1       7.972  -0.319  -0.787  1.00  0.00     0.029 A 
ATOM     49  N   UNL     1       8.510  -2.293  -1.658  1.00  0.00    -0.354 N 
ATOM     50  C   UNL     1       8.345  -3.050  -5.792  1.00  0.00     0.074 A 
ATOM     51  C   UNL     1       8.893  -1.845  -6.363  1.00  0.00     0.031 C 
ATOM     52  C   UNL     1       8.661  -1.008   0.154  1.00  0.00     0.029 A 
ATOM     53  C   UNL     1       9.075  -2.302  -0.375  1.00  0.00     0.049 A 
ATOM     54  H   UNL     1       8.507  -3.085  -2.243  1.00  0.00     0.167 HD
ATOM     55  C   UNL     1       8.461  -4.363  -6.128  1.00  0.00     0.037 A 
ATOM     56  C   UNL     1       9.870  -3.237   0.229  1.00  0.00     0.037 A 
ATOM     57  C   UNL     1       7.550  -5.185  -5.367  1.00  0.00     0.049 A 
ATOM     58  C   UNL     1       9.785  -4.540  -0.457  1.00  0.00     0.074 A 
ATOM     59  C   UNL     1       6.211  -4.967  -5.131  1.00  0.00     0.029 A 
ATOM     60  N   UNL     1       7.974  -6.093  -4.409  1.00  0.00    -0.354 N 
ATOM     61  N   UNL     1       8.894  -5.455  -0.233  1.00  0.00    -0.248 NA
ATOM     62  C   UNL     1      10.652  -4.782  -1.599  1.00  0.00     0.031 C 
ATOM     63  C   UNL     1       6.101  -5.201  -3.750  1.00  0.00     0.029 A 
ATOM     64  C   UNL     1       7.158  -5.955  -3.295  1.00  0.00     0.049 A 
ATOM     65  H   UNL     1       8.723  -6.724  -4.503  1.00  0.00     0.167 HD
ATOM     66  C   UNL     1       8.722  -6.027  -1.468  1.00  0.00     0.074 A 
ATOM     67  C   UNL     1       9.935  -5.723  -2.211  1.00  0.00     0.031 C 
ATOM     68  C   UNL     1       7.468  -6.292  -1.917  1.00  0.00     0.037 A 
BRANCH  55  69
ATOM     69  C   UNL     1       9.509  -4.916  -7.023  1.00  0.00     0.058 A 
ATOM     70  C   UNL     1       9.318  -6.174  -7.618  1.00  0.00     0.135 A 
ATOM     71  C   UNL     1      10.810  -4.379  -7.063  1.00  0.00     0.135 A 
ATOM     72  F   UNL     1       8.098  -6.730  -7.669  1.00  0.00    -0.206 F 
ATOM     73  C   UNL     1      10.387  -6.922  -8.095  1.00  0.00     0.059 A 
ATOM     74  C   UNL     1      11.885  -5.091  -7.572  1.00  0.00     0.059 A 
ATOM     75  F   UNL     1      11.101  -3.191  -6.514  1.00  0.00    -0.206 F 
ATOM     76  C   UNL     1      11.672  -6.386  -8.022  1.00  0.00     0.060 A 
BRANCH  76  77
ATOM     77  S   UNL     1      13.075  -7.449  -8.393  1.00  0.00     0.124 S 
ATOM     78  O   UNL     1      13.002  -8.409  -7.298  1.00  0.00    -0.237 OA
ATOM     79  O   UNL     1      12.727  -7.957  -9.716  1.00  0.00    -0.237 OA
ATOM     80  O   UNL     1      14.210  -6.531  -8.355  1.00  0.00    -0.744 OA
ENDBRANCH  76  77
ENDBRANCH  55  69
BRANCH  56  81
ATOM     81  C   UNL     1      10.964  -3.100   1.238  1.00  0.00     0.058 A 
ATOM     82  C   UNL     1      11.484  -4.235   1.905  1.00  0.00     0.135 A 
ATOM     83  C   UNL     1      11.786  -1.963   1.219  1.00  0.00     0.135 A 
ATOM     84  F   UNL     1      10.766  -5.364   1.999  1.00  0.00    -0.206 F 
ATOM     85  C   UNL     1      12.793  -4.280   2.394  1.00  0.00     0.059 A 
ATOM     86  C   UNL     1      13.088  -1.980   1.716  1.00  0.00     0.059 A 
ATOM     87  F   UNL     1      11.392  -0.841   0.600  1.00  0.00    -0.206 F 
ATOM     88  C   UNL     1      13.602  -3.157   2.252  1.00  0.00     0.060 A 
BRANCH  88  89
ATOM     89  S   UNL     1      15.365  -3.285   2.633  1.00  0.00     0.124 S 
ATOM     90  O   UNL     1      15.351  -3.518   4.073  1.00  0.00    -0.237 OA
ATOM     91  O   UNL     1      15.776  -4.416   1.807  1.00  0.00    -0.237 OA
ATOM     92  O   UNL     1      15.895  -1.990   2.216  1.00  0.00    -0.744 OA
ENDBRANCH  88  89
ENDBRANCH  56  81
BRANCH  68  93
ATOM     93  C   UNL     1       6.320  -6.468  -0.895  1.00  0.00     0.058 A 
ATOM     94  C   UNL     1       6.033  -5.610   0.192  1.00  0.00     0.135 A 
ATOM     95  C   UNL     1       5.379  -7.495  -1.096  1.00  0.00     0.135 A 
ATOM     96  F   UNL     1       6.769  -4.517   0.435  1.00  0.00    -0.206 F 
ATOM     97  C   UNL     1       4.891  -5.752   1.001  1.00  0.00     0.059 A 
ATOM     98  C   UNL     1       4.189  -7.605  -0.349  1.00  0.00     0.059 A 
ATOM     99  F   UNL     1       5.551  -8.369  -2.100  1.00  0.00    -0.206 F 
ATOM    100  C   UNL     1       3.928  -6.697   0.672  1.00  0.00     0.060 A 
BRANCH 100 101
ATOM    101  S   UNL     1       2.271  -6.555   1.408  1.00  0.00     0.124 S 
ATOM    102  O   UNL     1       2.542  -6.584   2.840  1.00  0.00    -0.237 OA
ATOM    103  O   UNL     1       1.799  -5.271   0.896  1.00  0.00    -0.237 OA
ATOM    104  O   UNL     1       1.561  -7.716   0.880  1.00  0.00    -0.744 OA
ENDBRANCH 100 101
ENDBRANCH  68  93
ENDBRANCH  42  43
ENDBRANCH  35  37
ENDBRANCH  34  35
ENDBRANCH  33  34
ENDBRANCH  32  33
ENDBRANCH  31  32
ENDBRANCH  30  31
ENDBRANCH  29  30
ENDBRANCH   1  29
TORSDOF 26
