REMARK SMILES NS(=O)(=O)c1ccc(-n2ccnc2-c2ccc(O)c(C(=O)OCCOCCOCCOCCOC(=O)c3ccc(-c4c5nc(c(-c6c(F)cc(S(=O)(=O)[O-])cc6F)c6ccc([nH]6)c(-c6c(F)cc(S(=O)(=O)[O-])cc6F)c6nc(c(-c7c(F)cc(S(=O)(=O)[O-])cc7F)c7ccc4[nH]7)C=C6)C=C5)cc3)c2)cc1
REMARK SMILES IDX 27 1 26 2 25 3 24 4 23 5 22 6 20 7 21 8 19 9 14 10 15 11
REMARK SMILES IDX 103 12 16 13 17 14 13 15 9 16 10 17 11 18 12 19 8 20 5 21
REMARK SMILES IDX 6 22 105 23 7 24 104 25 2 26 3 27 4 28 1 29 18 32 28 34
REMARK SMILES IDX 29 35 30 36 31 37 32 38 33 39 34 40 35 41 36 42 37 43 38 44
REMARK SMILES IDX 102 45 39 46 101 47 40 48 41 49 42 50 95 51 43 52 100 53
REMARK SMILES IDX 94 54 96 55 44 56 99 57 93 58 92 59 45 61 79 62 58 63 78 64
REMARK SMILES IDX 59 65 62 66 77 67 97 68 60 69 61 70 76 72 98 73 63 74 46 75
REMARK SMILES IDX 47 76 56 77 48 78 49 79 55 80 57 81 50 82 51 83 52 84 53 85
REMARK SMILES IDX 54 86 80 87 81 88 90 89 82 90 83 91 89 92 91 93 84 94 85 95
REMARK SMILES IDX 86 96 87 97 88 98 64 99 65 100 74 101 66 102 67 103 73 104
REMARK SMILES IDX 75 105 68 106 69 107 70 108 71 109 72 110
REMARK H PARENT 1 30 1 31 18 33 96 60 62 71
REMARK Flexibility Score: inf
ROOT
ATOM      1  C   UNL     1       8.223   1.572   4.479  1.00  0.00     0.188 C 
ENDROOT
BRANCH   1   2
ATOM      2  C   UNL     1       8.566   0.570   3.355  1.00  0.00     0.188 C 
BRANCH   2   3
ATOM      3  O   UNL     1       8.839   0.984   2.023  1.00  0.00    -0.376 OA
BRANCH   3   4
ATOM      4  C   UNL     1       8.096   1.989   1.356  1.00  0.00     0.202 C 
BRANCH   4   5
ATOM      5  C   UNL     1       6.566   2.123   1.445  1.00  0.00     0.261 C 
BRANCH   5   6
ATOM      6  O   UNL     1       5.925   1.572   2.594  1.00  0.00    -0.460 OA
BRANCH   6   7
ATOM      7  C   UNL     1       5.580   0.270   2.508  1.00  0.00     0.342 C 
ATOM      8  O   UNL     1       5.704  -0.466   1.542  1.00  0.00    -0.246 OA
BRANCH   7   9
ATOM      9  C   UNL     1       5.246  -0.234   3.859  1.00  0.00     0.102 A 
ATOM     10  C   UNL     1       4.193   0.071   6.030  1.00  0.00     0.019 A 
ATOM     11  C   UNL     1       4.685  -1.176   6.430  1.00  0.00     0.016 A 
ATOM     12  C   UNL     1       4.552   0.569   4.767  1.00  0.00     0.031 A 
ATOM     13  C   UNL     1       5.441  -1.955   5.549  1.00  0.00     0.048 A 
ATOM     14  C   UNL     1       5.685  -1.502   4.256  1.00  0.00     0.130 A 
BRANCH  10  15
ATOM     15  C   UNL     1       3.275   0.816   6.903  1.00  0.00     0.144 A 
ATOM     16  N   UNL     1       2.158   1.528   6.460  1.00  0.00    -0.300 N 
ATOM     17  C   UNL     1       1.713   2.271   7.527  1.00  0.00     0.113 A 
ATOM     18  C   UNL     1       2.461   1.854   8.601  1.00  0.00     0.132 A 
ATOM     19  N   UNL     1       3.405   0.941   8.213  1.00  0.00    -0.236 NA
BRANCH  16  20
ATOM     20  C   UNL     1       1.599   1.525   5.157  1.00  0.00     0.047 A 
ATOM     21  C   UNL     1       0.871   1.531   2.474  1.00  0.00     0.082 A 
ATOM     22  C   UNL     1       1.083   0.313   3.123  1.00  0.00     0.024 A 
ATOM     23  C   UNL     1       0.986   2.743   3.168  1.00  0.00     0.024 A 
ATOM     24  C   UNL     1       1.450   0.310   4.468  1.00  0.00     0.028 A 
ATOM     25  C   UNL     1       1.326   2.742   4.524  1.00  0.00     0.028 A 
BRANCH  21  26
ATOM     26  S   UNL     1       0.538   1.572   0.738  1.00  0.00     0.238 S 
ATOM     27  O   UNL     1       1.242   2.681   0.152  1.00  0.00    -0.207 OA
ATOM     28  O   UNL     1      -0.882   1.350   0.545  1.00  0.00    -0.207 OA
BRANCH  26  29
ATOM     29  N   UNL     1       1.305   0.199   0.145  1.00  0.00    -0.225 NA
ATOM     30  H   UNL     1       1.165   0.140  -0.864  1.00  0.00     0.137 HD
ATOM     31  H   UNL     1       0.913  -0.629   0.592  1.00  0.00     0.137 HD
ENDBRANCH  26  29
ENDBRANCH  21  26
ENDBRANCH  16  20
ENDBRANCH  10  15
BRANCH  14  32
ATOM     32  O   UNL     1       6.411  -2.333   3.445  1.00  0.00    -0.507 OA
ATOM     33  H   UNL     1       6.682  -3.174   3.757  1.00  0.00     0.293 HD
ENDBRANCH  14  32
ENDBRANCH   7   9
ENDBRANCH   6   7
ENDBRANCH   5   6
ENDBRANCH   4   5
ENDBRANCH   3   4
ENDBRANCH   2   3
ENDBRANCH   1   2
BRANCH   1  34
ATOM     34  O   UNL     1       7.983   2.887   4.013  1.00  0.00    -0.377 OA
BRANCH  34  35
ATOM     35  C   UNL     1       9.109   3.762   4.018  1.00  0.00     0.188 C 
BRANCH  35  36
ATOM     36  C   UNL     1      10.497   3.223   3.568  1.00  0.00     0.188 C 
BRANCH  36  37
ATOM     37  O   UNL     1      10.781   1.883   3.942  1.00  0.00    -0.376 OA
BRANCH  37  38
ATOM     38  C   UNL     1      11.671   1.500   4.976  1.00  0.00     0.202 C 
BRANCH  38  39
ATOM     39  C   UNL     1      11.371   1.936   6.406  1.00  0.00     0.261 C 
BRANCH  39  40
ATOM     40  O   UNL     1      10.828   3.233   6.472  1.00  0.00    -0.460 OA
BRANCH  40  41
ATOM     41  C   UNL     1      11.690   4.212   6.135  1.00  0.00     0.338 C 
ATOM     42  O   UNL     1      12.814   4.084   5.684  1.00  0.00    -0.246 OA
BRANCH  41  43
ATOM     43  C   UNL     1      11.065   5.487   6.498  1.00  0.00     0.060 A 
ATOM     44  C   UNL     1      11.852   6.609   6.247  1.00  0.00     0.016 A 
ATOM     45  C   UNL     1      10.115   5.431   7.524  1.00  0.00     0.016 A 
ATOM     46  C   UNL     1      11.984   7.507   7.272  1.00  0.00     0.010 A 
ATOM     47  C   UNL     1      10.300   6.281   8.570  1.00  0.00     0.010 A 
ATOM     48  C   UNL     1      11.307   7.238   8.464  1.00  0.00    -0.014 A 
BRANCH  48  49
ATOM     49  C   UNL     1      11.547   8.080   9.607  1.00  0.00     0.031 A 
ATOM     50  C   UNL     1      10.714   9.293   9.501  1.00  0.00     0.074 A 
ATOM     51  C   UNL     1      12.302   7.665  10.642  1.00  0.00     0.049 A 
ATOM     52  N   UNL     1      11.075  10.451   9.052  1.00  0.00    -0.248 NA
ATOM     53  C   UNL     1       9.248   9.113   9.554  1.00  0.00     0.031 C 
ATOM     54  C   UNL     1      12.893   6.338  10.851  1.00  0.00     0.029 A 
ATOM     55  N   UNL     1      12.611   8.321  11.793  1.00  0.00    -0.354 N 
ATOM     56  C   UNL     1       9.910  11.208   9.117  1.00  0.00     0.074 A 
ATOM     57  C   UNL     1       8.833  10.270   9.037  1.00  0.00     0.031 C 
ATOM     58  C   UNL     1      13.285   6.218  12.141  1.00  0.00     0.029 A 
ATOM     59  C   UNL     1      13.095   7.493  12.809  1.00  0.00     0.049 A 
ATOM     60  H   UNL     1      12.503   9.294  11.901  1.00  0.00     0.167 HD
ATOM     61  C   UNL     1       9.930  12.427   9.726  1.00  0.00     0.037 A 
ATOM     62  C   UNL     1      13.246   7.857  14.110  1.00  0.00     0.037 A 
ATOM     63  C   UNL     1      11.296  12.873   9.877  1.00  0.00     0.049 A 
ATOM     64  C   UNL     1      13.277   9.343  14.132  1.00  0.00     0.074 A 
ATOM     65  C   UNL     1      12.301  13.310   9.042  1.00  0.00     0.029 A 
ATOM     66  N   UNL     1      11.882  12.461  11.048  1.00  0.00    -0.354 N 
ATOM     67  N   UNL     1      14.236  10.043  13.588  1.00  0.00    -0.248 NA
ATOM     68  C   UNL     1      12.038  10.074  14.379  1.00  0.00     0.031 C 
ATOM     69  C   UNL     1      13.526  12.995   9.698  1.00  0.00     0.029 A 
ATOM     70  C   UNL     1      13.244  12.429  10.941  1.00  0.00     0.049 A 
ATOM     71  H   UNL     1      11.384  12.218  11.862  1.00  0.00     0.167 HD
ATOM     72  C   UNL     1      13.600  11.148  13.049  1.00  0.00     0.074 A 
ATOM     73  C   UNL     1      12.294  11.195  13.696  1.00  0.00     0.031 C 
ATOM     74  C   UNL     1      14.063  11.715  11.898  1.00  0.00     0.037 A 
BRANCH  61  75
ATOM     75  C   UNL     1       8.840  12.942  10.659  1.00  0.00     0.058 A 
ATOM     76  C   UNL     1       8.987  14.240  11.194  1.00  0.00     0.135 A 
ATOM     77  C   UNL     1       7.832  12.159  11.273  1.00  0.00     0.135 A 
ATOM     78  F   UNL     1       9.894  15.089  10.685  1.00  0.00    -0.206 F 
ATOM     79  C   UNL     1       8.261  14.685  12.302  1.00  0.00     0.059 A 
ATOM     80  C   UNL     1       7.073  12.596  12.349  1.00  0.00     0.059 A 
ATOM     81  F   UNL     1       7.562  10.897  10.931  1.00  0.00    -0.206 F 
ATOM     82  C   UNL     1       7.317  13.845  12.883  1.00  0.00     0.060 A 
BRANCH  82  83
ATOM     83  S   UNL     1       6.427  14.372  14.353  1.00  0.00     0.124 S 
ATOM     84  O   UNL     1       7.497  14.416  15.341  1.00  0.00    -0.237 OA
ATOM     85  O   UNL     1       5.887  15.659  13.928  1.00  0.00    -0.237 OA
ATOM     86  O   UNL     1       5.436  13.316  14.541  1.00  0.00    -0.744 OA
ENDBRANCH  82  83
ENDBRANCH  61  75
BRANCH  62  87
ATOM     87  C   UNL     1      13.062   7.053  15.347  1.00  0.00     0.058 A 
ATOM     88  C   UNL     1      13.546   7.498  16.592  1.00  0.00     0.135 A 
ATOM     89  C   UNL     1      12.147   5.983  15.386  1.00  0.00     0.135 A 
ATOM     90  F   UNL     1      14.409   8.524  16.651  1.00  0.00    -0.206 F 
ATOM     91  C   UNL     1      13.107   6.952  17.806  1.00  0.00     0.059 A 
ATOM     92  C   UNL     1      11.698   5.421  16.582  1.00  0.00     0.059 A 
ATOM     93  F   UNL     1      11.590   5.516  14.259  1.00  0.00    -0.206 F 
ATOM     94  C   UNL     1      12.162   5.927  17.791  1.00  0.00     0.060 A 
BRANCH  94  95
ATOM     95  S   UNL     1      11.457   5.340  19.352  1.00  0.00     0.124 S 
ATOM     96  O   UNL     1      12.591   4.647  19.954  1.00  0.00    -0.237 OA
ATOM     97  O   UNL     1      11.054   6.584  19.998  1.00  0.00    -0.237 OA
ATOM     98  O   UNL     1      10.357   4.479  18.924  1.00  0.00    -0.744 OA
ENDBRANCH  94  95
ENDBRANCH  62  87
BRANCH  74  99
ATOM     99  C   UNL     1      15.501  11.480  11.543  1.00  0.00     0.058 A 
ATOM    100  C   UNL     1      16.043  10.257  11.115  1.00  0.00     0.135 A 
ATOM    101  C   UNL     1      16.349  12.597  11.553  1.00  0.00     0.135 A 
ATOM    102  F   UNL     1      15.272   9.165  11.004  1.00  0.00    -0.206 F 
ATOM    103  C   UNL     1      17.385  10.146  10.744  1.00  0.00     0.059 A 
ATOM    104  C   UNL     1      17.677  12.517  11.159  1.00  0.00     0.059 A 
ATOM    105  F   UNL     1      15.869  13.801  11.905  1.00  0.00    -0.206 F 
ATOM    106  C   UNL     1      18.194  11.284  10.769  1.00  0.00     0.060 A 
BRANCH 106 107
ATOM    107  S   UNL     1      19.915  11.164  10.238  1.00  0.00     0.124 S 
ATOM    108  O   UNL     1      20.518  10.396  11.322  1.00  0.00    -0.237 OA
ATOM    109  O   UNL     1      19.802  10.474   8.956  1.00  0.00    -0.237 OA
ATOM    110  O   UNL     1      20.343  12.558  10.149  1.00  0.00    -0.744 OA
ENDBRANCH 106 107
ENDBRANCH  74  99
ENDBRANCH  48  49
ENDBRANCH  41  43
ENDBRANCH  40  41
ENDBRANCH  39  40
ENDBRANCH  38  39
ENDBRANCH  37  38
ENDBRANCH  36  37
ENDBRANCH  35  36
ENDBRANCH  34  35
ENDBRANCH   1  34
TORSDOF 28
