REMARK SMILES CCOC(=O)NC(=O)COc1csc(C(=O)OCCOCCOCCOCCOC(=O)c2ccc(-c3c4nc(c(-c5c(F)cc(S(=O)(=O)[O-])cc5F)c5ccc([nH]5)c(-c5c(F)cc(S(=O)(=O)[O-])cc5F)c5nc(c(-c6c(F)cc(S(=O)(=O)[O-])cc6F)c6ccc3[nH]6)C=C5)C=C4)cc2)c1
REMARK SMILES IDX 22 1 21 2 20 3 19 4 18 5 17 6 15 7 16 8 14 9 11 10 12 11
REMARK SMILES IDX 98 12 13 13 10 14 9 15 7 16 4 17 5 18 6 19 8 21 3 22 2 23
REMARK SMILES IDX 1 24 23 25 24 26 25 27 26 28 27 29 28 30 29 31 30 32 31 33
REMARK SMILES IDX 32 34 33 35 97 36 34 37 96 38 35 39 36 40 37 41 90 42 38 43
REMARK SMILES IDX 95 44 89 45 91 46 39 47 94 48 88 49 87 50 40 52 74 53 53 54
REMARK SMILES IDX 73 55 54 56 57 57 72 58 92 59 55 60 56 61 71 63 93 64 58 65
REMARK SMILES IDX 41 66 42 67 51 68 43 69 44 70 50 71 52 72 45 73 46 74 47 75
REMARK SMILES IDX 48 76 49 77 75 78 76 79 85 80 77 81 78 82 84 83 86 84 79 85
REMARK SMILES IDX 80 86 81 87 82 88 83 89 59 90 60 91 69 92 61 93 62 94 68 95
REMARK SMILES IDX 70 96 63 97 64 98 65 99 66 100 67 101
REMARK H PARENT 6 20 91 51 57 62
REMARK Flexibility Score: inf
ROOT
ATOM      1  C   UNL     1      -1.587   5.260  -5.711  1.00  0.00     0.188 C 
ENDROOT
BRANCH   1   2
ATOM      2  C   UNL     1      -0.849   4.753  -6.962  1.00  0.00     0.188 C 
BRANCH   2   3
ATOM      3  O   UNL     1      -1.709   4.104  -7.892  1.00  0.00    -0.376 OA
BRANCH   3   4
ATOM      4  C   UNL     1      -1.631   2.688  -7.978  1.00  0.00     0.202 C 
BRANCH   4   5
ATOM      5  C   UNL     1      -2.118   1.875  -6.768  1.00  0.00     0.261 C 
BRANCH   5   6
ATOM      6  O   UNL     1      -1.478   2.165  -5.517  1.00  0.00    -0.459 OA
BRANCH   6   7
ATOM      7  C   UNL     1      -0.145   1.934  -5.406  1.00  0.00     0.348 C 
ATOM      8  O   UNL     1       0.543   1.395  -6.265  1.00  0.00    -0.245 OA
BRANCH   7   9
ATOM      9  C   UNL     1       0.323   2.576  -4.195  1.00  0.00     0.116 A 
ATOM     10  C   UNL     1       0.392   3.568  -2.077  1.00  0.00     0.131 A 
ATOM     11  C   UNL     1       1.554   4.044  -2.640  1.00  0.00     0.112 A 
ATOM     12  C   UNL     1      -0.333   2.751  -2.991  1.00  0.00     0.074 A 
ATOM     13  S   UNL     1       1.844   3.361  -4.188  1.00  0.00    -0.133 S 
BRANCH  10  14
ATOM     14  O   UNL     1      -0.085   3.772  -0.825  1.00  0.00    -0.483 OA
BRANCH  14  15
ATOM     15  C   UNL     1       0.516   4.758  -0.019  1.00  0.00     0.329 C 
BRANCH  15  16
ATOM     16  C   UNL     1       2.021   4.814   0.277  1.00  0.00     0.267 C 
ATOM     17  C   UNL     1       2.388   2.402   0.986  1.00  0.00     0.413 C 
ATOM     18  O   UNL     1       3.257   1.598   1.304  1.00  0.00    -0.224 OA
ATOM     19  N   UNL     1       2.720   3.703   0.683  1.00  0.00    -0.258 N 
ATOM     20  H   UNL     1       3.684   3.879   0.782  1.00  0.00     0.176 HD
ATOM     21  O   UNL     1       2.642   5.878   0.172  1.00  0.00    -0.271 OA
BRANCH  17  22
ATOM     22  O   UNL     1       1.069   2.132   0.912  1.00  0.00    -0.450 OA
BRANCH  22  23
ATOM     23  C   UNL     1       0.680   0.774   1.163  1.00  0.00     0.231 C 
ATOM     24  C   UNL     1       0.971  -0.115  -0.034  1.00  0.00     0.049 C 
ENDBRANCH  22  23
ENDBRANCH  17  22
ENDBRANCH  15  16
ENDBRANCH  14  15
ENDBRANCH  10  14
ENDBRANCH   7   9
ENDBRANCH   6   7
ENDBRANCH   5   6
ENDBRANCH   4   5
ENDBRANCH   3   4
ENDBRANCH   2   3
ENDBRANCH   1   2
BRANCH   1  25
ATOM     25  O   UNL     1      -2.903   4.754  -5.578  1.00  0.00    -0.377 OA
BRANCH  25  26
ATOM     26  C   UNL     1      -3.928   5.283  -6.420  1.00  0.00     0.188 C 
BRANCH  26  27
ATOM     27  C   UNL     1      -3.628   6.197  -7.633  1.00  0.00     0.188 C 
BRANCH  27  28
ATOM     28  O   UNL     1      -2.579   7.139  -7.428  1.00  0.00    -0.376 OA
BRANCH  28  29
ATOM     29  C   UNL     1      -2.964   8.502  -7.310  1.00  0.00     0.202 C 
BRANCH  29  30
ATOM     30  C   UNL     1      -3.548   8.857  -5.938  1.00  0.00     0.261 C 
BRANCH  30  31
ATOM     31  O   UNL     1      -4.780   8.194  -5.617  1.00  0.00    -0.460 OA
BRANCH  31  32
ATOM     32  C   UNL     1      -5.830   8.422  -6.439  1.00  0.00     0.338 C 
ATOM     33  O   UNL     1      -5.863   9.167  -7.401  1.00  0.00    -0.246 OA
BRANCH  32  34
ATOM     34  C   UNL     1      -6.897   7.470  -6.079  1.00  0.00     0.060 A 
ATOM     35  C   UNL     1      -7.408   6.619  -7.067  1.00  0.00     0.016 A 
ATOM     36  C   UNL     1      -7.389   7.424  -4.773  1.00  0.00     0.016 A 
ATOM     37  C   UNL     1      -8.450   5.745  -6.757  1.00  0.00     0.010 A 
ATOM     38  C   UNL     1      -8.442   6.560  -4.469  1.00  0.00     0.010 A 
ATOM     39  C   UNL     1      -9.000   5.744  -5.468  1.00  0.00    -0.014 A 
BRANCH  39  40
ATOM     40  C   UNL     1     -10.283   5.048  -5.209  1.00  0.00     0.031 A 
ATOM     41  C   UNL     1     -11.551   5.856  -5.270  1.00  0.00     0.074 A 
ATOM     42  C   UNL     1     -10.324   3.734  -4.927  1.00  0.00     0.049 A 
ATOM     43  N   UNL     1     -12.781   5.489  -5.027  1.00  0.00    -0.248 NA
ATOM     44  C   UNL     1     -11.407   7.271  -5.652  1.00  0.00     0.031 C 
ATOM     45  C   UNL     1      -9.168   2.843  -4.871  1.00  0.00     0.029 A 
ATOM     46  N   UNL     1     -11.390   2.925  -4.624  1.00  0.00    -0.354 N 
ATOM     47  C   UNL     1     -13.558   6.625  -5.227  1.00  0.00     0.074 A 
ATOM     48  C   UNL     1     -12.657   7.701  -5.576  1.00  0.00     0.031 C 
ATOM     49  C   UNL     1      -9.586   1.608  -4.539  1.00  0.00     0.029 A 
ATOM     50  C   UNL     1     -11.034   1.630  -4.331  1.00  0.00     0.049 A 
ATOM     51  H   UNL     1     -12.322   3.241  -4.617  1.00  0.00     0.167 HD
ATOM     52  C   UNL     1     -14.902   6.756  -5.137  1.00  0.00     0.037 A 
ATOM     53  C   UNL     1     -11.790   0.591  -3.922  1.00  0.00     0.037 A 
ATOM     54  C   UNL     1     -15.793   5.686  -4.778  1.00  0.00     0.049 A 
ATOM     55  C   UNL     1     -13.278   0.779  -3.759  1.00  0.00     0.074 A 
ATOM     56  C   UNL     1     -17.172   5.715  -4.663  1.00  0.00     0.029 A 
ATOM     57  N   UNL     1     -15.393   4.394  -4.469  1.00  0.00    -0.354 N 
ATOM     58  N   UNL     1     -14.004   1.852  -3.972  1.00  0.00    -0.248 NA
ATOM     59  C   UNL     1     -14.050  -0.385  -3.301  1.00  0.00     0.031 C 
ATOM     60  C   UNL     1     -17.601   4.453  -4.240  1.00  0.00     0.029 A 
ATOM     61  C   UNL     1     -16.495   3.623  -4.143  1.00  0.00     0.049 A 
ATOM     62  H   UNL     1     -14.462   4.074  -4.479  1.00  0.00     0.167 HD
ATOM     63  C   UNL     1     -15.319   1.482  -3.706  1.00  0.00     0.074 A 
ATOM     64  C   UNL     1     -15.290   0.086  -3.322  1.00  0.00     0.031 C 
ATOM     65  C   UNL     1     -16.450   2.229  -3.776  1.00  0.00     0.037 A 
BRANCH  52  66
ATOM     66  C   UNL     1     -15.483   8.115  -5.410  1.00  0.00     0.058 A 
ATOM     67  C   UNL     1     -15.523   8.652  -6.707  1.00  0.00     0.135 A 
ATOM     68  C   UNL     1     -16.023   8.883  -4.366  1.00  0.00     0.135 A 
ATOM     69  F   UNL     1     -15.000   7.970  -7.738  1.00  0.00    -0.206 F 
ATOM     70  C   UNL     1     -16.054   9.914  -6.955  1.00  0.00     0.059 A 
ATOM     71  C   UNL     1     -16.583  10.135  -4.595  1.00  0.00     0.059 A 
ATOM     72  F   UNL     1     -16.005   8.418  -3.106  1.00  0.00    -0.206 F 
ATOM     73  C   UNL     1     -16.581  10.648  -5.891  1.00  0.00     0.060 A 
BRANCH  73  74
ATOM     74  S   UNL     1     -17.267  12.283  -6.229  1.00  0.00     0.124 S 
ATOM     75  O   UNL     1     -16.057  13.063  -6.467  1.00  0.00    -0.237 OA
ATOM     76  O   UNL     1     -18.102  12.036  -7.400  1.00  0.00    -0.237 OA
ATOM     77  O   UNL     1     -17.991  12.608  -5.004  1.00  0.00    -0.744 OA
ENDBRANCH  73  74
ENDBRANCH  52  66
BRANCH  53  78
ATOM     78  C   UNL     1     -11.157  -0.723  -3.628  1.00  0.00     0.058 A 
ATOM     79  C   UNL     1     -11.389  -1.839  -4.446  1.00  0.00     0.135 A 
ATOM     80  C   UNL     1     -10.318  -0.893  -2.515  1.00  0.00     0.135 A 
ATOM     81  F   UNL     1     -12.194  -1.731  -5.514  1.00  0.00    -0.206 F 
ATOM     82  C   UNL     1     -10.826  -3.080  -4.165  1.00  0.00     0.059 A 
ATOM     83  C   UNL     1      -9.723  -2.117  -2.227  1.00  0.00     0.059 A 
ATOM     84  F   UNL     1     -10.058   0.144  -1.704  1.00  0.00    -0.206 F 
ATOM     85  C   UNL     1      -9.991  -3.208  -3.053  1.00  0.00     0.060 A 
BRANCH  85  86
ATOM     86  S   UNL     1      -9.228  -4.811  -2.721  1.00  0.00     0.124 S 
ATOM     87  O   UNL     1     -10.362  -5.579  -2.221  1.00  0.00    -0.237 OA
ATOM     88  O   UNL     1      -8.730  -5.192  -4.040  1.00  0.00    -0.237 OA
ATOM     89  O   UNL     1      -8.196  -4.494  -1.738  1.00  0.00    -0.744 OA
ENDBRANCH  85  86
ENDBRANCH  53  78
BRANCH  65  90
ATOM     90  C   UNL     1     -17.757   1.547  -3.475  1.00  0.00     0.058 A 
ATOM     91  C   UNL     1     -18.124   1.193  -2.168  1.00  0.00     0.135 A 
ATOM     92  C   UNL     1     -18.680   1.302  -4.505  1.00  0.00     0.135 A 
ATOM     93  F   UNL     1     -17.277   1.402  -1.148  1.00  0.00    -0.206 F 
ATOM     94  C   UNL     1     -19.353   0.600  -1.895  1.00  0.00     0.059 A 
ATOM     95  C   UNL     1     -19.925   0.734  -4.251  1.00  0.00     0.059 A 
ATOM     96  F   UNL     1     -18.384   1.632  -5.772  1.00  0.00    -0.206 F 
ATOM     97  C   UNL     1     -20.248   0.376  -2.943  1.00  0.00     0.060 A 
BRANCH  97  98
ATOM     98  S   UNL     1     -21.853  -0.362  -2.571  1.00  0.00     0.124 S 
ATOM     99  O   UNL     1     -21.488  -1.753  -2.328  1.00  0.00    -0.237 OA
ATOM    100  O   UNL     1     -22.281   0.395  -1.398  1.00  0.00    -0.237 OA
ATOM    101  O   UNL     1     -22.629  -0.118  -3.783  1.00  0.00    -0.744 OA
ENDBRANCH  97  98
ENDBRANCH  65  90
ENDBRANCH  39  40
ENDBRANCH  32  34
ENDBRANCH  31  32
ENDBRANCH  30  31
ENDBRANCH  29  30
ENDBRANCH  28  29
ENDBRANCH  27  28
ENDBRANCH  26  27
ENDBRANCH  25  26
ENDBRANCH   1  25
TORSDOF 28
