REMARK SMILES C[C@@H]1C[N@@H+](Cc2cccc(C(=O)OCCOCCOCCOCCOC(=O)c3ccc(-c4c5nc(c(-c6c(F)cc(S(=O)(=O)[O-])cc6F)c6ccc([nH]6)c(-c6c(F)cc(S(=O)(=O)[O-])cc6F)c6nc(c(-c7c(F)cc(S(=O)(=O)[O-])cc7F)c7ccc4[nH]7)C=C6)C=C5)cc3)c2)CCN1C(=O)OC(C)(C)C
REMARK SMILES IDX 18 1 17 2 16 3 15 4 14 5 13 6 11 7 12 8 10 9 6 10 7 11 94 12
REMARK SMILES IDX 8 13 9 14 5 15 4 16 1 17 2 18 3 19 97 20 96 21 95 22 98 24
REMARK SMILES IDX 99 25 100 26 101 27 102 28 103 29 104 30 19 31 20 32 21 33
REMARK SMILES IDX 22 34 23 35 24 36 25 37 26 38 27 39 28 40 29 41 93 42 30 43
REMARK SMILES IDX 92 44 31 45 32 46 33 47 86 48 34 49 91 50 85 51 87 52 35 53
REMARK SMILES IDX 90 54 84 55 83 56 36 58 70 59 49 60 69 61 50 62 53 63 68 64
REMARK SMILES IDX 88 65 51 66 52 67 67 69 89 70 54 71 37 72 38 73 47 74 39 75
REMARK SMILES IDX 40 76 46 77 48 78 41 79 42 80 43 81 44 82 45 83 71 84 72 85
REMARK SMILES IDX 81 86 73 87 74 88 80 89 82 90 75 91 76 92 77 93 78 94 79 95
REMARK SMILES IDX 55 96 56 97 65 98 57 99 58 100 64 101 66 102 59 103 60 104
REMARK SMILES IDX 61 105 62 106 63 107
REMARK H PARENT 4 23 87 57 53 68
REMARK Flexibility Score: inf
ROOT
ATOM      1  C   UNL     1      -0.944  -8.411   2.422  1.00  0.00     0.188 C 
ENDROOT
BRANCH   1   2
ATOM      2  C   UNL     1      -1.792  -9.116   1.345  1.00  0.00     0.188 C 
BRANCH   2   3
ATOM      3  O   UNL     1      -1.064 -10.018   0.532  1.00  0.00    -0.376 OA
BRANCH   3   4
ATOM      4  C   UNL     1      -0.464  -9.629  -0.692  1.00  0.00     0.202 C 
BRANCH   4   5
ATOM      5  C   UNL     1       0.139  -8.245  -0.981  1.00  0.00     0.261 C 
BRANCH   5   6
ATOM      6  O   UNL     1      -0.367  -7.157  -0.221  1.00  0.00    -0.460 OA
BRANCH   6   7
ATOM      7  C   UNL     1      -1.568  -6.636  -0.544  1.00  0.00     0.338 C 
ATOM      8  O   UNL     1      -2.290  -6.964  -1.463  1.00  0.00    -0.246 OA
BRANCH   7   9
ATOM      9  C   UNL     1      -1.937  -5.689   0.543  1.00  0.00     0.060 A 
ATOM     10  C   UNL     1      -1.234  -4.007   2.154  1.00  0.00     0.007 A 
ATOM     11  C   UNL     1      -2.577  -3.774   2.469  1.00  0.00     0.009 A 
ATOM     12  C   UNL     1      -0.942  -5.069   1.299  1.00  0.00     0.025 A 
ATOM     13  C   UNL     1      -3.589  -4.516   1.846  1.00  0.00     0.001 A 
ATOM     14  C   UNL     1      -3.273  -5.433   0.839  1.00  0.00     0.016 A 
BRANCH  10  15
ATOM     15  C   UNL     1      -0.117  -3.070   2.582  1.00  0.00     0.299 C 
BRANCH  15  16
ATOM     16  N   UNL     1       0.595  -2.377   1.474  1.00  0.00    -0.328 N 
ATOM     17  C   UNL     1       1.030   0.244  -0.322  1.00  0.00     0.037 C 
ATOM     18  C   UNL     1       0.371  -1.081  -0.720  1.00  0.00     0.140 C 
ATOM     19  C   UNL     1      -0.331  -1.774   0.485  1.00  0.00     0.287 C 
ATOM     20  N   UNL     1       1.329  -2.027  -1.312  1.00  0.00    -0.294 N 
ATOM     21  C   UNL     1       2.325  -2.550  -0.374  1.00  0.00     0.185 C 
ATOM     22  C   UNL     1       1.613  -3.226   0.806  1.00  0.00     0.284 C 
ATOM     23  H   UNL     1       1.099  -1.614   1.925  1.00  0.00     0.348 HD
BRANCH  20  24
ATOM     24  C   UNL     1       1.110  -2.714  -2.496  1.00  0.00     0.410 C 
ATOM     25  O   UNL     1       1.711  -3.736  -2.799  1.00  0.00    -0.224 OA
BRANCH  24  26
ATOM     26  O   UNL     1       0.170  -2.127  -3.287  1.00  0.00    -0.444 OA
BRANCH  26  27
ATOM     27  C   UNL     1      -0.051  -2.623  -4.637  1.00  0.00     0.106 C 
ATOM     28  C   UNL     1       1.229  -2.540  -5.481  1.00  0.00     0.056 C 
ATOM     29  C   UNL     1      -0.646  -4.037  -4.641  1.00  0.00     0.056 C 
ATOM     30  C   UNL     1      -1.087  -1.665  -5.249  1.00  0.00     0.056 C 
ENDBRANCH  26  27
ENDBRANCH  24  26
ENDBRANCH  20  24
ENDBRANCH  15  16
ENDBRANCH  10  15
ENDBRANCH   7   9
ENDBRANCH   6   7
ENDBRANCH   5   6
ENDBRANCH   4   5
ENDBRANCH   3   4
ENDBRANCH   2   3
ENDBRANCH   1   2
BRANCH   1  31
ATOM     31  O   UNL     1       0.449  -8.421   2.163  1.00  0.00    -0.377 OA
BRANCH  31  32
ATOM     32  C   UNL     1       1.175  -9.624   2.421  1.00  0.00     0.188 C 
BRANCH  32  33
ATOM     33  C   UNL     1       0.471 -10.985   2.656  1.00  0.00     0.188 C 
BRANCH  33  34
ATOM     34  O   UNL     1      -0.789 -10.912   3.308  1.00  0.00    -0.376 OA
BRANCH  34  35
ATOM     35  C   UNL     1      -0.875 -11.272   4.675  1.00  0.00     0.202 C 
BRANCH  35  36
ATOM     36  C   UNL     1      -0.140 -10.368   5.673  1.00  0.00     0.261 C 
BRANCH  36  37
ATOM     37  O   UNL     1       1.267 -10.208   5.447  1.00  0.00    -0.460 OA
BRANCH  37  38
ATOM     38  C   UNL     1       2.027 -11.328   5.515  1.00  0.00     0.338 C 
ATOM     39  O   UNL     1       1.657 -12.450   5.774  1.00  0.00    -0.246 OA
BRANCH  38  40
ATOM     40  C   UNL     1       3.375 -10.969   5.025  1.00  0.00     0.060 A 
ATOM     41  C   UNL     1       3.891 -11.633   3.905  1.00  0.00     0.016 A 
ATOM     42  C   UNL     1       4.115  -9.975   5.668  1.00  0.00     0.016 A 
ATOM     43  C   UNL     1       5.173 -11.329   3.447  1.00  0.00     0.010 A 
ATOM     44  C   UNL     1       5.405  -9.686   5.221  1.00  0.00     0.010 A 
ATOM     45  C   UNL     1       5.952 -10.388   4.132  1.00  0.00    -0.014 A 
BRANCH  45  46
ATOM     46  C   UNL     1       7.402 -10.281   3.846  1.00  0.00     0.031 A 
ATOM     47  C   UNL     1       8.359 -11.013   4.747  1.00  0.00     0.074 A 
ATOM     48  C   UNL     1       7.861  -9.560   2.809  1.00  0.00     0.049 A 
ATOM     49  N   UNL     1       9.665 -11.037   4.731  1.00  0.00    -0.248 NA
ATOM     50  C   UNL     1       7.754 -11.824   5.817  1.00  0.00     0.031 C 
ATOM     51  C   UNL     1       7.031  -8.847   1.841  1.00  0.00     0.029 A 
ATOM     52  N   UNL     1       9.148  -9.306   2.405  1.00  0.00    -0.354 N 
ATOM     53  C   UNL     1      10.040 -11.849   5.795  1.00  0.00     0.074 A 
ATOM     54  C   UNL     1       8.824 -12.273   6.454  1.00  0.00     0.031 C 
ATOM     55  C   UNL     1       7.832  -8.233   0.952  1.00  0.00     0.029 A 
ATOM     56  C   UNL     1       9.228  -8.478   1.311  1.00  0.00     0.049 A 
ATOM     57  H   UNL     1       9.938  -9.681   2.856  1.00  0.00     0.167 HD
ATOM     58  C   UNL     1      11.286 -12.210   6.186  1.00  0.00     0.037 A 
ATOM     59  C   UNL     1      10.307  -7.966   0.685  1.00  0.00     0.037 A 
ATOM     60  C   UNL     1      12.490 -11.777   5.526  1.00  0.00     0.049 A 
ATOM     61  C   UNL     1      11.686  -8.318   1.185  1.00  0.00     0.074 A 
ATOM     62  C   UNL     1      13.799 -12.110   5.821  1.00  0.00     0.029 A 
ATOM     63  N   UNL     1      12.533 -10.902   4.449  1.00  0.00    -0.354 N 
ATOM     64  N   UNL     1      12.031  -9.111   2.172  1.00  0.00    -0.248 NA
ATOM     65  C   UNL     1      12.822  -7.703   0.485  1.00  0.00     0.031 C 
ATOM     66  C   UNL     1      14.637 -11.383   4.968  1.00  0.00     0.029 A 
ATOM     67  C   UNL     1      13.848 -10.652   4.094  1.00  0.00     0.049 A 
ATOM     68  H   UNL     1      11.744 -10.515   4.004  1.00  0.00     0.167 HD
ATOM     69  C   UNL     1      13.423  -9.119   2.188  1.00  0.00     0.074 A 
ATOM     70  C   UNL     1      13.855  -8.253   1.110  1.00  0.00     0.031 C 
ATOM     71  C   UNL     1      14.266  -9.788   3.015  1.00  0.00     0.037 A 
BRANCH  58  72
ATOM     72  C   UNL     1      11.402 -13.074   7.414  1.00  0.00     0.058 A 
ATOM     73  C   UNL     1      10.964 -14.408   7.435  1.00  0.00     0.135 A 
ATOM     74  C   UNL     1      11.956 -12.550   8.594  1.00  0.00     0.135 A 
ATOM     75  F   UNL     1      10.411 -14.957   6.342  1.00  0.00    -0.206 F 
ATOM     76  C   UNL     1      11.027 -15.176   8.594  1.00  0.00     0.059 A 
ATOM     77  C   UNL     1      12.061 -13.311   9.754  1.00  0.00     0.059 A 
ATOM     78  F   UNL     1      12.390 -11.281   8.632  1.00  0.00    -0.206 F 
ATOM     79  C   UNL     1      11.573 -14.616   9.750  1.00  0.00     0.060 A 
BRANCH  79  80
ATOM     80  S   UNL     1      11.620 -15.614  11.254  1.00  0.00     0.124 S 
ATOM     81  O   UNL     1      10.209 -15.646  11.625  1.00  0.00    -0.237 OA
ATOM     82  O   UNL     1      12.178 -16.874  10.774  1.00  0.00    -0.237 OA
ATOM     83  O   UNL     1      12.485 -14.847  12.145  1.00  0.00    -0.744 OA
ENDBRANCH  79  80
ENDBRANCH  58  72
BRANCH  59  84
ATOM     84  C   UNL     1      10.127  -7.077  -0.494  1.00  0.00     0.058 A 
ATOM     85  C   UNL     1      10.490  -7.506  -1.779  1.00  0.00     0.135 A 
ATOM     86  C   UNL     1       9.572  -5.794  -0.366  1.00  0.00     0.135 A 
ATOM     87  F   UNL     1      11.039  -8.718  -1.952  1.00  0.00    -0.206 F 
ATOM     88  C   UNL     1      10.312  -6.695  -2.896  1.00  0.00     0.059 A 
ATOM     89  C   UNL     1       9.360  -4.975  -1.472  1.00  0.00     0.059 A 
ATOM     90  F   UNL     1       9.203  -5.337   0.841  1.00  0.00    -0.206 F 
ATOM     91  C   UNL     1       9.737  -5.434  -2.733  1.00  0.00     0.060 A 
BRANCH  91  92
ATOM     92  S   UNL     1       9.450  -4.422  -4.200  1.00  0.00     0.124 S 
ATOM     93  O   UNL     1      10.811  -4.069  -4.587  1.00  0.00    -0.237 OA
ATOM     94  O   UNL     1       8.757  -5.356  -5.082  1.00  0.00    -0.237 OA
ATOM     95  O   UNL     1       8.633  -3.322  -3.695  1.00  0.00    -0.744 OA
ENDBRANCH  91  92
ENDBRANCH  59  84
BRANCH  71  96
ATOM     96  C   UNL     1      15.746  -9.648   2.768  1.00  0.00     0.058 A 
ATOM     97  C   UNL     1      16.438  -8.458   3.042  1.00  0.00     0.135 A 
ATOM     98  C   UNL     1      16.492 -10.745   2.305  1.00  0.00     0.135 A 
ATOM     99  F   UNL     1      15.775  -7.376   3.481  1.00  0.00    -0.206 F 
ATOM    100  C   UNL     1      17.811  -8.353   2.843  1.00  0.00     0.059 A 
ATOM    101  C   UNL     1      17.871 -10.673   2.131  1.00  0.00     0.059 A 
ATOM    102  F   UNL     1      15.885 -11.913   2.039  1.00  0.00    -0.206 F 
ATOM    103  C   UNL     1      18.520  -9.468   2.391  1.00  0.00     0.060 A 
BRANCH 103 104
ATOM    104  S   UNL     1      20.307  -9.327   2.172  1.00  0.00     0.124 S 
ATOM    105  O   UNL     1      20.393  -8.484   0.985  1.00  0.00    -0.237 OA
ATOM    106  O   UNL     1      20.726  -8.705   3.424  1.00  0.00    -0.237 OA
ATOM    107  O   UNL     1      20.738 -10.711   1.992  1.00  0.00    -0.744 OA
ENDBRANCH 103 104
ENDBRANCH  71  96
ENDBRANCH  45  46
ENDBRANCH  38  40
ENDBRANCH  37  38
ENDBRANCH  36  37
ENDBRANCH  35  36
ENDBRANCH  34  35
ENDBRANCH  33  34
ENDBRANCH  32  33
ENDBRANCH  31  32
ENDBRANCH   1  31
TORSDOF 28
