REMARK SMILES COc1cc([C@@H]2CC(=O)Nc3c(C(=O)OCCOCCOCCOCCOC(=O)c4ccc(-c5c6nc(c(-c7c(F)cc(S(=O)(=O)[O-])cc7F)c7ccc([nH]7)c(-c7c(F)cc(S(=O)(=O)[O-])cc7F)c7nc(c(-c8c(F)cc(S(=O)(=O)[O-])cc8F)c8ccc5[nH]8)C=C7)C=C6)cc4)cn(-c4ccc(F)cc4)c32)c(OC)c2c1OCO2
REMARK SMILES IDX 22 1 21 2 20 3 19 4 18 5 17 6 16 7 15 8 13 9 14 10 12 11
REMARK SMILES IDX 6 12 7 13 105 14 8 15 11 16 97 17 9 18 10 19 96 20 5 22 3 23
REMARK SMILES IDX 4 24 110 25 109 26 111 27 106 28 113 29 112 30 2 31 1 32
REMARK SMILES IDX 107 33 108 34 98 35 99 36 104 37 100 38 103 39 101 40 102 41
REMARK SMILES IDX 23 42 24 43 25 44 26 45 27 46 28 47 29 48 30 49 31 50 95 51
REMARK SMILES IDX 32 52 94 53 33 54 34 55 35 56 88 57 36 58 93 59 87 60 89 61
REMARK SMILES IDX 37 62 92 63 86 64 85 65 38 67 72 68 51 69 71 70 52 71 55 72
REMARK SMILES IDX 70 73 90 74 53 75 54 76 69 78 91 79 56 80 39 81 40 82 49 83
REMARK SMILES IDX 41 84 42 85 48 86 50 87 43 88 44 89 45 90 46 91 47 92 73 93
REMARK SMILES IDX 74 94 83 95 75 96 76 97 82 98 84 99 77 100 78 101 79 102
REMARK SMILES IDX 80 103 81 104 57 105 58 106 67 107 59 108 60 109 66 110
REMARK SMILES IDX 68 111 61 112 62 113 63 114 64 115 65 116
REMARK H PARENT 10 21 89 66 55 77
REMARK Flexibility Score: inf
ROOT
ATOM      1  C   UNL     1      -2.195   9.180  -8.956  1.00  0.00     0.188 C 
ENDROOT
BRANCH   1   2
ATOM      2  O   UNL     1      -1.547   8.442  -7.920  1.00  0.00    -0.377 OA
BRANCH   2   3
ATOM      3  C   UNL     1      -2.321   8.168  -6.766  1.00  0.00     0.188 C 
BRANCH   3   4
ATOM      4  C   UNL     1      -2.111   9.171  -5.608  1.00  0.00     0.188 C 
BRANCH   4   5
ATOM      5  O   UNL     1      -1.353  10.366  -5.753  1.00  0.00    -0.376 OA
BRANCH   5   6
ATOM      6  C   UNL     1      -0.187  10.458  -6.553  1.00  0.00     0.202 C 
BRANCH   6   7
ATOM      7  C   UNL     1       0.958   9.434  -6.490  1.00  0.00     0.261 C 
BRANCH   7   8
ATOM      8  O   UNL     1       0.605   8.095  -6.159  1.00  0.00    -0.460 OA
BRANCH   8   9
ATOM      9  C   UNL     1       0.528   7.832  -4.830  1.00  0.00     0.341 C 
ATOM     10  O   UNL     1       0.870   8.608  -3.938  1.00  0.00    -0.246 OA
BRANCH   9  11
ATOM     11  C   UNL     1      -0.121   6.562  -4.569  1.00  0.00     0.102 A 
ATOM     12  C   UNL     1      -0.590   2.929  -4.925  1.00  0.00     0.082 C 
ATOM     13  C   UNL     1      -0.435   2.776  -6.449  1.00  0.00     0.115 C 
ATOM     14  C   UNL     1      -0.683   4.383  -4.578  1.00  0.00     0.055 A 
ATOM     15  C   UNL     1       0.389   3.860  -7.139  1.00  0.00     0.225 C 
ATOM     16  C   UNL     1      -0.141   5.384  -5.347  1.00  0.00     0.078 A 
ATOM     17  N   UNL     1      -1.276   4.966  -3.481  1.00  0.00    -0.317 N 
ATOM     18  O   UNL     1       0.970   3.643  -8.203  1.00  0.00    -0.275 OA
ATOM     19  N   UNL     1       0.387   5.119  -6.589  1.00  0.00    -0.324 N 
ATOM     20  C   UNL     1      -0.924   6.295  -3.467  1.00  0.00     0.109 A 
ATOM     21  H   UNL     1       0.779   5.861  -7.104  1.00  0.00     0.170 HD
BRANCH  12  22
ATOM     22  C   UNL     1       0.522   2.217  -4.133  1.00  0.00     0.012 A 
ATOM     23  C   UNL     1       1.041   0.543  -2.414  1.00  0.00     0.165 A 
ATOM     24  C   UNL     1       0.143   1.125  -3.311  1.00  0.00     0.059 A 
ATOM     25  C   UNL     1       2.349   0.984  -2.431  1.00  0.00     0.211 A 
ATOM     26  C   UNL     1       2.756   2.005  -3.265  1.00  0.00     0.211 A 
ATOM     27  O   UNL     1       3.374   0.500  -1.674  1.00  0.00    -0.449 OA
ATOM     28  C   UNL     1       1.872   2.651  -4.117  1.00  0.00     0.168 A 
ATOM     29  O   UNL     1       4.083   2.279  -3.107  1.00  0.00    -0.449 OA
ATOM     30  C   UNL     1       4.481   1.257  -2.185  1.00  0.00     0.468 C 
BRANCH  23  31
ATOM     31  O   UNL     1       0.548  -0.430  -1.593  1.00  0.00    -0.493 OA
ATOM     32  C   UNL     1       0.878  -0.220  -0.221  1.00  0.00     0.278 C 
ENDBRANCH  23  31
BRANCH  28  33
ATOM     33  O   UNL     1       2.187   3.686  -4.939  1.00  0.00    -0.492 OA
ATOM     34  C   UNL     1       3.511   4.188  -4.993  1.00  0.00     0.278 C 
ENDBRANCH  28  33
ENDBRANCH  12  22
BRANCH  17  35
ATOM     35  C   UNL     1      -2.058   4.337  -2.496  1.00  0.00     0.046 A 
ATOM     36  C   UNL     1      -1.457   3.407  -1.647  1.00  0.00     0.029 A 
ATOM     37  C   UNL     1      -3.424   4.623  -2.403  1.00  0.00     0.029 A 
ATOM     38  C   UNL     1      -2.241   2.685  -0.754  1.00  0.00     0.041 A 
ATOM     39  C   UNL     1      -4.204   3.900  -1.497  1.00  0.00     0.041 A 
ATOM     40  C   UNL     1      -3.609   2.928  -0.695  1.00  0.00     0.123 A 
ATOM     41  F   UNL     1      -4.364   2.215   0.151  1.00  0.00    -0.207 F 
ENDBRANCH  17  35
ENDBRANCH   9  11
ENDBRANCH   8   9
ENDBRANCH   7   8
ENDBRANCH   6   7
ENDBRANCH   5   6
ENDBRANCH   4   5
ENDBRANCH   3   4
ENDBRANCH   2   3
ENDBRANCH   1   2
BRANCH   1  42
ATOM     42  C   UNL     1      -3.078  10.396  -8.570  1.00  0.00     0.188 C 
BRANCH  42  43
ATOM     43  O   UNL     1      -3.831  10.226  -7.379  1.00  0.00    -0.376 OA
BRANCH  43  44
ATOM     44  C   UNL     1      -5.229  10.013  -7.385  1.00  0.00     0.202 C 
BRANCH  44  45
ATOM     45  C   UNL     1      -5.781   8.755  -8.044  1.00  0.00     0.261 C 
BRANCH  45  46
ATOM     46  O   UNL     1      -5.085   8.346  -9.204  1.00  0.00    -0.460 OA
BRANCH  46  47
ATOM     47  C   UNL     1      -5.340   9.087 -10.295  1.00  0.00     0.338 C 
ATOM     48  O   UNL     1      -5.817  10.216 -10.320  1.00  0.00    -0.246 OA
BRANCH  47  49
ATOM     49  C   UNL     1      -5.101   8.255 -11.472  1.00  0.00     0.060 A 
ATOM     50  C   UNL     1      -5.264   8.871 -12.709  1.00  0.00     0.016 A 
ATOM     51  C   UNL     1      -5.051   6.856 -11.328  1.00  0.00     0.016 A 
ATOM     52  C   UNL     1      -5.628   8.078 -13.770  1.00  0.00     0.010 A 
ATOM     53  C   UNL     1      -5.421   6.067 -12.389  1.00  0.00     0.010 A 
ATOM     54  C   UNL     1      -5.798   6.699 -13.566  1.00  0.00    -0.014 A 
BRANCH  54  55
ATOM     55  C   UNL     1      -6.292   5.920 -14.677  1.00  0.00     0.031 A 
ATOM     56  C   UNL     1      -5.307   5.848 -15.771  1.00  0.00     0.074 A 
ATOM     57  C   UNL     1      -7.502   5.331 -14.694  1.00  0.00     0.049 A 
ATOM     58  N   UNL     1      -5.326   6.531 -16.864  1.00  0.00    -0.248 NA
ATOM     59  C   UNL     1      -4.046   5.131 -15.527  1.00  0.00     0.031 C 
ATOM     60  C   UNL     1      -8.450   5.150 -13.592  1.00  0.00     0.029 A 
ATOM     61  N   UNL     1      -8.117   4.701 -15.730  1.00  0.00    -0.354 N 
ATOM     62  C   UNL     1      -4.195   6.140 -17.563  1.00  0.00     0.074 A 
ATOM     63  C   UNL     1      -3.353   5.450 -16.621  1.00  0.00     0.031 C 
ATOM     64  C   UNL     1      -9.409   4.270 -13.967  1.00  0.00     0.029 A 
ATOM     65  C   UNL     1      -9.229   3.949 -15.373  1.00  0.00     0.049 A 
ATOM     66  H   UNL     1      -7.799   4.771 -16.660  1.00  0.00     0.167 HD
ATOM     67  C   UNL     1      -4.177   6.185 -18.921  1.00  0.00     0.037 A 
ATOM     68  C   UNL     1      -9.919   3.105 -16.184  1.00  0.00     0.037 A 
ATOM     69  C   UNL     1      -5.269   6.978 -19.426  1.00  0.00     0.049 A 
ATOM     70  C   UNL     1      -9.647   3.537 -17.578  1.00  0.00     0.074 A 
ATOM     71  C   UNL     1      -5.616   8.312 -19.390  1.00  0.00     0.029 A 
ATOM     72  N   UNL     1      -6.406   6.280 -19.750  1.00  0.00    -0.354 N 
ATOM     73  N   UNL     1     -10.060   4.670 -18.076  1.00  0.00    -0.248 NA
ATOM     74  C   UNL     1      -8.555   2.903 -18.303  1.00  0.00     0.031 C 
ATOM     75  C   UNL     1      -7.042   8.334 -19.348  1.00  0.00     0.029 A 
ATOM     76  C   UNL     1      -7.508   7.019 -19.411  1.00  0.00     0.049 A 
ATOM     77  H   UNL     1      -6.426   5.386 -20.162  1.00  0.00     0.167 HD
ATOM     78  C   UNL     1      -9.022   5.099 -18.888  1.00  0.00     0.074 A 
ATOM     79  C   UNL     1      -8.193   3.915 -19.096  1.00  0.00     0.031 C 
ATOM     80  C   UNL     1      -8.790   6.432 -19.070  1.00  0.00     0.037 A 
BRANCH  67  81
ATOM     81  C   UNL     1      -3.466   5.172 -19.781  1.00  0.00     0.058 A 
ATOM     82  C   UNL     1      -3.364   5.401 -21.167  1.00  0.00     0.135 A 
ATOM     83  C   UNL     1      -3.145   3.865 -19.350  1.00  0.00     0.135 A 
ATOM     84  F   UNL     1      -3.668   6.601 -21.686  1.00  0.00    -0.206 F 
ATOM     85  C   UNL     1      -3.022   4.389 -22.065  1.00  0.00     0.059 A 
ATOM     86  C   UNL     1      -2.749   2.858 -20.221  1.00  0.00     0.059 A 
ATOM     87  F   UNL     1      -3.299   3.470 -18.081  1.00  0.00    -0.206 F 
ATOM     88  C   UNL     1      -2.724   3.119 -21.580  1.00  0.00     0.060 A 
BRANCH  88  89
ATOM     89  S   UNL     1      -2.352   1.794 -22.740  1.00  0.00     0.124 S 
ATOM     90  O   UNL     1      -3.644   1.600 -23.386  1.00  0.00    -0.237 OA
ATOM     91  O   UNL     1      -1.308   2.399 -23.561  1.00  0.00    -0.237 OA
ATOM     92  O   UNL     1      -1.908   0.705 -21.874  1.00  0.00    -0.744 OA
ENDBRANCH  88  89
ENDBRANCH  67  81
BRANCH  68  93
ATOM     93  C   UNL     1     -10.508   1.776 -15.868  1.00  0.00     0.058 A 
ATOM     94  C   UNL     1     -11.370   1.128 -16.773  1.00  0.00     0.135 A 
ATOM     95  C   UNL     1      -9.994   0.981 -14.826  1.00  0.00     0.135 A 
ATOM     96  F   UNL     1     -11.893   1.804 -17.808  1.00  0.00    -0.206 F 
ATOM     97  C   UNL     1     -11.655  -0.240 -16.688  1.00  0.00     0.059 A 
ATOM     98  C   UNL     1     -10.267  -0.383 -14.717  1.00  0.00     0.059 A 
ATOM     99  F   UNL     1      -9.128   1.488 -13.935  1.00  0.00    -0.206 F 
ATOM    100  C   UNL     1     -11.077  -0.994 -15.668  1.00  0.00     0.060 A 
BRANCH 100 101
ATOM    101  S   UNL     1     -11.286  -2.792 -15.664  1.00  0.00     0.124 S 
ATOM    102  O   UNL     1     -12.696  -2.931 -15.315  1.00  0.00    -0.237 OA
ATOM    103  O   UNL     1     -10.931  -3.148 -17.034  1.00  0.00    -0.237 OA
ATOM    104  O   UNL     1     -10.343  -3.240 -14.643  1.00  0.00    -0.744 OA
ENDBRANCH 100 101
ENDBRANCH  68  93
BRANCH  80 105
ATOM    105  C   UNL     1      -9.908   7.385 -18.733  1.00  0.00     0.058 A 
ATOM    106  C   UNL     1     -10.411   7.619 -17.441  1.00  0.00     0.135 A 
ATOM    107  C   UNL     1     -10.416   8.180 -19.772  1.00  0.00     0.135 A 
ATOM    108  F   UNL     1      -9.917   6.966 -16.378  1.00  0.00    -0.206 F 
ATOM    109  C   UNL     1     -11.403   8.574 -17.203  1.00  0.00     0.059 A 
ATOM    110  C   UNL     1     -11.379   9.158 -19.553  1.00  0.00     0.059 A 
ATOM    111  F   UNL     1      -9.937   8.040 -21.019  1.00  0.00    -0.206 F 
ATOM    112  C   UNL     1     -11.880   9.341 -18.267  1.00  0.00     0.060 A 
BRANCH 112 113
ATOM    113  S   UNL     1     -13.114  10.622 -17.954  1.00  0.00     0.124 S 
ATOM    114  O   UNL     1     -14.311   9.835 -17.679  1.00  0.00    -0.237 OA
ATOM    115  O   UNL     1     -12.549  11.337 -16.814  1.00  0.00    -0.237 OA
ATOM    116  O   UNL     1     -13.141  11.382 -19.202  1.00  0.00    -0.744 OA
ENDBRANCH 112 113
ENDBRANCH  80 105
ENDBRANCH  54  55
ENDBRANCH  47  49
ENDBRANCH  46  47
ENDBRANCH  45  46
ENDBRANCH  44  45
ENDBRANCH  43  44
ENDBRANCH  42  43
ENDBRANCH   1  42
TORSDOF 27
