REMARK SMILES COC(=O)c1sc(SCC(=O)OCCOCCOCCOCCOC(=O)c2ccc(-c3c4nc(c(-c5c(F)cc(S(=O)(=O)[O-])cc5F)c5ccc([nH]5)c(-c5c(F)cc(S(=O)(=O)[O-])cc5F)c5nc(c(-c6c(F)cc(S(=O)(=O)[O-])cc6F)c6ccc3[nH]6)C=C5)C=C4)cc2)c(NC(=O)c2ccccc2)c1O
REMARK SMILES IDX 17 1 16 2 15 3 14 4 13 5 12 6 10 7 11 8 9 9 8 10 7 11 5 12
REMARK SMILES IDX 6 13 103 14 93 15 3 16 4 17 2 18 1 19 104 20 94 22 95 23
REMARK SMILES IDX 96 25 97 26 98 27 102 28 99 29 101 30 100 31 18 32 19 33
REMARK SMILES IDX 20 34 21 35 22 36 23 37 24 38 25 39 26 40 27 41 28 42 92 43
REMARK SMILES IDX 29 44 91 45 30 46 31 47 32 48 85 49 33 50 90 51 84 52 86 53
REMARK SMILES IDX 34 54 89 55 83 56 82 57 35 59 69 60 48 61 68 62 49 63 52 64
REMARK SMILES IDX 67 65 87 66 50 67 51 68 66 70 88 71 53 72 36 73 37 74 46 75
REMARK SMILES IDX 38 76 39 77 45 78 47 79 40 80 41 81 42 82 43 83 44 84 70 85
REMARK SMILES IDX 71 86 80 87 72 88 73 89 79 90 81 91 74 92 75 93 76 94 77 95
REMARK SMILES IDX 78 96 54 97 55 98 64 99 56 100 57 101 63 102 65 103 58 104
REMARK SMILES IDX 59 105 60 106 61 107 62 108
REMARK H PARENT 104 21 94 24 86 58 52 69
REMARK Flexibility Score: inf
ROOT
ATOM      1  C   UNL     1      -3.611  -3.495   5.720  1.00  0.00     0.188 C 
ENDROOT
BRANCH   1   2
ATOM      2  C   UNL     1      -4.264  -4.710   6.375  1.00  0.00     0.188 C 
BRANCH   2   3
ATOM      3  O   UNL     1      -4.410  -4.561   7.793  1.00  0.00    -0.376 OA
BRANCH   3   4
ATOM      4  C   UNL     1      -3.216  -4.775   8.555  1.00  0.00     0.202 C 
BRANCH   4   5
ATOM      5  C   UNL     1      -2.722  -6.224   8.517  1.00  0.00     0.261 C 
BRANCH   5   6
ATOM      6  O   UNL     1      -1.763  -6.416   7.457  1.00  0.00    -0.463 OA
BRANCH   6   7
ATOM      7  C   UNL     1      -1.798  -7.624   6.794  1.00  0.00     0.316 C 
ATOM      8  O   UNL     1      -2.670  -8.469   6.955  1.00  0.00    -0.251 OA
BRANCH   7   9
ATOM      9  C   UNL     1      -0.315  -7.863   6.029  1.00  0.00     0.198 C 
BRANCH   9  10
ATOM     10  S   UNL     1       0.324  -7.857   3.533  1.00  0.00    -0.101 SA
BRANCH  10  11
ATOM     11  C   UNL     1       0.129  -6.357   2.540  1.00  0.00     0.089 A 
ATOM     12  C   UNL     1       0.633  -4.509   0.944  1.00  0.00     0.157 A 
ATOM     13  S   UNL     1       1.523  -5.730   1.750  1.00  0.00    -0.116 S 
ATOM     14  C   UNL     1      -0.712  -4.627   1.228  1.00  0.00     0.166 A 
ATOM     15  C   UNL     1      -1.011  -5.646   2.186  1.00  0.00     0.109 A 
BRANCH  12  16
ATOM     16  C   UNL     1       1.354  -3.558   0.121  1.00  0.00     0.352 C 
ATOM     17  O   UNL     1       2.556  -3.551  -0.104  1.00  0.00    -0.245 OA
BRANCH  16  18
ATOM     18  O   UNL     1       0.480  -2.617  -0.360  1.00  0.00    -0.465 OA
ATOM     19  C   UNL     1       1.112  -1.579  -1.118  1.00  0.00     0.282 C 
ENDBRANCH  16  18
ENDBRANCH  12  16
BRANCH  14  20
ATOM     20  O   UNL     1      -1.667  -3.825   0.701  1.00  0.00    -0.504 OA
ATOM     21  H   UNL     1      -1.434  -3.167   0.075  1.00  0.00     0.293 HD
ENDBRANCH  14  20
BRANCH  15  22
ATOM     22  N   UNL     1      -2.311  -5.830   2.654  1.00  0.00    -0.317 N 
ATOM     23  C   UNL     1      -2.696  -6.608   3.712  1.00  0.00     0.255 C 
ATOM     24  H   UNL     1      -3.025  -5.351   2.174  1.00  0.00     0.170 HD
ATOM     25  O   UNL     1      -3.866  -6.862   3.966  1.00  0.00    -0.269 OA
BRANCH  23  26
ATOM     26  C   UNL     1      -1.614  -7.148   4.547  1.00  0.00     0.040 A 
ATOM     27  C   UNL     1      -1.428  -8.948   4.589  1.00  0.00     0.014 A 
ATOM     28  C   UNL     1      -0.219  -6.081   5.017  1.00  0.00     0.014 A 
ATOM     29  C   UNL     1       0.164  -9.675   4.994  1.00  0.00     0.001 A 
ATOM     30  C   UNL     1       1.394  -6.815   5.367  1.00  0.00     0.001 A 
ATOM     31  C   UNL     1       1.564  -8.606   5.390  1.00  0.00     0.000 A 
ENDBRANCH  23  26
ENDBRANCH  15  22
ENDBRANCH  10  11
ENDBRANCH   9  10
ENDBRANCH   7   9
ENDBRANCH   6   7
ENDBRANCH   5   6
ENDBRANCH   4   5
ENDBRANCH   3   4
ENDBRANCH   2   3
ENDBRANCH   1   2
BRANCH   1  32
ATOM     32  O   UNL     1      -2.230  -3.448   6.063  1.00  0.00    -0.377 OA
BRANCH  32  33
ATOM     33  C   UNL     1      -1.518  -2.256   5.739  1.00  0.00     0.188 C 
BRANCH  33  34
ATOM     34  C   UNL     1      -2.317  -1.001   5.362  1.00  0.00     0.188 C 
BRANCH  34  35
ATOM     35  O   UNL     1      -3.008  -1.083   4.113  1.00  0.00    -0.376 OA
BRANCH  35  36
ATOM     36  C   UNL     1      -2.208  -1.361   2.960  1.00  0.00     0.202 C 
BRANCH  36  37
ATOM     37  C   UNL     1      -1.150  -0.305   2.645  1.00  0.00     0.261 C 
BRANCH  37  38
ATOM     38  O   UNL     1       0.083  -0.606   3.325  1.00  0.00    -0.460 OA
BRANCH  38  39
ATOM     39  C   UNL     1       0.572   0.365   4.138  1.00  0.00     0.338 C 
ATOM     40  O   UNL     1      -0.003   1.386   4.474  1.00  0.00    -0.246 OA
BRANCH  39  41
ATOM     41  C   UNL     1       1.977   0.067   4.491  1.00  0.00     0.060 A 
ATOM     42  C   UNL     1       2.792   1.151   4.827  1.00  0.00     0.016 A 
ATOM     43  C   UNL     1       2.524  -1.216   4.355  1.00  0.00     0.016 A 
ATOM     44  C   UNL     1       4.171   0.989   4.841  1.00  0.00     0.010 A 
ATOM     45  C   UNL     1       3.908  -1.381   4.397  1.00  0.00     0.010 A 
ATOM     46  C   UNL     1       4.733  -0.258   4.535  1.00  0.00    -0.014 A 
BRANCH  46  47
ATOM     47  C   UNL     1       6.124  -0.242   4.070  1.00  0.00     0.031 A 
ATOM     48  C   UNL     1       7.252   0.094   4.971  1.00  0.00     0.074 A 
ATOM     49  C   UNL     1       6.427  -0.403   2.766  1.00  0.00     0.049 A 
ATOM     50  N   UNL     1       7.939   1.193   5.007  1.00  0.00    -0.248 NA
ATOM     51  C   UNL     1       7.731  -0.955   5.880  1.00  0.00     0.031 C 
ATOM     52  C   UNL     1       5.600  -1.013   1.724  1.00  0.00     0.029 A 
ATOM     53  N   UNL     1       7.598  -0.105   2.120  1.00  0.00    -0.354 N 
ATOM     54  C   UNL     1       9.015   0.943   5.849  1.00  0.00     0.074 A 
ATOM     55  C   UNL     1       8.818  -0.379   6.400  1.00  0.00     0.031 C 
ATOM     56  C   UNL     1       6.361  -1.223   0.631  1.00  0.00     0.029 A 
ATOM     57  C   UNL     1       7.670  -0.627   0.845  1.00  0.00     0.049 A 
ATOM     58  H   UNL     1       8.318   0.430   2.526  1.00  0.00     0.167 HD
ATOM     59  C   UNL     1      10.103   1.747   5.962  1.00  0.00     0.037 A 
ATOM     60  C   UNL     1       8.728  -0.629   0.007  1.00  0.00     0.037 A 
ATOM     61  C   UNL     1      10.053   2.953   5.198  1.00  0.00     0.049 A 
ATOM     62  C   UNL     1       9.631   0.501   0.323  1.00  0.00     0.074 A 
ATOM     63  C   UNL     1       9.453   4.184   5.311  1.00  0.00     0.029 A 
ATOM     64  N   UNL     1      10.574   2.874   3.932  1.00  0.00    -0.354 N 
ATOM     65  N   UNL     1       9.311   1.760   0.190  1.00  0.00    -0.248 NA
ATOM     66  C   UNL     1      10.896   0.253   1.006  1.00  0.00     0.031 C 
ATOM     67  C   UNL     1       9.421   4.740   3.999  1.00  0.00     0.029 A 
ATOM     68  C   UNL     1       9.958   3.799   3.123  1.00  0.00     0.049 A 
ATOM     69  H   UNL     1      11.281   2.251   3.647  1.00  0.00     0.167 HD
ATOM     70  C   UNL     1      10.132   2.428   1.078  1.00  0.00     0.074 A 
ATOM     71  C   UNL     1      11.181   1.488   1.423  1.00  0.00     0.031 C 
ATOM     72  C   UNL     1       9.719   3.558   1.714  1.00  0.00     0.037 A 
BRANCH  59  73
ATOM     73  C   UNL     1      11.379   1.269   6.558  1.00  0.00     0.058 A 
ATOM     74  C   UNL     1      12.025   1.985   7.573  1.00  0.00     0.135 A 
ATOM     75  C   UNL     1      12.053   0.161   6.012  1.00  0.00     0.135 A 
ATOM     76  F   UNL     1      11.450   3.077   8.102  1.00  0.00    -0.206 F 
ATOM     77  C   UNL     1      13.275   1.598   8.053  1.00  0.00     0.059 A 
ATOM     78  C   UNL     1      13.291  -0.255   6.485  1.00  0.00     0.059 A 
ATOM     79  F   UNL     1      11.517  -0.511   4.980  1.00  0.00    -0.206 F 
ATOM     80  C   UNL     1      13.897   0.474   7.506  1.00  0.00     0.060 A 
BRANCH  80  81
ATOM     81  S   UNL     1      15.495  -0.083   8.135  1.00  0.00     0.124 S 
ATOM     82  O   UNL     1      16.406   0.425   7.116  1.00  0.00    -0.237 OA
ATOM     83  O   UNL     1      15.581   0.563   9.442  1.00  0.00    -0.237 OA
ATOM     84  O   UNL     1      15.325  -1.532   8.175  1.00  0.00    -0.744 OA
ENDBRANCH  80  81
ENDBRANCH  59  73
BRANCH  60  85
ATOM     85  C   UNL     1       9.057  -1.698  -0.960  1.00  0.00     0.058 A 
ATOM     86  C   UNL     1       9.873  -1.465  -2.076  1.00  0.00     0.135 A 
ATOM     87  C   UNL     1       8.732  -3.044  -0.682  1.00  0.00     0.135 A 
ATOM     88  F   UNL     1      10.269  -0.220  -2.377  1.00  0.00    -0.206 F 
ATOM     89  C   UNL     1      10.342  -2.510  -2.874  1.00  0.00     0.059 A 
ATOM     90  C   UNL     1       9.169  -4.098  -1.474  1.00  0.00     0.059 A 
ATOM     91  F   UNL     1       8.041  -3.376   0.420  1.00  0.00    -0.206 F 
ATOM     92  C   UNL     1       9.990  -3.824  -2.558  1.00  0.00     0.060 A 
BRANCH  92  93
ATOM     93  S   UNL     1      10.678  -5.177  -3.533  1.00  0.00     0.124 S 
ATOM     94  O   UNL     1      10.229  -4.840  -4.880  1.00  0.00    -0.237 OA
ATOM     95  O   UNL     1      12.107  -5.029  -3.280  1.00  0.00    -0.237 OA
ATOM     96  O   UNL     1      10.060  -6.366  -2.951  1.00  0.00    -0.744 OA
ENDBRANCH  92  93
ENDBRANCH  60  85
BRANCH  72  97
ATOM     97  C   UNL     1       8.705   4.409   1.017  1.00  0.00     0.058 A 
ATOM     98  C   UNL     1       7.345   4.072   0.945  1.00  0.00     0.135 A 
ATOM     99  C   UNL     1       9.099   5.658   0.511  1.00  0.00     0.135 A 
ATOM    100  F   UNL     1       6.898   2.924   1.477  1.00  0.00    -0.206 F 
ATOM    101  C   UNL     1       6.412   4.936   0.375  1.00  0.00     0.059 A 
ATOM    102  C   UNL     1       8.182   6.544  -0.046  1.00  0.00     0.059 A 
ATOM    103  F   UNL     1      10.382   6.048   0.600  1.00  0.00    -0.206 F 
ATOM    104  C   UNL     1       6.839   6.171  -0.118  1.00  0.00     0.060 A 
BRANCH 104 105
ATOM    105  S   UNL     1       5.629   7.352  -0.755  1.00  0.00     0.124 S 
ATOM    106  O   UNL     1       5.636   7.055  -2.184  1.00  0.00    -0.237 OA
ATOM    107  O   UNL     1       4.405   6.994  -0.042  1.00  0.00    -0.237 OA
ATOM    108  O   UNL     1       6.201   8.642  -0.379  1.00  0.00    -0.744 OA
ENDBRANCH 104 105
ENDBRANCH  72  97
ENDBRANCH  46  47
ENDBRANCH  39  41
ENDBRANCH  38  39
ENDBRANCH  37  38
ENDBRANCH  36  37
ENDBRANCH  35  36
ENDBRANCH  34  35
ENDBRANCH  33  34
ENDBRANCH  32  33
ENDBRANCH   1  32
TORSDOF 30
