REMARK SMILES CCc1csc(N2[C@@H]3CC[C@H]2C[C@H](CC(=O)OCCOCCOCCOCCOC(=O)c2ccc(-c4c5nc(c(-c6c(F)cc(S(=O)(=O)[O-])cc6F)c6ccc([nH]6)c(-c6c(F)cc(S(=O)(=O)[O-])cc6F)c6nc(c(-c7c(F)cc(S(=O)(=O)[O-])cc7F)c7ccc4[nH]7)C=C6)C=C5)cc2)C3)n1
REMARK SMILES IDX 23 1 22 2 21 3 20 4 19 5 18 6 17 7 15 8 16 9 14 10 13 11
REMARK SMILES IDX 7 12 8 13 11 14 9 15 98 16 10 17 12 18 6 19 3 20 4 21 99 22
REMARK SMILES IDX 5 23 2 24 1 25 24 26 25 27 26 28 27 29 28 30 29 31 30 32
REMARK SMILES IDX 31 33 32 34 33 35 97 36 34 37 96 38 35 39 36 40 37 41 90 42
REMARK SMILES IDX 38 43 95 44 89 45 91 46 39 47 94 48 88 49 87 50 40 52 74 53
REMARK SMILES IDX 53 54 73 55 54 56 57 57 72 58 92 59 55 60 56 61 71 63 93 64
REMARK SMILES IDX 58 65 41 66 42 67 51 68 43 69 44 70 50 71 52 72 45 73 46 74
REMARK SMILES IDX 47 75 48 76 49 77 75 78 76 79 85 80 77 81 78 82 84 83 86 84
REMARK SMILES IDX 79 85 80 86 81 87 82 88 83 89 59 90 60 91 69 92 61 93 62 94
REMARK SMILES IDX 68 95 70 96 63 97 64 98 65 99 66 100 67 101
REMARK H PARENT 91 51 57 62
REMARK Flexibility Score: inf
ROOT
ATOM      1  O   UNL     1       3.392   0.683   7.913  1.00  0.00    -0.377 OA
ENDROOT
BRANCH   1   2
ATOM      2  C   UNL     1       4.776   0.598   8.187  1.00  0.00     0.188 C 
BRANCH   2   3
ATOM      3  C   UNL     1       5.601   1.888   8.174  1.00  0.00     0.188 C 
BRANCH   3   4
ATOM      4  O   UNL     1       4.971   3.083   8.569  1.00  0.00    -0.376 OA
BRANCH   4   5
ATOM      5  C   UNL     1       4.119   3.787   7.677  1.00  0.00     0.202 C 
BRANCH   5   6
ATOM      6  C   UNL     1       3.930   3.473   6.178  1.00  0.00     0.261 C 
BRANCH   6   7
ATOM      7  O   UNL     1       4.001   2.101   5.755  1.00  0.00    -0.463 OA
BRANCH   7   8
ATOM      8  C   UNL     1       4.985   1.802   4.877  1.00  0.00     0.306 C 
ATOM      9  O   UNL     1       5.845   2.601   4.512  1.00  0.00    -0.252 OA
BRANCH   8  10
ATOM     10  C   UNL     1       5.014   0.370   4.373  1.00  0.00     0.126 C 
BRANCH  10  11
ATOM     11  C   UNL     1       4.070  -0.727   4.890  1.00  0.00     0.004 C 
ATOM     12  N   UNL     1       2.160  -2.764   4.063  1.00  0.00    -0.342 N 
ATOM     13  C   UNL     1       3.446  -3.216   4.545  1.00  0.00     0.085 C 
ATOM     14  C   UNL     1       1.711  -1.706   4.950  1.00  0.00     0.085 C 
ATOM     15  C   UNL     1       3.159  -3.355   6.049  1.00  0.00     0.027 C 
ATOM     16  C   UNL     1       4.471  -2.094   4.260  1.00  0.00     0.029 C 
ATOM     17  C   UNL     1       2.008  -2.362   6.319  1.00  0.00     0.027 C 
ATOM     18  C   UNL     1       2.569  -0.447   4.693  1.00  0.00     0.029 C 
BRANCH  12  19
ATOM     19  C   UNL     1       1.715  -2.905   2.797  1.00  0.00     0.186 A 
ATOM     20  C   UNL     1       0.847  -2.365   0.820  1.00  0.00     0.053 A 
ATOM     21  C   UNL     1       0.873  -3.737   0.675  1.00  0.00     0.092 A 
ATOM     22  N   UNL     1       1.279  -1.914   2.055  1.00  0.00    -0.225 NA
ATOM     23  S   UNL     1       1.595  -4.457   2.048  1.00  0.00    -0.105 S 
BRANCH  20  24
ATOM     24  C   UNL     1       0.381  -1.381  -0.206  1.00  0.00     0.054 C 
ATOM     25  C   UNL     1       0.972   0.011  -0.035  1.00  0.00     0.011 C 
ENDBRANCH  20  24
ENDBRANCH  12  19
ENDBRANCH  10  11
ENDBRANCH   8  10
ENDBRANCH   7   8
ENDBRANCH   6   7
ENDBRANCH   5   6
ENDBRANCH   4   5
ENDBRANCH   3   4
ENDBRANCH   2   3
ENDBRANCH   1   2
BRANCH   1  26
ATOM     26  C   UNL     1       2.496   1.218   8.883  1.00  0.00     0.188 C 
BRANCH  26  27
ATOM     27  C   UNL     1       2.976   1.566  10.305  1.00  0.00     0.188 C 
BRANCH  27  28
ATOM     28  O   UNL     1       4.050   0.777  10.786  1.00  0.00    -0.376 OA
BRANCH  28  29
ATOM     29  C   UNL     1       3.749  -0.381  11.551  1.00  0.00     0.202 C 
BRANCH  29  30
ATOM     30  C   UNL     1       2.890  -1.473  10.893  1.00  0.00     0.261 C 
BRANCH  30  31
ATOM     31  O   UNL     1       1.550  -1.103  10.533  1.00  0.00    -0.460 OA
BRANCH  31  32
ATOM     32  C   UNL     1       0.751  -0.602  11.502  1.00  0.00     0.338 C 
ATOM     33  O   UNL     1       1.012  -0.478  12.680  1.00  0.00    -0.246 OA
BRANCH  32  34
ATOM     34  C   UNL     1      -0.452  -0.050  10.846  1.00  0.00     0.060 A 
ATOM     35  C   UNL     1      -0.716   1.322  10.957  1.00  0.00     0.016 A 
ATOM     36  C   UNL     1      -1.323  -0.886  10.145  1.00  0.00     0.016 A 
ATOM     37  C   UNL     1      -1.879   1.855  10.401  1.00  0.00     0.010 A 
ATOM     38  C   UNL     1      -2.496  -0.353   9.604  1.00  0.00     0.010 A 
ATOM     39  C   UNL     1      -2.797   1.011   9.763  1.00  0.00    -0.014 A 
BRANCH  39  40
ATOM     40  C   UNL     1      -4.154   1.515   9.437  1.00  0.00     0.031 A 
ATOM     41  C   UNL     1      -5.283   1.190  10.376  1.00  0.00     0.074 A 
ATOM     42  C   UNL     1      -4.380   2.256   8.339  1.00  0.00     0.049 A 
ATOM     43  N   UNL     1      -6.555   1.476  10.279  1.00  0.00    -0.248 NA
ATOM     44  C   UNL     1      -4.926   0.433  11.587  1.00  0.00     0.031 C 
ATOM     45  C   UNL     1      -3.363   2.664   7.373  1.00  0.00     0.029 A 
ATOM     46  N   UNL     1      -5.547   2.783   7.846  1.00  0.00    -0.354 N 
ATOM     47  C   UNL     1      -7.153   0.922  11.406  1.00  0.00     0.074 A 
ATOM     48  C   UNL     1      -6.109   0.257  12.154  1.00  0.00     0.031 C 
ATOM     49  C   UNL     1      -3.955   3.363   6.389  1.00  0.00     0.029 A 
ATOM     50  C   UNL     1      -5.396   3.421   6.639  1.00  0.00     0.049 A 
ATOM     51  H   UNL     1      -6.411   2.711   8.313  1.00  0.00     0.167 HD
ATOM     52  C   UNL     1      -8.453   0.969  11.784  1.00  0.00     0.037 A 
ATOM     53  C   UNL     1      -6.316   3.962   5.816  1.00  0.00     0.037 A 
ATOM     54  C   UNL     1      -9.487   1.624  11.025  1.00  0.00     0.049 A 
ATOM     55  C   UNL     1      -7.768   3.951   6.220  1.00  0.00     0.074 A 
ATOM     56  C   UNL     1     -10.829   1.753  11.333  1.00  0.00     0.029 A 
ATOM     57  N   UNL     1      -9.298   2.242   9.796  1.00  0.00    -0.354 N 
ATOM     58  N   UNL     1      -8.319   3.458   7.304  1.00  0.00    -0.248 NA
ATOM     59  C   UNL     1      -8.722   4.576   5.294  1.00  0.00     0.031 C 
ATOM     60  C   UNL     1     -11.464   2.389  10.260  1.00  0.00     0.029 A 
ATOM     61  C   UNL     1     -10.505   2.722   9.315  1.00  0.00     0.049 A 
ATOM     62  H   UNL     1      -8.432   2.327   9.334  1.00  0.00     0.167 HD
ATOM     63  C   UNL     1      -9.680   3.732   7.202  1.00  0.00     0.074 A 
ATOM     64  C   UNL     1      -9.865   4.444   5.954  1.00  0.00     0.031 C 
ATOM     65  C   UNL     1     -10.681   3.426   8.066  1.00  0.00     0.037 A 
BRANCH  52  66
ATOM     66  C   UNL     1      -8.829   0.245  13.050  1.00  0.00     0.058 A 
ATOM     67  C   UNL     1      -8.391   0.671  14.315  1.00  0.00     0.135 A 
ATOM     68  C   UNL     1      -9.632  -0.907  12.994  1.00  0.00     0.135 A 
ATOM     69  F   UNL     1      -7.609   1.757  14.430  1.00  0.00    -0.206 F 
ATOM     70  C   UNL     1      -8.690  -0.045  15.470  1.00  0.00     0.059 A 
ATOM     71  C   UNL     1      -9.973  -1.619  14.140  1.00  0.00     0.059 A 
ATOM     72  F   UNL     1     -10.082  -1.361  11.814  1.00  0.00    -0.206 F 
ATOM     73  C   UNL     1      -9.476  -1.194  15.371  1.00  0.00     0.060 A 
BRANCH  73  74
ATOM     74  S   UNL     1      -9.823  -2.135  16.871  1.00  0.00     0.124 S 
ATOM     75  O   UNL     1      -8.521  -2.735  17.146  1.00  0.00    -0.237 OA
ATOM     76  O   UNL     1     -10.249  -1.094  17.801  1.00  0.00    -0.237 OA
ATOM     77  O   UNL     1     -10.867  -3.067  16.456  1.00  0.00    -0.744 OA
ENDBRANCH  73  74
ENDBRANCH  52  66
BRANCH  53  78
ATOM     78  C   UNL     1      -5.880   4.548   4.520  1.00  0.00     0.058 A 
ATOM     79  C   UNL     1      -5.898   5.933   4.303  1.00  0.00     0.135 A 
ATOM     80  C   UNL     1      -5.384   3.732   3.490  1.00  0.00     0.135 A 
ATOM     81  F   UNL     1      -6.378   6.754   5.249  1.00  0.00    -0.206 F 
ATOM     82  C   UNL     1      -5.430   6.490   3.117  1.00  0.00     0.059 A 
ATOM     83  C   UNL     1      -4.886   4.267   2.306  1.00  0.00     0.059 A 
ATOM     84  F   UNL     1      -5.342   2.400   3.650  1.00  0.00    -0.206 F 
ATOM     85  C   UNL     1      -4.911   5.649   2.130  1.00  0.00     0.060 A 
BRANCH  85  86
ATOM     86  S   UNL     1      -4.211   6.393   0.640  1.00  0.00     0.124 S 
ATOM     87  O   UNL     1      -5.405   6.896  -0.029  1.00  0.00    -0.237 OA
ATOM     88  O   UNL     1      -3.318   7.404   1.199  1.00  0.00    -0.237 OA
ATOM     89  O   UNL     1      -3.544   5.272  -0.015  1.00  0.00    -0.744 OA
ENDBRANCH  85  86
ENDBRANCH  53  78
BRANCH  65  90
ATOM     90  C   UNL     1     -12.073   3.884   7.714  1.00  0.00     0.058 A 
ATOM     91  C   UNL     1     -12.807   3.300   6.669  1.00  0.00     0.135 A 
ATOM     92  C   UNL     1     -12.705   4.881   8.476  1.00  0.00     0.135 A 
ATOM     93  F   UNL     1     -12.253   2.346   5.904  1.00  0.00    -0.206 F 
ATOM     94  C   UNL     1     -14.107   3.705   6.377  1.00  0.00     0.059 A 
ATOM     95  C   UNL     1     -14.015   5.279   8.223  1.00  0.00     0.059 A 
ATOM     96  F   UNL     1     -12.056   5.467   9.495  1.00  0.00    -0.206 F 
ATOM     97  C   UNL     1     -14.704   4.693   7.163  1.00  0.00     0.060 A 
BRANCH  97  98
ATOM     98  S   UNL     1     -16.402   5.184   6.795  1.00  0.00     0.124 S 
ATOM     99  O   UNL     1     -16.231   5.923   5.548  1.00  0.00    -0.237 OA
ATOM    100  O   UNL     1     -17.081   3.897   6.682  1.00  0.00    -0.237 OA
ATOM    101  O   UNL     1     -16.783   5.989   7.952  1.00  0.00    -0.744 OA
ENDBRANCH  97  98
ENDBRANCH  65  90
ENDBRANCH  39  40
ENDBRANCH  32  34
ENDBRANCH  31  32
ENDBRANCH  30  31
ENDBRANCH  29  30
ENDBRANCH  28  29
ENDBRANCH  27  28
ENDBRANCH  26  27
ENDBRANCH   1  26
TORSDOF 26
