REMARK SMILES Cc1cc(OC(F)(F)F)cc2c1O[C@H](C(F)(F)F)C(C(=O)OCCOCCOCCOCCOC(=O)c1ccc(-c3c4nc(c(-c5c(F)cc(S(=O)(=O)[O-])cc5F)c5ccc([nH]5)c(-c5c(F)cc(S(=O)(=O)[O-])cc5F)c5nc(c(-c6c(F)cc(S(=O)(=O)[O-])cc6F)c6ccc3[nH]6)C=C5)C=C4)cc1)=C2
REMARK SMILES IDX 29 1 28 2 27 3 26 4 25 5 24 6 23 7 22 8 20 9 21 10 19 11
REMARK SMILES IDX 1 12 2 13 3 14 12 15 4 16 11 17 13 18 10 19 103 20 14 21
REMARK SMILES IDX 5 22 6 23 7 24 8 25 9 26 15 27 16 28 17 29 18 30 30 31 31 32
REMARK SMILES IDX 32 33 33 34 34 35 35 36 36 37 37 38 38 39 102 40 39 41
REMARK SMILES IDX 101 42 40 43 41 44 42 45 95 46 43 47 100 48 94 49 96 50
REMARK SMILES IDX 44 51 99 52 93 53 92 54 45 56 79 57 58 58 78 59 59 60 62 61
REMARK SMILES IDX 77 62 97 63 60 64 61 65 76 67 98 68 63 69 46 70 47 71 56 72
REMARK SMILES IDX 48 73 49 74 55 75 57 76 50 77 51 78 52 79 53 80 54 81 80 82
REMARK SMILES IDX 81 83 90 84 82 85 83 86 89 87 91 88 84 89 85 90 86 91 87 92
REMARK SMILES IDX 88 93 64 94 65 95 74 96 66 97 67 98 73 99 75 100 68 101
REMARK SMILES IDX 69 102 70 103 71 104 72 105
REMARK H PARENT 96 55 62 66
REMARK Flexibility Score: inf
ROOT
ATOM      1  C   UNL     1       6.112  -6.994  -1.177  1.00  0.00     0.188 C 
ENDROOT
BRANCH   1   2
ATOM      2  O   UNL     1       4.847  -6.335  -1.202  1.00  0.00    -0.377 OA
BRANCH   2   3
ATOM      3  C   UNL     1       4.132  -6.255   0.019  1.00  0.00     0.188 C 
BRANCH   3   4
ATOM      4  C   UNL     1       3.235  -7.483   0.266  1.00  0.00     0.188 C 
BRANCH   4   5
ATOM      5  O   UNL     1       3.568  -8.644  -0.468  1.00  0.00    -0.376 OA
BRANCH   5   6
ATOM      6  C   UNL     1       3.224  -8.825  -1.833  1.00  0.00     0.202 C 
BRANCH   6   7
ATOM      7  C   UNL     1       2.771  -7.742  -2.833  1.00  0.00     0.261 C 
BRANCH   7   8
ATOM      8  O   UNL     1       2.409  -6.464  -2.321  1.00  0.00    -0.460 OA
BRANCH   8   9
ATOM      9  C   UNL     1       1.155  -6.312  -1.865  1.00  0.00     0.338 C 
ATOM     10  O   UNL     1       0.272  -7.151  -1.849  1.00  0.00    -0.246 OA
BRANCH   9  11
ATOM     11  C   UNL     1       1.083  -4.992  -1.204  1.00  0.00     0.087 C 
ATOM     12  C   UNL     1       1.130  -0.014  -0.082  1.00  0.00     0.048 C 
ATOM     13  C   UNL     1       0.655  -1.262   0.611  1.00  0.00    -0.005 A 
ATOM     14  C   UNL     1      -0.055  -1.171   1.821  1.00  0.00     0.054 A 
ATOM     15  C   UNL     1       0.888  -2.523   0.042  1.00  0.00     0.131 A 
ATOM     16  C   UNL     1      -0.515  -2.321   2.464  1.00  0.00     0.130 A 
ATOM     17  C   UNL     1       0.390  -3.671   0.659  1.00  0.00     0.021 A 
ATOM     18  O   UNL     1       1.602  -2.552  -1.122  1.00  0.00    -0.475 OA
ATOM     19  C   UNL     1      -0.275  -3.569   1.885  1.00  0.00     0.058 A 
ATOM     20  C   UNL     1       0.492  -4.956  -0.004  1.00  0.00     0.027 C 
ATOM     21  C   UNL     1       1.731  -3.798  -1.858  1.00  0.00     0.316 C 
BRANCH  16  22
ATOM     22  O   UNL     1      -1.212  -2.373   3.637  1.00  0.00    -0.406 OA
BRANCH  22  23
ATOM     23  C   UNL     1      -1.757  -1.162   4.130  1.00  0.00     0.573 C 
ATOM     24  F   UNL     1      -0.782  -0.309   4.509  1.00  0.00    -0.132 F 
ATOM     25  F   UNL     1      -2.547  -0.568   3.211  1.00  0.00    -0.132 F 
ATOM     26  F   UNL     1      -2.514  -1.441   5.215  1.00  0.00    -0.132 F 
ENDBRANCH  22  23
ENDBRANCH  16  22
BRANCH  21  27
ATOM     27  C   UNL     1       1.207  -3.567  -3.281  1.00  0.00     0.430 C 
ATOM     28  F   UNL     1       1.724  -2.438  -3.819  1.00  0.00    -0.167 F 
ATOM     29  F   UNL     1       1.527  -4.585  -4.111  1.00  0.00    -0.167 F 
ATOM     30  F   UNL     1      -0.142  -3.442  -3.296  1.00  0.00    -0.167 F 
ENDBRANCH  21  27
ENDBRANCH   9  11
ENDBRANCH   8   9
ENDBRANCH   7   8
ENDBRANCH   6   7
ENDBRANCH   5   6
ENDBRANCH   4   5
ENDBRANCH   3   4
ENDBRANCH   2   3
ENDBRANCH   1   2
BRANCH   1  31
ATOM     31  C   UNL     1       6.394  -8.127  -0.161  1.00  0.00     0.188 C 
BRANCH  31  32
ATOM     32  O   UNL     1       5.967  -7.836   1.165  1.00  0.00    -0.376 OA
BRANCH  32  33
ATOM     33  C   UNL     1       6.952  -7.512   2.130  1.00  0.00     0.202 C 
BRANCH  33  34
ATOM     34  C   UNL     1       7.662  -6.162   1.955  1.00  0.00     0.261 C 
BRANCH  34  35
ATOM     35  O   UNL     1       8.312  -5.951   0.695  1.00  0.00    -0.460 OA
BRANCH  35  36
ATOM     36  C   UNL     1       9.336  -6.771   0.374  1.00  0.00     0.338 C 
ATOM     37  O   UNL     1       9.795  -7.675   1.050  1.00  0.00    -0.246 OA
BRANCH  36  38
ATOM     38  C   UNL     1       9.688  -6.495  -1.033  1.00  0.00     0.060 A 
ATOM     39  C   UNL     1       9.481  -7.484  -2.003  1.00  0.00     0.016 A 
ATOM     40  C   UNL     1      10.210  -5.249  -1.388  1.00  0.00     0.016 A 
ATOM     41  C   UNL     1       9.817  -7.236  -3.334  1.00  0.00     0.010 A 
ATOM     42  C   UNL     1      10.581  -5.015  -2.713  1.00  0.00     0.010 A 
ATOM     43  C   UNL     1      10.416  -6.019  -3.683  1.00  0.00    -0.014 A 
BRANCH  43  44
ATOM     44  C   UNL     1      11.101  -5.888  -4.990  1.00  0.00     0.031 A 
ATOM     45  C   UNL     1      12.555  -6.270  -5.054  1.00  0.00     0.074 A 
ATOM     46  C   UNL     1      10.460  -5.451  -6.088  1.00  0.00     0.049 A 
ATOM     47  N   UNL     1      13.391  -6.189  -6.054  1.00  0.00    -0.248 NA
ATOM     48  C   UNL     1      13.143  -6.819  -3.819  1.00  0.00     0.031 C 
ATOM     49  C   UNL     1       9.043  -5.101  -6.159  1.00  0.00     0.029 A 
ATOM     50  N   UNL     1      10.929  -5.217  -7.356  1.00  0.00    -0.354 N 
ATOM     51  C   UNL     1      14.599  -6.681  -5.573  1.00  0.00     0.074 A 
ATOM     52  C   UNL     1      14.399  -7.028  -4.184  1.00  0.00     0.031 C 
ATOM     53  C   UNL     1       8.761  -4.680  -7.405  1.00  0.00     0.029 A 
ATOM     54  C   UNL     1       9.983  -4.700  -8.209  1.00  0.00     0.049 A 
ATOM     55  H   UNL     1      11.857  -5.402  -7.630  1.00  0.00     0.167 HD
ATOM     56  C   UNL     1      15.769  -6.836  -6.233  1.00  0.00     0.037 A 
ATOM     57  C   UNL     1      10.102  -4.272  -9.483  1.00  0.00     0.037 A 
ATOM     58  C   UNL     1      15.967  -6.470  -7.609  1.00  0.00     0.049 A 
ATOM     59  C   UNL     1      11.444  -4.362 -10.169  1.00  0.00     0.074 A 
ATOM     60  C   UNL     1      17.116  -6.587  -8.371  1.00  0.00     0.029 A 
ATOM     61  N   UNL     1      14.998  -5.908  -8.427  1.00  0.00    -0.354 N 
ATOM     62  N   UNL     1      12.576  -4.844  -9.711  1.00  0.00    -0.248 NA
ATOM     63  C   UNL     1      11.526  -3.849 -11.545  1.00  0.00     0.031 C 
ATOM     64  C   UNL     1      16.858  -6.042  -9.632  1.00  0.00     0.029 A 
ATOM     65  C   UNL     1      15.531  -5.644  -9.676  1.00  0.00     0.049 A 
ATOM     66  H   UNL     1      14.069  -5.723  -8.158  1.00  0.00     0.167 HD
ATOM     67  C   UNL     1      13.495  -4.717 -10.749  1.00  0.00     0.074 A 
ATOM     68  C   UNL     1      12.784  -4.125 -11.863  1.00  0.00     0.031 C 
ATOM     69  C   UNL     1      14.807  -5.059 -10.778  1.00  0.00     0.037 A 
BRANCH  56  70
ATOM     70  C   UNL     1      16.931  -7.408  -5.473  1.00  0.00     0.058 A 
ATOM     71  C   UNL     1      16.976  -8.763  -5.109  1.00  0.00     0.135 A 
ATOM     72  C   UNL     1      18.038  -6.606  -5.154  1.00  0.00     0.135 A 
ATOM     73  F   UNL     1      15.932  -9.568  -5.365  1.00  0.00    -0.206 F 
ATOM     74  C   UNL     1      18.076  -9.302  -4.451  1.00  0.00     0.059 A 
ATOM     75  C   UNL     1      19.161  -7.129  -4.521  1.00  0.00     0.059 A 
ATOM     76  F   UNL     1      18.040  -5.301  -5.469  1.00  0.00    -0.206 F 
ATOM     77  C   UNL     1      19.168  -8.478  -4.170  1.00  0.00     0.060 A 
BRANCH  77  78
ATOM     78  S   UNL     1      20.602  -9.206  -3.350  1.00  0.00     0.124 S 
ATOM     79  O   UNL     1      20.063  -9.502  -2.026  1.00  0.00    -0.237 OA
ATOM     80  O   UNL     1      20.884 -10.363  -4.193  1.00  0.00    -0.237 OA
ATOM     81  O   UNL     1      21.598  -8.140  -3.395  1.00  0.00    -0.744 OA
ENDBRANCH  77  78
ENDBRANCH  56  70
BRANCH  57  82
ATOM     82  C   UNL     1       8.921  -3.712 -10.196  1.00  0.00     0.058 A 
ATOM     83  C   UNL     1       8.342  -4.388 -11.280  1.00  0.00     0.135 A 
ATOM     84  C   UNL     1       8.349  -2.488  -9.812  1.00  0.00     0.135 A 
ATOM     85  F   UNL     1       8.861  -5.553 -11.698  1.00  0.00    -0.206 F 
ATOM     86  C   UNL     1       7.246  -3.870 -11.963  1.00  0.00     0.059 A 
ATOM     87  C   UNL     1       7.236  -1.963 -10.462  1.00  0.00     0.059 A 
ATOM     88  F   UNL     1       8.861  -1.801  -8.779  1.00  0.00    -0.206 F 
ATOM     89  C   UNL     1       6.696  -2.658 -11.542  1.00  0.00     0.060 A 
BRANCH  89  90
ATOM     90  S   UNL     1       5.242  -2.024 -12.407  1.00  0.00     0.124 S 
ATOM     91  O   UNL     1       5.801  -1.679 -13.709  1.00  0.00    -0.237 OA
ATOM     92  O   UNL     1       4.348  -3.177 -12.380  1.00  0.00    -0.237 OA
ATOM     93  O   UNL     1       4.825  -0.895 -11.581  1.00  0.00    -0.744 OA
ENDBRANCH  89  90
ENDBRANCH  57  82
BRANCH  69  94
ATOM     94  C   UNL     1      15.567  -4.832 -12.058  1.00  0.00     0.058 A 
ATOM     95  C   UNL     1      15.923  -3.543 -12.485  1.00  0.00     0.135 A 
ATOM     96  C   UNL     1      16.021  -5.922 -12.819  1.00  0.00     0.135 A 
ATOM     97  F   UNL     1      15.514  -2.466 -11.796  1.00  0.00    -0.206 F 
ATOM     98  C   UNL     1      16.686  -3.342 -13.631  1.00  0.00     0.059 A 
ATOM     99  C   UNL     1      16.812  -5.746 -13.950  1.00  0.00     0.059 A 
ATOM    100  F   UNL     1      15.723  -7.178 -12.448  1.00  0.00    -0.206 F 
ATOM    101  C   UNL     1      17.132  -4.451 -14.353  1.00  0.00     0.060 A 
BRANCH 101 102
ATOM    102  S   UNL     1      18.157  -4.173 -15.813  1.00  0.00     0.124 S 
ATOM    103  O   UNL     1      17.197  -3.581 -16.739  1.00  0.00    -0.237 OA
ATOM    104  O   UNL     1      19.184  -3.270 -15.303  1.00  0.00    -0.237 OA
ATOM    105  O   UNL     1      18.623  -5.511 -16.164  1.00  0.00    -0.744 OA
ENDBRANCH 101 102
ENDBRANCH  69  94
ENDBRANCH  43  44
ENDBRANCH  36  38
ENDBRANCH  35  36
ENDBRANCH  34  35
ENDBRANCH  33  34
ENDBRANCH  32  33
ENDBRANCH  31  32
ENDBRANCH   1  31
TORSDOF 26
