REMARK SMILES CC[C@]1(C(=O)OCCOCCOCCOCCOC(=O)c2ccc(-c3c4nc(c(-c5c(F)cc(S(=O)(=O)[O-])cc5F)c5ccc([nH]5)c(-c5c(F)cc(S(=O)(=O)[O-])cc5F)c5nc(c(-c6c(F)cc(S(=O)(=O)[O-])cc6F)c6ccc3[nH]6)C=C5)C=C4)cc2)CC[N@@H+](Cc2nc(C)ccc2O)C1
REMARK SMILES IDX 12 1 11 2 10 3 9 4 8 5 7 6 6 7 4 8 5 9 3 10 87 11 99 12
REMARK SMILES IDX 88 13 89 14 2 16 1 17 90 18 91 19 92 20 97 21 93 22 96 23
REMARK SMILES IDX 94 24 95 25 98 26 13 28 14 29 15 30 16 31 17 32 18 33 19 34
REMARK SMILES IDX 20 35 21 36 22 37 86 38 23 39 85 40 24 41 25 42 26 43 79 44
REMARK SMILES IDX 27 45 84 46 78 47 80 48 28 49 83 50 77 51 76 52 29 54 63 55
REMARK SMILES IDX 42 56 62 57 43 58 46 59 61 60 81 61 44 62 45 63 60 65 82 66
REMARK SMILES IDX 47 67 30 68 31 69 40 70 32 71 33 72 39 73 41 74 34 75 35 76
REMARK SMILES IDX 36 77 37 78 38 79 64 80 65 81 74 82 66 83 67 84 73 85 75 86
REMARK SMILES IDX 68 87 69 88 70 89 71 90 72 91 48 92 49 93 58 94 50 95 51 96
REMARK SMILES IDX 57 97 59 98 52 99 53 100 54 101 55 102 56 103
REMARK H PARENT 89 15 98 27 80 53 46 64
REMARK Flexibility Score: inf
ROOT
ATOM      1  O   UNL     1       2.872   3.365  -3.822  1.00  0.00    -0.377 OA
ENDROOT
BRANCH   1   2
ATOM      2  C   UNL     1       2.449   3.545  -2.481  1.00  0.00     0.188 C 
BRANCH   2   3
ATOM      3  C   UNL     1       3.378   3.136  -1.328  1.00  0.00     0.188 C 
BRANCH   3   4
ATOM      4  O   UNL     1       4.739   3.070  -1.690  1.00  0.00    -0.376 OA
BRANCH   4   5
ATOM      5  C   UNL     1       5.316   1.809  -1.972  1.00  0.00     0.202 C 
BRANCH   5   6
ATOM      6  C   UNL     1       4.535   0.636  -2.596  1.00  0.00     0.261 C 
BRANCH   6   7
ATOM      7  O   UNL     1       3.112   0.784  -2.715  1.00  0.00    -0.463 OA
BRANCH   7   8
ATOM      8  C   UNL     1       2.350  -0.151  -2.104  1.00  0.00     0.318 C 
ATOM      9  O   UNL     1       2.823  -1.052  -1.415  1.00  0.00    -0.251 OA
BRANCH   8  10
ATOM     10  C   UNL     1       0.835   0.033  -2.277  1.00  0.00     0.122 C 
ATOM     11  C   UNL     1       0.299   1.018  -3.337  1.00  0.00     0.086 C 
ATOM     12  C   UNL     1       0.312  -1.327  -2.804  1.00  0.00     0.281 C 
ATOM     13  C   UNL     1      -0.896   0.312  -3.957  1.00  0.00     0.264 C 
ATOM     14  N   UNL     1      -0.512  -1.090  -4.003  1.00  0.00    -0.329 N 
ATOM     15  H   UNL     1      -1.325  -1.706  -3.980  1.00  0.00     0.348 HD
BRANCH  10  16
ATOM     16  C   UNL     1       0.225   0.494  -0.920  1.00  0.00     0.021 C 
ATOM     17  C   UNL     1       0.567  -0.312   0.324  1.00  0.00     0.005 C 
ENDBRANCH  10  16
BRANCH  14  18
ATOM     18  C   UNL     1       0.131  -1.466  -5.294  1.00  0.00     0.323 C 
BRANCH  18  19
ATOM     19  C   UNL     1       1.190  -0.553  -5.903  1.00  0.00     0.136 A 
ATOM     20  N   UNL     1       0.745   0.451  -6.720  1.00  0.00    -0.248 NA
ATOM     21  C   UNL     1       2.544  -0.714  -5.616  1.00  0.00     0.142 A 
ATOM     22  C   UNL     1       1.655   1.313  -7.237  1.00  0.00     0.038 A 
ATOM     23  C   UNL     1       3.464   0.177  -6.159  1.00  0.00     0.050 A 
ATOM     24  C   UNL     1       1.155   2.368  -8.181  1.00  0.00     0.067 C 
ATOM     25  C   UNL     1       3.014   1.209  -6.974  1.00  0.00     0.027 A 
BRANCH  21  26
ATOM     26  O   UNL     1       2.964  -1.714  -4.789  1.00  0.00    -0.506 OA
ATOM     27  H   UNL     1       2.342  -2.312  -4.425  1.00  0.00     0.293 HD
ENDBRANCH  21  26
ENDBRANCH  18  19
ENDBRANCH  14  18
ENDBRANCH   8  10
ENDBRANCH   7   8
ENDBRANCH   6   7
ENDBRANCH   5   6
ENDBRANCH   4   5
ENDBRANCH   3   4
ENDBRANCH   2   3
ENDBRANCH   1   2
BRANCH   1  28
ATOM     28  C   UNL     1       4.082   3.963  -4.271  1.00  0.00     0.188 C 
BRANCH  28  29
ATOM     29  C   UNL     1       4.646   5.223  -3.579  1.00  0.00     0.188 C 
BRANCH  29  30
ATOM     30  O   UNL     1       3.761   5.868  -2.679  1.00  0.00    -0.376 OA
BRANCH  30  31
ATOM     31  C   UNL     1       3.034   6.987  -3.165  1.00  0.00     0.202 C 
BRANCH  31  32
ATOM     32  C   UNL     1       2.075   6.758  -4.344  1.00  0.00     0.261 C 
BRANCH  32  33
ATOM     33  O   UNL     1       2.664   6.273  -5.561  1.00  0.00    -0.460 OA
BRANCH  33  34
ATOM     34  C   UNL     1       3.621   7.030  -6.141  1.00  0.00     0.338 C 
ATOM     35  O   UNL     1       4.056   8.095  -5.755  1.00  0.00    -0.246 OA
BRANCH  34  36
ATOM     36  C   UNL     1       4.172   6.249  -7.266  1.00  0.00     0.060 A 
ATOM     37  C   UNL     1       5.495   5.791  -7.205  1.00  0.00     0.016 A 
ATOM     38  C   UNL     1       3.376   5.978  -8.379  1.00  0.00     0.016 A 
ATOM     39  C   UNL     1       6.034   5.076  -8.276  1.00  0.00     0.010 A 
ATOM     40  C   UNL     1       3.924   5.281  -9.458  1.00  0.00     0.010 A 
ATOM     41  C   UNL     1       5.263   4.852  -9.424  1.00  0.00    -0.014 A 
BRANCH  41  42
ATOM     42  C   UNL     1       5.896   4.343 -10.665  1.00  0.00     0.031 A 
ATOM     43  C   UNL     1       6.282   5.338 -11.725  1.00  0.00     0.074 A 
ATOM     44  C   UNL     1       6.106   3.028 -10.860  1.00  0.00     0.049 A 
ATOM     45  N   UNL     1       6.750   5.130 -12.927  1.00  0.00    -0.248 NA
ATOM     46  C   UNL     1       6.116   6.761 -11.380  1.00  0.00     0.031 C 
ATOM     47  C   UNL     1       5.826   1.975  -9.887  1.00  0.00     0.029 A 
ATOM     48  N   UNL     1       6.588   2.353 -11.954  1.00  0.00    -0.354 N 
ATOM     49  C   UNL     1       6.915   6.390 -13.490  1.00  0.00     0.074 A 
ATOM     50  C   UNL     1       6.483   7.357 -12.505  1.00  0.00     0.031 C 
ATOM     51  C   UNL     1       6.112   0.782 -10.437  1.00  0.00     0.029 A 
ATOM     52  C   UNL     1       6.567   0.985 -11.812  1.00  0.00     0.049 A 
ATOM     53  H   UNL     1       6.917   2.806 -12.764  1.00  0.00     0.167 HD
ATOM     54  C   UNL     1       7.387   6.709 -14.717  1.00  0.00     0.037 A 
ATOM     55  C   UNL     1       6.856   0.012 -12.700  1.00  0.00     0.037 A 
ATOM     56  C   UNL     1       7.821   5.740 -15.688  1.00  0.00     0.049 A 
ATOM     57  C   UNL     1       7.301   0.393 -14.090  1.00  0.00     0.074 A 
ATOM     58  C   UNL     1       8.354   5.965 -16.945  1.00  0.00     0.029 A 
ATOM     59  N   UNL     1       7.759   4.365 -15.519  1.00  0.00    -0.354 N 
ATOM     60  N   UNL     1       7.496   1.589 -14.596  1.00  0.00    -0.248 NA
ATOM     61  C   UNL     1       7.564  -0.705 -15.033  1.00  0.00     0.031 C 
ATOM     62  C   UNL     1       8.554   4.726 -17.561  1.00  0.00     0.029 A 
ATOM     63  C   UNL     1       8.206   3.728 -16.664  1.00  0.00     0.049 A 
ATOM     64  H   UNL     1       7.443   3.909 -14.705  1.00  0.00     0.167 HD
ATOM     65  C   UNL     1       7.933   1.384 -15.902  1.00  0.00     0.074 A 
ATOM     66  C   UNL     1       7.984  -0.049 -16.105  1.00  0.00     0.031 C 
ATOM     67  C   UNL     1       8.265   2.299 -16.846  1.00  0.00     0.037 A 
BRANCH  54  68
ATOM     68  C   UNL     1       7.425   8.162 -15.099  1.00  0.00     0.058 A 
ATOM     69  C   UNL     1       8.347   9.056 -14.535  1.00  0.00     0.135 A 
ATOM     70  C   UNL     1       6.553   8.654 -16.085  1.00  0.00     0.135 A 
ATOM     71  F   UNL     1       9.189   8.644 -13.573  1.00  0.00    -0.206 F 
ATOM     72  C   UNL     1       8.394  10.392 -14.923  1.00  0.00     0.059 A 
ATOM     73  C   UNL     1       6.601   9.978 -16.508  1.00  0.00     0.059 A 
ATOM     74  F   UNL     1       5.646   7.843 -16.651  1.00  0.00    -0.206 F 
ATOM     75  C   UNL     1       7.519  10.842 -15.914  1.00  0.00     0.060 A 
BRANCH  75  76
ATOM     76  S   UNL     1       7.610  12.572 -16.422  1.00  0.00     0.124 S 
ATOM     77  O   UNL     1       7.062  13.248 -15.250  1.00  0.00    -0.237 OA
ATOM     78  O   UNL     1       9.040  12.754 -16.647  1.00  0.00    -0.237 OA
ATOM     79  O   UNL     1       6.777  12.620 -17.619  1.00  0.00    -0.744 OA
ENDBRANCH  75  76
ENDBRANCH  54  68
BRANCH  55  80
ATOM     80  C   UNL     1       6.721  -1.421 -12.318  1.00  0.00     0.058 A 
ATOM     81  C   UNL     1       7.846  -2.253 -12.225  1.00  0.00     0.135 A 
ATOM     82  C   UNL     1       5.464  -1.994 -12.065  1.00  0.00     0.135 A 
ATOM     83  F   UNL     1       9.069  -1.757 -12.469  1.00  0.00    -0.206 F 
ATOM     84  C   UNL     1       7.731  -3.605 -11.916  1.00  0.00     0.059 A 
ATOM     85  C   UNL     1       5.326  -3.337 -11.726  1.00  0.00     0.059 A 
ATOM     86  F   UNL     1       4.355  -1.241 -12.132  1.00  0.00    -0.206 F 
ATOM     87  C   UNL     1       6.466  -4.138 -11.667  1.00  0.00     0.060 A 
BRANCH  87  88
ATOM     88  S   UNL     1       6.336  -5.886 -11.233  1.00  0.00     0.124 S 
ATOM     89  O   UNL     1       6.642  -6.528 -12.505  1.00  0.00    -0.237 OA
ATOM     90  O   UNL     1       7.351  -6.015 -10.191  1.00  0.00    -0.237 OA
ATOM     91  O   UNL     1       4.957  -6.016 -10.773  1.00  0.00    -0.744 OA
ENDBRANCH  87  88
ENDBRANCH  55  80
BRANCH  67  92
ATOM     92  C   UNL     1       8.752   1.791 -18.177  1.00  0.00     0.058 A 
ATOM     93  C   UNL     1       7.881   1.203 -19.107  1.00  0.00     0.135 A 
ATOM     94  C   UNL     1      10.091   1.974 -18.559  1.00  0.00     0.135 A 
ATOM     95  F   UNL     1       6.593   0.997 -18.791  1.00  0.00    -0.206 F 
ATOM     96  C   UNL     1       8.324   0.802 -20.364  1.00  0.00     0.059 A 
ATOM     97  C   UNL     1      10.549   1.610 -19.821  1.00  0.00     0.059 A 
ATOM     98  F   UNL     1      10.964   2.542 -17.711  1.00  0.00    -0.206 F 
ATOM     99  C   UNL     1       9.659   1.018 -20.715  1.00  0.00     0.060 A 
BRANCH  99 100
ATOM    100  S   UNL     1      10.204   0.549 -22.371  1.00  0.00     0.124 S 
ATOM    101  O   UNL     1      10.207  -0.907 -22.278  1.00  0.00    -0.237 OA
ATOM    102  O   UNL     1       9.165   1.128 -23.216  1.00  0.00    -0.237 OA
ATOM    103  O   UNL     1      11.518   1.173 -22.487  1.00  0.00    -0.744 OA
ENDBRANCH  99 100
ENDBRANCH  67  92
ENDBRANCH  41  42
ENDBRANCH  34  36
ENDBRANCH  33  34
ENDBRANCH  32  33
ENDBRANCH  31  32
ENDBRANCH  30  31
ENDBRANCH  29  30
ENDBRANCH  28  29
ENDBRANCH   1  28
TORSDOF 27
