REMARK SMILES O=C(OCCOCCOCCOCCOC(=O)c1ccc(-c2c3nc(c(-c4c(F)cc(S(=O)(=O)[O-])cc4F)c4ccc([nH]4)c(-c4c(F)cc(S(=O)(=O)[O-])cc4F)c4nc(c(-c5c(F)cc(S(=O)(=O)[O-])cc5F)c5ccc2[nH]5)C=C4)C=C3)cc1)C1=Cc2ccc(Cl)c(Cl)c2O[C@@H]1C(F)(F)F
REMARK SMILES IDX 10 1 9 2 8 3 7 4 6 5 5 6 4 7 3 8 2 9 1 10 84 11 85 12 95 13
REMARK SMILES IDX 86 14 94 15 87 16 93 17 88 18 91 19 89 20 92 21 90 22 96 23
REMARK SMILES IDX 97 24 98 25 99 26 11 27 12 28 13 29 14 30 15 31 16 32 17 33
REMARK SMILES IDX 18 34 19 35 83 36 20 37 82 38 21 39 22 40 23 41 76 42 24 43
REMARK SMILES IDX 81 44 75 45 77 46 25 47 80 48 74 49 73 50 26 52 60 53 39 54
REMARK SMILES IDX 59 55 40 56 43 57 58 58 78 59 41 60 42 61 57 63 79 64 44 65
REMARK SMILES IDX 27 66 28 67 37 68 29 69 30 70 36 71 38 72 31 73 32 74 33 75
REMARK SMILES IDX 34 76 35 77 61 78 62 79 71 80 63 81 64 82 70 83 72 84 65 85
REMARK SMILES IDX 66 86 67 87 68 88 69 89 45 90 46 91 55 92 47 93 48 94 54 95
REMARK SMILES IDX 56 96 49 97 50 98 51 99 52 100 53 101
REMARK H PARENT 77 51 43 62
REMARK Flexibility Score: inf
ROOT
ATOM      1  C   UNL     1       4.390   2.916   2.171  1.00  0.00     0.188 C 
ENDROOT
BRANCH   1   2
ATOM      2  O   UNL     1       3.045   3.139   2.527  1.00  0.00    -0.377 OA
BRANCH   2   3
ATOM      3  C   UNL     1       2.153   2.327   1.796  1.00  0.00     0.188 C 
BRANCH   3   4
ATOM      4  C   UNL     1       2.301   0.825   2.058  1.00  0.00     0.188 C 
BRANCH   4   5
ATOM      5  O   UNL     1       3.545   0.090   1.878  1.00  0.00    -0.376 OA
BRANCH   5   6
ATOM      6  C   UNL     1       4.291  -0.577   0.609  1.00  0.00     0.202 C 
BRANCH   6   7
ATOM      7  C   UNL     1       3.593  -0.838  -1.438  1.00  0.00     0.261 C 
BRANCH   7   8
ATOM      8  O   UNL     1       2.858  -2.081  -1.997  1.00  0.00    -0.460 OA
BRANCH   8   9
ATOM      9  C   UNL     1       3.155  -3.209  -1.342  1.00  0.00     0.338 C 
ATOM     10  O   UNL     1       2.712  -4.322  -1.457  1.00  0.00    -0.246 OA
BRANCH   9  11
ATOM     11  C   UNL     1       3.878  -2.558  -0.281  1.00  0.00     0.087 C 
ATOM     12  C   UNL     1       5.245  -2.179  -0.722  1.00  0.00     0.027 C 
ATOM     13  C   UNL     1       2.483  -1.306   0.204  1.00  0.00     0.316 C 
ATOM     14  C   UNL     1       5.758  -0.469  -1.029  1.00  0.00     0.019 A 
ATOM     15  O   UNL     1       2.991   0.515  -0.216  1.00  0.00    -0.474 OA
ATOM     16  C   UNL     1       7.022  -0.223  -1.493  1.00  0.00     0.013 A 
ATOM     17  C   UNL     1       4.655   0.865  -0.888  1.00  0.00     0.148 A 
ATOM     18  C   UNL     1       7.298   1.128  -1.783  1.00  0.00     0.023 A 
ATOM     19  C   UNL     1       5.004   2.147  -1.244  1.00  0.00     0.102 A 
ATOM     20  C   UNL     1       6.358   2.244  -1.667  1.00  0.00     0.063 A 
ATOM     21  Cl  UNL     1       3.921   3.465  -1.246  1.00  0.00    -0.079 Cl
ATOM     22  Cl  UNL     1       7.041   3.792  -2.090  1.00  0.00    -0.083 Cl
BRANCH  13  23
ATOM     23  C   UNL     1       2.035  -1.984   1.596  1.00  0.00     0.430 C 
ATOM     24  F   UNL     1       1.042  -1.386   2.277  1.00  0.00    -0.167 F 
ATOM     25  F   UNL     1       1.534  -3.220   1.282  1.00  0.00    -0.167 F 
ATOM     26  F   UNL     1       3.049  -2.244   2.454  1.00  0.00    -0.167 F 
ENDBRANCH  13  23
ENDBRANCH   9  11
ENDBRANCH   8   9
ENDBRANCH   7   8
ENDBRANCH   6   7
ENDBRANCH   5   6
ENDBRANCH   4   5
ENDBRANCH   3   4
ENDBRANCH   2   3
ENDBRANCH   1   2
BRANCH   1  27
ATOM     27  C   UNL     1       5.310   2.476   3.312  1.00  0.00     0.188 C 
BRANCH  27  28
ATOM     28  O   UNL     1       4.806   1.885   4.500  1.00  0.00    -0.376 OA
BRANCH  28  29
ATOM     29  C   UNL     1       3.608   2.353   5.103  1.00  0.00     0.202 C 
BRANCH  29  30
ATOM     30  C   UNL     1       3.468   3.814   5.562  1.00  0.00     0.261 C 
BRANCH  30  31
ATOM     31  O   UNL     1       3.652   4.803   4.541  1.00  0.00    -0.460 OA
BRANCH  31  32
ATOM     32  C   UNL     1       4.882   5.359   4.480  1.00  0.00     0.338 C 
ATOM     33  O   UNL     1       5.818   5.153   5.236  1.00  0.00    -0.246 OA
BRANCH  32  34
ATOM     34  C   UNL     1       5.012   6.140   3.231  1.00  0.00     0.060 A 
ATOM     35  C   UNL     1       6.167   5.961   2.451  1.00  0.00     0.016 A 
ATOM     36  C   UNL     1       4.035   7.058   2.846  1.00  0.00     0.016 A 
ATOM     37  C   UNL     1       6.372   6.730   1.307  1.00  0.00     0.010 A 
ATOM     38  C   UNL     1       4.260   7.859   1.726  1.00  0.00     0.010 A 
ATOM     39  C   UNL     1       5.450   7.730   0.985  1.00  0.00    -0.014 A 
BRANCH  39  40
ATOM     40  C   UNL     1       5.846   8.835   0.083  1.00  0.00     0.031 A 
ATOM     41  C   UNL     1       6.386  10.083   0.724  1.00  0.00     0.074 A 
ATOM     42  C   UNL     1       5.693   8.758  -1.248  1.00  0.00     0.049 A 
ATOM     43  N   UNL     1       6.631  11.252   0.198  1.00  0.00    -0.248 NA
ATOM     44  C   UNL     1       6.670   9.998   2.167  1.00  0.00     0.031 C 
ATOM     45  C   UNL     1       5.237   7.581  -1.981  1.00  0.00     0.029 A 
ATOM     46  N   UNL     1       5.874   9.715  -2.215  1.00  0.00    -0.354 N 
ATOM     47  C   UNL     1       7.064  12.052   1.249  1.00  0.00     0.074 A 
ATOM     48  C   UNL     1       7.032  11.239   2.445  1.00  0.00     0.031 C 
ATOM     49  C   UNL     1       5.130   7.898  -3.283  1.00  0.00     0.029 A 
ATOM     50  C   UNL     1       5.465   9.312  -3.462  1.00  0.00     0.049 A 
ATOM     51  H   UNL     1       6.258  10.603  -2.032  1.00  0.00     0.167 HD
ATOM     52  C   UNL     1       7.447  13.349   1.220  1.00  0.00     0.037 A 
ATOM     53  C   UNL     1       5.331  10.019  -4.603  1.00  0.00     0.037 A 
ATOM     54  C   UNL     1       7.456  14.146   0.022  1.00  0.00     0.049 A 
ATOM     55  C   UNL     1       5.696  11.482  -4.611  1.00  0.00     0.074 A 
ATOM     56  C   UNL     1       7.841  15.464  -0.132  1.00  0.00     0.029 A 
ATOM     57  N   UNL     1       7.041  13.700  -1.226  1.00  0.00    -0.354 N 
ATOM     58  N   UNL     1       6.119  12.232  -3.619  1.00  0.00    -0.248 NA
ATOM     59  C   UNL     1       5.570  12.196  -5.889  1.00  0.00     0.031 C 
ATOM     60  C   UNL     1       7.596  15.835  -1.458  1.00  0.00     0.029 A 
ATOM     61  C   UNL     1       7.133  14.726  -2.150  1.00  0.00     0.049 A 
ATOM     62  H   UNL     1       6.727  12.788  -1.424  1.00  0.00     0.167 HD
ATOM     63  C   UNL     1       6.343  13.495  -4.161  1.00  0.00     0.074 A 
ATOM     64  C   UNL     1       6.003  13.408  -5.566  1.00  0.00     0.031 C 
ATOM     65  C   UNL     1       6.802  14.618  -3.552  1.00  0.00     0.037 A 
BRANCH  52  66
ATOM     66  C   UNL     1       7.819  13.990   2.530  1.00  0.00     0.058 A 
ATOM     67  C   UNL     1       8.960  13.607   3.254  1.00  0.00     0.135 A 
ATOM     68  C   UNL     1       7.001  14.988   3.084  1.00  0.00     0.135 A 
ATOM     69  F   UNL     1       9.770  12.645   2.783  1.00  0.00    -0.206 F 
ATOM     70  C   UNL     1       9.247  14.152   4.502  1.00  0.00     0.059 A 
ATOM     71  C   UNL     1       7.289  15.573   4.313  1.00  0.00     0.059 A 
ATOM     72  F   UNL     1       5.896  15.393   2.438  1.00  0.00    -0.206 F 
ATOM     73  C   UNL     1       8.401  15.130   5.026  1.00  0.00     0.060 A 
BRANCH  73  74
ATOM     74  S   UNL     1       8.765  15.802   6.661  1.00  0.00     0.124 S 
ATOM     75  O   UNL     1       8.416  14.676   7.522  1.00  0.00    -0.237 OA
ATOM     76  O   UNL     1      10.189  16.106   6.563  1.00  0.00    -0.237 OA
ATOM     77  O   UNL     1       7.884  16.961   6.758  1.00  0.00    -0.744 OA
ENDBRANCH  73  74
ENDBRANCH  52  66
BRANCH  53  78
ATOM     78  C   UNL     1       4.809   9.343  -5.820  1.00  0.00     0.058 A 
ATOM     79  C   UNL     1       5.646   9.058  -6.907  1.00  0.00     0.135 A 
ATOM     80  C   UNL     1       3.474   8.911  -5.892  1.00  0.00     0.135 A 
ATOM     81  F   UNL     1       6.925   9.464  -6.894  1.00  0.00    -0.206 F 
ATOM     82  C   UNL     1       5.185   8.357  -8.018  1.00  0.00     0.059 A 
ATOM     83  C   UNL     1       2.996   8.187  -6.980  1.00  0.00     0.059 A 
ATOM     84  F   UNL     1       2.632   9.155  -4.876  1.00  0.00    -0.206 F 
ATOM     85  C   UNL     1       3.862   7.912  -8.037  1.00  0.00     0.060 A 
BRANCH  85  86
ATOM     86  S   UNL     1       3.309   6.909  -9.434  1.00  0.00     0.124 S 
ATOM     87  O   UNL     1       3.291   7.889 -10.514  1.00  0.00    -0.237 OA
ATOM     88  O   UNL     1       4.356   5.894  -9.511  1.00  0.00    -0.237 OA
ATOM     89  O   UNL     1       2.003   6.420  -9.003  1.00  0.00    -0.744 OA
ENDBRANCH  85  86
ENDBRANCH  53  78
BRANCH  65  90
ATOM     90  C   UNL     1       7.030  15.841  -4.401  1.00  0.00     0.058 A 
ATOM     91  C   UNL     1       5.971  16.615  -4.898  1.00  0.00     0.135 A 
ATOM     92  C   UNL     1       8.339  16.299  -4.628  1.00  0.00     0.135 A 
ATOM     93  F   UNL     1       4.701  16.221  -4.716  1.00  0.00    -0.206 F 
ATOM     94  C   UNL     1       6.202  17.797  -5.597  1.00  0.00     0.059 A 
ATOM     95  C   UNL     1       8.592  17.492  -5.297  1.00  0.00     0.059 A 
ATOM     96  F   UNL     1       9.389  15.602  -4.165  1.00  0.00    -0.206 F 
ATOM     97  C   UNL     1       7.516  18.232  -5.782  1.00  0.00     0.060 A 
BRANCH  97  98
ATOM     98  S   UNL     1       7.799  19.800  -6.632  1.00  0.00     0.124 S 
ATOM     99  O   UNL     1       7.446  19.459  -8.006  1.00  0.00    -0.237 OA
ATOM    100  O   UNL     1       6.875  20.697  -5.944  1.00  0.00    -0.237 OA
ATOM    101  O   UNL     1       9.215  20.067  -6.396  1.00  0.00    -0.744 OA
ENDBRANCH  97  98
ENDBRANCH  65  90
ENDBRANCH  39  40
ENDBRANCH  32  34
ENDBRANCH  31  32
ENDBRANCH  30  31
ENDBRANCH  29  30
ENDBRANCH  28  29
ENDBRANCH  27  28
ENDBRANCH   1  27
TORSDOF 24
