REMARK SMILES C[C@H](Cc1cccs1)NC(=O)N[C@](C)(C(=O)OCCOCCOCCOCCOC(=O)c1ccc(-c2c3nc(c(-c4c(F)cc(S(=O)(=O)[O-])cc4F)c4ccc([nH]4)c(-c4c(F)cc(S(=O)(=O)[O-])cc4F)c4nc(c(-c5c(F)cc(S(=O)(=O)[O-])cc5F)c5ccc2[nH]5)C=C4)C=C3)cc1)C(F)(F)F
REMARK SMILES IDX 22 1 21 2 20 3 19 4 18 5 17 6 15 7 16 8 13 9 14 10 12 11
REMARK SMILES IDX 9 12 10 13 11 15 2 17 1 18 3 19 4 20 5 21 8 22 6 23 7 24
REMARK SMILES IDX 98 25 99 26 100 27 101 28 23 29 24 30 25 31 26 32 27 33
REMARK SMILES IDX 28 34 29 35 30 36 31 37 32 38 33 39 97 40 34 41 96 42 35 43
REMARK SMILES IDX 36 44 37 45 90 46 38 47 95 48 89 49 91 50 39 51 94 52 88 53
REMARK SMILES IDX 87 54 40 56 74 57 53 58 73 59 54 60 57 61 72 62 92 63 55 64
REMARK SMILES IDX 56 65 71 67 93 68 58 69 41 70 42 71 51 72 43 73 44 74 50 75
REMARK SMILES IDX 52 76 45 77 46 78 47 79 48 80 49 81 75 82 76 83 85 84 77 85
REMARK SMILES IDX 78 86 84 87 86 88 79 89 80 90 81 91 82 92 83 93 59 94 60 95
REMARK SMILES IDX 69 96 61 97 62 98 68 99 70 100 63 101 64 102 65 103 66 104
REMARK SMILES IDX 67 105
REMARK H PARENT 9 14 12 16 91 55 57 66
REMARK Flexibility Score: inf
ROOT
ATOM      1  C   UNL     1      -0.737  -1.932   3.089  1.00  0.00     0.188 C 
ENDROOT
BRANCH   1   2
ATOM      2  C   UNL     1       0.719  -2.397   2.930  1.00  0.00     0.188 C 
BRANCH   2   3
ATOM      3  O   UNL     1       1.153  -3.241   3.978  1.00  0.00    -0.376 OA
BRANCH   3   4
ATOM      4  C   UNL     1       1.816  -2.671   5.095  1.00  0.00     0.202 C 
BRANCH   4   5
ATOM      5  C   UNL     1       1.227  -1.472   5.873  1.00  0.00     0.261 C 
BRANCH   5   6
ATOM      6  O   UNL     1       0.540  -0.448   5.129  1.00  0.00    -0.461 OA
BRANCH   6   7
ATOM      7  C   UNL     1       1.317   0.346   4.360  1.00  0.00     0.341 C 
ATOM      8  O   UNL     1       2.522   0.135   4.287  1.00  0.00    -0.249 OA
BRANCH   7   9
ATOM      9  C   UNL     1       0.552   1.506   3.664  1.00  0.00     0.232 C 
ATOM     10  C   UNL     1      -0.823   1.740   4.350  1.00  0.00     0.058 C 
BRANCH   9  11
ATOM     11  N   UNL     1       1.373   2.719   3.966  1.00  0.00    -0.315 N 
ATOM     12  N   UNL     1       3.568   2.434   3.096  1.00  0.00    -0.335 N 
ATOM     13  C   UNL     1       2.629   3.103   3.760  1.00  0.00     0.316 C 
ATOM     14  H   UNL     1       4.467   2.711   3.386  1.00  0.00     0.165 HD
ATOM     15  O   UNL     1       2.967   4.166   4.289  1.00  0.00    -0.249 OA
ATOM     16  H   UNL     1       0.850   3.409   4.435  1.00  0.00     0.166 HD
BRANCH  12  17
ATOM     17  C   UNL     1       3.648   1.402   2.056  1.00  0.00     0.086 C 
ATOM     18  C   UNL     1       4.912   0.553   2.225  1.00  0.00     0.031 C 
BRANCH  17  19
ATOM     19  C   UNL     1       3.514   1.987   0.636  1.00  0.00     0.071 C 
BRANCH  19  20
ATOM     20  C   UNL     1       4.600   2.957   0.263  1.00  0.00     0.007 A 
ATOM     21  C   UNL     1       4.972   4.124   0.902  1.00  0.00     0.015 A 
ATOM     22  S   UNL     1       5.527   2.701  -1.156  1.00  0.00    -0.149 S 
ATOM     23  C   UNL     1       6.069   4.766   0.268  1.00  0.00     0.012 A 
ATOM     24  C   UNL     1       6.452   4.112  -0.879  1.00  0.00     0.065 A 
ENDBRANCH  19  20
ENDBRANCH  17  19
ENDBRANCH  12  17
ENDBRANCH   9  11
BRANCH   9  25
ATOM     25  C   UNL     1       0.257   1.315   2.154  1.00  0.00     0.422 C 
ATOM     26  F   UNL     1      -1.039   0.990   1.901  1.00  0.00    -0.168 F 
ATOM     27  F   UNL     1       0.458   2.470   1.466  1.00  0.00    -0.168 F 
ATOM     28  F   UNL     1       0.984   0.361   1.540  1.00  0.00    -0.168 F 
ENDBRANCH   9  25
ENDBRANCH   7   9
ENDBRANCH   6   7
ENDBRANCH   5   6
ENDBRANCH   4   5
ENDBRANCH   3   4
ENDBRANCH   2   3
ENDBRANCH   1   2
BRANCH   1  29
ATOM     29  O   UNL     1      -1.357  -2.144   4.341  1.00  0.00    -0.377 OA
BRANCH  29  30
ATOM     30  C   UNL     1      -1.511  -3.471   4.828  1.00  0.00     0.188 C 
BRANCH  30  31
ATOM     31  C   UNL     1      -1.260  -4.699   3.925  1.00  0.00     0.188 C 
BRANCH  31  32
ATOM     32  O   UNL     1      -1.301  -4.446   2.530  1.00  0.00    -0.376 OA
BRANCH  32  33
ATOM     33  C   UNL     1      -2.497  -4.756   1.834  1.00  0.00     0.202 C 
BRANCH  33  34
ATOM     34  C   UNL     1      -3.749  -3.934   2.180  1.00  0.00     0.261 C 
BRANCH  34  35
ATOM     35  O   UNL     1      -4.174  -3.963   3.550  1.00  0.00    -0.460 OA
BRANCH  35  36
ATOM     36  C   UNL     1      -4.475  -5.164   4.088  1.00  0.00     0.338 C 
ATOM     37  O   UNL     1      -4.463  -6.245   3.520  1.00  0.00    -0.246 OA
BRANCH  36  38
ATOM     38  C   UNL     1      -4.618  -4.983   5.548  1.00  0.00     0.060 A 
ATOM     39  C   UNL     1      -3.764  -5.691   6.405  1.00  0.00     0.016 A 
ATOM     40  C   UNL     1      -5.558  -4.089   6.066  1.00  0.00     0.016 A 
ATOM     41  C   UNL     1      -3.873  -5.535   7.786  1.00  0.00     0.010 A 
ATOM     42  C   UNL     1      -5.688  -3.957   7.450  1.00  0.00     0.010 A 
ATOM     43  C   UNL     1      -4.872  -4.708   8.316  1.00  0.00    -0.014 A 
BRANCH  43  44
ATOM     44  C   UNL     1      -5.220  -4.820   9.752  1.00  0.00     0.031 A 
ATOM     45  C   UNL     1      -6.359  -5.730  10.127  1.00  0.00     0.074 A 
ATOM     46  C   UNL     1      -4.536  -4.160  10.703  1.00  0.00     0.049 A 
ATOM     47  N   UNL     1      -6.886  -5.964  11.299  1.00  0.00    -0.248 NA
ATOM     48  C   UNL     1      -6.991  -6.475   9.023  1.00  0.00     0.031 C 
ATOM     49  C   UNL     1      -3.389  -3.285  10.469  1.00  0.00     0.029 A 
ATOM     50  N   UNL     1      -4.719  -4.118  12.063  1.00  0.00    -0.354 N 
ATOM     51  C   UNL     1      -7.916  -6.870  11.074  1.00  0.00     0.074 A 
ATOM     52  C   UNL     1      -7.958  -7.124   9.652  1.00  0.00     0.031 C 
ATOM     53  C   UNL     1      -2.982  -2.776  11.646  1.00  0.00     0.029 A 
ATOM     54  C   UNL     1      -3.859  -3.263  12.711  1.00  0.00     0.049 A 
ATOM     55  H   UNL     1      -5.403  -4.650  12.531  1.00  0.00     0.167 HD
ATOM     56  C   UNL     1      -8.748  -7.444  11.974  1.00  0.00     0.037 A 
ATOM     57  C   UNL     1      -3.808  -2.897  14.008  1.00  0.00     0.037 A 
ATOM     58  C   UNL     1      -8.700  -7.187  13.388  1.00  0.00     0.049 A 
ATOM     59  C   UNL     1      -4.787  -3.502  14.985  1.00  0.00     0.074 A 
ATOM     60  C   UNL     1      -9.483  -7.736  14.388  1.00  0.00     0.029 A 
ATOM     61  N   UNL     1      -7.829  -6.300  14.004  1.00  0.00    -0.354 N 
ATOM     62  N   UNL     1      -5.738  -4.380  14.766  1.00  0.00    -0.248 NA
ATOM     63  C   UNL     1      -4.685  -3.069  16.386  1.00  0.00     0.031 C 
ATOM     64  C   UNL     1      -9.128  -7.135  15.599  1.00  0.00     0.029 A 
ATOM     65  C   UNL     1      -8.076  -6.263  15.365  1.00  0.00     0.049 A 
ATOM     66  H   UNL     1      -7.137  -5.775  13.540  1.00  0.00     0.167 HD
ATOM     67  C   UNL     1      -6.324  -4.628  16.005  1.00  0.00     0.074 A 
ATOM     68  C   UNL     1      -5.613  -3.815  16.970  1.00  0.00     0.031 C 
ATOM     69  C   UNL     1      -7.353  -5.455  16.316  1.00  0.00     0.037 A 
BRANCH  56  70
ATOM     70  C   UNL     1      -9.805  -8.378  11.452  1.00  0.00     0.058 A 
ATOM     71  C   UNL     1      -9.490  -9.645  10.935  1.00  0.00     0.135 A 
ATOM     72  C   UNL     1     -11.159  -8.010  11.503  1.00  0.00     0.135 A 
ATOM     73  F   UNL     1      -8.210 -10.038  10.840  1.00  0.00    -0.206 F 
ATOM     74  C   UNL     1     -10.479 -10.506  10.470  1.00  0.00     0.059 A 
ATOM     75  C   UNL     1     -12.167  -8.867  11.072  1.00  0.00     0.059 A 
ATOM     76  F   UNL     1     -11.516  -6.806  11.979  1.00  0.00    -0.206 F 
ATOM     77  C   UNL     1     -11.816 -10.109  10.547  1.00  0.00     0.060 A 
BRANCH  77  78
ATOM     78  S   UNL     1     -13.087 -11.246   9.957  1.00  0.00     0.124 S 
ATOM     79  O   UNL     1     -12.872 -11.201   8.514  1.00  0.00    -0.237 OA
ATOM     80  O   UNL     1     -12.715 -12.495  10.614  1.00  0.00    -0.237 OA
ATOM     81  O   UNL     1     -14.330 -10.640  10.425  1.00  0.00    -0.744 OA
ENDBRANCH  77  78
ENDBRANCH  56  70
BRANCH  57  82
ATOM     82  C   UNL     1      -2.808  -1.891  14.462  1.00  0.00     0.058 A 
ATOM     83  C   UNL     1      -1.758  -2.241  15.325  1.00  0.00     0.135 A 
ATOM     84  C   UNL     1      -2.893  -0.551  14.051  1.00  0.00     0.135 A 
ATOM     85  F   UNL     1      -1.640  -3.505  15.759  1.00  0.00    -0.206 F 
ATOM     86  C   UNL     1      -0.840  -1.298  15.777  1.00  0.00     0.059 A 
ATOM     87  C   UNL     1      -1.970   0.404  14.465  1.00  0.00     0.059 A 
ATOM     88  F   UNL     1      -3.874  -0.163  13.220  1.00  0.00    -0.206 F 
ATOM     89  C   UNL     1      -0.952   0.022  15.337  1.00  0.00     0.060 A 
BRANCH  89  90
ATOM     90  S   UNL     1       0.274   1.228  15.892  1.00  0.00     0.124 S 
ATOM     91  O   UNL     1      -0.092   1.397  17.293  1.00  0.00    -0.237 OA
ATOM     92  O   UNL     1       1.527   0.524  15.638  1.00  0.00    -0.237 OA
ATOM     93  O   UNL     1       0.025   2.380  15.030  1.00  0.00    -0.744 OA
ENDBRANCH  89  90
ENDBRANCH  57  82
BRANCH  69  94
ATOM     94  C   UNL     1      -7.750  -5.564  17.765  1.00  0.00     0.058 A 
ATOM     95  C   UNL     1      -8.401  -4.519  18.439  1.00  0.00     0.135 A 
ATOM     96  C   UNL     1      -7.529  -6.759  18.471  1.00  0.00     0.135 A 
ATOM     97  F   UNL     1      -8.636  -3.354  17.814  1.00  0.00    -0.206 F 
ATOM     98  C   UNL     1      -8.791  -4.644  19.769  1.00  0.00     0.059 A 
ATOM     99  C   UNL     1      -7.940  -6.917  19.791  1.00  0.00     0.059 A 
ATOM    100  F   UNL     1      -6.923  -7.797  17.871  1.00  0.00    -0.206 F 
ATOM    101  C   UNL     1      -8.559  -5.848  20.436  1.00  0.00     0.060 A 
BRANCH 101 102
ATOM    102  S   UNL     1      -9.097  -6.006  22.152  1.00  0.00     0.124 S 
ATOM    103  O   UNL     1      -8.130  -5.160  22.842  1.00  0.00    -0.237 OA
ATOM    104  O   UNL     1     -10.463  -5.495  22.098  1.00  0.00    -0.237 OA
ATOM    105  O   UNL     1      -8.979  -7.438  22.416  1.00  0.00    -0.744 OA
ENDBRANCH 101 102
ENDBRANCH  69  94
ENDBRANCH  43  44
ENDBRANCH  36  38
ENDBRANCH  35  36
ENDBRANCH  34  35
ENDBRANCH  33  34
ENDBRANCH  32  33
ENDBRANCH  31  32
ENDBRANCH  30  31
ENDBRANCH  29  30
ENDBRANCH   1  29
TORSDOF 28
