REMARK SMILES CCOc1ccc(N)c(SCc2ccccc2C(=O)OCCOCCOCCOCCOC(=O)c2ccc(-c3c4nc(c(-c5c(F)cc(S(=O)(=O)[O-])cc5F)c5ccc([nH]5)c(-c5c(F)cc(S(=O)(=O)[O-])cc5F)c5nc(c(-c6c(F)cc(S(=O)(=O)[O-])cc6F)c6ccc3[nH]6)C=C5)C=C4)cc2)c1
REMARK SMILES IDX 25 1 24 2 23 3 22 4 21 5 20 6 18 7 19 8 17 9 12 10 13 11
REMARK SMILES IDX 14 12 16 13 15 14 11 15 10 16 9 17 4 18 5 19 101 20 6 21
REMARK SMILES IDX 7 22 3 23 2 24 1 25 8 26 26 29 27 30 28 31 29 32 30 33 31 34
REMARK SMILES IDX 32 35 33 36 34 37 35 38 36 39 100 40 37 41 99 42 38 43 39 44
REMARK SMILES IDX 40 45 93 46 41 47 98 48 92 49 94 50 42 51 97 52 91 53 90 54
REMARK SMILES IDX 43 56 77 57 56 58 76 59 57 60 60 61 75 62 95 63 58 64 59 65
REMARK SMILES IDX 74 67 96 68 61 69 44 70 45 71 54 72 46 73 47 74 53 75 55 76
REMARK SMILES IDX 48 77 49 78 50 79 51 80 52 81 78 82 79 83 88 84 80 85 81 86
REMARK SMILES IDX 87 87 89 88 82 89 83 90 84 91 85 92 86 93 62 94 63 95 72 96
REMARK SMILES IDX 64 97 65 98 71 99 73 100 66 101 67 102 68 103 69 104 70 105
REMARK H PARENT 8 27 8 28 94 55 60 66
REMARK Flexibility Score: inf
ROOT
ATOM      1  C   UNL     1      10.216  -0.758   4.412  1.00  0.00     0.188 C 
ENDROOT
BRANCH   1   2
ATOM      2  C   UNL     1      10.130   0.387   3.381  1.00  0.00     0.188 C 
BRANCH   2   3
ATOM      3  O   UNL     1       9.505   1.611   3.711  1.00  0.00    -0.376 OA
BRANCH   3   4
ATOM      4  C   UNL     1       8.146   1.742   4.084  1.00  0.00     0.202 C 
BRANCH   4   5
ATOM      5  C   UNL     1       7.039   0.702   3.877  1.00  0.00     0.261 C 
BRANCH   5   6
ATOM      6  O   UNL     1       7.416  -0.669   3.840  1.00  0.00    -0.460 OA
BRANCH   6   7
ATOM      7  C   UNL     1       7.616  -1.157   2.604  1.00  0.00     0.338 C 
ATOM      8  O   UNL     1       7.648  -0.502   1.568  1.00  0.00    -0.246 OA
BRANCH   7   9
ATOM      9  C   UNL     1       7.822  -2.627   2.600  1.00  0.00     0.064 A 
ATOM     10  C   UNL     1       7.075  -3.550   3.364  1.00  0.00    -0.023 A 
ATOM     11  C   UNL     1       7.321  -4.923   3.137  1.00  0.00     0.005 A 
ATOM     12  C   UNL     1       8.201  -5.359   2.140  1.00  0.00     0.000 A 
ATOM     13  C   UNL     1       8.716  -3.079   1.607  1.00  0.00     0.016 A 
ATOM     14  C   UNL     1       8.893  -4.436   1.367  1.00  0.00     0.001 A 
BRANCH  10  15
ATOM     15  C   UNL     1       5.950  -3.180   4.320  1.00  0.00     0.111 C 
BRANCH  15  16
ATOM     16  S   UNL     1       4.280  -3.728   3.696  1.00  0.00    -0.119 SA
BRANCH  16  17
ATOM     17  C   UNL     1       3.508  -2.234   3.044  1.00  0.00     0.034 A 
ATOM     18  C   UNL     1       1.509  -0.988   2.536  1.00  0.00     0.120 A 
ATOM     19  C   UNL     1       2.254   0.102   2.105  1.00  0.00     0.048 A 
ATOM     20  C   UNL     1       2.121  -2.090   3.141  1.00  0.00     0.063 A 
ATOM     21  C   UNL     1       3.612  -0.068   1.930  1.00  0.00     0.030 A 
ATOM     22  C   UNL     1       4.188  -1.303   2.242  1.00  0.00     0.045 A 
BRANCH  18  23
ATOM     23  O   UNL     1       0.175  -1.017   2.221  1.00  0.00    -0.494 OA
BRANCH  23  24
ATOM     24  C   UNL     1       0.000  -1.469   0.856  1.00  0.00     0.226 C 
ATOM     25  C   UNL     1       0.243  -0.379  -0.189  1.00  0.00     0.049 C 
ENDBRANCH  23  24
ENDBRANCH  18  23
BRANCH  22  26
ATOM     26  N   UNL     1       5.238  -1.715   1.432  1.00  0.00    -0.398 N 
ATOM     27  H   UNL     1       5.713  -1.060   0.871  1.00  0.00     0.156 HD
ATOM     28  H   UNL     1       5.508  -2.661   1.419  1.00  0.00     0.156 HD
ENDBRANCH  22  26
ENDBRANCH  16  17
ENDBRANCH  15  16
ENDBRANCH  10  15
ENDBRANCH   7   9
ENDBRANCH   6   7
ENDBRANCH   5   6
ENDBRANCH   4   5
ENDBRANCH   3   4
ENDBRANCH   2   3
ENDBRANCH   1   2
BRANCH   1  29
ATOM     29  O   UNL     1       9.416  -0.638   5.567  1.00  0.00    -0.377 OA
BRANCH  29  30
ATOM     30  C   UNL     1       9.778   0.293   6.577  1.00  0.00     0.188 C 
BRANCH  30  31
ATOM     31  C   UNL     1      10.901   1.331   6.355  1.00  0.00     0.188 C 
BRANCH  31  32
ATOM     32  O   UNL     1      11.929   0.936   5.463  1.00  0.00    -0.376 OA
BRANCH  32  33
ATOM     33  C   UNL     1      13.137   0.394   5.964  1.00  0.00     0.202 C 
BRANCH  33  34
ATOM     34  C   UNL     1      13.076  -0.893   6.801  1.00  0.00     0.261 C 
BRANCH  34  35
ATOM     35  O   UNL     1      12.211  -0.866   7.941  1.00  0.00    -0.460 OA
BRANCH  35  36
ATOM     36  C   UNL     1      12.472   0.054   8.891  1.00  0.00     0.338 C 
ATOM     37  O   UNL     1      13.392   0.856   8.907  1.00  0.00    -0.246 OA
BRANCH  36  38
ATOM     38  C   UNL     1      11.326   0.065   9.820  1.00  0.00     0.060 A 
ATOM     39  C   UNL     1      10.595   1.249   9.985  1.00  0.00     0.016 A 
ATOM     40  C   UNL     1      10.966  -1.098  10.506  1.00  0.00     0.016 A 
ATOM     41  C   UNL     1       9.524   1.285  10.873  1.00  0.00     0.010 A 
ATOM     42  C   UNL     1       9.913  -1.052  11.419  1.00  0.00     0.010 A 
ATOM     43  C   UNL     1       9.217   0.151  11.634  1.00  0.00    -0.014 A 
BRANCH  43  44
ATOM     44  C   UNL     1       8.347   0.291  12.823  1.00  0.00     0.031 A 
ATOM     45  C   UNL     1       9.016   0.494  14.156  1.00  0.00     0.074 A 
ATOM     46  C   UNL     1       7.008   0.266  12.723  1.00  0.00     0.049 A 
ATOM     47  N   UNL     1       8.486   0.581  15.347  1.00  0.00    -0.248 NA
ATOM     48  C   UNL     1      10.485   0.611  14.139  1.00  0.00     0.031 C 
ATOM     49  C   UNL     1       6.255   0.129  11.478  1.00  0.00     0.029 A 
ATOM     50  N   UNL     1       6.044   0.345  13.695  1.00  0.00    -0.354 N 
ATOM     51  C   UNL     1       9.554   0.752  16.220  1.00  0.00     0.074 A 
ATOM     52  C   UNL     1      10.763   0.726  15.428  1.00  0.00     0.031 C 
ATOM     53  C   UNL     1       4.941   0.116  11.765  1.00  0.00     0.029 A 
ATOM     54  C   UNL     1       4.764   0.207  13.214  1.00  0.00     0.049 A 
ATOM     55  H   UNL     1       6.249   0.488  14.647  1.00  0.00     0.167 HD
ATOM     56  C   UNL     1       9.526   0.921  17.562  1.00  0.00     0.037 A 
ATOM     57  C   UNL     1       3.592   0.133  13.876  1.00  0.00     0.037 A 
ATOM     58  C   UNL     1       8.316   0.940  18.339  1.00  0.00     0.049 A 
ATOM     59  C   UNL     1       3.591   0.244  15.380  1.00  0.00     0.074 A 
ATOM     60  C   UNL     1       8.173   1.115  19.703  1.00  0.00     0.029 A 
ATOM     61  N   UNL     1       7.040   0.767  17.821  1.00  0.00    -0.354 N 
ATOM     62  N   UNL     1       4.604   0.422  16.197  1.00  0.00    -0.248 NA
ATOM     63  C   UNL     1       2.288   0.148  16.054  1.00  0.00     0.031 C 
ATOM     64  C   UNL     1       6.817   0.987  20.018  1.00  0.00     0.029 A 
ATOM     65  C   UNL     1       6.106   0.801  18.842  1.00  0.00     0.049 A 
ATOM     66  H   UNL     1       6.830   0.638  16.868  1.00  0.00     0.167 HD
ATOM     67  C   UNL     1       4.056   0.492  17.475  1.00  0.00     0.074 A 
ATOM     68  C   UNL     1       2.623   0.347  17.321  1.00  0.00     0.031 C 
ATOM     69  C   UNL     1       4.681   0.665  18.668  1.00  0.00     0.037 A 
BRANCH  56  70
ATOM     70  C   UNL     1      10.844   1.061  18.274  1.00  0.00     0.058 A 
ATOM     71  C   UNL     1      11.650   2.201  18.131  1.00  0.00     0.135 A 
ATOM     72  C   UNL     1      11.295   0.044  19.132  1.00  0.00     0.135 A 
ATOM     73  F   UNL     1      11.280   3.193  17.306  1.00  0.00    -0.206 F 
ATOM     74  C   UNL     1      12.868   2.318  18.794  1.00  0.00     0.059 A 
ATOM     75  C   UNL     1      12.494   0.154  19.829  1.00  0.00     0.059 A 
ATOM     76  F   UNL     1      10.569  -1.072  19.299  1.00  0.00    -0.206 F 
ATOM     77  C   UNL     1      13.280   1.290  19.643  1.00  0.00     0.060 A 
BRANCH  77  78
ATOM     78  S   UNL     1      14.857   1.463  20.503  1.00  0.00     0.124 S 
ATOM     79  O   UNL     1      15.807   1.310  19.405  1.00  0.00    -0.237 OA
ATOM     80  O   UNL     1      14.756   2.803  21.071  1.00  0.00    -0.237 OA
ATOM     81  O   UNL     1      14.839   0.371  21.471  1.00  0.00    -0.744 OA
ENDBRANCH  77  78
ENDBRANCH  56  70
BRANCH  57  82
ATOM     82  C   UNL     1       2.324  -0.072  13.125  1.00  0.00     0.058 A 
ATOM     83  C   UNL     1       1.344   0.929  13.066  1.00  0.00     0.135 A 
ATOM     84  C   UNL     1       2.064  -1.279  12.454  1.00  0.00     0.135 A 
ATOM     85  F   UNL     1       1.538   2.096  13.700  1.00  0.00    -0.206 F 
ATOM     86  C   UNL     1       0.146   0.739  12.384  1.00  0.00     0.059 A 
ATOM     87  C   UNL     1       0.887  -1.482  11.741  1.00  0.00     0.059 A 
ATOM     88  F   UNL     1       2.971  -2.268  12.472  1.00  0.00    -0.206 F 
ATOM     89  C   UNL     1      -0.071  -0.470  11.721  1.00  0.00     0.060 A 
BRANCH  89  90
ATOM     90  S   UNL     1      -1.612  -0.687  10.803  1.00  0.00     0.124 S 
ATOM     91  O   UNL     1      -2.585  -0.793  11.884  1.00  0.00    -0.237 OA
ATOM     92  O   UNL     1      -1.667   0.537  10.011  1.00  0.00    -0.237 OA
ATOM     93  O   UNL     1      -1.379  -1.911  10.042  1.00  0.00    -0.744 OA
ENDBRANCH  89  90
ENDBRANCH  57  82
BRANCH  69  94
ATOM     94  C   UNL     1       3.820   0.754  19.901  1.00  0.00     0.058 A 
ATOM     95  C   UNL     1       3.153  -0.364  20.424  1.00  0.00     0.135 A 
ATOM     96  C   UNL     1       3.714   1.967  20.602  1.00  0.00     0.135 A 
ATOM     97  F   UNL     1       3.217  -1.547  19.793  1.00  0.00    -0.206 F 
ATOM     98  C   UNL     1       2.390  -0.277  21.585  1.00  0.00     0.059 A 
ATOM     99  C   UNL     1       2.985   2.068  21.782  1.00  0.00     0.059 A 
ATOM    100  F   UNL     1       4.343   3.065  20.154  1.00  0.00    -0.206 F 
ATOM    101  C   UNL     1       2.315   0.943  22.259  1.00  0.00     0.060 A 
BRANCH 101 102
ATOM    102  S   UNL     1       1.350   1.032  23.782  1.00  0.00     0.124 S 
ATOM    103  O   UNL     1      -0.014   0.948  23.271  1.00  0.00    -0.237 OA
ATOM    104  O   UNL     1       1.825  -0.134  24.520  1.00  0.00    -0.237 OA
ATOM    105  O   UNL     1       1.728   2.323  24.350  1.00  0.00    -0.744 OA
ENDBRANCH 101 102
ENDBRANCH  69  94
ENDBRANCH  43  44
ENDBRANCH  36  38
ENDBRANCH  35  36
ENDBRANCH  34  35
ENDBRANCH  33  34
ENDBRANCH  32  33
ENDBRANCH  31  32
ENDBRANCH  30  31
ENDBRANCH  29  30
ENDBRANCH   1  29
TORSDOF 29
