REMARK SMILES Cc1cc([C@H]([NH3+])C(=O)OCCOCCOCCOCCOC(=O)c2ccc(-c3c4nc(c(-c5c(F)cc(S(=O)(=O)[O-])cc5F)c5ccc([nH]5)c(-c5c(F)cc(S(=O)(=O)[O-])cc5F)c5nc(c(-c6c(F)cc(S(=O)(=O)[O-])cc6F)c6ccc3[nH]6)C=C5)C=C4)cc2)ccc1Cl
REMARK SMILES IDX 16 1 15 2 14 3 13 4 12 5 11 6 10 7 9 8 7 9 8 10 5 11 4 12
REMARK SMILES IDX 1 13 2 14 3 15 92 16 91 17 93 18 90 19 6 20 17 24 18 25
REMARK SMILES IDX 19 26 20 27 21 28 22 29 23 30 24 31 25 32 89 33 26 34 88 35
REMARK SMILES IDX 27 36 28 37 29 38 82 39 30 40 87 41 81 42 83 43 31 44 86 45
REMARK SMILES IDX 80 46 79 47 32 49 66 50 45 51 65 52 46 53 49 54 64 55 84 56
REMARK SMILES IDX 47 57 48 58 63 60 85 61 50 62 33 63 34 64 43 65 35 66 36 67
REMARK SMILES IDX 42 68 44 69 37 70 38 71 39 72 40 73 41 74 67 75 68 76 77 77
REMARK SMILES IDX 69 78 70 79 76 80 78 81 71 82 72 83 73 84 74 85 75 86 51 87
REMARK SMILES IDX 52 88 61 89 53 90 54 91 60 92 62 93 55 94 56 95 57 96 58 97
REMARK SMILES IDX 59 98
REMARK H PARENT 6 21 6 22 6 23 83 48 49 59
REMARK Flexibility Score: inf
ROOT
ATOM      1  C   UNL     1      -2.250  -1.987   4.073  1.00  0.00     0.188 C 
ENDROOT
BRANCH   1   2
ATOM      2  O   UNL     1      -2.883  -1.528   2.885  1.00  0.00    -0.377 OA
BRANCH   2   3
ATOM      3  C   UNL     1      -2.926  -0.125   2.722  1.00  0.00     0.188 C 
BRANCH   3   4
ATOM      4  C   UNL     1      -4.294   0.511   3.025  1.00  0.00     0.188 C 
BRANCH   4   5
ATOM      5  O   UNL     1      -5.310  -0.192   3.733  1.00  0.00    -0.376 OA
BRANCH   5   6
ATOM      6  C   UNL     1      -5.563  -1.572   3.513  1.00  0.00     0.202 C 
BRANCH   6   7
ATOM      7  C   UNL     1      -5.728  -2.161   2.104  1.00  0.00     0.261 C 
BRANCH   7   8
ATOM      8  O   UNL     1      -4.917  -1.584   1.078  1.00  0.00    -0.459 OA
BRANCH   8   9
ATOM      9  C   UNL     1      -5.518  -0.611   0.342  1.00  0.00     0.369 C 
ATOM     10  O   UNL     1      -6.678  -0.238   0.497  1.00  0.00    -0.245 OA
BRANCH   9  11
ATOM     11  C   UNL     1      -4.610  -0.060  -0.776  1.00  0.00     0.323 C 
BRANCH  11  12
ATOM     12  C   UNL     1      -4.840  -0.830  -2.047  1.00  0.00     0.021 A 
ATOM     13  C   UNL     1      -4.578  -4.426  -3.256  1.00  0.00     0.046 C 
ATOM     14  C   UNL     1      -4.842  -2.947  -3.262  1.00  0.00    -0.032 A 
ATOM     15  C   UNL     1      -4.565  -2.207  -2.109  1.00  0.00     0.015 A 
ATOM     16  C   UNL     1      -5.384  -2.275  -4.366  1.00  0.00     0.043 A 
ATOM     17  C   UNL     1      -5.632  -0.899  -4.319  1.00  0.00     0.021 A 
ATOM     18  Cl  UNL     1      -5.782  -3.109  -5.823  1.00  0.00    -0.084 Cl
ATOM     19  C   UNL     1      -5.361  -0.176  -3.164  1.00  0.00     0.012 A 
ENDBRANCH  11  12
BRANCH  11  20
ATOM     20  N   UNL     1      -3.168  -0.019  -0.475  1.00  0.00    -0.342 N 
ATOM     21  H   UNL     1      -2.816  -0.970  -0.362  1.00  0.00     0.345 HD
ATOM     22  H   UNL     1      -3.016   0.505   0.388  1.00  0.00     0.345 HD
ATOM     23  H   UNL     1      -2.673   0.438  -1.241  1.00  0.00     0.345 HD
ENDBRANCH  11  20
ENDBRANCH   9  11
ENDBRANCH   8   9
ENDBRANCH   7   8
ENDBRANCH   6   7
ENDBRANCH   5   6
ENDBRANCH   4   5
ENDBRANCH   3   4
ENDBRANCH   2   3
ENDBRANCH   1   2
BRANCH   1  24
ATOM     24  C   UNL     1      -2.545  -1.222   5.385  1.00  0.00     0.188 C 
BRANCH  24  25
ATOM     25  O   UNL     1      -2.396   0.190   5.299  1.00  0.00    -0.376 OA
BRANCH  25  26
ATOM     26  C   UNL     1      -1.177   0.786   5.718  1.00  0.00     0.202 C 
BRANCH  26  27
ATOM     27  C   UNL     1       0.112   0.449   4.946  1.00  0.00     0.261 C 
BRANCH  27  28
ATOM     28  O   UNL     1       0.462  -0.939   4.850  1.00  0.00    -0.460 OA
BRANCH  28  29
ATOM     29  C   UNL     1       0.638  -1.621   6.000  1.00  0.00     0.338 C 
ATOM     30  O   UNL     1       0.592  -1.170   7.133  1.00  0.00    -0.246 OA
BRANCH  29  31
ATOM     31  C   UNL     1       0.686  -3.061   5.668  1.00  0.00     0.060 A 
ATOM     32  C   UNL     1      -0.257  -3.921   6.248  1.00  0.00     0.016 A 
ATOM     33  C   UNL     1       1.646  -3.559   4.785  1.00  0.00     0.016 A 
ATOM     34  C   UNL     1      -0.214  -5.289   5.981  1.00  0.00     0.010 A 
ATOM     35  C   UNL     1       1.705  -4.933   4.538  1.00  0.00     0.010 A 
ATOM     36  C   UNL     1       0.800  -5.808   5.167  1.00  0.00    -0.014 A 
BRANCH  36  37
ATOM     37  C   UNL     1       1.052  -7.269   5.151  1.00  0.00     0.031 A 
ATOM     38  C   UNL     1       2.140  -7.808   6.042  1.00  0.00     0.074 A 
ATOM     39  C   UNL     1       0.325  -8.102   4.386  1.00  0.00     0.049 A 
ATOM     40  N   UNL     1       2.591  -9.029   6.158  1.00  0.00    -0.248 NA
ATOM     41  C   UNL     1       2.813  -6.831   6.915  1.00  0.00     0.031 C 
ATOM     42  C   UNL     1      -0.784  -7.705   3.521  1.00  0.00     0.029 A 
ATOM     43  N   UNL     1       0.425  -9.459   4.207  1.00  0.00    -0.354 N 
ATOM     44  C   UNL     1       3.605  -8.966   7.107  1.00  0.00     0.074 A 
ATOM     45  C   UNL     1       3.725  -7.583   7.511  1.00  0.00     0.031 C 
ATOM     46  C   UNL     1      -1.253  -8.796   2.889  1.00  0.00     0.029 A 
ATOM     47  C   UNL     1      -0.454  -9.958   3.276  1.00  0.00     0.049 A 
ATOM     48  H   UNL     1       1.065 -10.022   4.699  1.00  0.00     0.167 HD
ATOM     49  C   UNL     1       4.364  -9.973   7.601  1.00  0.00     0.037 A 
ATOM     50  C   UNL     1      -0.579 -11.204   2.775  1.00  0.00     0.037 A 
ATOM     51  C   UNL     1       4.239 -11.347   7.190  1.00  0.00     0.049 A 
ATOM     52  C   UNL     1       0.328 -12.298   3.284  1.00  0.00     0.074 A 
ATOM     53  C   UNL     1       4.949 -12.445   7.640  1.00  0.00     0.029 A 
ATOM     54  N   UNL     1       3.354 -11.809   6.226  1.00  0.00    -0.354 N 
ATOM     55  N   UNL     1       1.271 -12.232   4.195  1.00  0.00    -0.248 NA
ATOM     56  C   UNL     1       0.151 -13.636   2.702  1.00  0.00     0.031 C 
ATOM     57  C   UNL     1       4.537 -13.561   6.904  1.00  0.00     0.029 A 
ATOM     58  C   UNL     1       3.521 -13.171   6.046  1.00  0.00     0.049 A 
ATOM     59  H   UNL     1       2.705 -11.250   5.741  1.00  0.00     0.167 HD
ATOM     60  C   UNL     1       1.774 -13.525   4.319  1.00  0.00     0.074 A 
ATOM     61  C   UNL     1       1.026 -14.352   3.395  1.00  0.00     0.031 C 
ATOM     62  C   UNL     1       2.760 -13.986   5.130  1.00  0.00     0.037 A 
BRANCH  49  63
ATOM     63  C   UNL     1       5.419  -9.619   8.613  1.00  0.00     0.058 A 
ATOM     64  C   UNL     1       5.094  -9.201   9.913  1.00  0.00     0.135 A 
ATOM     65  C   UNL     1       6.780  -9.724   8.283  1.00  0.00     0.135 A 
ATOM     66  F   UNL     1       3.809  -9.061  10.278  1.00  0.00    -0.206 F 
ATOM     67  C   UNL     1       6.079  -8.873  10.840  1.00  0.00     0.059 A 
ATOM     68  C   UNL     1       7.782  -9.433   9.203  1.00  0.00     0.059 A 
ATOM     69  F   UNL     1       7.149 -10.114   7.052  1.00  0.00    -0.206 F 
ATOM     70  C   UNL     1       7.421  -8.993  10.475  1.00  0.00     0.060 A 
BRANCH  70  71
ATOM     71  S   UNL     1       8.685  -8.568  11.691  1.00  0.00     0.124 S 
ATOM     72  O   UNL     1       8.548  -7.116  11.758  1.00  0.00    -0.237 OA
ATOM     73  O   UNL     1       8.241  -9.302  12.871  1.00  0.00    -0.237 OA
ATOM     74  O   UNL     1       9.920  -9.053  11.082  1.00  0.00    -0.744 OA
ENDBRANCH  70  71
ENDBRANCH  49  63
BRANCH  50  75
ATOM     75  C   UNL     1      -1.592 -11.485   1.722  1.00  0.00     0.058 A 
ATOM     76  C   UNL     1      -2.704 -12.300   1.980  1.00  0.00     0.135 A 
ATOM     77  C   UNL     1      -1.468 -10.942   0.433  1.00  0.00     0.135 A 
ATOM     78  F   UNL     1      -2.861 -12.856   3.192  1.00  0.00    -0.206 F 
ATOM     79  C   UNL     1      -3.650 -12.577   0.998  1.00  0.00     0.059 A 
ATOM     80  C   UNL     1      -2.417 -11.180  -0.557  1.00  0.00     0.059 A 
ATOM     81  F   UNL     1      -0.427 -10.149   0.133  1.00  0.00    -0.206 F 
ATOM     82  C   UNL     1      -3.501 -12.005  -0.267  1.00  0.00     0.060 A 
BRANCH  82  83
ATOM     83  S   UNL     1      -4.767 -12.322  -1.514  1.00  0.00     0.124 S 
ATOM     84  O   UNL     1      -4.525 -13.725  -1.830  1.00  0.00    -0.237 OA
ATOM     85  O   UNL     1      -5.995 -12.034  -0.780  1.00  0.00    -0.237 OA
ATOM     86  O   UNL     1      -4.440 -11.371  -2.573  1.00  0.00    -0.744 OA
ENDBRANCH  82  83
ENDBRANCH  50  75
BRANCH  62  87
ATOM     87  C   UNL     1       3.060 -15.462   5.101  1.00  0.00     0.058 A 
ATOM     88  C   UNL     1       3.699 -16.071   4.010  1.00  0.00     0.135 A 
ATOM     89  C   UNL     1       2.765 -16.264   6.216  1.00  0.00     0.135 A 
ATOM     90  F   UNL     1       4.000 -15.354   2.916  1.00  0.00    -0.206 F 
ATOM     91  C   UNL     1       4.013 -17.427   4.016  1.00  0.00     0.059 A 
ATOM     92  C   UNL     1       3.099 -17.614   6.258  1.00  0.00     0.059 A 
ATOM     93  F   UNL     1       2.165 -15.731   7.293  1.00  0.00    -0.206 F 
ATOM     94  C   UNL     1       3.714 -18.189   5.148  1.00  0.00     0.060 A 
BRANCH  94  95
ATOM     95  S   UNL     1       4.164 -19.938   5.158  1.00  0.00     0.124 S 
ATOM     96  O   UNL     1       3.199 -20.496   4.217  1.00  0.00    -0.237 OA
ATOM     97  O   UNL     1       5.550 -19.904   4.701  1.00  0.00    -0.237 OA
ATOM     98  O   UNL     1       3.980 -20.329   6.552  1.00  0.00    -0.744 OA
ENDBRANCH  94  95
ENDBRANCH  62  87
ENDBRANCH  36  37
ENDBRANCH  29  31
ENDBRANCH  28  29
ENDBRANCH  27  28
ENDBRANCH  26  27
ENDBRANCH  25  26
ENDBRANCH  24  25
ENDBRANCH   1  24
TORSDOF 25
