REMARK SMILES O=C(OCCOCCOCCOCCOC(=O)[C@@H](CCCCl)P(=O)(c1ccccc1)c1ccccc1)c1ccc(-c2c3nc(c(-c4c(F)cc(S(=O)(=O)[O-])cc4F)c4ccc([nH]4)c(-c4c(F)cc(S(=O)(=O)[O-])cc4F)c4nc(c(-c5c(F)cc(S(=O)(=O)[O-])cc5F)c5ccc2[nH]5)C=C4)C=C3)cc1
REMARK SMILES IDX 9 1 8 2 7 3 6 4 5 5 4 6 3 7 2 8 1 9 37 10 38 11 102 12 39 13
REMARK SMILES IDX 101 14 40 15 41 16 42 17 95 18 43 19 100 20 94 21 96 22
REMARK SMILES IDX 44 23 99 24 93 25 92 26 45 28 79 29 58 30 78 31 59 32 62 33
REMARK SMILES IDX 77 34 97 35 60 36 61 37 76 39 98 40 63 41 46 42 47 43 56 44
REMARK SMILES IDX 48 45 49 46 55 47 57 48 50 49 51 50 52 51 53 52 54 53 80 54
REMARK SMILES IDX 81 55 90 56 82 57 83 58 89 59 91 60 84 61 85 62 86 63 87 64
REMARK SMILES IDX 88 65 64 66 65 67 74 68 66 69 67 70 73 71 75 72 68 73 69 74
REMARK SMILES IDX 70 75 71 76 72 77 10 78 11 79 12 80 13 81 14 82 15 83 16 84
REMARK SMILES IDX 17 85 18 86 19 87 20 88 21 89 22 90 23 91 24 92 25 93 26 94
REMARK SMILES IDX 30 95 27 96 29 97 28 98 31 99 32 100 36 101 33 102 35 103
REMARK SMILES IDX 34 104
REMARK H PARENT 96 27 62 38
REMARK Flexibility Score: inf
ROOT
ATOM      1  O   UNL     1       3.313  -0.793  -3.505  1.00  0.00    -0.377 OA
ENDROOT
BRANCH   1   2
ATOM      2  C   UNL     1       2.270  -0.382  -2.621  1.00  0.00     0.188 C 
BRANCH   2   3
ATOM      3  C   UNL     1       2.486  -0.796  -1.174  1.00  0.00     0.188 C 
BRANCH   3   4
ATOM      4  O   UNL     1       3.734  -0.295  -0.744  1.00  0.00    -0.376 OA
BRANCH   4   5
ATOM      5  C   UNL     1       4.571  -1.079   0.083  1.00  0.00     0.202 C 
BRANCH   5   6
ATOM      6  C   UNL     1       3.974  -1.514   1.405  1.00  0.00     0.261 C 
BRANCH   6   7
ATOM      7  O   UNL     1       2.618  -1.101   1.663  1.00  0.00    -0.460 OA
BRANCH   7   8
ATOM      8  C   UNL     1       2.028   0.090   1.900  1.00  0.00     0.338 C 
ATOM      9  O   UNL     1       0.811   0.100   2.090  1.00  0.00    -0.246 OA
BRANCH   8  10
ATOM     10  C   UNL     1       2.735   1.396   1.993  1.00  0.00     0.060 A 
ATOM     11  C   UNL     1       3.792   1.806   1.188  1.00  0.00     0.016 A 
ATOM     12  C   UNL     1       2.209   2.337   2.891  1.00  0.00     0.016 A 
ATOM     13  C   UNL     1       4.420   3.022   1.352  1.00  0.00     0.010 A 
ATOM     14  C   UNL     1       2.796   3.598   3.036  1.00  0.00     0.010 A 
ATOM     15  C   UNL     1       3.949   3.907   2.305  1.00  0.00    -0.014 A 
BRANCH  15  16
ATOM     16  C   UNL     1       4.864   4.988   2.692  1.00  0.00     0.031 A 
ATOM     17  C   UNL     1       5.601   4.805   3.985  1.00  0.00     0.074 A 
ATOM     18  C   UNL     1       5.175   5.956   1.814  1.00  0.00     0.049 A 
ATOM     19  N   UNL     1       6.406   5.619   4.603  1.00  0.00    -0.248 NA
ATOM     20  C   UNL     1       5.413   3.511   4.671  1.00  0.00     0.031 C 
ATOM     21  C   UNL     1       4.655   6.060   0.446  1.00  0.00     0.029 A 
ATOM     22  N   UNL     1       6.042   7.006   1.919  1.00  0.00    -0.354 N 
ATOM     23  C   UNL     1       6.760   4.967   5.779  1.00  0.00     0.074 A 
ATOM     24  C   UNL     1       6.099   3.686   5.786  1.00  0.00     0.031 C 
ATOM     25  C   UNL     1       5.236   7.104  -0.167  1.00  0.00     0.029 A 
ATOM     26  C   UNL     1       6.091   7.790   0.792  1.00  0.00     0.049 A 
ATOM     27  H   UNL     1       6.579   7.184   2.725  1.00  0.00     0.167 HD
ATOM     28  C   UNL     1       7.557   5.425   6.769  1.00  0.00     0.037 A 
ATOM     29  C   UNL     1       6.728   8.959   0.595  1.00  0.00     0.037 A 
ATOM     30  C   UNL     1       8.205   6.704   6.694  1.00  0.00     0.049 A 
ATOM     31  C   UNL     1       7.520   9.507   1.751  1.00  0.00     0.074 A 
ATOM     32  C   UNL     1       8.970   7.349   7.643  1.00  0.00     0.029 A 
ATOM     33  N   UNL     1       8.155   7.534   5.577  1.00  0.00    -0.354 N 
ATOM     34  N   UNL     1       7.748   8.959   2.925  1.00  0.00    -0.248 NA
ATOM     35  C   UNL     1       8.121  10.832   1.575  1.00  0.00     0.031 C 
ATOM     36  C   UNL     1       9.339   8.593   7.118  1.00  0.00     0.029 A 
ATOM     37  C   UNL     1       8.860   8.695   5.817  1.00  0.00     0.049 A 
ATOM     38  H   UNL     1       7.686   7.322   4.738  1.00  0.00     0.167 HD
ATOM     39  C   UNL     1       8.543   9.859   3.620  1.00  0.00     0.074 A 
ATOM     40  C   UNL     1       8.759  10.985   2.728  1.00  0.00     0.031 C 
ATOM     41  C   UNL     1       9.051   9.774   4.876  1.00  0.00     0.037 A 
BRANCH  28  42
ATOM     42  C   UNL     1       7.641   4.591   8.016  1.00  0.00     0.058 A 
ATOM     43  C   UNL     1       8.294   3.347   8.057  1.00  0.00     0.135 A 
ATOM     44  C   UNL     1       6.966   5.009   9.175  1.00  0.00     0.135 A 
ATOM     45  F   UNL     1       8.918   2.875   6.966  1.00  0.00    -0.206 F 
ATOM     46  C   UNL     1       8.236   2.531   9.185  1.00  0.00     0.059 A 
ATOM     47  C   UNL     1       6.920   4.223  10.322  1.00  0.00     0.059 A 
ATOM     48  F   UNL     1       6.307   6.178   9.187  1.00  0.00    -0.206 F 
ATOM     49  C   UNL     1       7.539   2.975  10.310  1.00  0.00     0.060 A 
BRANCH  49  50
ATOM     50  S   UNL     1       7.433   1.892  11.750  1.00  0.00     0.124 S 
ATOM     51  O   UNL     1       6.494   0.876  11.282  1.00  0.00    -0.237 OA
ATOM     52  O   UNL     1       8.814   1.450  11.911  1.00  0.00    -0.237 OA
ATOM     53  O   UNL     1       6.932   2.771  12.802  1.00  0.00    -0.744 OA
ENDBRANCH  49  50
ENDBRANCH  28  42
BRANCH  29  54
ATOM     54  C   UNL     1       6.592   9.687  -0.697  1.00  0.00     0.058 A 
ATOM     55  C   UNL     1       7.694   9.893  -1.539  1.00  0.00     0.135 A 
ATOM     56  C   UNL     1       5.347  10.179  -1.129  1.00  0.00     0.135 A 
ATOM     57  F   UNL     1       8.907   9.450  -1.176  1.00  0.00    -0.206 F 
ATOM     58  C   UNL     1       7.571  10.562  -2.755  1.00  0.00     0.059 A 
ATOM     59  C   UNL     1       5.193  10.825  -2.352  1.00  0.00     0.059 A 
ATOM     60  F   UNL     1       4.254  10.006  -0.369  1.00  0.00    -0.206 F 
ATOM     61  C   UNL     1       6.314  11.021  -3.155  1.00  0.00     0.060 A 
BRANCH  61  62
ATOM     62  S   UNL     1       6.157  11.846  -4.754  1.00  0.00     0.124 S 
ATOM     63  O   UNL     1       6.839  13.113  -4.499  1.00  0.00    -0.237 OA
ATOM     64  O   UNL     1       6.847  10.920  -5.645  1.00  0.00    -0.237 OA
ATOM     65  O   UNL     1       4.715  11.936  -4.948  1.00  0.00    -0.744 OA
ENDBRANCH  61  62
ENDBRANCH  29  54
BRANCH  41  66
ATOM     66  C   UNL     1       9.938  10.897   5.320  1.00  0.00     0.058 A 
ATOM     67  C   UNL     1       9.424  12.157   5.659  1.00  0.00     0.135 A 
ATOM     68  C   UNL     1      11.317  10.678   5.467  1.00  0.00     0.135 A 
ATOM     69  F   UNL     1       8.112  12.411   5.527  1.00  0.00    -0.206 F 
ATOM     70  C   UNL     1      10.255  13.175   6.107  1.00  0.00     0.059 A 
ATOM     71  C   UNL     1      12.160  11.671   5.945  1.00  0.00     0.059 A 
ATOM     72  F   UNL     1      11.848   9.482   5.168  1.00  0.00    -0.206 F 
ATOM     73  C   UNL     1      11.621  12.920   6.249  1.00  0.00     0.060 A 
BRANCH  73  74
ATOM     74  S   UNL     1      12.685  14.237   6.868  1.00  0.00     0.124 S 
ATOM     75  O   UNL     1      12.774  15.112   5.703  1.00  0.00    -0.237 OA
ATOM     76  O   UNL     1      11.916  14.756   7.995  1.00  0.00    -0.237 OA
ATOM     77  O   UNL     1      13.916  13.539   7.225  1.00  0.00    -0.744 OA
ENDBRANCH  73  74
ENDBRANCH  41  66
ENDBRANCH  15  16
ENDBRANCH   8  10
ENDBRANCH   7   8
ENDBRANCH   6   7
ENDBRANCH   5   6
ENDBRANCH   4   5
ENDBRANCH   3   4
ENDBRANCH   2   3
ENDBRANCH   1   2
BRANCH   1  78
ATOM     78  C   UNL     1       4.661  -0.416  -3.210  1.00  0.00     0.188 C 
BRANCH  78  79
ATOM     79  C   UNL     1       5.022   1.072  -2.996  1.00  0.00     0.188 C 
BRANCH  79  80
ATOM     80  O   UNL     1       3.908   1.913  -2.803  1.00  0.00    -0.376 OA
BRANCH  80  81
ATOM     81  C   UNL     1       3.500   2.739  -3.879  1.00  0.00     0.202 C 
BRANCH  81  82
ATOM     82  C   UNL     1       3.510   2.252  -5.338  1.00  0.00     0.261 C 
BRANCH  82  83
ATOM     83  O   UNL     1       3.452   0.845  -5.612  1.00  0.00    -0.463 OA
BRANCH  83  84
ATOM     84  C   UNL     1       4.586   0.275  -6.101  1.00  0.00     0.317 C 
ATOM     85  O   UNL     1       5.716   0.731  -5.960  1.00  0.00    -0.251 OA
BRANCH  84  86
ATOM     86  C   UNL     1       4.326  -0.930  -6.992  1.00  0.00     0.169 C 
BRANCH  86  87
ATOM     87  C   UNL     1       3.903  -2.208  -6.273  1.00  0.00     0.025 C 
BRANCH  87  88
ATOM     88  C   UNL     1       2.454  -2.331  -5.798  1.00  0.00     0.018 C 
BRANCH  88  89
ATOM     89  C   UNL     1       1.541  -3.147  -6.702  1.00  0.00     0.109 C 
ATOM     90  Cl  UNL     1       2.061  -4.851  -6.814  1.00  0.00    -0.127 Cl
ENDBRANCH  88  89
ENDBRANCH  87  88
ENDBRANCH  86  87
BRANCH  86  91
ATOM     91  P   UNL     1       3.451  -0.225  -8.405  1.00  0.00     0.156 P 
ATOM     92  O   UNL     1       2.072   0.226  -7.963  1.00  0.00    -0.313 OA
BRANCH  91  93
ATOM     93  C   UNL     1       4.547   1.147  -8.875  1.00  0.00     0.017 A 
ATOM     94  C   UNL     1       5.911   0.916  -9.135  1.00  0.00     0.012 A 
ATOM     95  C   UNL     1       4.090   2.463  -8.745  1.00  0.00     0.012 A 
ATOM     96  C   UNL     1       6.809   1.982  -9.175  1.00  0.00     0.001 A 
ATOM     97  C   UNL     1       4.991   3.526  -8.796  1.00  0.00     0.001 A 
ATOM     98  C   UNL     1       6.351   3.284  -8.991  1.00  0.00     0.000 A 
ENDBRANCH  91  93
BRANCH  91  99
ATOM     99  C   UNL     1       3.294  -1.256  -9.839  1.00  0.00     0.017 A 
ATOM    100  C   UNL     1       2.733  -0.614 -10.960  1.00  0.00     0.012 A 
ATOM    101  C   UNL     1       3.540  -2.627  -9.907  1.00  0.00     0.012 A 
ATOM    102  C   UNL     1       2.401  -1.318 -12.109  1.00  0.00     0.001 A 
ATOM    103  C   UNL     1       3.195  -3.340 -11.060  1.00  0.00     0.001 A 
ATOM    104  C   UNL     1       2.622  -2.688 -12.155  1.00  0.00     0.000 A 
ENDBRANCH  91  99
ENDBRANCH  86  91
ENDBRANCH  84  86
ENDBRANCH  83  84
ENDBRANCH  82  83
ENDBRANCH  81  82
ENDBRANCH  80  81
ENDBRANCH  79  80
ENDBRANCH  78  79
ENDBRANCH   1  78
TORSDOF 29
