REMARK SMILES CCC[C@@H](C(=O)OCCOCCOCCOCCOC(=O)c1ccc(-c2c3nc(c(-c4c(F)cc(S(=O)(=O)[O-])cc4F)c4ccc([nH]4)c(-c4c(F)cc(S(=O)(=O)[O-])cc4F)c4nc(c(-c5c(F)cc(S(=O)(=O)[O-])cc5F)c5ccc2[nH]5)C=C4)C=C3)cc1)n1nc(/C=C/c2ccc(OC)cc2)ccc1=O
REMARK SMILES IDX 12 1 11 2 10 3 9 4 8 5 7 6 5 7 6 8 4 9 3 10 2 11 1 12 88 13
REMARK SMILES IDX 89 14 103 15 90 16 102 17 104 18 101 19 91 20 92 21 93 22
REMARK SMILES IDX 94 23 100 24 95 25 99 26 96 27 97 28 98 29 13 30 14 31 15 32
REMARK SMILES IDX 16 33 17 34 18 35 19 36 20 37 21 38 22 39 23 40 87 41 24 42
REMARK SMILES IDX 86 43 25 44 26 45 27 46 80 47 28 48 85 49 79 50 81 51 29 52
REMARK SMILES IDX 84 53 78 54 77 55 30 57 64 58 43 59 63 60 44 61 47 62 62 63
REMARK SMILES IDX 82 64 45 65 46 66 61 68 83 69 48 70 31 71 32 72 41 73 33 74
REMARK SMILES IDX 34 75 40 76 42 77 35 78 36 79 37 80 38 81 39 82 65 83 66 84
REMARK SMILES IDX 75 85 67 86 68 87 74 88 76 89 69 90 70 91 71 92 72 93 73 94
REMARK SMILES IDX 49 95 50 96 59 97 51 98 52 99 58 100 60 101 53 102 54 103
REMARK SMILES IDX 55 104 56 105 57 106
REMARK H PARENT 81 56 47 67
REMARK Flexibility Score: inf
ROOT
ATOM      1  C   UNL     1      -1.647  -3.497   1.171  1.00  0.00     0.188 C 
ENDROOT
BRANCH   1   2
ATOM      2  C   UNL     1      -2.458  -3.282   2.467  1.00  0.00     0.188 C 
BRANCH   2   3
ATOM      3  O   UNL     1      -3.643  -2.519   2.306  1.00  0.00    -0.376 OA
BRANCH   3   4
ATOM      4  C   UNL     1      -3.597  -1.181   2.772  1.00  0.00     0.202 C 
BRANCH   4   5
ATOM      5  C   UNL     1      -2.688  -0.223   1.990  1.00  0.00     0.261 C 
BRANCH   5   6
ATOM      6  O   UNL     1      -1.311  -0.618   1.845  1.00  0.00    -0.462 OA
BRANCH   6   7
ATOM      7  C   UNL     1      -0.525  -0.662   2.944  1.00  0.00     0.331 C 
ATOM      8  O   UNL     1      -0.952  -0.414   4.070  1.00  0.00    -0.250 OA
BRANCH   7   9
ATOM      9  C   UNL     1       0.954  -1.011   2.638  1.00  0.00     0.221 C 
BRANCH   9  10
ATOM     10  C   UNL     1       1.450  -1.438   1.235  1.00  0.00     0.039 C 
BRANCH  10  11
ATOM     11  C   UNL     1       0.893  -0.764  -0.022  1.00  0.00    -0.001 C 
ATOM     12  C   UNL     1       1.143   0.727  -0.097  1.00  0.00     0.004 C 
ENDBRANCH  10  11
ENDBRANCH   9  10
BRANCH   9  13
ATOM     13  N   UNL     1       1.395  -1.976   3.695  1.00  0.00    -0.215 N 
ATOM     14  N   UNL     1       2.084  -1.415   4.752  1.00  0.00    -0.169 NA
ATOM     15  C   UNL     1       1.091  -3.331   3.646  1.00  0.00     0.267 A 
ATOM     16  C   UNL     1       2.355  -2.170   5.771  1.00  0.00     0.084 A 
ATOM     17  C   UNL     1       1.334  -4.119   4.863  1.00  0.00     0.075 A 
ATOM     18  O   UNL     1       0.606  -3.942   2.703  1.00  0.00    -0.268 OA
ATOM     19  C   UNL     1       1.929  -3.573   5.917  1.00  0.00     0.036 A 
BRANCH  16  20
ATOM     20  C   UNL     1       3.100  -1.570   6.901  1.00  0.00     0.031 C 
ATOM     21  C   UNL     1       3.705  -2.262   7.877  1.00  0.00     0.010 C 
BRANCH  21  22
ATOM     22  C   UNL     1       4.347  -1.614   9.019  1.00  0.00    -0.025 A 
ATOM     23  C   UNL     1       5.464  -2.212   9.609  1.00  0.00     0.012 A 
ATOM     24  C   UNL     1       3.811  -0.456   9.593  1.00  0.00     0.012 A 
ATOM     25  C   UNL     1       6.047  -1.640  10.741  1.00  0.00     0.047 A 
ATOM     26  C   UNL     1       4.397   0.116  10.721  1.00  0.00     0.047 A 
ATOM     27  C   UNL     1       5.520  -0.473  11.299  1.00  0.00     0.118 A 
BRANCH  27  28
ATOM     28  O   UNL     1       6.177  -0.014  12.407  1.00  0.00    -0.497 OA
ATOM     29  C   UNL     1       5.716   1.220  12.941  1.00  0.00     0.278 C 
ENDBRANCH  27  28
ENDBRANCH  21  22
ENDBRANCH  16  20
ENDBRANCH   9  13
ENDBRANCH   7   9
ENDBRANCH   6   7
ENDBRANCH   5   6
ENDBRANCH   4   5
ENDBRANCH   3   4
ENDBRANCH   2   3
ENDBRANCH   1   2
BRANCH   1  30
ATOM     30  O   UNL     1      -2.189  -3.302  -0.124  1.00  0.00    -0.377 OA
BRANCH  30  31
ATOM     31  C   UNL     1      -3.588  -3.344  -0.288  1.00  0.00     0.188 C 
BRANCH  31  32
ATOM     32  C   UNL     1      -4.327  -4.582   0.249  1.00  0.00     0.188 C 
BRANCH  32  33
ATOM     33  O   UNL     1      -3.520  -5.484   0.997  1.00  0.00    -0.376 OA
BRANCH  33  34
ATOM     34  C   UNL     1      -3.107  -6.675   0.340  1.00  0.00     0.202 C 
BRANCH  34  35
ATOM     35  C   UNL     1      -2.094  -6.521  -0.804  1.00  0.00     0.261 C 
BRANCH  35  36
ATOM     36  O   UNL     1      -2.523  -5.726  -1.920  1.00  0.00    -0.460 OA
BRANCH  36  37
ATOM     37  C   UNL     1      -3.633  -6.105  -2.584  1.00  0.00     0.338 C 
ATOM     38  O   UNL     1      -4.326  -7.085  -2.379  1.00  0.00    -0.246 OA
BRANCH  37  39
ATOM     39  C   UNL     1      -3.977  -4.994  -3.494  1.00  0.00     0.060 A 
ATOM     40  C   UNL     1      -5.194  -4.319  -3.318  1.00  0.00     0.016 A 
ATOM     41  C   UNL     1      -3.060  -4.571  -4.458  1.00  0.00     0.016 A 
ATOM     42  C   UNL     1      -5.483  -3.197  -4.094  1.00  0.00     0.010 A 
ATOM     43  C   UNL     1      -3.372  -3.475  -5.263  1.00  0.00     0.010 A 
ATOM     44  C   UNL     1      -4.586  -2.789  -5.089  1.00  0.00    -0.014 A 
BRANCH  44  45
ATOM     45  C   UNL     1      -4.983  -1.759  -6.075  1.00  0.00     0.031 A 
ATOM     46  C   UNL     1      -5.630  -2.223  -7.349  1.00  0.00     0.074 A 
ATOM     47  C   UNL     1      -4.737  -0.454  -5.863  1.00  0.00     0.049 A 
ATOM     48  N   UNL     1      -5.955  -1.535  -8.409  1.00  0.00    -0.248 NA
ATOM     49  C   UNL     1      -5.947  -3.660  -7.440  1.00  0.00     0.031 C 
ATOM     50  C   UNL     1      -4.144   0.111  -4.652  1.00  0.00     0.029 A 
ATOM     51  N   UNL     1      -4.931   0.632  -6.681  1.00  0.00    -0.354 N 
ATOM     52  C   UNL     1      -6.495  -2.454  -9.300  1.00  0.00     0.074 A 
ATOM     53  C   UNL     1      -6.455  -3.749  -8.660  1.00  0.00     0.031 C 
ATOM     54  C   UNL     1      -3.987   1.437  -4.822  1.00  0.00     0.029 A 
ATOM     55  C   UNL     1      -4.432   1.806  -6.165  1.00  0.00     0.049 A 
ATOM     56  H   UNL     1      -5.384   0.577  -7.553  1.00  0.00     0.167 HD
ATOM     57  C   UNL     1      -6.974  -2.232 -10.545  1.00  0.00     0.037 A 
ATOM     58  C   UNL     1      -4.308   3.023  -6.734  1.00  0.00     0.037 A 
ATOM     59  C   UNL     1      -7.012  -0.940 -11.172  1.00  0.00     0.049 A 
ATOM     60  C   UNL     1      -4.790   3.226  -8.151  1.00  0.00     0.074 A 
ATOM     61  C   UNL     1      -7.533  -0.604 -12.409  1.00  0.00     0.029 A 
ATOM     62  N   UNL     1      -6.491   0.222 -10.625  1.00  0.00    -0.354 N 
ATOM     63  N   UNL     1      -5.363   2.366  -8.960  1.00  0.00    -0.248 NA
ATOM     64  C   UNL     1      -4.602   4.562  -8.738  1.00  0.00     0.031 C 
ATOM     65  C   UNL     1      -7.270   0.750 -12.636  1.00  0.00     0.029 A 
ATOM     66  C   UNL     1      -6.637   1.269 -11.518  1.00  0.00     0.049 A 
ATOM     67  H   UNL     1      -6.079   0.292  -9.733  1.00  0.00     0.167 HD
ATOM     68  C   UNL     1      -5.618   3.060 -10.139  1.00  0.00     0.074 A 
ATOM     69  C   UNL     1      -5.156   4.416  -9.934  1.00  0.00     0.031 C 
ATOM     70  C   UNL     1      -6.179   2.616 -11.291  1.00  0.00     0.037 A 
BRANCH  57  71
ATOM     71  C   UNL     1      -7.465  -3.412 -11.332  1.00  0.00     0.058 A 
ATOM     72  C   UNL     1      -8.691  -4.032 -11.052  1.00  0.00     0.135 A 
ATOM     73  C   UNL     1      -6.729  -3.874 -12.435  1.00  0.00     0.135 A 
ATOM     74  F   UNL     1      -9.420  -3.644  -9.993  1.00  0.00    -0.206 F 
ATOM     75  C   UNL     1      -9.175  -5.069 -11.842  1.00  0.00     0.059 A 
ATOM     76  C   UNL     1      -7.204  -4.893 -13.253  1.00  0.00     0.059 A 
ATOM     77  F   UNL     1      -5.543  -3.321 -12.736  1.00  0.00    -0.206 F 
ATOM     78  C   UNL     1      -8.428  -5.485 -12.947  1.00  0.00     0.060 A 
BRANCH  78  79
ATOM     79  S   UNL     1      -9.100  -6.790 -13.998  1.00  0.00     0.124 S 
ATOM     80  O   UNL     1      -8.960  -7.960 -13.135  1.00  0.00    -0.237 OA
ATOM     81  O   UNL     1     -10.466  -6.332 -14.227  1.00  0.00    -0.237 OA
ATOM     82  O   UNL     1      -8.229  -6.768 -15.169  1.00  0.00    -0.744 OA
ENDBRANCH  78  79
ENDBRANCH  57  71
BRANCH  58  83
ATOM     83  C   UNL     1      -3.644   4.137  -6.000  1.00  0.00     0.058 A 
ATOM     84  C   UNL     1      -4.353   5.287  -5.619  1.00  0.00     0.135 A 
ATOM     85  C   UNL     1      -2.271   4.096  -5.710  1.00  0.00     0.135 A 
ATOM     86  F   UNL     1      -5.665   5.385  -5.886  1.00  0.00    -0.206 F 
ATOM     87  C   UNL     1      -3.721   6.365  -5.006  1.00  0.00     0.059 A 
ATOM     88  C   UNL     1      -1.622   5.148  -5.072  1.00  0.00     0.059 A 
ATOM     89  F   UNL     1      -1.544   3.018  -6.047  1.00  0.00    -0.206 F 
ATOM     90  C   UNL     1      -2.353   6.287  -4.739  1.00  0.00     0.060 A 
BRANCH  90  91
ATOM     91  S   UNL     1      -1.543   7.686  -3.933  1.00  0.00     0.124 S 
ATOM     92  O   UNL     1      -1.485   8.657  -5.018  1.00  0.00    -0.237 OA
ATOM     93  O   UNL     1      -2.470   7.994  -2.848  1.00  0.00    -0.237 OA
ATOM     94  O   UNL     1      -0.260   7.131  -3.511  1.00  0.00    -0.744 OA
ENDBRANCH  90  91
ENDBRANCH  58  83
BRANCH  70  95
ATOM     95  C   UNL     1      -6.350   3.600 -12.416  1.00  0.00     0.058 A 
ATOM     96  C   UNL     1      -5.257   4.040 -13.179  1.00  0.00     0.135 A 
ATOM     97  C   UNL     1      -7.631   4.037 -12.792  1.00  0.00     0.135 A 
ATOM     98  F   UNL     1      -4.011   3.657 -12.858  1.00  0.00    -0.206 F 
ATOM     99  C   UNL     1      -5.428   4.886 -14.270  1.00  0.00     0.059 A 
ATOM    100  C   UNL     1      -7.827   4.860 -13.896  1.00  0.00     0.059 A 
ATOM    101  F   UNL     1      -8.711   3.636 -12.102  1.00  0.00    -0.206 F 
ATOM    102  C   UNL     1      -6.718   5.284 -14.626  1.00  0.00     0.060 A 
BRANCH 102 103
ATOM    103  S   UNL     1      -6.929   6.332 -16.080  1.00  0.00     0.124 S 
ATOM    104  O   UNL     1      -6.420   7.612 -15.597  1.00  0.00    -0.237 OA
ATOM    105  O   UNL     1      -6.103   5.656 -17.075  1.00  0.00    -0.237 OA
ATOM    106  O   UNL     1      -8.367   6.283 -16.330  1.00  0.00    -0.744 OA
ENDBRANCH 102 103
ENDBRANCH  70  95
ENDBRANCH  44  45
ENDBRANCH  37  39
ENDBRANCH  36  37
ENDBRANCH  35  36
ENDBRANCH  34  35
ENDBRANCH  33  34
ENDBRANCH  32  33
ENDBRANCH  31  32
ENDBRANCH  30  31
ENDBRANCH   1  30
TORSDOF 29
