REMARK SMILES O=C(OCCOCCOCCOCCOC(=O)c1cc(-c2ccccc2)nc(Nc2nc3ccccc3s2)n1)c1ccc(-c2c3nc(c(-c4c(F)cc(S(=O)(=O)[O-])cc4F)c4ccc([nH]4)c(-c4c(F)cc(S(=O)(=O)[O-])cc4F)c4nc(c(-c5c(F)cc(S(=O)(=O)[O-])cc5F)c5ccc2[nH]5)C=C4)C=C3)cc1
REMARK SMILES IDX 8 1 7 2 6 3 5 4 4 5 3 6 2 7 1 8 40 9 41 10 105 11 42 12
REMARK SMILES IDX 104 13 43 14 44 15 45 16 98 17 46 18 103 19 97 20 99 21
REMARK SMILES IDX 47 22 102 23 96 24 95 25 48 27 82 28 61 29 81 30 62 31 65 32
REMARK SMILES IDX 80 33 100 34 63 35 64 36 79 38 101 39 66 40 49 41 50 42
REMARK SMILES IDX 59 43 51 44 52 45 58 46 60 47 53 48 54 49 55 50 56 51 57 52
REMARK SMILES IDX 83 53 84 54 93 55 85 56 86 57 92 58 94 59 87 60 88 61 89 62
REMARK SMILES IDX 90 63 91 64 67 65 68 66 77 67 69 68 70 69 76 70 78 71 71 72
REMARK SMILES IDX 72 73 73 74 74 75 75 76 9 77 10 78 11 79 12 80 13 81 14 82
REMARK SMILES IDX 15 83 16 84 17 85 18 86 19 87 39 88 20 89 28 90 27 91 21 92
REMARK SMILES IDX 22 93 26 94 23 95 25 96 24 97 29 98 30 100 31 101 38 102
REMARK SMILES IDX 32 103 37 104 33 105 36 106 34 107 35 108
REMARK H PARENT 99 26 65 37 29 99
REMARK Flexibility Score: inf
ROOT
ATOM      1  C   UNL     1       1.406  -1.480  -2.533  1.00  0.00     0.188 C 
ENDROOT
BRANCH   1   2
ATOM      2  C   UNL     1       1.689  -1.495  -1.030  1.00  0.00     0.188 C 
BRANCH   2   3
ATOM      3  O   UNL     1       2.949  -0.870  -0.793  1.00  0.00    -0.376 OA
BRANCH   3   4
ATOM      4  C   UNL     1       3.732  -1.437   0.251  1.00  0.00     0.202 C 
BRANCH   4   5
ATOM      5  C   UNL     1       3.610  -0.667   1.562  1.00  0.00     0.261 C 
BRANCH   5   6
ATOM      6  O   UNL     1       2.263  -0.216   1.765  1.00  0.00    -0.460 OA
BRANCH   6   7
ATOM      7  C   UNL     1       1.743   0.962   1.332  1.00  0.00     0.338 C 
ATOM      8  O   UNL     1       0.533   1.154   1.438  1.00  0.00    -0.246 OA
BRANCH   7   9
ATOM      9  C   UNL     1       2.595   2.091   0.852  1.00  0.00     0.060 A 
ATOM     10  C   UNL     1       3.671   1.969  -0.032  1.00  0.00     0.016 A 
ATOM     11  C   UNL     1       2.224   3.376   1.274  1.00  0.00     0.016 A 
ATOM     12  C   UNL     1       4.431   3.074  -0.401  1.00  0.00     0.010 A 
ATOM     13  C   UNL     1       2.947   4.498   0.860  1.00  0.00     0.010 A 
ATOM     14  C   UNL     1       4.077   4.345   0.046  1.00  0.00    -0.014 A 
BRANCH  14  15
ATOM     15  C   UNL     1       4.968   5.487  -0.245  1.00  0.00     0.031 A 
ATOM     16  C   UNL     1       5.753   6.076   0.890  1.00  0.00     0.074 A 
ATOM     17  C   UNL     1       5.124   5.923  -1.508  1.00  0.00     0.049 A 
ATOM     18  N   UNL     1       6.485   7.155   0.920  1.00  0.00    -0.248 NA
ATOM     19  C   UNL     1       5.705   5.345   2.169  1.00  0.00     0.031 C 
ATOM     20  C   UNL     1       4.487   5.336  -2.690  1.00  0.00     0.029 A 
ATOM     21  N   UNL     1       5.879   6.949  -2.014  1.00  0.00    -0.354 N 
ATOM     22  C   UNL     1       6.942   7.261   2.229  1.00  0.00     0.074 A 
ATOM     23  C   UNL     1       6.410   6.135   2.962  1.00  0.00     0.031 C 
ATOM     24  C   UNL     1       4.895   5.998  -3.784  1.00  0.00     0.029 A 
ATOM     25  C   UNL     1       5.757   7.102  -3.376  1.00  0.00     0.049 A 
ATOM     26  H   UNL     1       6.453   7.522  -1.456  1.00  0.00     0.167 HD
ATOM     27  C   UNL     1       7.727   8.224   2.763  1.00  0.00     0.037 A 
ATOM     28  C   UNL     1       6.254   8.056  -4.186  1.00  0.00     0.037 A 
ATOM     29  C   UNL     1       8.252   9.321   1.995  1.00  0.00     0.049 A 
ATOM     30  C   UNL     1       7.075   9.152  -3.559  1.00  0.00     0.074 A 
ATOM     31  C   UNL     1       9.007  10.396   2.421  1.00  0.00     0.029 A 
ATOM     32  N   UNL     1       8.075   9.469   0.624  1.00  0.00    -0.354 N 
ATOM     33  N   UNL     1       7.429   9.299  -2.302  1.00  0.00    -0.248 NA
ATOM     34  C   UNL     1       7.545  10.223  -4.446  1.00  0.00     0.031 C 
ATOM     35  C   UNL     1       9.261  11.211   1.311  1.00  0.00     0.029 A 
ATOM     36  C   UNL     1       8.701  10.621   0.187  1.00  0.00     0.049 A 
ATOM     37  H   UNL     1       7.576   8.845   0.049  1.00  0.00     0.167 HD
ATOM     38  C   UNL     1       8.168  10.473  -2.248  1.00  0.00     0.074 A 
ATOM     39  C   UNL     1       8.229  10.986  -3.604  1.00  0.00     0.031 C 
ATOM     40  C   UNL     1       8.740  11.083  -1.179  1.00  0.00     0.037 A 
BRANCH  27  41
ATOM     41  C   UNL     1       7.990   8.155   4.241  1.00  0.00     0.058 A 
ATOM     42  C   UNL     1       8.837   7.187   4.804  1.00  0.00     0.135 A 
ATOM     43  C   UNL     1       7.344   9.045   5.114  1.00  0.00     0.135 A 
ATOM     44  F   UNL     1       9.455   6.290   4.019  1.00  0.00    -0.206 F 
ATOM     45  C   UNL     1       9.005   7.081   6.183  1.00  0.00     0.059 A 
ATOM     46  C   UNL     1       7.516   8.973   6.494  1.00  0.00     0.059 A 
ATOM     47  F   UNL     1       6.513   9.982   4.631  1.00  0.00    -0.206 F 
ATOM     48  C   UNL     1       8.333   7.974   7.019  1.00  0.00     0.060 A 
BRANCH  48  49
ATOM     49  S   UNL     1       8.532   7.804   8.806  1.00  0.00     0.124 S 
ATOM     50  O   UNL     1       7.726   6.617   9.076  1.00  0.00    -0.237 OA
ATOM     51  O   UNL     1       9.975   7.633   8.946  1.00  0.00    -0.237 OA
ATOM     52  O   UNL     1       7.998   9.057   9.329  1.00  0.00    -0.744 OA
ENDBRANCH  48  49
ENDBRANCH  27  41
BRANCH  28  53
ATOM     53  C   UNL     1       5.943   8.048  -5.643  1.00  0.00     0.058 A 
ATOM     54  C   UNL     1       6.943   7.834  -6.603  1.00  0.00     0.135 A 
ATOM     55  C   UNL     1       4.631   8.245  -6.107  1.00  0.00     0.135 A 
ATOM     56  F   UNL     1       8.215   7.651  -6.217  1.00  0.00    -0.206 F 
ATOM     57  C   UNL     1       6.658   7.825  -7.967  1.00  0.00     0.059 A 
ATOM     58  C   UNL     1       4.317   8.214  -7.463  1.00  0.00     0.059 A 
ATOM     59  F   UNL     1       3.632   8.448  -5.235  1.00  0.00    -0.206 F 
ATOM     60  C   UNL     1       5.340   8.015  -8.388  1.00  0.00     0.060 A 
BRANCH  60  61
ATOM     61  S   UNL     1       4.970   7.963 -10.156  1.00  0.00     0.124 S 
ATOM     62  O   UNL     1       5.489   9.250 -10.602  1.00  0.00    -0.237 OA
ATOM     63  O   UNL     1       5.716   6.787 -10.594  1.00  0.00    -0.237 OA
ATOM     64  O   UNL     1       3.518   7.821 -10.190  1.00  0.00    -0.744 OA
ENDBRANCH  60  61
ENDBRANCH  28  53
BRANCH  40  65
ATOM     65  C   UNL     1       9.499  12.348  -1.446  1.00  0.00     0.058 A 
ATOM     66  C   UNL     1       8.838  13.562  -1.684  1.00  0.00     0.135 A 
ATOM     67  C   UNL     1      10.901  12.355  -1.393  1.00  0.00     0.135 A 
ATOM     68  F   UNL     1       7.497  13.601  -1.750  1.00  0.00    -0.206 F 
ATOM     69  C   UNL     1       9.544  14.743  -1.876  1.00  0.00     0.059 A 
ATOM     70  C   UNL     1      11.627  13.528  -1.558  1.00  0.00     0.059 A 
ATOM     71  F   UNL     1      11.575  11.219  -1.157  1.00  0.00    -0.206 F 
ATOM     72  C   UNL     1      10.939  14.716  -1.808  1.00  0.00     0.060 A 
BRANCH  72  73
ATOM     73  S   UNL     1      11.845  16.263  -2.008  1.00  0.00     0.124 S 
ATOM     74  O   UNL     1      11.770  16.462  -3.451  1.00  0.00    -0.237 OA
ATOM     75  O   UNL     1      11.064  17.192  -1.198  1.00  0.00    -0.237 OA
ATOM     76  O   UNL     1      13.171  15.948  -1.484  1.00  0.00    -0.744 OA
ENDBRANCH  72  73
ENDBRANCH  40  65
ENDBRANCH  14  15
ENDBRANCH   7   9
ENDBRANCH   6   7
ENDBRANCH   5   6
ENDBRANCH   4   5
ENDBRANCH   3   4
ENDBRANCH   2   3
ENDBRANCH   1   2
BRANCH   1  77
ATOM     77  O   UNL     1       2.211  -2.383  -3.296  1.00  0.00    -0.377 OA
BRANCH  77  78
ATOM     78  C   UNL     1       3.619  -2.329  -3.074  1.00  0.00     0.188 C 
BRANCH  78  79
ATOM     79  C   UNL     1       4.373  -1.013  -3.372  1.00  0.00     0.188 C 
BRANCH  79  80
ATOM     80  O   UNL     1       3.555   0.046  -3.862  1.00  0.00    -0.376 OA
BRANCH  80  81
ATOM     81  C   UNL     1       3.743   0.370  -5.239  1.00  0.00     0.202 C 
BRANCH  81  82
ATOM     82  C   UNL     1       3.048  -0.612  -6.189  1.00  0.00     0.261 C 
BRANCH  82  83
ATOM     83  O   UNL     1       3.562  -1.952  -6.115  1.00  0.00    -0.459 OA
BRANCH  83  84
ATOM     84  C   UNL     1       4.861  -2.138  -6.453  1.00  0.00     0.357 C 
ATOM     85  O   UNL     1       5.610  -1.342  -6.986  1.00  0.00    -0.244 OA
BRANCH  84  86
ATOM     86  C   UNL     1       5.239  -3.471  -5.930  1.00  0.00     0.154 A 
ATOM     87  C   UNL     1       4.540  -4.565  -6.356  1.00  0.00     0.065 A 
ATOM     88  N   UNL     1       6.179  -3.503  -4.963  1.00  0.00    -0.206 NA
ATOM     89  C   UNL     1       4.907  -5.756  -5.779  1.00  0.00     0.077 A 
ATOM     90  C   UNL     1       6.411  -4.684  -4.382  1.00  0.00     0.230 A 
ATOM     91  N   UNL     1       5.832  -5.831  -4.793  1.00  0.00    -0.213 NA
BRANCH  89  92
ATOM     92  C   UNL     1       4.319  -7.009  -6.277  1.00  0.00     0.000 A 
ATOM     93  C   UNL     1       3.729  -7.956  -5.429  1.00  0.00     0.010 A 
ATOM     94  C   UNL     1       4.280  -7.249  -7.666  1.00  0.00     0.010 A 
ATOM     95  C   UNL     1       3.090  -9.085  -5.959  1.00  0.00     0.001 A 
ATOM     96  C   UNL     1       3.645  -8.371  -8.194  1.00  0.00     0.001 A 
ATOM     97  C   UNL     1       3.043  -9.286  -7.339  1.00  0.00     0.000 A 
ENDBRANCH  89  92
BRANCH  90  98
ATOM     98  N   UNL     1       7.332  -4.787  -3.344  1.00  0.00    -0.300 N 
ATOM     99  H   UNL     1       7.590  -5.691  -3.054  1.00  0.00     0.172 HD
BRANCH  98 100
ATOM    100  C   UNL     1       7.897  -3.743  -2.703  1.00  0.00     0.190 A 
ATOM    101  N   UNL     1       7.260  -2.873  -1.948  1.00  0.00    -0.220 NA
ATOM    102  S   UNL     1       9.609  -3.537  -2.746  1.00  0.00    -0.097 S 
ATOM    103  C   UNL     1       8.149  -1.950  -1.407  1.00  0.00     0.084 A 
ATOM    104  C   UNL     1       9.480  -2.114  -1.788  1.00  0.00     0.056 A 
ATOM    105  C   UNL     1       7.832  -0.886  -0.534  1.00  0.00     0.030 A 
ATOM    106  C   UNL     1      10.486  -1.217  -1.385  1.00  0.00     0.021 A 
ATOM    107  C   UNL     1       8.825   0.005  -0.113  1.00  0.00     0.002 A 
ATOM    108  C   UNL     1      10.134  -0.151  -0.551  1.00  0.00     0.002 A 
ENDBRANCH  98 100
ENDBRANCH  90  98
ENDBRANCH  84  86
ENDBRANCH  83  84
ENDBRANCH  82  83
ENDBRANCH  81  82
ENDBRANCH  80  81
ENDBRANCH  79  80
ENDBRANCH  78  79
ENDBRANCH  77  78
ENDBRANCH   1  77
TORSDOF 26
