REMARK SMILES CC(C)C[C@@H](CNc1nccc(C(F)(F)F)n1)C(=O)OCCOCCOCCOCCOC(=O)c1ccc(-c2c3nc(c(-c4c(F)cc(S(=O)(=O)[O-])cc4F)c4ccc([nH]4)c(-c4c(F)cc(S(=O)(=O)[O-])cc4F)c4nc(c(-c5c(F)cc(S(=O)(=O)[O-])cc5F)c5ccc2[nH]5)C=C4)C=C3)cc1
REMARK SMILES IDX 25 1 24 2 23 3 22 4 21 5 20 6 18 7 19 8 5 9 4 10 2 11 1 12
REMARK SMILES IDX 3 13 6 14 7 15 8 17 9 18 17 19 10 20 12 21 11 22 13 23 14 24
REMARK SMILES IDX 15 25 16 26 26 27 27 28 28 29 29 30 30 31 31 32 32 33 33 34
REMARK SMILES IDX 34 35 35 36 36 37 100 38 37 39 99 40 38 41 39 42 40 43 93 44
REMARK SMILES IDX 41 45 98 46 92 47 94 48 42 49 97 50 91 51 90 52 43 54 77 55
REMARK SMILES IDX 56 56 76 57 57 58 60 59 75 60 95 61 58 62 59 63 74 65 96 66
REMARK SMILES IDX 61 67 44 68 45 69 54 70 46 71 47 72 53 73 55 74 48 75 49 76
REMARK SMILES IDX 50 77 51 78 52 79 78 80 79 81 88 82 80 83 81 84 87 85 89 86
REMARK SMILES IDX 82 87 83 88 84 89 85 90 86 91 62 92 63 93 72 94 64 95 65 96
REMARK SMILES IDX 71 97 73 98 66 99 67 100 68 101 69 102 70 103
REMARK H PARENT 7 16 94 53 60 64
REMARK Flexibility Score: inf
ROOT
ATOM      1  C   UNL     1      -3.492   0.378  -0.727  1.00  0.00     0.188 C 
ENDROOT
BRANCH   1   2
ATOM      2  C   UNL     1      -4.319  -0.790  -0.181  1.00  0.00     0.188 C 
BRANCH   2   3
ATOM      3  O   UNL     1      -5.602  -0.573   0.370  1.00  0.00    -0.376 OA
BRANCH   3   4
ATOM      4  C   UNL     1      -5.804   0.329   1.449  1.00  0.00     0.202 C 
BRANCH   4   5
ATOM      5  C   UNL     1      -4.787   0.565   2.580  1.00  0.00     0.261 C 
BRANCH   5   6
ATOM      6  O   UNL     1      -3.442   0.919   2.209  1.00  0.00    -0.463 OA
BRANCH   6   7
ATOM      7  C   UNL     1      -2.507  -0.029   2.434  1.00  0.00     0.310 C 
ATOM      8  O   UNL     1      -2.764  -1.170   2.818  1.00  0.00    -0.252 OA
BRANCH   7   9
ATOM      9  C   UNL     1      -1.063   0.411   2.241  1.00  0.00     0.118 C 
BRANCH   9  10
ATOM     10  C   UNL     1      -0.679   1.497   1.208  1.00  0.00     0.020 C 
BRANCH  10  11
ATOM     11  C   UNL     1       0.832   1.503   0.850  1.00  0.00    -0.017 C 
ATOM     12  C   UNL     1       1.296   0.188   0.211  1.00  0.00     0.007 C 
ATOM     13  C   UNL     1       1.156   2.655  -0.107  1.00  0.00     0.007 C 
ENDBRANCH  10  11
ENDBRANCH   9  10
BRANCH   9  14
ATOM     14  C   UNL     1      -0.500   0.704   3.636  1.00  0.00     0.131 C 
BRANCH  14  15
ATOM     15  N   UNL     1      -1.012   1.955   4.159  1.00  0.00    -0.353 N 
ATOM     16  H   UNL     1      -0.698   2.819   3.804  1.00  0.00     0.163 HD
BRANCH  15  17
ATOM     17  C   UNL     1      -1.946   1.900   5.162  1.00  0.00     0.223 A 
ATOM     18  N   UNL     1      -2.988   2.725   5.042  1.00  0.00    -0.222 NA
ATOM     19  N   UNL     1      -1.788   1.032   6.162  1.00  0.00    -0.209 NA
ATOM     20  C   UNL     1      -3.934   2.656   5.993  1.00  0.00     0.117 A 
ATOM     21  C   UNL     1      -2.732   1.009   7.134  1.00  0.00     0.149 A 
ATOM     22  C   UNL     1      -3.857   1.810   7.071  1.00  0.00     0.054 A 
BRANCH  21  23
ATOM     23  C   UNL     1      -2.506   0.079   8.307  1.00  0.00     0.433 C 
ATOM     24  F   UNL     1      -2.487  -1.238   7.948  1.00  0.00    -0.165 F 
ATOM     25  F   UNL     1      -1.323   0.305   8.949  1.00  0.00    -0.165 F 
ATOM     26  F   UNL     1      -3.467   0.175   9.273  1.00  0.00    -0.165 F 
ENDBRANCH  21  23
ENDBRANCH  15  17
ENDBRANCH  14  15
ENDBRANCH   9  14
ENDBRANCH   7   9
ENDBRANCH   6   7
ENDBRANCH   5   6
ENDBRANCH   4   5
ENDBRANCH   3   4
ENDBRANCH   2   3
ENDBRANCH   1   2
BRANCH   1  27
ATOM     27  O   UNL     1      -3.814   1.663  -0.236  1.00  0.00    -0.377 OA
BRANCH  27  28
ATOM     28  C   UNL     1      -4.828   2.423  -0.885  1.00  0.00     0.188 C 
BRANCH  28  29
ATOM     29  C   UNL     1      -5.800   1.725  -1.854  1.00  0.00     0.188 C 
BRANCH  29  30
ATOM     30  O   UNL     1      -5.180   0.831  -2.766  1.00  0.00    -0.376 OA
BRANCH  30  31
ATOM     31  C   UNL     1      -4.757   1.326  -4.029  1.00  0.00     0.202 C 
BRANCH  31  32
ATOM     32  C   UNL     1      -3.744   2.483  -4.053  1.00  0.00     0.261 C 
BRANCH  32  33
ATOM     33  O   UNL     1      -4.189   3.736  -3.504  1.00  0.00    -0.460 OA
BRANCH  33  34
ATOM     34  C   UNL     1      -5.340   4.263  -3.977  1.00  0.00     0.338 C 
ATOM     35  O   UNL     1      -6.010   3.848  -4.899  1.00  0.00    -0.246 OA
BRANCH  34  36
ATOM     36  C   UNL     1      -5.769   5.330  -3.046  1.00  0.00     0.060 A 
ATOM     37  C   UNL     1      -7.019   5.212  -2.428  1.00  0.00     0.016 A 
ATOM     38  C   UNL     1      -4.964   6.446  -2.808  1.00  0.00     0.016 A 
ATOM     39  C   UNL     1      -7.491   6.235  -1.608  1.00  0.00     0.010 A 
ATOM     40  C   UNL     1      -5.447   7.482  -2.000  1.00  0.00     0.010 A 
ATOM     41  C   UNL     1      -6.729   7.398  -1.428  1.00  0.00    -0.014 A 
BRANCH  41  42
ATOM     42  C   UNL     1      -7.361   8.582  -0.793  1.00  0.00     0.031 A 
ATOM     43  C   UNL     1      -7.905   9.671  -1.680  1.00  0.00     0.074 A 
ATOM     44  C   UNL     1      -7.510   8.657   0.542  1.00  0.00     0.049 A 
ATOM     45  N   UNL     1      -8.502  10.787  -1.353  1.00  0.00    -0.248 NA
ATOM     46  C   UNL     1      -7.759   9.473  -3.133  1.00  0.00     0.031 C 
ATOM     47  C   UNL     1      -7.059   7.648   1.501  1.00  0.00     0.029 A 
ATOM     48  N   UNL     1      -8.084   9.629   1.323  1.00  0.00    -0.354 N 
ATOM     49  C   UNL     1      -8.809  11.420  -2.552  1.00  0.00     0.074 A 
ATOM     50  C   UNL     1      -8.297  10.583  -3.615  1.00  0.00     0.031 C 
ATOM     51  C   UNL     1      -7.366   8.061   2.743  1.00  0.00     0.029 A 
ATOM     52  C   UNL     1      -8.007   9.373   2.671  1.00  0.00     0.049 A 
ATOM     53  H   UNL     1      -8.511  10.435   0.951  1.00  0.00     0.167 HD
ATOM     54  C   UNL     1      -9.471  12.584  -2.751  1.00  0.00     0.037 A 
ATOM     55  C   UNL     1      -8.390  10.122   3.725  1.00  0.00     0.037 A 
ATOM     56  C   UNL     1      -9.976  13.416  -1.689  1.00  0.00     0.049 A 
ATOM     57  C   UNL     1      -9.060  11.451   3.477  1.00  0.00     0.074 A 
ATOM     58  C   UNL     1     -10.661  14.615  -1.787  1.00  0.00     0.029 A 
ATOM     59  N   UNL     1      -9.849  13.140  -0.336  1.00  0.00    -0.354 N 
ATOM     60  N   UNL     1      -9.361  12.027   2.336  1.00  0.00    -0.248 NA
ATOM     61  C   UNL     1      -9.451  12.229   4.661  1.00  0.00     0.031 C 
ATOM     62  C   UNL     1     -10.902  15.089  -0.494  1.00  0.00     0.029 A 
ATOM     63  C   UNL     1     -10.422  14.156   0.411  1.00  0.00     0.049 A 
ATOM     64  H   UNL     1      -9.416  12.339   0.039  1.00  0.00     0.167 HD
ATOM     65  C   UNL     1      -9.998  13.220   2.667  1.00  0.00     0.074 A 
ATOM     66  C   UNL     1     -10.063  13.269   4.112  1.00  0.00     0.031 C 
ATOM     67  C   UNL     1     -10.482  14.190   1.851  1.00  0.00     0.037 A 
BRANCH  54  68
ATOM     68  C   UNL     1      -9.683  13.040  -4.169  1.00  0.00     0.058 A 
ATOM     69  C   UNL     1     -10.593  12.397  -5.022  1.00  0.00     0.135 A 
ATOM     70  C   UNL     1      -9.016  14.175  -4.659  1.00  0.00     0.135 A 
ATOM     71  F   UNL     1     -11.240  11.294  -4.614  1.00  0.00    -0.206 F 
ATOM     72  C   UNL     1     -10.830  12.858  -6.314  1.00  0.00     0.059 A 
ATOM     73  C   UNL     1      -9.258  14.670  -5.937  1.00  0.00     0.059 A 
ATOM     74  F   UNL     1      -8.130  14.824  -3.888  1.00  0.00    -0.206 F 
ATOM     75  C   UNL     1     -10.164  14.001  -6.759  1.00  0.00     0.060 A 
BRANCH  75  76
ATOM     76  S   UNL     1     -10.516  14.609  -8.422  1.00  0.00     0.124 S 
ATOM     77  O   UNL     1      -9.900  13.576  -9.248  1.00  0.00    -0.237 OA
ATOM     78  O   UNL     1     -11.975  14.646  -8.436  1.00  0.00    -0.237 OA
ATOM     79  O   UNL     1      -9.859  15.912  -8.455  1.00  0.00    -0.744 OA
ENDBRANCH  75  76
ENDBRANCH  54  68
BRANCH  55  80
ATOM     80  C   UNL     1      -8.128   9.657   5.115  1.00  0.00     0.058 A 
ATOM     81  C   UNL     1      -9.175   9.345   5.995  1.00  0.00     0.135 A 
ATOM     82  C   UNL     1      -6.816   9.555   5.605  1.00  0.00     0.135 A 
ATOM     83  F   UNL     1     -10.448   9.436   5.581  1.00  0.00    -0.206 F 
ATOM     84  C   UNL     1      -8.935   8.978   7.316  1.00  0.00     0.059 A 
ATOM     85  C   UNL     1      -6.549   9.159   6.912  1.00  0.00     0.059 A 
ATOM     86  F   UNL     1      -5.774   9.833   4.805  1.00  0.00    -0.206 F 
ATOM     87  C   UNL     1      -7.617   8.888   7.765  1.00  0.00     0.060 A 
BRANCH  87  88
ATOM     88  S   UNL     1      -7.313   8.380   9.470  1.00  0.00     0.124 S 
ATOM     89  O   UNL     1      -7.727   9.567  10.209  1.00  0.00    -0.237 OA
ATOM     90  O   UNL     1      -8.178   7.211   9.599  1.00  0.00    -0.237 OA
ATOM     91  O   UNL     1      -5.882   8.091   9.484  1.00  0.00    -0.744 OA
ENDBRANCH  87  88
ENDBRANCH  55  80
BRANCH  67  92
ATOM     92  C   UNL     1     -11.154  15.370   2.504  1.00  0.00     0.058 A 
ATOM     93  C   UNL     1     -10.431  16.317   3.247  1.00  0.00     0.135 A 
ATOM     94  C   UNL     1     -12.539  15.566   2.368  1.00  0.00     0.135 A 
ATOM     95  F   UNL     1      -9.106  16.179   3.410  1.00  0.00    -0.206 F 
ATOM     96  C   UNL     1     -11.063  17.389   3.870  1.00  0.00     0.059 A 
ATOM     97  C   UNL     1     -13.186  16.650   2.953  1.00  0.00     0.059 A 
ATOM     98  F   UNL     1     -13.278  14.702   1.654  1.00  0.00    -0.206 F 
ATOM     99  C   UNL     1     -12.442  17.545   3.721  1.00  0.00     0.060 A 
BRANCH  99 100
ATOM    100  S   UNL     1     -13.249  18.937   4.538  1.00  0.00     0.124 S 
ATOM    101  O   UNL     1     -13.216  18.516   5.935  1.00  0.00    -0.237 OA
ATOM    102  O   UNL     1     -12.374  20.053   4.192  1.00  0.00    -0.237 OA
ATOM    103  O   UNL     1     -14.573  18.972   3.924  1.00  0.00    -0.744 OA
ENDBRANCH  99 100
ENDBRANCH  67  92
ENDBRANCH  41  42
ENDBRANCH  34  36
ENDBRANCH  33  34
ENDBRANCH  32  33
ENDBRANCH  31  32
ENDBRANCH  30  31
ENDBRANCH  29  30
ENDBRANCH  28  29
ENDBRANCH  27  28
ENDBRANCH   1  27
TORSDOF 29
