REMARK SMILES C#CC[N@@H+](CC(=O)OCCOCCOCCOCCOC(=O)c1ccc(-c2c3nc(c(-c4c(F)cc(S(=O)(=O)[O-])cc4F)c4ccc([nH]4)c(-c4c(F)cc(S(=O)(=O)[O-])cc4F)c4nc(c(-c5c(F)cc(S(=O)(=O)[O-])cc5F)c5ccc2[nH]5)C=C4)C=C3)cc1)Cc1cn(CC)c2ccccc12
REMARK SMILES IDX 13 1 12 2 11 3 10 4 9 5 8 6 6 7 7 8 5 9 4 10 3 12 2 13 1 14
REMARK SMILES IDX 89 15 90 16 91 17 100 18 92 19 95 20 99 21 96 22 98 23 97 24
REMARK SMILES IDX 93 25 94 26 14 27 15 28 16 29 17 30 18 31 19 32 20 33 21 34
REMARK SMILES IDX 22 35 23 36 24 37 88 38 25 39 87 40 26 41 27 42 28 43 81 44
REMARK SMILES IDX 29 45 86 46 80 47 82 48 30 49 85 50 79 51 78 52 31 54 65 55
REMARK SMILES IDX 44 56 64 57 45 58 48 59 63 60 83 61 46 62 47 63 62 65 84 66
REMARK SMILES IDX 49 67 32 68 33 69 42 70 34 71 35 72 41 73 43 74 36 75 37 76
REMARK SMILES IDX 38 77 39 78 40 79 66 80 67 81 76 82 68 83 69 84 75 85 77 86
REMARK SMILES IDX 70 87 71 88 72 89 73 90 74 91 50 92 51 93 60 94 52 95 53 96
REMARK SMILES IDX 59 97 61 98 54 99 55 100 56 101 57 102 58 103
REMARK H PARENT 4 11 82 53 48 64
REMARK Flexibility Score: inf
ROOT
ATOM      1  C   UNL     1      -3.798  -1.756  -4.331  1.00  0.00     0.188 C 
ENDROOT
BRANCH   1   2
ATOM      2  C   UNL     1      -5.123  -1.011  -4.204  1.00  0.00     0.188 C 
BRANCH   2   3
ATOM      3  O   UNL     1      -5.114   0.279  -4.786  1.00  0.00    -0.376 OA
BRANCH   3   4
ATOM      4  C   UNL     1      -4.860   1.408  -3.946  1.00  0.00     0.202 C 
BRANCH   4   5
ATOM      5  C   UNL     1      -5.089   1.373  -2.417  1.00  0.00     0.261 C 
BRANCH   5   6
ATOM      6  O   UNL     1      -4.240   0.505  -1.607  1.00  0.00    -0.459 OA
BRANCH   6   7
ATOM      7  C   UNL     1      -4.809   0.124  -0.420  1.00  0.00     0.361 C 
ATOM      8  O   UNL     1      -5.998   0.353  -0.174  1.00  0.00    -0.245 OA
BRANCH   7   9
ATOM      9  C   UNL     1      -3.938  -0.512   0.694  1.00  0.00     0.387 C 
BRANCH   9  10
ATOM     10  N   UNL     1      -2.540  -1.010   0.501  1.00  0.00    -0.312 N 
ATOM     11  H   UNL     1      -2.252  -1.282   1.441  1.00  0.00     0.349 HD
BRANCH  10  12
ATOM     12  C   UNL     1      -1.784   0.051  -0.076  1.00  0.00     0.354 C 
BRANCH  12  13
ATOM     13  C   UNL     1      -0.264   0.051  -0.076  1.00  0.00    -0.047 C 
ATOM     14  C   UNL     1       1.040   0.051  -0.076  1.00  0.00     0.010 C 
ENDBRANCH  12  13
ENDBRANCH  10  12
BRANCH  10  15
ATOM     15  C   UNL     1      -2.290  -2.267  -0.214  1.00  0.00     0.302 C 
BRANCH  15  16
ATOM     16  C   UNL     1      -3.517  -3.094  -0.244  1.00  0.00     0.032 A 
ATOM     17  C   UNL     1      -4.492  -2.948  -1.196  1.00  0.00     0.096 A 
ATOM     18  C   UNL     1      -4.049  -3.949   0.755  1.00  0.00     0.008 A 
ATOM     19  N   UNL     1      -5.652  -3.479  -0.729  1.00  0.00    -0.347 N 
ATOM     20  C   UNL     1      -5.386  -4.201   0.413  1.00  0.00     0.048 A 
ATOM     21  C   UNL     1      -3.555  -4.406   1.990  1.00  0.00     0.011 A 
ATOM     22  C   UNL     1      -6.229  -4.955   1.233  1.00  0.00     0.027 A 
ATOM     23  C   UNL     1      -4.402  -5.123   2.834  1.00  0.00     0.001 A 
ATOM     24  C   UNL     1      -5.712  -5.405   2.452  1.00  0.00     0.002 A 
BRANCH  19  25
ATOM     25  C   UNL     1      -6.946  -2.990  -1.174  1.00  0.00     0.119 C 
ATOM     26  C   UNL     1      -7.614  -3.886  -2.191  1.00  0.00     0.027 C 
ENDBRANCH  19  25
ENDBRANCH  15  16
ENDBRANCH  10  15
ENDBRANCH   9  10
ENDBRANCH   7   9
ENDBRANCH   6   7
ENDBRANCH   5   6
ENDBRANCH   4   5
ENDBRANCH   3   4
ENDBRANCH   2   3
ENDBRANCH   1   2
BRANCH   1  27
ATOM     27  O   UNL     1      -2.726  -1.114  -3.651  1.00  0.00    -0.377 OA
BRANCH  27  28
ATOM     28  C   UNL     1      -1.919  -0.231  -4.430  1.00  0.00     0.188 C 
BRANCH  28  29
ATOM     29  C   UNL     1      -1.716  -0.630  -5.895  1.00  0.00     0.188 C 
BRANCH  29  30
ATOM     30  O   UNL     1      -1.203  -1.939  -6.154  1.00  0.00    -0.376 OA
BRANCH  30  31
ATOM     31  C   UNL     1      -0.419  -2.569  -5.146  1.00  0.00     0.202 C 
BRANCH  31  32
ATOM     32  C   UNL     1       1.042  -2.122  -5.033  1.00  0.00     0.261 C 
BRANCH  32  33
ATOM     33  O   UNL     1       1.202  -0.714  -4.817  1.00  0.00    -0.460 OA
BRANCH  33  34
ATOM     34  C   UNL     1       1.365   0.017  -5.948  1.00  0.00     0.338 C 
ATOM     35  O   UNL     1       1.394  -0.385  -7.094  1.00  0.00    -0.246 OA
BRANCH  34  36
ATOM     36  C   UNL     1       1.362   1.446  -5.590  1.00  0.00     0.060 A 
ATOM     37  C   UNL     1       0.457   2.306  -6.227  1.00  0.00     0.016 A 
ATOM     38  C   UNL     1       2.320   1.940  -4.705  1.00  0.00     0.016 A 
ATOM     39  C   UNL     1       0.532   3.675  -6.012  1.00  0.00     0.010 A 
ATOM     40  C   UNL     1       2.418   3.316  -4.515  1.00  0.00     0.010 A 
ATOM     41  C   UNL     1       1.553   4.184  -5.203  1.00  0.00    -0.014 A 
BRANCH  41  42
ATOM     42  C   UNL     1       1.865   5.624  -5.266  1.00  0.00     0.031 A 
ATOM     43  C   UNL     1       2.978   6.061  -6.175  1.00  0.00     0.074 A 
ATOM     44  C   UNL     1       1.159   6.507  -4.543  1.00  0.00     0.049 A 
ATOM     45  N   UNL     1       3.504   7.246  -6.329  1.00  0.00    -0.248 NA
ATOM     46  C   UNL     1       3.586   5.017  -7.020  1.00  0.00     0.031 C 
ATOM     47  C   UNL     1       0.024   6.178  -3.682  1.00  0.00     0.029 A 
ATOM     48  N   UNL     1       1.305   7.862  -4.411  1.00  0.00    -0.354 N 
ATOM     49  C   UNL     1       4.511   7.088  -7.274  1.00  0.00     0.074 A 
ATOM     50  C   UNL     1       4.543   5.691  -7.639  1.00  0.00     0.031 C 
ATOM     51  C   UNL     1      -0.410   7.303  -3.089  1.00  0.00     0.029 A 
ATOM     52  C   UNL     1       0.442   8.417  -3.499  1.00  0.00     0.049 A 
ATOM     53  H   UNL     1       1.964   8.386  -4.920  1.00  0.00     0.167 HD
ATOM     54  C   UNL     1       5.330   8.033  -7.791  1.00  0.00     0.037 A 
ATOM     55  C   UNL     1       0.379   9.677  -3.029  1.00  0.00     0.037 A 
ATOM     56  C   UNL     1       5.277   9.419  -7.409  1.00  0.00     0.049 A 
ATOM     57  C   UNL     1       1.354  10.696  -3.562  1.00  0.00     0.074 A 
ATOM     58  C   UNL     1       6.049  10.470  -7.870  1.00  0.00     0.029 A 
ATOM     59  N   UNL     1       4.405   9.945  -6.466  1.00  0.00    -0.354 N 
ATOM     60  N   UNL     1       2.298  10.544  -4.463  1.00  0.00    -0.248 NA
ATOM     61  C   UNL     1       1.255  12.056  -3.019  1.00  0.00     0.031 C 
ATOM     62  C   UNL     1       5.683  11.619  -7.164  1.00  0.00     0.029 A 
ATOM     63  C   UNL     1       4.638  11.300  -6.310  1.00  0.00     0.049 A 
ATOM     64  H   UNL     1       3.721   9.430  -5.979  1.00  0.00     0.167 HD
ATOM     65  C   UNL     1       2.885  11.796  -4.616  1.00  0.00     0.074 A 
ATOM     66  C   UNL     1       2.179  12.695  -3.724  1.00  0.00     0.031 C 
ATOM     67  C   UNL     1       3.912  12.172  -5.419  1.00  0.00     0.037 A 
BRANCH  54  68
ATOM     68  C   UNL     1       6.364   7.595  -8.791  1.00  0.00     0.058 A 
ATOM     69  C   UNL     1       6.017   7.176 -10.085  1.00  0.00     0.135 A 
ATOM     70  C   UNL     1       7.729   7.627  -8.459  1.00  0.00     0.135 A 
ATOM     71  F   UNL     1       4.727   7.102 -10.450  1.00  0.00    -0.206 F 
ATOM     72  C   UNL     1       6.984   6.787 -11.008  1.00  0.00     0.059 A 
ATOM     73  C   UNL     1       8.714   7.271  -9.376  1.00  0.00     0.059 A 
ATOM     74  F   UNL     1       8.117   8.009  -7.232  1.00  0.00    -0.206 F 
ATOM     75  C   UNL     1       8.331   6.843 -10.645  1.00  0.00     0.060 A 
BRANCH  75  76
ATOM     76  S   UNL     1       9.572   6.358 -11.863  1.00  0.00     0.124 S 
ATOM     77  O   UNL     1       9.361   4.916 -11.937  1.00  0.00    -0.237 OA
ATOM     78  O   UNL     1       9.165   7.119 -13.040  1.00  0.00    -0.237 OA
ATOM     79  O   UNL     1      10.830   6.777 -11.252  1.00  0.00    -0.744 OA
ENDBRANCH  75  76
ENDBRANCH  54  68
BRANCH  55  80
ATOM     80  C   UNL     1      -0.622  10.037  -1.991  1.00  0.00     0.058 A 
ATOM     81  C   UNL     1      -1.677  10.915  -2.275  1.00  0.00     0.135 A 
ATOM     82  C   UNL     1      -0.545   9.510  -0.691  1.00  0.00     0.135 A 
ATOM     83  F   UNL     1      -1.792  11.451  -3.500  1.00  0.00    -0.206 F 
ATOM     84  C   UNL     1      -2.609  11.274  -1.307  1.00  0.00     0.059 A 
ATOM     85  C   UNL     1      -1.481   9.829   0.286  1.00  0.00     0.059 A 
ATOM     86  F   UNL     1       0.437   8.653  -0.369  1.00  0.00    -0.206 F 
ATOM     87  C   UNL     1      -2.503  10.723  -0.028  1.00  0.00     0.060 A 
BRANCH  87  88
ATOM     88  S   UNL     1      -3.742  11.166   1.208  1.00  0.00     0.124 S 
ATOM     89  O   UNL     1      -3.392  12.553   1.490  1.00  0.00    -0.237 OA
ATOM     90  O   UNL     1      -4.988  10.955   0.479  1.00  0.00    -0.237 OA
ATOM     91  O   UNL     1      -3.490  10.218   2.290  1.00  0.00    -0.744 OA
ENDBRANCH  87  88
ENDBRANCH  55  80
BRANCH  67  92
ATOM     92  C   UNL     1       4.306  13.624  -5.400  1.00  0.00     0.058 A 
ATOM     93  C   UNL     1       4.963  14.199  -4.302  1.00  0.00     0.135 A 
ATOM     94  C   UNL     1       4.072  14.434  -6.524  1.00  0.00     0.135 A 
ATOM     95  F   UNL     1       5.205  13.470  -3.201  1.00  0.00    -0.206 F 
ATOM     96  C   UNL     1       5.349  15.535  -4.306  1.00  0.00     0.059 A 
ATOM     97  C   UNL     1       4.481  15.763  -6.564  1.00  0.00     0.059 A 
ATOM     98  F   UNL     1       3.459  13.930  -7.607  1.00  0.00    -0.206 F 
ATOM     99  C   UNL     1       5.107  16.308  -5.444  1.00  0.00     0.060 A 
BRANCH  99 100
ATOM    100  S   UNL     1       5.644  18.030  -5.448  1.00  0.00     0.124 S 
ATOM    101  O   UNL     1       4.689  18.638  -4.528  1.00  0.00    -0.237 OA
ATOM    102  O   UNL     1       7.017  17.929  -4.961  1.00  0.00    -0.237 OA
ATOM    103  O   UNL     1       5.509  18.427  -6.846  1.00  0.00    -0.744 OA
ENDBRANCH  99 100
ENDBRANCH  67  92
ENDBRANCH  41  42
ENDBRANCH  34  36
ENDBRANCH  33  34
ENDBRANCH  32  33
ENDBRANCH  31  32
ENDBRANCH  30  31
ENDBRANCH  29  30
ENDBRANCH  28  29
ENDBRANCH  27  28
ENDBRANCH   1  27
TORSDOF 29
