REMARK SMILES O=C(OCCOCCOCCOCCOC(=O)c1nccnc1C(=O)Nc1n[nH]c2ncccc12)c1ccc(-c2c3nc(c(-c4c(F)cc(S(=O)(=O)[O-])cc4F)c4ccc([nH]4)c(-c4c(F)cc(S(=O)(=O)[O-])cc4F)c4nc(c(-c5c(F)cc(S(=O)(=O)[O-])cc5F)c5ccc2[nH]5)C=C4)C=C3)cc1
REMARK SMILES IDX 8 1 7 2 6 3 5 4 4 5 3 6 2 7 1 8 36 9 37 10 101 11 38 12
REMARK SMILES IDX 100 13 39 14 40 15 41 16 94 17 42 18 99 19 93 20 95 21 43 22
REMARK SMILES IDX 98 23 92 24 91 25 44 27 78 28 57 29 77 30 58 31 61 32 76 33
REMARK SMILES IDX 96 34 59 35 60 36 75 38 97 39 62 40 45 41 46 42 55 43 47 44
REMARK SMILES IDX 48 45 54 46 56 47 49 48 50 49 51 50 52 51 53 52 79 53 80 54
REMARK SMILES IDX 89 55 81 56 82 57 88 58 90 59 83 60 84 61 85 62 86 63 87 64
REMARK SMILES IDX 63 65 64 66 73 67 65 68 66 69 72 70 74 71 67 72 68 73 69 74
REMARK SMILES IDX 70 75 71 76 9 77 10 78 11 79 12 80 13 81 14 82 15 83 16 84
REMARK SMILES IDX 17 85 18 86 19 87 23 88 20 89 22 90 21 91 24 92 25 93 26 94
REMARK SMILES IDX 27 96 28 97 35 98 29 99 30 100 34 101 31 103 33 104 32 105
REMARK H PARENT 95 26 61 37 26 95 29 102
REMARK Flexibility Score: inf
ROOT
ATOM      1  C   UNL     1       2.178   2.376   0.196  1.00  0.00     0.188 C 
ENDROOT
BRANCH   1   2
ATOM      2  C   UNL     1       2.232   0.887  -0.050  1.00  0.00     0.188 C 
BRANCH   2   3
ATOM      3  O   UNL     1       3.578   0.448  -0.087  1.00  0.00    -0.376 OA
BRANCH   3   4
ATOM      4  C   UNL     1       4.232   0.159  -1.295  1.00  0.00     0.202 C 
BRANCH   4   5
ATOM      5  C   UNL     1       3.863  -1.177  -1.908  1.00  0.00     0.261 C 
BRANCH   5   6
ATOM      6  O   UNL     1       2.478  -1.522  -1.716  1.00  0.00    -0.460 OA
BRANCH   6   7
ATOM      7  C   UNL     1       1.910  -2.100  -0.620  1.00  0.00     0.338 C 
ATOM      8  O   UNL     1       0.691  -2.247  -0.578  1.00  0.00    -0.246 OA
BRANCH   7   9
ATOM      9  C   UNL     1       2.726  -2.629   0.504  1.00  0.00     0.060 A 
ATOM     10  C   UNL     1       3.685  -1.883   1.171  1.00  0.00     0.016 A 
ATOM     11  C   UNL     1       2.426  -3.875   1.044  1.00  0.00     0.016 A 
ATOM     12  C   UNL     1       4.608  -2.422   2.014  1.00  0.00     0.010 A 
ATOM     13  C   UNL     1       3.180  -4.358   2.120  1.00  0.00     0.010 A 
ATOM     14  C   UNL     1       4.318  -3.652   2.547  1.00  0.00    -0.014 A 
BRANCH  14  15
ATOM     15  C   UNL     1       5.352  -4.204   3.417  1.00  0.00     0.031 A 
ATOM     16  C   UNL     1       6.129  -5.338   2.851  1.00  0.00     0.074 A 
ATOM     17  C   UNL     1       5.711  -3.558   4.543  1.00  0.00     0.049 A 
ATOM     18  N   UNL     1       7.006  -6.098   3.431  1.00  0.00    -0.248 NA
ATOM     19  C   UNL     1       5.885  -5.659   1.430  1.00  0.00     0.031 C 
ATOM     20  C   UNL     1       5.133  -2.296   5.032  1.00  0.00     0.029 A 
ATOM     21  N   UNL     1       6.675  -3.852   5.463  1.00  0.00    -0.354 N 
ATOM     22  C   UNL     1       7.380  -7.016   2.464  1.00  0.00     0.074 A 
ATOM     23  C   UNL     1       6.625  -6.740   1.267  1.00  0.00     0.031 C 
ATOM     24  C   UNL     1       5.753  -1.937   6.167  1.00  0.00     0.029 A 
ATOM     25  C   UNL     1       6.692  -2.986   6.532  1.00  0.00     0.049 A 
ATOM     26  H   UNL     1       7.298  -4.609   5.371  1.00  0.00     0.167 HD
ATOM     27  C   UNL     1       8.288  -8.002   2.587  1.00  0.00     0.037 A 
ATOM     28  C   UNL     1       7.349  -3.092   7.700  1.00  0.00     0.037 A 
ATOM     29  C   UNL     1       9.019  -8.220   3.800  1.00  0.00     0.049 A 
ATOM     30  C   UNL     1       8.236  -4.299   7.872  1.00  0.00     0.074 A 
ATOM     31  C   UNL     1       9.900  -9.235   4.106  1.00  0.00     0.029 A 
ATOM     32  N   UNL     1       8.949  -7.387   4.912  1.00  0.00    -0.354 N 
ATOM     33  N   UNL     1       8.508  -5.251   7.007  1.00  0.00    -0.248 NA
ATOM     34  C   UNL     1       8.895  -4.456   9.170  1.00  0.00     0.031 C 
ATOM     35  C   UNL     1      10.315  -9.051   5.428  1.00  0.00     0.029 A 
ATOM     36  C   UNL     1       9.757  -7.877   5.918  1.00  0.00     0.049 A 
ATOM     37  H   UNL     1       8.404  -6.570   4.973  1.00  0.00     0.167 HD
ATOM     38  C   UNL     1       9.395  -6.107   7.647  1.00  0.00     0.074 A 
ATOM     39  C   UNL     1       9.632  -5.537   8.960  1.00  0.00     0.031 C 
ATOM     40  C   UNL     1       9.961  -7.259   7.206  1.00  0.00     0.037 A 
BRANCH  27  41
ATOM     41  C   UNL     1       8.450  -8.927   1.424  1.00  0.00     0.058 A 
ATOM     42  C   UNL     1       9.035  -8.515   0.216  1.00  0.00     0.135 A 
ATOM     43  C   UNL     1       7.975 -10.244   1.512  1.00  0.00     0.135 A 
ATOM     44  F   UNL     1       9.444  -7.246   0.058  1.00  0.00    -0.206 F 
ATOM     45  C   UNL     1       9.146  -9.381  -0.865  1.00  0.00     0.059 A 
ATOM     46  C   UNL     1       8.107 -11.136   0.456  1.00  0.00     0.059 A 
ATOM     47  F   UNL     1       7.366 -10.670   2.629  1.00  0.00    -0.206 F 
ATOM     48  C   UNL     1       8.693 -10.694  -0.728  1.00  0.00     0.060 A 
BRANCH  48  49
ATOM     49  S   UNL     1       8.912 -11.823  -2.117  1.00  0.00     0.124 S 
ATOM     50  O   UNL     1       7.989 -11.264  -3.099  1.00  0.00    -0.237 OA
ATOM     51  O   UNL     1      10.331 -11.664  -2.417  1.00  0.00    -0.237 OA
ATOM     52  O   UNL     1       8.531 -13.119  -1.565  1.00  0.00    -0.744 OA
ENDBRANCH  48  49
ENDBRANCH  27  41
BRANCH  28  53
ATOM     53  C   UNL     1       7.116  -2.122   8.808  1.00  0.00     0.058 A 
ATOM     54  C   UNL     1       8.160  -1.360   9.353  1.00  0.00     0.135 A 
ATOM     55  C   UNL     1       5.843  -1.978   9.387  1.00  0.00     0.135 A 
ATOM     56  F   UNL     1       9.398  -1.458   8.845  1.00  0.00    -0.206 F 
ATOM     57  C   UNL     1       7.963  -0.529  10.453  1.00  0.00     0.059 A 
ATOM     58  C   UNL     1       5.611  -1.124  10.460  1.00  0.00     0.059 A 
ATOM     59  F   UNL     1       4.798  -2.671   8.906  1.00  0.00    -0.206 F 
ATOM     60  C   UNL     1       6.683  -0.420  11.002  1.00  0.00     0.060 A 
BRANCH  60  61
ATOM     61  S   UNL     1       6.437   0.656  12.431  1.00  0.00     0.124 S 
ATOM     62  O   UNL     1       7.158  -0.067  13.471  1.00  0.00    -0.237 OA
ATOM     63  O   UNL     1       7.046   1.904  11.980  1.00  0.00    -0.237 OA
ATOM     64  O   UNL     1       4.985   0.692  12.579  1.00  0.00    -0.744 OA
ENDBRANCH  60  61
ENDBRANCH  28  53
BRANCH  40  65
ATOM     65  C   UNL     1      10.926  -7.935   8.136  1.00  0.00     0.058 A 
ATOM     66  C   UNL     1      10.504  -8.541   9.329  1.00  0.00     0.135 A 
ATOM     67  C   UNL     1      12.288  -8.008   7.802  1.00  0.00     0.135 A 
ATOM     68  F   UNL     1       9.212  -8.498   9.692  1.00  0.00    -0.206 F 
ATOM     69  C   UNL     1      11.409  -9.153  10.185  1.00  0.00     0.059 A 
ATOM     70  C   UNL     1      13.202  -8.659   8.619  1.00  0.00     0.059 A 
ATOM     71  F   UNL     1      12.737  -7.462   6.661  1.00  0.00    -0.206 F 
ATOM     72  C   UNL     1      12.756  -9.208   9.819  1.00  0.00     0.060 A 
BRANCH  72  73
ATOM     73  S   UNL     1      13.916 -10.017  10.935  1.00  0.00     0.124 S 
ATOM     74  O   UNL     1      13.960  -9.073  12.046  1.00  0.00    -0.237 OA
ATOM     75  O   UNL     1      13.249 -11.287  11.205  1.00  0.00    -0.237 OA
ATOM     76  O   UNL     1      15.139 -10.113  10.144  1.00  0.00    -0.744 OA
ENDBRANCH  72  73
ENDBRANCH  40  65
ENDBRANCH  14  15
ENDBRANCH   7   9
ENDBRANCH   6   7
ENDBRANCH   5   6
ENDBRANCH   4   5
ENDBRANCH   3   4
ENDBRANCH   2   3
ENDBRANCH   1   2
BRANCH   1  77
ATOM     77  O   UNL     1       3.264   3.061  -0.410  1.00  0.00    -0.377 OA
BRANCH  77  78
ATOM     78  C   UNL     1       4.573   2.805   0.110  1.00  0.00     0.188 C 
BRANCH  78  79
ATOM     79  C   UNL     1       4.830   2.191   1.510  1.00  0.00     0.188 C 
BRANCH  79  80
ATOM     80  O   UNL     1       3.762   1.818   2.364  1.00  0.00    -0.376 OA
BRANCH  80  81
ATOM     81  C   UNL     1       3.819   2.268   3.735  1.00  0.00     0.202 C 
BRANCH  81  82
ATOM     82  C   UNL     1       3.124   3.806   4.017  1.00  0.00     0.261 C 
BRANCH  82  83
ATOM     83  O   UNL     1       4.001   5.728   4.105  1.00  0.00    -0.458 OA
BRANCH  83  84
ATOM     84  C   UNL     1       4.864   6.826   3.715  1.00  0.00     0.359 C 
ATOM     85  O   UNL     1       5.196   7.673   4.539  1.00  0.00    -0.244 OA
BRANCH  84  86
ATOM     86  C   UNL     1       5.331   7.000   2.267  1.00  0.00     0.179 A 
ATOM     87  N   UNL     1       4.792   8.108   1.659  1.00  0.00    -0.245 NA
ATOM     88  C   UNL     1       6.162   6.141   1.539  1.00  0.00     0.161 A 
ATOM     89  C   UNL     1       5.099   8.305   0.353  1.00  0.00     0.132 A 
ATOM     90  N   UNL     1       6.455   6.358   0.211  1.00  0.00    -0.247 NA
ATOM     91  C   UNL     1       5.915   7.451  -0.358  1.00  0.00     0.132 A 
BRANCH  88  92
ATOM     92  C   UNL     1       6.805   4.903   2.065  1.00  0.00     0.278 C 
ATOM     93  O   UNL     1       7.781   4.402   1.510  1.00  0.00    -0.267 OA
ATOM     94  N   UNL     1       6.279   4.308   3.169  1.00  0.00    -0.303 N 
ATOM     95  H   UNL     1       6.882   3.785   3.746  1.00  0.00     0.172 HD
BRANCH  94  96
ATOM     96  C   UNL     1       4.948   4.396   3.528  1.00  0.00     0.164 A 
ATOM     97  N   UNL     1       4.573   4.398   5.211  1.00  0.00    -0.155 NA
ATOM     98  C   UNL     1       3.382   5.104   2.534  1.00  0.00     0.063 A 
ATOM     99  N   UNL     1       2.942   5.263   5.414  1.00  0.00    -0.259 N 
ATOM    100  C   UNL     1       2.198   5.616   3.784  1.00  0.00     0.157 A 
ATOM    101  C   UNL     1       2.940   5.407   1.236  1.00  0.00     0.017 A 
ATOM    102  H   UNL     1       2.536   5.499   6.279  1.00  0.00     0.192 HD
ATOM    103  N   UNL     1       0.940   6.001   3.523  1.00  0.00    -0.237 NA
ATOM    104  C   UNL     1       1.591   5.802   1.097  1.00  0.00     0.021 A 
ATOM    105  C   UNL     1       0.708   6.036   2.181  1.00  0.00     0.113 A 
ENDBRANCH  94  96
ENDBRANCH  88  92
ENDBRANCH  84  86
ENDBRANCH  83  84
ENDBRANCH  82  83
ENDBRANCH  81  82
ENDBRANCH  80  81
ENDBRANCH  79  80
ENDBRANCH  78  79
ENDBRANCH  77  78
ENDBRANCH   1  77
TORSDOF 25
