REMARK SMILES [NH3+][C@@H](CCC1=c2ccccc2=[NH+]C1)C(=O)OCCOCCOCCOCCOC(=O)c1ccc(-c2c3nc(c(-c4c(F)cc(S(=O)(=O)[O-])cc4F)c4ccc([nH]4)c(-c4c(F)cc(S(=O)(=O)[O-])cc4F)c4nc(c(-c5c(F)cc(S(=O)(=O)[O-])cc5F)c5ccc2[nH]5)C=C4)C=C3)cc1
REMARK SMILES IDX 22 1 21 2 20 3 19 4 18 5 17 6 16 7 14 8 15 9 2 10 1 11 3 15
REMARK SMILES IDX 4 16 5 17 6 18 13 19 7 20 11 21 12 22 8 23 10 24 9 26 23 27
REMARK SMILES IDX 24 28 25 29 26 30 27 31 28 32 29 33 30 34 31 35 32 36 96 37
REMARK SMILES IDX 33 38 95 39 34 40 35 41 36 42 89 43 37 44 94 45 88 46 90 47
REMARK SMILES IDX 38 48 93 49 87 50 86 51 39 53 73 54 52 55 72 56 53 57 56 58
REMARK SMILES IDX 71 59 91 60 54 61 55 62 70 64 92 65 57 66 40 67 41 68 50 69
REMARK SMILES IDX 42 70 43 71 49 72 51 73 44 74 45 75 46 76 47 77 48 78 74 79
REMARK SMILES IDX 75 80 84 81 76 82 77 83 83 84 85 85 78 86 79 87 80 88 81 89
REMARK SMILES IDX 82 90 58 91 59 92 68 93 60 94 61 95 67 96 69 97 62 98 63 99
REMARK SMILES IDX 64 100 65 101 66 102
REMARK H PARENT 1 12 1 13 1 14 12 25 90 52 56 63
REMARK Flexibility Score: inf
ROOT
ATOM      1  O   UNL     1      -2.087   0.062   0.834  1.00  0.00    -0.377 OA
ENDROOT
BRANCH   1   2
ATOM      2  C   UNL     1      -1.366   1.256   1.091  1.00  0.00     0.188 C 
BRANCH   2   3
ATOM      3  C   UNL     1      -1.886   2.488   0.331  1.00  0.00     0.188 C 
BRANCH   3   4
ATOM      4  O   UNL     1      -3.245   2.541  -0.092  1.00  0.00    -0.376 OA
BRANCH   4   5
ATOM      5  C   UNL     1      -3.760   1.485  -0.900  1.00  0.00     0.202 C 
BRANCH   5   6
ATOM      6  C   UNL     1      -2.972   1.016  -2.125  1.00  0.00     0.261 C 
BRANCH   6   7
ATOM      7  O   UNL     1      -1.643   0.549  -1.831  1.00  0.00    -0.459 OA
BRANCH   7   8
ATOM      8  C   UNL     1      -0.626   1.141  -2.511  1.00  0.00     0.364 C 
ATOM      9  O   UNL     1      -0.767   2.052  -3.322  1.00  0.00    -0.245 OA
BRANCH   8  10
ATOM     10  C   UNL     1       0.756   0.537  -2.204  1.00  0.00     0.292 C 
BRANCH  10  11
ATOM     11  N   UNL     1       0.879  -0.089  -0.876  1.00  0.00    -0.346 N 
ATOM     12  H   UNL     1       1.822  -0.459  -0.760  1.00  0.00     0.345 HD
ATOM     13  H   UNL     1       0.203  -0.848  -0.795  1.00  0.00     0.345 HD
ATOM     14  H   UNL     1       0.696   0.608  -0.153  1.00  0.00     0.345 HD
ENDBRANCH  10  11
BRANCH  10  15
ATOM     15  C   UNL     1       1.247  -0.359  -3.348  1.00  0.00     0.082 C 
BRANCH  15  16
ATOM     16  C   UNL     1       0.785  -1.825  -3.341  1.00  0.00     0.045 C 
BRANCH  16  17
ATOM     17  C   UNL     1      -0.689  -2.030  -3.398  1.00  0.00     0.008 C 
ATOM     18  C   UNL     1      -1.468  -2.590  -2.476  1.00  0.00     0.051 A 
ATOM     19  C   UNL     1      -1.510  -1.583  -4.572  1.00  0.00     0.381 C 
ATOM     20  C   UNL     1      -1.256  -3.152  -1.184  1.00  0.00     0.015 A 
ATOM     21  C   UNL     1      -2.814  -2.433  -3.048  1.00  0.00     0.206 A 
ATOM     22  N   UNL     1      -2.918  -1.868  -4.211  1.00  0.00    -0.237 N 
ATOM     23  C   UNL     1      -2.329  -3.477  -0.448  1.00  0.00     0.001 A 
ATOM     24  C   UNL     1      -3.943  -2.859  -2.199  1.00  0.00     0.079 A 
ATOM     25  H   UNL     1      -3.733  -1.675  -4.728  1.00  0.00     0.446 HD
ATOM     26  C   UNL     1      -3.680  -3.302  -0.960  1.00  0.00     0.007 A 
ENDBRANCH  16  17
ENDBRANCH  15  16
ENDBRANCH  10  15
ENDBRANCH   8  10
ENDBRANCH   7   8
ENDBRANCH   6   7
ENDBRANCH   5   6
ENDBRANCH   4   5
ENDBRANCH   3   4
ENDBRANCH   2   3
ENDBRANCH   1   2
BRANCH   1  27
ATOM     27  C   UNL     1      -2.947  -0.385   1.880  1.00  0.00     0.188 C 
BRANCH  27  28
ATOM     28  C   UNL     1      -3.852   0.665   2.559  1.00  0.00     0.188 C 
BRANCH  28  29
ATOM     29  O   UNL     1      -3.139   1.773   3.102  1.00  0.00    -0.376 OA
BRANCH  29  30
ATOM     30  C   UNL     1      -2.852   1.759   4.493  1.00  0.00     0.202 C 
BRANCH  30  31
ATOM     31  C   UNL     1      -1.844   0.706   4.981  1.00  0.00     0.261 C 
BRANCH  31  32
ATOM     32  O   UNL     1      -2.219  -0.672   4.814  1.00  0.00    -0.460 OA
BRANCH  32  33
ATOM     33  C   UNL     1      -3.394  -1.089   5.332  1.00  0.00     0.338 C 
ATOM     34  O   UNL     1      -4.177  -0.432   5.995  1.00  0.00    -0.246 OA
BRANCH  33  35
ATOM     35  C   UNL     1      -3.668  -2.440   4.796  1.00  0.00     0.060 A 
ATOM     36  C   UNL     1      -2.733  -3.467   4.946  1.00  0.00     0.016 A 
ATOM     37  C   UNL     1      -4.880  -2.682   4.137  1.00  0.00     0.016 A 
ATOM     38  C   UNL     1      -3.030  -4.748   4.473  1.00  0.00     0.010 A 
ATOM     39  C   UNL     1      -5.172  -3.963   3.658  1.00  0.00     0.010 A 
ATOM     40  C   UNL     1      -4.261  -5.013   3.846  1.00  0.00    -0.014 A 
BRANCH  40  41
ATOM     41  C   UNL     1      -4.648  -6.415   3.532  1.00  0.00     0.031 A 
ATOM     42  C   UNL     1      -4.593  -6.976   2.143  1.00  0.00     0.074 A 
ATOM     43  C   UNL     1      -5.072  -7.193   4.540  1.00  0.00     0.049 A 
ATOM     44  N   UNL     1      -4.832  -8.182   1.701  1.00  0.00    -0.248 NA
ATOM     45  C   UNL     1      -4.217  -6.028   1.101  1.00  0.00     0.031 C 
ATOM     46  C   UNL     1      -5.201  -6.766   5.933  1.00  0.00     0.029 A 
ATOM     47  N   UNL     1      -5.463  -8.504   4.547  1.00  0.00    -0.354 N 
ATOM     48  C   UNL     1      -4.611  -8.137   0.325  1.00  0.00     0.074 A 
ATOM     49  C   UNL     1      -4.263  -6.771   0.005  1.00  0.00     0.031 C 
ATOM     50  C   UNL     1      -5.617  -7.808   6.668  1.00  0.00     0.029 A 
ATOM     51  C   UNL     1      -5.807  -8.961   5.793  1.00  0.00     0.049 A 
ATOM     52  H   UNL     1      -5.495  -9.063   3.737  1.00  0.00     0.167 HD
ATOM     53  C   UNL     1      -4.678  -9.143  -0.581  1.00  0.00     0.037 A 
ATOM     54  C   UNL     1      -6.224 -10.179   6.183  1.00  0.00     0.037 A 
ATOM     55  C   UNL     1      -5.051 -10.494  -0.243  1.00  0.00     0.049 A 
ATOM     56  C   UNL     1      -6.326 -11.281   5.168  1.00  0.00     0.074 A 
ATOM     57  C   UNL     1      -5.127 -11.604  -1.067  1.00  0.00     0.029 A 
ATOM     58  N   UNL     1      -5.426 -10.913   1.025  1.00  0.00    -0.354 N 
ATOM     59  N   UNL     1      -6.053 -11.249   3.884  1.00  0.00    -0.248 NA
ATOM     60  C   UNL     1      -6.785 -12.586   5.656  1.00  0.00     0.031 C 
ATOM     61  C   UNL     1      -5.592 -12.682  -0.305  1.00  0.00     0.029 A 
ATOM     62  C   UNL     1      -5.759 -12.256   1.004  1.00  0.00     0.049 A 
ATOM     63  H   UNL     1      -5.452 -10.338   1.825  1.00  0.00     0.167 HD
ATOM     64  C   UNL     1      -6.298 -12.534   3.412  1.00  0.00     0.074 A 
ATOM     65  C   UNL     1      -6.716 -13.322   4.555  1.00  0.00     0.031 C 
ATOM     66  C   UNL     1      -6.192 -13.018   2.149  1.00  0.00     0.037 A 
BRANCH  53  67
ATOM     67  C   UNL     1      -4.337  -8.834  -2.018  1.00  0.00     0.058 A 
ATOM     68  C   UNL     1      -3.021  -8.543  -2.413  1.00  0.00     0.135 A 
ATOM     69  C   UNL     1      -5.317  -8.893  -3.023  1.00  0.00     0.135 A 
ATOM     70  F   UNL     1      -2.043  -8.461  -1.497  1.00  0.00    -0.206 F 
ATOM     71  C   UNL     1      -2.692  -8.307  -3.745  1.00  0.00     0.059 A 
ATOM     72  C   UNL     1      -5.006  -8.686  -4.366  1.00  0.00     0.059 A 
ATOM     73  F   UNL     1      -6.593  -9.165  -2.707  1.00  0.00    -0.206 F 
ATOM     74  C   UNL     1      -3.691  -8.387  -4.716  1.00  0.00     0.060 A 
BRANCH  74  75
ATOM     75  S   UNL     1      -3.233  -8.110  -6.442  1.00  0.00     0.124 S 
ATOM     76  O   UNL     1      -2.898  -6.689  -6.433  1.00  0.00    -0.237 OA
ATOM     77  O   UNL     1      -2.108  -9.023  -6.614  1.00  0.00    -0.237 OA
ATOM     78  O   UNL     1      -4.444  -8.463  -7.178  1.00  0.00    -0.744 OA
ENDBRANCH  74  75
ENDBRANCH  53  67
BRANCH  54  79
ATOM     79  C   UNL     1      -6.524 -10.407   7.617  1.00  0.00     0.058 A 
ATOM     80  C   UNL     1      -5.658 -11.165   8.416  1.00  0.00     0.135 A 
ATOM     81  C   UNL     1      -7.633  -9.805   8.232  1.00  0.00     0.135 A 
ATOM     82  F   UNL     1      -4.585 -11.756   7.870  1.00  0.00    -0.206 F 
ATOM     83  C   UNL     1      -5.881 -11.321   9.779  1.00  0.00     0.059 A 
ATOM     84  C   UNL     1      -7.862  -9.925   9.598  1.00  0.00     0.059 A 
ATOM     85  F   UNL     1      -8.475  -9.049   7.510  1.00  0.00    -0.206 F 
ATOM     86  C   UNL     1      -6.980 -10.688  10.362  1.00  0.00     0.060 A 
BRANCH  86  87
ATOM     87  S   UNL     1      -7.210 -10.835  12.146  1.00  0.00     0.124 S 
ATOM     88  O   UNL     1      -7.581 -12.238  12.280  1.00  0.00    -0.237 OA
ATOM     89  O   UNL     1      -5.889 -10.472  12.651  1.00  0.00    -0.237 OA
ATOM     90  O   UNL     1      -8.268  -9.871  12.430  1.00  0.00    -0.744 OA
ENDBRANCH  86  87
ENDBRANCH  54  79
BRANCH  66  91
ATOM     91  C   UNL     1      -6.545 -14.464   1.934  1.00  0.00     0.058 A 
ATOM     92  C   UNL     1      -7.876 -14.906   1.987  1.00  0.00     0.135 A 
ATOM     93  C   UNL     1      -5.551 -15.407   1.625  1.00  0.00     0.135 A 
ATOM     94  F   UNL     1      -8.862 -14.045   2.284  1.00  0.00    -0.206 F 
ATOM     95  C   UNL     1      -8.208 -16.238   1.768  1.00  0.00     0.059 A 
ATOM     96  C   UNL     1      -5.864 -16.739   1.372  1.00  0.00     0.059 A 
ATOM     97  F   UNL     1      -4.264 -15.034   1.550  1.00  0.00    -0.206 F 
ATOM     98  C   UNL     1      -7.194 -17.147   1.459  1.00  0.00     0.060 A 
BRANCH  98  99
ATOM     99  S   UNL     1      -7.646 -18.868   1.155  1.00  0.00     0.124 S 
ATOM    100  O   UNL     1      -8.011 -19.317   2.494  1.00  0.00    -0.237 OA
ATOM    101  O   UNL     1      -8.749 -18.736   0.207  1.00  0.00    -0.237 OA
ATOM    102  O   UNL     1      -6.424 -19.450   0.609  1.00  0.00    -0.744 OA
ENDBRANCH  98  99
ENDBRANCH  66  91
ENDBRANCH  40  41
ENDBRANCH  33  35
ENDBRANCH  32  33
ENDBRANCH  31  32
ENDBRANCH  30  31
ENDBRANCH  29  30
ENDBRANCH  28  29
ENDBRANCH  27  28
ENDBRANCH   1  27
TORSDOF 27
