REMARK SMILES Cc1c(C[NH2+]CC(=O)OCCOCCOCCOCCOC(=O)c2ccc(-c3c4nc(c(-c5c(F)cc(S(=O)(=O)[O-])cc5F)c5ccc([nH]5)c(-c5c(F)cc(S(=O)(=O)[O-])cc5F)c5nc(c(-c6c(F)cc(S(=O)(=O)[O-])cc6F)c6ccc3[nH]6)C=C5)C=C4)cc2)cnn1C
REMARK SMILES IDX 15 1 14 2 13 3 12 4 11 5 10 6 9 7 7 8 8 9 6 10 5 11 4 14
REMARK SMILES IDX 3 15 1 16 2 17 92 18 90 19 91 20 93 21 16 22 17 23 18 24
REMARK SMILES IDX 19 25 20 26 21 27 22 28 23 29 24 30 25 31 89 32 26 33 88 34
REMARK SMILES IDX 27 35 28 36 29 37 82 38 30 39 87 40 81 41 83 42 31 43 86 44
REMARK SMILES IDX 80 45 79 46 32 48 66 49 45 50 65 51 46 52 49 53 64 54 84 55
REMARK SMILES IDX 47 56 48 57 63 59 85 60 50 61 33 62 34 63 43 64 35 65 36 66
REMARK SMILES IDX 42 67 44 68 37 69 38 70 39 71 40 72 41 73 67 74 68 75 77 76
REMARK SMILES IDX 69 77 70 78 76 79 78 80 71 81 72 82 73 83 74 84 75 85 51 86
REMARK SMILES IDX 52 87 61 88 53 89 54 90 60 91 62 92 55 93 56 94 57 95 58 96
REMARK SMILES IDX 59 97
REMARK H PARENT 5 12 5 13 83 47 49 58
REMARK Flexibility Score: inf
ROOT
ATOM      1  O   UNL     1      -3.202  -3.284  -1.411  1.00  0.00    -0.377 OA
ENDROOT
BRANCH   1   2
ATOM      2  C   UNL     1      -2.516  -3.797  -2.532  1.00  0.00     0.188 C 
BRANCH   2   3
ATOM      3  C   UNL     1      -2.799  -5.264  -2.877  1.00  0.00     0.188 C 
BRANCH   3   4
ATOM      4  O   UNL     1      -4.039  -5.842  -2.524  1.00  0.00    -0.376 OA
BRANCH   4   5
ATOM      5  C   UNL     1      -4.434  -5.961  -1.164  1.00  0.00     0.202 C 
BRANCH   5   6
ATOM      6  C   UNL     1      -3.460  -6.066   0.027  1.00  0.00     0.261 C 
BRANCH   6   7
ATOM      7  O   UNL     1      -2.244  -5.305  -0.035  1.00  0.00    -0.459 OA
BRANCH   7   8
ATOM      8  C   UNL     1      -1.089  -6.006  -0.095  1.00  0.00     0.361 C 
ATOM      9  O   UNL     1      -1.044  -7.233  -0.168  1.00  0.00    -0.245 OA
BRANCH   8  10
ATOM     10  C   UNL     1       0.198  -5.182  -0.075  1.00  0.00     0.385 C 
BRANCH  10  11
ATOM     11  N   UNL     1       0.181  -3.721  -0.227  1.00  0.00    -0.333 N 
ATOM     12  H   UNL     1       1.149  -3.400  -0.216  1.00  0.00     0.347 HD
ATOM     13  H   UNL     1      -0.319  -3.553  -1.100  1.00  0.00     0.347 HD
BRANCH  11  14
ATOM     14  C   UNL     1      -0.546  -2.959   0.775  1.00  0.00     0.301 C 
BRANCH  14  15
ATOM     15  C   UNL     1      -0.432  -1.504   0.426  1.00  0.00     0.047 A 
ATOM     16  C   UNL     1       2.132  -1.114   0.165  1.00  0.00     0.067 C 
ATOM     17  C   UNL     1       0.699  -0.727   0.206  1.00  0.00     0.044 A 
ATOM     18  N   UNL     1       0.244   0.555   0.022  1.00  0.00    -0.272 N 
ATOM     19  C   UNL     1      -1.505  -0.596   0.243  1.00  0.00     0.145 A 
ATOM     20  N   UNL     1      -1.096   0.645  -0.023  1.00  0.00    -0.181 NA
ATOM     21  C   UNL     1       1.031   1.763  -0.078  1.00  0.00     0.174 C 
ENDBRANCH  14  15
ENDBRANCH  11  14
ENDBRANCH  10  11
ENDBRANCH   8  10
ENDBRANCH   7   8
ENDBRANCH   6   7
ENDBRANCH   5   6
ENDBRANCH   4   5
ENDBRANCH   3   4
ENDBRANCH   2   3
ENDBRANCH   1   2
BRANCH   1  22
ATOM     22  C   UNL     1      -4.483  -2.695  -1.598  1.00  0.00     0.188 C 
BRANCH  22  23
ATOM     23  C   UNL     1      -5.284  -2.931  -2.895  1.00  0.00     0.188 C 
BRANCH  23  24
ATOM     24  O   UNL     1      -4.516  -2.945  -4.090  1.00  0.00    -0.376 OA
BRANCH  24  25
ATOM     25  C   UNL     1      -4.424  -1.743  -4.843  1.00  0.00     0.202 C 
BRANCH  25  26
ATOM     26  C   UNL     1      -3.692  -0.555  -4.193  1.00  0.00     0.261 C 
BRANCH  26  27
ATOM     27  O   UNL     1      -4.276  -0.046  -2.984  1.00  0.00    -0.460 OA
BRANCH  27  28
ATOM     28  C   UNL     1      -5.540   0.412  -3.051  1.00  0.00     0.338 C 
ATOM     29  O   UNL     1      -6.240   0.488  -4.052  1.00  0.00    -0.246 OA
BRANCH  28  30
ATOM     30  C   UNL     1      -6.033   0.629  -1.677  1.00  0.00     0.060 A 
ATOM     31  C   UNL     1      -7.157  -0.088  -1.251  1.00  0.00     0.016 A 
ATOM     32  C   UNL     1      -5.413   1.546  -0.825  1.00  0.00     0.016 A 
ATOM     33  C   UNL     1      -7.701   0.156   0.009  1.00  0.00     0.010 A 
ATOM     34  C   UNL     1      -5.973   1.804   0.432  1.00  0.00     0.010 A 
ATOM     35  C   UNL     1      -7.144   1.140   0.838  1.00  0.00    -0.014 A 
BRANCH  35  36
ATOM     36  C   UNL     1      -7.907   1.592   2.030  1.00  0.00     0.031 A 
ATOM     37  C   UNL     1      -8.741   2.844   1.919  1.00  0.00     0.074 A 
ATOM     38  C   UNL     1      -7.927   0.865   3.162  1.00  0.00     0.049 A 
ATOM     39  N   UNL     1      -9.507   3.414   2.812  1.00  0.00    -0.248 NA
ATOM     40  C   UNL     1      -8.712   3.541   0.621  1.00  0.00     0.031 C 
ATOM     41  C   UNL     1      -7.198  -0.385   3.378  1.00  0.00     0.029 A 
ATOM     42  N   UNL     1      -8.593   1.072   4.345  1.00  0.00    -0.354 N 
ATOM     43  C   UNL     1     -10.064   4.522   2.183  1.00  0.00     0.074 A 
ATOM     44  C   UNL     1      -9.509   4.574   0.848  1.00  0.00     0.031 C 
ATOM     45  C   UNL     1      -7.454  -0.831   4.621  1.00  0.00     0.029 A 
ATOM     46  C   UNL     1      -8.341   0.113   5.298  1.00  0.00     0.049 A 
ATOM     47  H   UNL     1      -9.195   1.836   4.496  1.00  0.00     0.167 HD
ATOM     48  C   UNL     1     -10.973   5.403   2.664  1.00  0.00     0.037 A 
ATOM     49  C   UNL     1      -8.765   0.021   6.575  1.00  0.00     0.037 A 
ATOM     50  C   UNL     1     -11.514   5.357   3.998  1.00  0.00     0.049 A 
ATOM     51  C   UNL     1      -9.702   1.074   7.118  1.00  0.00     0.074 A 
ATOM     52  C   UNL     1     -12.421   6.220   4.589  1.00  0.00     0.029 A 
ATOM     53  N   UNL     1     -11.201   4.396   4.947  1.00  0.00    -0.354 N 
ATOM     54  N   UNL     1     -10.228   2.110   6.506  1.00  0.00    -0.248 NA
ATOM     55  C   UNL     1     -10.112   0.940   8.523  1.00  0.00     0.031 C 
ATOM     56  C   UNL     1     -12.622   5.807   5.910  1.00  0.00     0.029 A 
ATOM     57  C   UNL     1     -11.886   4.653   6.124  1.00  0.00     0.049 A 
ATOM     58  H   UNL     1     -10.583   3.643   4.806  1.00  0.00     0.167 HD
ATOM     59  C   UNL     1     -11.057   2.725   7.441  1.00  0.00     0.074 A 
ATOM     60  C   UNL     1     -10.979   1.933   8.651  1.00  0.00     0.031 C 
ATOM     61  C   UNL     1     -11.814   3.844   7.315  1.00  0.00     0.037 A 
BRANCH  48  62
ATOM     62  C   UNL     1     -11.444   6.497   1.744  1.00  0.00     0.058 A 
ATOM     63  C   UNL     1     -12.292   6.225   0.658  1.00  0.00     0.135 A 
ATOM     64  C   UNL     1     -11.099   7.837   1.985  1.00  0.00     0.135 A 
ATOM     65  F   UNL     1     -12.636   4.960   0.369  1.00  0.00    -0.206 F 
ATOM     66  C   UNL     1     -12.775   7.241  -0.160  1.00  0.00     0.059 A 
ATOM     67  C   UNL     1     -11.593   8.872   1.196  1.00  0.00     0.059 A 
ATOM     68  F   UNL     1     -10.287   8.153   3.005  1.00  0.00    -0.206 F 
ATOM     69  C   UNL     1     -12.426   8.563   0.122  1.00  0.00     0.060 A 
BRANCH  69  70
ATOM     70  S   UNL     1     -13.097   9.870  -0.927  1.00  0.00     0.124 S 
ATOM     71  O   UNL     1     -12.382   9.636  -2.179  1.00  0.00    -0.237 OA
ATOM     72  O   UNL     1     -14.521   9.555  -0.943  1.00  0.00    -0.237 OA
ATOM     73  O   UNL     1     -12.735  11.095  -0.220  1.00  0.00    -0.744 OA
ENDBRANCH  69  70
ENDBRANCH  48  62
BRANCH  49  74
ATOM     74  C   UNL     1      -8.298  -1.089   7.454  1.00  0.00     0.058 A 
ATOM     75  C   UNL     1      -9.193  -2.038   7.972  1.00  0.00     0.135 A 
ATOM     76  C   UNL     1      -6.954  -1.181   7.850  1.00  0.00     0.135 A 
ATOM     77  F   UNL     1     -10.491  -1.992   7.633  1.00  0.00    -0.206 F 
ATOM     78  C   UNL     1      -8.785  -3.007   8.884  1.00  0.00     0.059 A 
ATOM     79  C   UNL     1      -6.514  -2.162   8.733  1.00  0.00     0.059 A 
ATOM     80  F   UNL     1      -6.051  -0.308   7.378  1.00  0.00    -0.206 F 
ATOM     81  C   UNL     1      -7.442  -3.057   9.264  1.00  0.00     0.060 A 
BRANCH  81  82
ATOM     82  S   UNL     1      -6.921  -4.311  10.454  1.00  0.00     0.124 S 
ATOM     83  O   UNL     1      -7.492  -3.795  11.692  1.00  0.00    -0.237 OA
ATOM     84  O   UNL     1      -7.542  -5.518   9.918  1.00  0.00    -0.237 OA
ATOM     85  O   UNL     1      -5.465  -4.272  10.364  1.00  0.00    -0.744 OA
ENDBRANCH  81  82
ENDBRANCH  49  74
BRANCH  61  86
ATOM     86  C   UNL     1     -12.659   4.248   8.494  1.00  0.00     0.058 A 
ATOM     87  C   UNL     1     -12.094   4.742   9.681  1.00  0.00     0.135 A 
ATOM     88  C   UNL     1     -14.060   4.164   8.425  1.00  0.00     0.135 A 
ATOM     89  F   UNL     1     -10.761   4.843   9.803  1.00  0.00    -0.206 F 
ATOM     90  C   UNL     1     -12.883   5.095  10.771  1.00  0.00     0.059 A 
ATOM     91  C   UNL     1     -14.870   4.545   9.491  1.00  0.00     0.059 A 
ATOM     92  F   UNL     1     -14.657   3.715   7.310  1.00  0.00    -0.206 F 
ATOM     93  C   UNL     1     -14.271   4.991  10.667  1.00  0.00     0.060 A 
BRANCH  93  94
ATOM     94  S   UNL     1     -15.283   5.458  12.087  1.00  0.00     0.124 S 
ATOM     95  O   UNL     1     -15.035   4.349  13.003  1.00  0.00    -0.237 OA
ATOM     96  O   UNL     1     -14.704   6.741  12.474  1.00  0.00    -0.237 OA
ATOM     97  O   UNL     1     -16.633   5.528  11.536  1.00  0.00    -0.744 OA
ENDBRANCH  93  94
ENDBRANCH  61  86
ENDBRANCH  35  36
ENDBRANCH  28  30
ENDBRANCH  27  28
ENDBRANCH  26  27
ENDBRANCH  25  26
ENDBRANCH  24  25
ENDBRANCH  23  24
ENDBRANCH  22  23
ENDBRANCH   1  22
TORSDOF 26
