REMARK SMILES CC(=O)c1c(C)nn(CC(=O)N2CCC[C@H](c3cccc(C(=O)OCCOCCOCCOCCOC(=O)c4ccc(-c5c6nc(c(-c7c(F)cc(S(=O)(=O)[O-])cc7F)c7ccc([nH]7)c(-c7c(F)cc(S(=O)(=O)[O-])cc7F)c7nc(c(-c8c(F)cc(S(=O)(=O)[O-])cc8F)c8ccc5[nH]8)C=C7)C=C6)cc4)c3)C2)c1C
REMARK SMILES IDX 29 1 28 2 27 3 26 4 25 5 24 6 22 7 23 8 21 9 17 10 18 11
REMARK SMILES IDX 105 12 19 13 20 14 16 15 12 16 13 17 106 18 14 19 15 20
REMARK SMILES IDX 10 21 11 22 9 23 8 24 4 25 5 26 107 27 6 28 7 29 108 30 2 31
REMARK SMILES IDX 1 32 3 33 30 34 31 35 32 36 33 37 34 38 35 39 36 40 37 41
REMARK SMILES IDX 38 42 39 43 40 44 104 45 41 46 103 47 42 48 43 49 44 50
REMARK SMILES IDX 97 51 45 52 102 53 96 54 98 55 46 56 101 57 95 58 94 59
REMARK SMILES IDX 47 61 81 62 60 63 80 64 61 65 64 66 79 67 99 68 62 69 63 70
REMARK SMILES IDX 78 72 100 73 65 74 48 75 49 76 58 77 50 78 51 79 57 80 59 81
REMARK SMILES IDX 52 82 53 83 54 84 55 85 56 86 82 87 83 88 92 89 84 90 85 91
REMARK SMILES IDX 91 92 93 93 86 94 87 95 88 96 89 97 90 98 66 99 67 100
REMARK SMILES IDX 76 101 68 102 69 103 75 104 77 105 70 106 71 107 72 108
REMARK SMILES IDX 73 109 74 110
REMARK H PARENT 98 60 64 71
REMARK Flexibility Score: inf
ROOT
ATOM      1  C   UNL     1      -2.310   3.550  -8.505  1.00  0.00     0.188 C 
ENDROOT
BRANCH   1   2
ATOM      2  C   UNL     1      -2.616   4.924  -9.140  1.00  0.00     0.188 C 
BRANCH   2   3
ATOM      3  O   UNL     1      -3.085   4.869 -10.472  1.00  0.00    -0.376 OA
BRANCH   3   4
ATOM      4  C   UNL     1      -2.236   5.014 -11.587  1.00  0.00     0.202 C 
BRANCH   4   5
ATOM      5  C   UNL     1      -0.777   4.535 -11.634  1.00  0.00     0.261 C 
BRANCH   5   6
ATOM      6  O   UNL     1      -0.083   4.442 -10.395  1.00  0.00    -0.460 OA
BRANCH   6   7
ATOM      7  C   UNL     1       0.428   5.583  -9.884  1.00  0.00     0.338 C 
ATOM      8  O   UNL     1       0.416   6.688 -10.391  1.00  0.00    -0.246 OA
BRANCH   7   9
ATOM      9  C   UNL     1       0.773   5.293  -8.473  1.00  0.00     0.060 A 
ATOM     10  C   UNL     1       1.665   3.795  -6.769  1.00  0.00    -0.042 A 
ATOM     11  C   UNL     1       1.101   4.652  -5.815  1.00  0.00     0.004 A 
ATOM     12  C   UNL     1       1.418   4.099  -8.115  1.00  0.00     0.019 A 
ATOM     13  C   UNL     1       0.442   5.832  -6.159  1.00  0.00     0.001 A 
ATOM     14  C   UNL     1       0.312   6.176  -7.494  1.00  0.00     0.016 A 
BRANCH  10  15
ATOM     15  C   UNL     1       2.532   2.591  -6.378  1.00  0.00     0.039 C 
ATOM     16  N   UNL     1       3.990   3.702  -4.655  1.00  0.00    -0.340 N 
ATOM     17  C   UNL     1       5.129   3.750  -5.584  1.00  0.00     0.119 C 
ATOM     18  C   UNL     1       3.055   2.591  -4.909  1.00  0.00     0.127 C 
ATOM     19  C   UNL     1       4.717   3.662  -7.051  1.00  0.00     0.022 C 
ATOM     20  C   UNL     1       3.780   2.475  -7.284  1.00  0.00     0.012 C 
BRANCH  16  21
ATOM     21  C   UNL     1       3.809   4.771  -3.786  1.00  0.00     0.244 C 
ATOM     22  O   UNL     1       4.383   5.848  -4.027  1.00  0.00    -0.273 OA
BRANCH  21  23
ATOM     23  C   UNL     1       3.154   4.668  -2.413  1.00  0.00     0.244 C 
BRANCH  23  24
ATOM     24  N   UNL     1       2.061   3.743  -2.177  1.00  0.00    -0.259 N 
ATOM     25  C   UNL     1       0.823   1.987  -1.690  1.00  0.00     0.061 A 
ATOM     26  C   UNL     1       0.070   3.029  -2.301  1.00  0.00     0.070 A 
ATOM     27  C   UNL     1       2.110   2.504  -1.572  1.00  0.00     0.047 A 
ATOM     28  C   UNL     1      -1.350   3.031  -2.741  1.00  0.00     0.069 C 
ATOM     29  N   UNL     1       0.809   4.131  -2.473  1.00  0.00    -0.177 NA
ATOM     30  C   UNL     1       3.385   1.938  -1.062  1.00  0.00     0.067 C 
BRANCH  25  31
ATOM     31  C   UNL     1       0.324   0.661  -1.344  1.00  0.00     0.163 C 
ATOM     32  C   UNL     1       0.710   0.051  -0.023  1.00  0.00     0.093 C 
ATOM     33  O   UNL     1      -0.427   0.061  -2.111  1.00  0.00    -0.294 OA
ENDBRANCH  25  31
ENDBRANCH  23  24
ENDBRANCH  21  23
ENDBRANCH  16  21
ENDBRANCH  10  15
ENDBRANCH   7   9
ENDBRANCH   6   7
ENDBRANCH   5   6
ENDBRANCH   4   5
ENDBRANCH   3   4
ENDBRANCH   2   3
ENDBRANCH   1   2
BRANCH   1  34
ATOM     34  O   UNL     1      -2.102   2.475  -9.402  1.00  0.00    -0.377 OA
BRANCH  34  35
ATOM     35  C   UNL     1      -3.194   1.990 -10.183  1.00  0.00     0.188 C 
BRANCH  35  36
ATOM     36  C   UNL     1      -4.619   2.619 -10.185  1.00  0.00     0.188 C 
BRANCH  36  37
ATOM     37  O   UNL     1      -4.902   3.553  -9.157  1.00  0.00    -0.376 OA
BRANCH  37  38
ATOM     38  C   UNL     1      -5.730   3.300  -8.042  1.00  0.00     0.202 C 
BRANCH  38  39
ATOM     39  C   UNL     1      -5.398   2.132  -7.124  1.00  0.00     0.261 C 
BRANCH  39  40
ATOM     40  O   UNL     1      -4.922   1.004  -7.820  1.00  0.00    -0.460 OA
BRANCH  40  41
ATOM     41  C   UNL     1      -5.856   0.401  -8.582  1.00  0.00     0.338 C 
ATOM     42  O   UNL     1      -6.978   0.790  -8.832  1.00  0.00    -0.246 OA
BRANCH  41  43
ATOM     43  C   UNL     1      -5.296  -0.876  -9.017  1.00  0.00     0.060 A 
ATOM     44  C   UNL     1      -6.013  -1.565  -9.996  1.00  0.00     0.016 A 
ATOM     45  C   UNL     1      -4.386  -1.492  -8.150  1.00  0.00     0.016 A 
ATOM     46  C   UNL     1      -6.066  -2.930  -9.886  1.00  0.00     0.010 A 
ATOM     47  C   UNL     1      -4.481  -2.842  -8.011  1.00  0.00     0.010 A 
ATOM     48  C   UNL     1      -5.405  -3.516  -8.806  1.00  0.00    -0.014 A 
BRANCH  48  49
ATOM     49  C   UNL     1      -5.666  -4.897  -8.495  1.00  0.00     0.031 A 
ATOM     50  C   UNL     1      -4.796  -5.793  -9.278  1.00  0.00     0.074 A 
ATOM     51  C   UNL     1      -6.488  -5.225  -7.480  1.00  0.00     0.049 A 
ATOM     52  N   UNL     1      -5.119  -6.495 -10.313  1.00  0.00    -0.248 NA
ATOM     53  C   UNL     1      -3.340  -5.668  -9.073  1.00  0.00     0.031 C 
ATOM     54  C   UNL     1      -7.132  -4.333  -6.507  1.00  0.00     0.029 A 
ATOM     55  N   UNL     1      -6.822  -6.459  -7.025  1.00  0.00    -0.354 N 
ATOM     56  C   UNL     1      -3.936  -7.124 -10.681  1.00  0.00     0.074 A 
ATOM     57  C   UNL     1      -2.877  -6.328 -10.133  1.00  0.00     0.031 C 
ATOM     58  C   UNL     1      -7.574  -5.063  -5.457  1.00  0.00     0.029 A 
ATOM     59  C   UNL     1      -7.352  -6.470  -5.734  1.00  0.00     0.049 A 
ATOM     60  H   UNL     1      -6.702  -7.277  -7.560  1.00  0.00     0.167 HD
ATOM     61  C   UNL     1      -3.933  -8.435 -11.043  1.00  0.00     0.037 A 
ATOM     62  C   UNL     1      -7.463  -7.578  -4.952  1.00  0.00     0.037 A 
ATOM     63  C   UNL     1      -5.268  -8.872 -11.383  1.00  0.00     0.049 A 
ATOM     64  C   UNL     1      -7.375  -8.752  -5.872  1.00  0.00     0.074 A 
ATOM     65  C   UNL     1      -6.219  -8.459 -12.296  1.00  0.00     0.029 A 
ATOM     66  N   UNL     1      -5.941  -9.624 -10.448  1.00  0.00    -0.354 N 
ATOM     67  N   UNL     1      -8.271  -9.024  -6.785  1.00  0.00    -0.248 NA
ATOM     68  C   UNL     1      -6.050  -9.305  -6.122  1.00  0.00     0.031 C 
ATOM     69  C   UNL     1      -7.467  -8.593 -11.621  1.00  0.00     0.029 A 
ATOM     70  C   UNL     1      -7.226  -9.153 -10.366  1.00  0.00     0.049 A 
ATOM     71  H   UNL     1      -5.565 -10.371  -9.929  1.00  0.00     0.167 HD
ATOM     72  C   UNL     1      -7.541  -9.405  -7.905  1.00  0.00     0.074 A 
ATOM     73  C   UNL     1      -6.179  -9.612  -7.417  1.00  0.00     0.031 C 
ATOM     74  C   UNL     1      -8.034  -9.224  -9.167  1.00  0.00     0.037 A 
BRANCH  61  75
ATOM     75  C   UNL     1      -2.833  -9.408 -10.666  1.00  0.00     0.058 A 
ATOM     76  C   UNL     1      -2.890 -10.713 -11.191  1.00  0.00     0.135 A 
ATOM     77  C   UNL     1      -1.894  -9.219  -9.623  1.00  0.00     0.135 A 
ATOM     78  F   UNL     1      -3.735 -11.011 -12.191  1.00  0.00    -0.206 F 
ATOM     79  C   UNL     1      -2.148 -11.767 -10.657  1.00  0.00     0.059 A 
ATOM     80  C   UNL     1      -1.105 -10.241  -9.116  1.00  0.00     0.059 A 
ATOM     81  F   UNL     1      -1.741  -8.066  -8.966  1.00  0.00    -0.206 F 
ATOM     82  C   UNL     1      -1.270 -11.521  -9.606  1.00  0.00     0.060 A 
BRANCH  82  83
ATOM     83  S   UNL     1      -0.385 -12.886  -8.845  1.00  0.00     0.124 S 
ATOM     84  O   UNL     1      -1.473 -13.614  -8.203  1.00  0.00    -0.237 OA
ATOM     85  O   UNL     1       0.224 -13.530 -10.005  1.00  0.00    -0.237 OA
ATOM     86  O   UNL     1       0.550 -12.220  -7.943  1.00  0.00    -0.744 OA
ENDBRANCH  82  83
ENDBRANCH  61  75
BRANCH  62  87
ATOM     87  C   UNL     1      -7.216  -7.686  -3.486  1.00  0.00     0.058 A 
ATOM     88  C   UNL     1      -7.565  -8.845  -2.767  1.00  0.00     0.135 A 
ATOM     89  C   UNL     1      -6.382  -6.772  -2.809  1.00  0.00     0.135 A 
ATOM     90  F   UNL     1      -8.336  -9.784  -3.337  1.00  0.00    -0.206 F 
ATOM     91  C   UNL     1      -7.082  -9.101  -1.475  1.00  0.00     0.059 A 
ATOM     92  C   UNL     1      -5.897  -7.000  -1.521  1.00  0.00     0.059 A 
ATOM     93  F   UNL     1      -5.933  -5.664  -3.415  1.00  0.00    -0.206 F 
ATOM     94  C   UNL     1      -6.231  -8.179  -0.867  1.00  0.00     0.060 A 
BRANCH  94  95
ATOM     95  S   UNL     1      -5.466  -8.573   0.726  1.00  0.00     0.124 S 
ATOM     96  O   UNL     1      -6.608  -8.520   1.631  1.00  0.00    -0.237 OA
ATOM     97  O   UNL     1      -4.907  -9.898   0.482  1.00  0.00    -0.237 OA
ATOM     98  O   UNL     1      -4.481  -7.509   0.903  1.00  0.00    -0.744 OA
ENDBRANCH  94  95
ENDBRANCH  62  87
BRANCH  74  99
ATOM     99  C   UNL     1      -9.492  -8.873  -9.322  1.00  0.00     0.058 A 
ATOM    100  C   UNL     1     -10.080  -7.673  -8.884  1.00  0.00     0.135 A 
ATOM    101  C   UNL     1     -10.287  -9.726 -10.103  1.00  0.00     0.135 A 
ATOM    102  F   UNL     1      -9.359  -6.757  -8.220  1.00  0.00    -0.206 F 
ATOM    103  C   UNL     1     -11.409  -7.353  -9.178  1.00  0.00     0.059 A 
ATOM    104  C   UNL     1     -11.601  -9.414 -10.435  1.00  0.00     0.059 A 
ATOM    105  F   UNL     1      -9.764 -10.857 -10.605  1.00  0.00    -0.206 F 
ATOM    106  C   UNL     1     -12.161  -8.232  -9.958  1.00  0.00     0.060 A 
BRANCH 106 107
ATOM    107  S   UNL     1     -13.857  -7.795 -10.401  1.00  0.00     0.124 S 
ATOM    108  O   UNL     1     -14.549  -7.919  -9.122  1.00  0.00    -0.237 OA
ATOM    109  O   UNL     1     -13.711  -6.436 -10.914  1.00  0.00    -0.237 OA
ATOM    110  O   UNL     1     -14.217  -8.794 -11.404  1.00  0.00    -0.744 OA
ENDBRANCH 106 107
ENDBRANCH  74  99
ENDBRANCH  48  49
ENDBRANCH  41  43
ENDBRANCH  40  41
ENDBRANCH  39  40
ENDBRANCH  38  39
ENDBRANCH  37  38
ENDBRANCH  36  37
ENDBRANCH  35  36
ENDBRANCH  34  35
ENDBRANCH   1  34
TORSDOF 28
