REMARK SMILES Cc1csc(=O)n1CCCC(=O)N1CC[C@H](C(=O)OCCOCCOCCOCCOC(=O)c2ccc(-c3c4nc(c(-c5c(F)cc(S(=O)(=O)[O-])cc5F)c5ccc([nH]5)c(-c5c(F)cc(S(=O)(=O)[O-])cc5F)c5nc(c(-c6c(F)cc(S(=O)(=O)[O-])cc6F)c6ccc3[nH]6)C=C5)C=C4)cc2)[C@@H]1C
REMARK SMILES IDX 24 1 23 2 22 3 21 4 20 5 19 6 17 7 18 8 16 9 13 10 14 11
REMARK SMILES IDX 100 12 15 13 101 14 11 15 12 16 10 17 9 18 8 19 7 20 1 21
REMARK SMILES IDX 2 22 3 23 4 24 5 25 6 26 25 27 26 28 27 29 28 30 29 31 30 32
REMARK SMILES IDX 31 33 32 34 33 35 34 36 35 37 99 38 36 39 98 40 37 41 38 42
REMARK SMILES IDX 39 43 92 44 40 45 97 46 91 47 93 48 41 49 96 50 90 51 89 52
REMARK SMILES IDX 42 54 76 55 55 56 75 57 56 58 59 59 74 60 94 61 57 62 58 63
REMARK SMILES IDX 73 65 95 66 60 67 43 68 44 69 53 70 45 71 46 72 52 73 54 74
REMARK SMILES IDX 47 75 48 76 49 77 50 78 51 79 77 80 78 81 87 82 79 83 80 84
REMARK SMILES IDX 86 85 88 86 81 87 82 88 83 89 84 90 85 91 61 92 62 93 71 94
REMARK SMILES IDX 63 95 64 96 70 97 72 98 65 99 66 100 67 101 68 102 69 103
REMARK H PARENT 93 53 59 64
REMARK Flexibility Score: inf
ROOT
ATOM      1  C   UNL     1      -4.699   1.494   0.639  1.00  0.00     0.188 C 
ENDROOT
BRANCH   1   2
ATOM      2  C   UNL     1      -4.010   2.734   1.259  1.00  0.00     0.188 C 
BRANCH   2   3
ATOM      3  O   UNL     1      -4.899   3.636   1.907  1.00  0.00    -0.376 OA
BRANCH   3   4
ATOM      4  C   UNL     1      -5.167   4.886   1.293  1.00  0.00     0.202 C 
BRANCH   4   5
ATOM      5  C   UNL     1      -5.857   4.855  -0.077  1.00  0.00     0.261 C 
BRANCH   5   6
ATOM      6  O   UNL     1      -5.159   4.048  -1.032  1.00  0.00    -0.463 OA
BRANCH   6   7
ATOM      7  C   UNL     1      -4.001   4.562  -1.524  1.00  0.00     0.311 C 
ATOM      8  O   UNL     1      -3.657   5.725  -1.399  1.00  0.00    -0.252 OA
BRANCH   7   9
ATOM      9  C   UNL     1      -3.191   3.420  -2.113  1.00  0.00     0.123 C 
ATOM     10  N   UNL     1      -1.498   3.928  -3.683  1.00  0.00    -0.339 N 
ATOM     11  C   UNL     1      -2.782   3.911  -4.378  1.00  0.00     0.121 C 
ATOM     12  C   UNL     1      -1.679   3.618  -2.280  1.00  0.00     0.096 C 
ATOM     13  C   UNL     1      -3.674   3.051  -3.502  1.00  0.00     0.039 C 
ATOM     14  C   UNL     1      -1.040   4.620  -1.323  1.00  0.00     0.032 C 
BRANCH  10  15
ATOM     15  C   UNL     1      -0.365   4.138  -4.412  1.00  0.00     0.222 C 
ATOM     16  O   UNL     1      -0.450   4.807  -5.455  1.00  0.00    -0.275 OA
BRANCH  15  17
ATOM     17  C   UNL     1       0.981   3.456  -4.142  1.00  0.00     0.102 C 
BRANCH  17  18
ATOM     18  C   UNL     1       1.657   3.022  -2.847  1.00  0.00     0.032 C 
BRANCH  18  19
ATOM     19  C   UNL     1       1.159   1.980  -1.832  1.00  0.00     0.127 C 
BRANCH  19  20
ATOM     20  N   UNL     1       0.709   0.636  -2.200  1.00  0.00    -0.303 N 
ATOM     21  C   UNL     1       1.219  -0.220   0.138  1.00  0.00     0.065 C 
ATOM     22  C   UNL     1       0.745  -0.410  -1.267  1.00  0.00     0.029 A 
ATOM     23  C   UNL     1       0.240  -1.564  -1.723  1.00  0.00     0.091 A 
ATOM     24  S   UNL     1      -0.337  -1.426  -3.342  1.00  0.00    -0.082 S 
ATOM     25  C   UNL     1       0.024   0.305  -3.364  1.00  0.00     0.307 A 
ATOM     26  O   UNL     1      -0.363   1.024  -4.271  1.00  0.00    -0.257 OA
ENDBRANCH  19  20
ENDBRANCH  18  19
ENDBRANCH  17  18
ENDBRANCH  15  17
ENDBRANCH  10  15
ENDBRANCH   7   9
ENDBRANCH   6   7
ENDBRANCH   5   6
ENDBRANCH   4   5
ENDBRANCH   3   4
ENDBRANCH   2   3
ENDBRANCH   1   2
BRANCH   1  27
ATOM     27  O   UNL     1      -6.090   1.586   0.404  1.00  0.00    -0.377 OA
BRANCH  27  28
ATOM     28  C   UNL     1      -6.973   1.752   1.512  1.00  0.00     0.188 C 
BRANCH  28  29
ATOM     29  C   UNL     1      -6.510   1.703   2.997  1.00  0.00     0.188 C 
BRANCH  29  30
ATOM     30  O   UNL     1      -5.169   1.286   3.226  1.00  0.00    -0.376 OA
BRANCH  30  31
ATOM     31  C   UNL     1      -4.882   0.048   3.847  1.00  0.00     0.202 C 
BRANCH  31  32
ATOM     32  C   UNL     1      -5.219  -1.213   3.059  1.00  0.00     0.261 C 
BRANCH  32  33
ATOM     33  O   UNL     1      -6.474  -1.154   2.414  1.00  0.00    -0.460 OA
BRANCH  33  34
ATOM     34  C   UNL     1      -7.525  -1.158   3.256  1.00  0.00     0.338 C 
ATOM     35  O   UNL     1      -7.503  -1.035   4.468  1.00  0.00    -0.246 OA
BRANCH  34  36
ATOM     36  C   UNL     1      -8.726  -1.420   2.472  1.00  0.00     0.060 A 
ATOM     37  C   UNL     1      -9.946  -1.226   3.118  1.00  0.00     0.016 A 
ATOM     38  C   UNL     1      -8.591  -2.168   1.293  1.00  0.00     0.016 A 
ATOM     39  C   UNL     1     -10.993  -2.023   2.735  1.00  0.00     0.010 A 
ATOM     40  C   UNL     1      -9.627  -2.980   0.931  1.00  0.00     0.010 A 
ATOM     41  C   UNL     1     -10.767  -2.968   1.730  1.00  0.00    -0.014 A 
BRANCH  41  42
ATOM     42  C   UNL     1     -11.774  -3.973   1.515  1.00  0.00     0.031 A 
ATOM     43  C   UNL     1     -12.928  -3.465   0.753  1.00  0.00     0.074 A 
ATOM     44  C   UNL     1     -11.577  -5.247   1.898  1.00  0.00     0.049 A 
ATOM     45  N   UNL     1     -14.129  -3.270   1.180  1.00  0.00    -0.248 NA
ATOM     46  C   UNL     1     -12.663  -2.913  -0.587  1.00  0.00     0.031 C 
ATOM     47  C   UNL     1     -10.347  -5.870   2.398  1.00  0.00     0.029 A 
ATOM     48  N   UNL     1     -12.430  -6.296   1.810  1.00  0.00    -0.354 N 
ATOM     49  C   UNL     1     -14.832  -2.807   0.076  1.00  0.00     0.074 A 
ATOM     50  C   UNL     1     -13.851  -2.393  -0.892  1.00  0.00     0.031 C 
ATOM     51  C   UNL     1     -10.475  -7.216   2.334  1.00  0.00     0.029 A 
ATOM     52  C   UNL     1     -11.825  -7.542   1.906  1.00  0.00     0.049 A 
ATOM     53  H   UNL     1     -13.400  -6.183   1.688  1.00  0.00     0.167 HD
ATOM     54  C   UNL     1     -16.156  -3.073  -0.071  1.00  0.00     0.037 A 
ATOM     55  C   UNL     1     -12.395  -8.723   1.552  1.00  0.00     0.037 A 
ATOM     56  C   UNL     1     -16.759  -3.451   1.183  1.00  0.00     0.049 A 
ATOM     57  C   UNL     1     -13.869  -8.494   1.501  1.00  0.00     0.074 A 
ATOM     58  C   UNL     1     -16.863  -2.841   2.420  1.00  0.00     0.029 A 
ATOM     59  N   UNL     1     -17.017  -4.784   1.400  1.00  0.00    -0.354 N 
ATOM     60  N   UNL     1     -14.602  -8.251   2.554  1.00  0.00    -0.248 NA
ATOM     61  C   UNL     1     -14.443  -8.056   0.235  1.00  0.00     0.031 C 
ATOM     62  C   UNL     1     -16.696  -3.892   3.368  1.00  0.00     0.029 A 
ATOM     63  C   UNL     1     -16.567  -5.088   2.662  1.00  0.00     0.049 A 
ATOM     64  H   UNL     1     -17.445  -5.406   0.768  1.00  0.00     0.167 HD
ATOM     65  C   UNL     1     -15.504  -7.276   2.149  1.00  0.00     0.074 A 
ATOM     66  C   UNL     1     -15.409  -7.253   0.690  1.00  0.00     0.031 C 
ATOM     67  C   UNL     1     -16.025  -6.377   3.036  1.00  0.00     0.037 A 
BRANCH  54  68
ATOM     68  C   UNL     1     -16.790  -3.355  -1.408  1.00  0.00     0.058 A 
ATOM     69  C   UNL     1     -18.191  -3.413  -1.507  1.00  0.00     0.135 A 
ATOM     70  C   UNL     1     -16.076  -3.829  -2.535  1.00  0.00     0.135 A 
ATOM     71  F   UNL     1     -18.964  -3.008  -0.486  1.00  0.00    -0.206 F 
ATOM     72  C   UNL     1     -18.835  -3.956  -2.618  1.00  0.00     0.059 A 
ATOM     73  C   UNL     1     -16.698  -4.314  -3.676  1.00  0.00     0.059 A 
ATOM     74  F   UNL     1     -14.742  -3.942  -2.549  1.00  0.00    -0.206 F 
ATOM     75  C   UNL     1     -18.077  -4.415  -3.692  1.00  0.00     0.060 A 
BRANCH  75  76
ATOM     76  S   UNL     1     -18.895  -5.212  -5.081  1.00  0.00     0.124 S 
ATOM     77  O   UNL     1     -19.339  -6.461  -4.476  1.00  0.00    -0.237 OA
ATOM     78  O   UNL     1     -19.941  -4.248  -5.408  1.00  0.00    -0.237 OA
ATOM     79  O   UNL     1     -17.830  -5.332  -6.073  1.00  0.00    -0.744 OA
ENDBRANCH  75  76
ENDBRANCH  54  68
BRANCH  55  80
ATOM     80  C   UNL     1     -11.749  -9.900   0.910  1.00  0.00     0.058 A 
ATOM     81  C   UNL     1     -12.446 -11.114   0.763  1.00  0.00     0.135 A 
ATOM     82  C   UNL     1     -10.551  -9.785   0.174  1.00  0.00     0.135 A 
ATOM     83  F   UNL     1     -13.603 -11.309   1.415  1.00  0.00    -0.206 F 
ATOM     84  C   UNL     1     -12.018 -12.123  -0.107  1.00  0.00     0.059 A 
ATOM     85  C   UNL     1     -10.098 -10.782  -0.689  1.00  0.00     0.059 A 
ATOM     86  F   UNL     1      -9.827  -8.657   0.193  1.00  0.00    -0.206 F 
ATOM     87  C   UNL     1     -10.854 -11.935  -0.850  1.00  0.00     0.060 A 
BRANCH  87  88
ATOM     88  S   UNL     1     -10.404 -13.139  -2.122  1.00  0.00     0.124 S 
ATOM     89  O   UNL     1     -10.002 -14.290  -1.321  1.00  0.00    -0.237 OA
ATOM     90  O   UNL     1     -11.652 -13.283  -2.865  1.00  0.00    -0.237 OA
ATOM     91  O   UNL     1      -9.324 -12.476  -2.849  1.00  0.00    -0.744 OA
ENDBRANCH  87  88
ENDBRANCH  55  80
BRANCH  67  92
ATOM     92  C   UNL     1     -15.825  -6.631   4.510  1.00  0.00     0.058 A 
ATOM     93  C   UNL     1     -14.571  -6.690   5.146  1.00  0.00     0.135 A 
ATOM     94  C   UNL     1     -16.959  -6.681   5.333  1.00  0.00     0.135 A 
ATOM     95  F   UNL     1     -13.437  -6.531   4.451  1.00  0.00    -0.206 F 
ATOM     96  C   UNL     1     -14.453  -6.851   6.529  1.00  0.00     0.059 A 
ATOM     97  C   UNL     1     -16.866  -6.806   6.717  1.00  0.00     0.059 A 
ATOM     98  F   UNL     1     -18.186  -6.561   4.797  1.00  0.00    -0.206 F 
ATOM     99  C   UNL     1     -15.609  -6.912   7.306  1.00  0.00     0.060 A 
BRANCH  99 100
ATOM    100  S   UNL     1     -15.457  -7.068   9.099  1.00  0.00     0.124 S 
ATOM    101  O   UNL     1     -15.004  -8.447   9.249  1.00  0.00    -0.237 OA
ATOM    102  O   UNL     1     -14.476  -6.038   9.427  1.00  0.00    -0.237 OA
ATOM    103  O   UNL     1     -16.811  -6.801   9.580  1.00  0.00    -0.744 OA
ENDBRANCH  99 100
ENDBRANCH  67  92
ENDBRANCH  41  42
ENDBRANCH  34  36
ENDBRANCH  33  34
ENDBRANCH  32  33
ENDBRANCH  31  32
ENDBRANCH  30  31
ENDBRANCH  29  30
ENDBRANCH  28  29
ENDBRANCH  27  28
ENDBRANCH   1  27
TORSDOF 28
