REMARK SMILES Cc1ccc(Sc2ccc(=O)n(-c3ccc(C(=O)OCCOCCOCCOCCOC(=O)c4ccc(-c5c6nc(c(-c7c(F)cc(S(=O)(=O)[O-])cc7F)c7ccc([nH]7)c(-c7c(F)cc(S(=O)(=O)[O-])cc7F)c7nc(c(-c8c(F)cc(S(=O)(=O)[O-])cc8F)c8ccc5[nH]8)C=C7)C=C6)cc4)cc3)n2)cc1
REMARK SMILES IDX 25 1 24 2 23 3 22 4 21 5 20 6 19 7 17 8 18 9 16 10 13 11
REMARK SMILES IDX 14 12 101 13 15 14 100 15 12 16 7 17 8 18 102 19 9 20 10 21
REMARK SMILES IDX 11 22 6 23 5 24 1 25 2 26 3 27 104 28 4 29 103 30 26 31
REMARK SMILES IDX 27 32 28 33 29 34 30 35 31 36 32 37 33 38 34 39 35 40 99 41
REMARK SMILES IDX 36 42 98 43 37 44 38 45 39 46 92 47 40 48 97 49 91 50 93 51
REMARK SMILES IDX 41 52 96 53 90 54 89 55 42 57 76 58 55 59 75 60 56 61 59 62
REMARK SMILES IDX 74 63 94 64 57 65 58 66 73 68 95 69 60 70 43 71 44 72 53 73
REMARK SMILES IDX 45 74 46 75 52 76 54 77 47 78 48 79 49 80 50 81 51 82 77 83
REMARK SMILES IDX 78 84 87 85 79 86 80 87 86 88 88 89 81 90 82 91 83 92 84 93
REMARK SMILES IDX 85 94 61 95 62 96 71 97 63 98 64 99 70 100 72 101 65 102
REMARK SMILES IDX 66 103 67 104 68 105 69 106
REMARK H PARENT 93 56 59 67
REMARK Flexibility Score: inf
ROOT
ATOM      1  O   UNL     1      -8.036   8.355  -4.316  1.00  0.00    -0.377 OA
ENDROOT
BRANCH   1   2
ATOM      2  C   UNL     1      -7.003   8.764  -3.424  1.00  0.00     0.188 C 
BRANCH   2   3
ATOM      3  C   UNL     1      -5.823   9.603  -3.947  1.00  0.00     0.188 C 
BRANCH   3   4
ATOM      4  O   UNL     1      -5.310   9.412  -5.249  1.00  0.00    -0.376 OA
BRANCH   4   5
ATOM      5  C   UNL     1      -6.146   8.882  -6.237  1.00  0.00     0.202 C 
BRANCH   5   6
ATOM      6  C   UNL     1      -6.279   7.406  -6.389  1.00  0.00     0.261 C 
BRANCH   6   7
ATOM      7  O   UNL     1      -5.424   6.584  -5.580  1.00  0.00    -0.460 OA
BRANCH   7   8
ATOM      8  C   UNL     1      -4.270   6.909  -4.956  1.00  0.00     0.338 C 
ATOM      9  O   UNL     1      -3.490   7.834  -5.124  1.00  0.00    -0.246 OA
BRANCH   8  10
ATOM     10  C   UNL     1      -4.117   5.955  -3.855  1.00  0.00     0.060 A 
ATOM     11  C   UNL     1      -4.211   4.386  -1.589  1.00  0.00     0.069 A 
ATOM     12  C   UNL     1      -4.826   3.944  -2.765  1.00  0.00     0.029 A 
ATOM     13  C   UNL     1      -3.472   5.575  -1.572  1.00  0.00     0.029 A 
ATOM     14  C   UNL     1      -4.796   4.735  -3.894  1.00  0.00     0.018 A 
ATOM     15  C   UNL     1      -3.397   6.350  -2.723  1.00  0.00     0.018 A 
BRANCH  11  16
ATOM     16  N   UNL     1      -4.382   3.607  -0.432  1.00  0.00    -0.196 N 
ATOM     17  C   UNL     1      -4.230   1.489   0.361  1.00  0.00     0.122 A 
ATOM     18  C   UNL     1      -4.793   1.856   1.665  1.00  0.00     0.043 A 
ATOM     19  N   UNL     1      -4.109   2.278  -0.646  1.00  0.00    -0.158 NA
ATOM     20  C   UNL     1      -5.064   3.151   1.844  1.00  0.00     0.076 A 
ATOM     21  C   UNL     1      -4.788   4.149   0.782  1.00  0.00     0.271 A 
ATOM     22  O   UNL     1      -5.003   5.332   1.036  1.00  0.00    -0.267 OA
BRANCH  17  23
ATOM     23  S   UNL     1      -3.695  -0.161   0.222  1.00  0.00    -0.068 SA
BRANCH  23  24
ATOM     24  C   UNL     1      -1.909  -0.018   0.102  1.00  0.00     0.014 A 
ATOM     25  C   UNL     1       2.421  -0.018  -0.037  1.00  0.00     0.044 C 
ATOM     26  C   UNL     1       0.921  -0.011   0.003  1.00  0.00    -0.051 A 
ATOM     27  C   UNL     1       0.213  -1.215   0.014  1.00  0.00     0.004 A 
ATOM     28  C   UNL     1       0.207   1.189   0.018  1.00  0.00     0.004 A 
ATOM     29  C   UNL     1      -1.186  -1.217   0.061  1.00  0.00     0.016 A 
ATOM     30  C   UNL     1      -1.193   1.185   0.068  1.00  0.00     0.016 A 
ENDBRANCH  23  24
ENDBRANCH  17  23
ENDBRANCH  11  16
ENDBRANCH   8  10
ENDBRANCH   7   8
ENDBRANCH   6   7
ENDBRANCH   5   6
ENDBRANCH   4   5
ENDBRANCH   3   4
ENDBRANCH   2   3
ENDBRANCH   1   2
BRANCH   1  31
ATOM     31  C   UNL     1      -9.126   9.231  -4.629  1.00  0.00     0.188 C 
BRANCH  31  32
ATOM     32  C   UNL     1      -8.929  10.319  -5.715  1.00  0.00     0.188 C 
BRANCH  32  33
ATOM     33  O   UNL     1      -7.736  11.055  -5.471  1.00  0.00    -0.376 OA
BRANCH  33  34
ATOM     34  C   UNL     1      -7.833  12.371  -4.989  1.00  0.00     0.202 C 
BRANCH  34  35
ATOM     35  C   UNL     1      -7.996  13.334  -6.158  1.00  0.00     0.261 C 
BRANCH  35  36
ATOM     36  O   UNL     1      -6.813  13.230  -6.980  1.00  0.00    -0.460 OA
BRANCH  36  37
ATOM     37  C   UNL     1      -6.956  12.567  -8.163  1.00  0.00     0.338 C 
ATOM     38  O   UNL     1      -7.947  12.617  -8.873  1.00  0.00    -0.246 OA
BRANCH  37  39
ATOM     39  C   UNL     1      -5.763  11.695  -8.412  1.00  0.00     0.060 A 
ATOM     40  C   UNL     1      -5.777  10.740  -9.451  1.00  0.00     0.016 A 
ATOM     41  C   UNL     1      -4.711  11.676  -7.496  1.00  0.00     0.016 A 
ATOM     42  C   UNL     1      -4.779   9.739  -9.540  1.00  0.00     0.010 A 
ATOM     43  C   UNL     1      -3.756  10.663  -7.564  1.00  0.00     0.010 A 
ATOM     44  C   UNL     1      -3.765   9.684  -8.582  1.00  0.00    -0.014 A 
BRANCH  44  45
ATOM     45  C   UNL     1      -2.693   8.669  -8.484  1.00  0.00     0.031 A 
ATOM     46  C   UNL     1      -1.286   9.127  -8.479  1.00  0.00     0.074 A 
ATOM     47  C   UNL     1      -2.909   7.395  -8.070  1.00  0.00     0.049 A 
ATOM     48  N   UNL     1      -0.272   8.329  -8.454  1.00  0.00    -0.248 NA
ATOM     49  C   UNL     1      -0.874  10.533  -8.537  1.00  0.00     0.031 C 
ATOM     50  C   UNL     1      -2.044   6.581  -7.202  1.00  0.00     0.029 A 
ATOM     51  N   UNL     1      -4.061   6.623  -8.127  1.00  0.00    -0.354 N 
ATOM     52  C   UNL     1       0.759   9.066  -7.939  1.00  0.00     0.074 A 
ATOM     53  C   UNL     1       0.437  10.423  -8.293  1.00  0.00     0.031 C 
ATOM     54  C   UNL     1      -2.579   5.363  -7.002  1.00  0.00     0.029 A 
ATOM     55  C   UNL     1      -3.781   5.278  -7.816  1.00  0.00     0.049 A 
ATOM     56  H   UNL     1      -4.954   6.969  -8.354  1.00  0.00     0.167 HD
ATOM     57  C   UNL     1       1.624   8.477  -7.062  1.00  0.00     0.037 A 
ATOM     58  C   UNL     1      -4.145   4.264  -8.644  1.00  0.00     0.037 A 
ATOM     59  C   UNL     1       1.440   7.004  -6.970  1.00  0.00     0.049 A 
ATOM     60  C   UNL     1      -2.882   3.817  -9.324  1.00  0.00     0.074 A 
ATOM     61  C   UNL     1       1.334   6.081  -5.941  1.00  0.00     0.029 A 
ATOM     62  N   UNL     1       1.132   6.276  -8.128  1.00  0.00    -0.354 N 
ATOM     63  N   UNL     1      -1.787   4.512  -9.169  1.00  0.00    -0.248 NA
ATOM     64  C   UNL     1      -2.635   2.605 -10.094  1.00  0.00     0.031 C 
ATOM     65  C   UNL     1       0.912   4.825  -6.500  1.00  0.00     0.029 A 
ATOM     66  C   UNL     1       0.777   4.966  -7.874  1.00  0.00     0.049 A 
ATOM     67  H   UNL     1       1.166   6.661  -9.034  1.00  0.00     0.167 HD
ATOM     68  C   UNL     1      -0.719   3.765  -9.475  1.00  0.00     0.074 A 
ATOM     69  C   UNL     1      -1.293   2.668 -10.248  1.00  0.00     0.031 C 
ATOM     70  C   UNL     1       0.520   4.040  -8.980  1.00  0.00     0.037 A 
BRANCH  57  71
ATOM     71  C   UNL     1       2.561   9.294  -6.177  1.00  0.00     0.058 A 
ATOM     72  C   UNL     1       3.685   8.694  -5.576  1.00  0.00     0.135 A 
ATOM     73  C   UNL     1       2.405  10.669  -5.867  1.00  0.00     0.135 A 
ATOM     74  F   UNL     1       3.914   7.379  -5.701  1.00  0.00    -0.206 F 
ATOM     75  C   UNL     1       4.621   9.415  -4.820  1.00  0.00     0.059 A 
ATOM     76  C   UNL     1       3.362  11.424  -5.183  1.00  0.00     0.059 A 
ATOM     77  F   UNL     1       1.285  11.344  -6.158  1.00  0.00    -0.206 F 
ATOM     78  C   UNL     1       4.475  10.789  -4.663  1.00  0.00     0.060 A 
BRANCH  78  79
ATOM     79  S   UNL     1       5.747  11.734  -3.801  1.00  0.00     0.124 S 
ATOM     80  O   UNL     1       5.515  11.357  -2.411  1.00  0.00    -0.237 OA
ATOM     81  O   UNL     1       6.977  11.226  -4.402  1.00  0.00    -0.237 OA
ATOM     82  O   UNL     1       5.427  13.120  -4.134  1.00  0.00    -0.744 OA
ENDBRANCH  78  79
ENDBRANCH  57  71
BRANCH  58  83
ATOM     83  C   UNL     1      -5.563   4.394  -9.084  1.00  0.00     0.058 A 
ATOM     84  C   UNL     1      -6.557   4.227  -8.082  1.00  0.00     0.135 A 
ATOM     85  C   UNL     1      -5.934   5.129 -10.213  1.00  0.00     0.135 A 
ATOM     86  F   UNL     1      -6.269   3.536  -6.964  1.00  0.00    -0.206 F 
ATOM     87  C   UNL     1      -7.788   4.889  -8.120  1.00  0.00     0.059 A 
ATOM     88  C   UNL     1      -7.156   5.816 -10.265  1.00  0.00     0.059 A 
ATOM     89  F   UNL     1      -5.064   5.299 -11.219  1.00  0.00    -0.206 F 
ATOM     90  C   UNL     1      -8.047   5.741  -9.187  1.00  0.00     0.060 A 
BRANCH  90  91
ATOM     91  S   UNL     1      -9.403   6.947  -9.087  1.00  0.00     0.124 S 
ATOM     92  O   UNL     1     -10.277   6.516 -10.172  1.00  0.00    -0.237 OA
ATOM     93  O   UNL     1      -9.938   6.762  -7.740  1.00  0.00    -0.237 OA
ATOM     94  O   UNL     1      -8.700   8.210  -9.290  1.00  0.00    -0.744 OA
ENDBRANCH  90  91
ENDBRANCH  58  83
BRANCH  70  95
ATOM     95  C   UNL     1       1.670   3.426  -9.648  1.00  0.00     0.058 A 
ATOM     96  C   UNL     1       1.835   2.048  -9.768  1.00  0.00     0.135 A 
ATOM     97  C   UNL     1       2.603   4.284 -10.254  1.00  0.00     0.135 A 
ATOM     98  F   UNL     1       0.987   1.197  -9.166  1.00  0.00    -0.206 F 
ATOM     99  C   UNL     1       2.832   1.534 -10.575  1.00  0.00     0.059 A 
ATOM    100  C   UNL     1       3.646   3.791 -11.001  1.00  0.00     0.059 A 
ATOM    101  F   UNL     1       2.472   5.618 -10.195  1.00  0.00    -0.206 F 
ATOM    102  C   UNL     1       3.712   2.419 -11.204  1.00  0.00     0.060 A 
BRANCH 102 103
ATOM    103  S   UNL     1       4.917   1.789 -12.371  1.00  0.00     0.124 S 
ATOM    104  O   UNL     1       5.211   0.461 -11.842  1.00  0.00    -0.237 OA
ATOM    105  O   UNL     1       4.149   1.820 -13.612  1.00  0.00    -0.237 OA
ATOM    106  O   UNL     1       6.006   2.754 -12.274  1.00  0.00    -0.744 OA
ENDBRANCH 102 103
ENDBRANCH  70  95
ENDBRANCH  44  45
ENDBRANCH  37  39
ENDBRANCH  36  37
ENDBRANCH  35  36
ENDBRANCH  34  35
ENDBRANCH  33  34
ENDBRANCH  32  33
ENDBRANCH  31  32
ENDBRANCH   1  31
TORSDOF 26
