REMARK SMILES O=C(OCCOCCOCCOCCOC(=O)[C@@H]1CC=CC[C@@H]1C(=O)Nc1ccc(Br)cc1Cl)c1ccc(-c2c3nc(c(-c4c(F)cc(S(=O)(=O)[O-])cc4F)c4ccc([nH]4)c(-c4c(F)cc(S(=O)(=O)[O-])cc4F)c4nc(c(-c5c(F)cc(S(=O)(=O)[O-])cc5F)c5ccc2[nH]5)C=C4)C=C3)cc1
REMARK SMILES IDX 8 1 7 2 6 3 5 4 4 5 3 6 2 7 1 8 35 9 36 10 100 11 37 12
REMARK SMILES IDX 99 13 38 14 39 15 40 16 93 17 41 18 98 19 92 20 94 21 42 22
REMARK SMILES IDX 97 23 91 24 90 25 43 27 77 28 56 29 76 30 57 31 60 32 75 33
REMARK SMILES IDX 95 34 58 35 59 36 74 38 96 39 61 40 44 41 45 42 54 43 46 44
REMARK SMILES IDX 47 45 53 46 55 47 48 48 49 49 50 50 51 51 52 52 78 53 79 54
REMARK SMILES IDX 88 55 80 56 81 57 87 58 89 59 82 60 83 61 84 62 85 63 86 64
REMARK SMILES IDX 62 65 63 66 72 67 64 68 65 69 71 70 73 71 66 72 67 73 68 74
REMARK SMILES IDX 69 75 70 76 9 77 10 78 11 79 12 80 13 81 14 82 15 83 16 84
REMARK SMILES IDX 17 85 18 86 19 87 23 88 20 89 22 90 21 91 24 92 25 93 26 94
REMARK SMILES IDX 27 96 28 97 33 98 29 99 32 100 34 101 30 102 31 103
REMARK H PARENT 94 26 60 37 26 95
REMARK Flexibility Score: inf
ROOT
ATOM      1  C   UNL     1       4.067   9.893  -0.051  1.00  0.00     0.188 C 
ENDROOT
BRANCH   1   2
ATOM      2  C   UNL     1       4.837   9.730  -1.358  1.00  0.00     0.188 C 
BRANCH   2   3
ATOM      3  O   UNL     1       4.183   8.756  -2.166  1.00  0.00    -0.376 OA
BRANCH   3   4
ATOM      4  C   UNL     1       4.936   8.278  -3.271  1.00  0.00     0.202 C 
BRANCH   4   5
ATOM      5  C   UNL     1       4.506   8.947  -4.576  1.00  0.00     0.261 C 
BRANCH   5   6
ATOM      6  O   UNL     1       4.761  10.365  -4.534  1.00  0.00    -0.460 OA
BRANCH   6   7
ATOM      7  C   UNL     1       3.977  11.400  -4.155  1.00  0.00     0.338 C 
ATOM      8  O   UNL     1       4.478  12.525  -4.189  1.00  0.00    -0.246 OA
BRANCH   7   9
ATOM      9  C   UNL     1       2.560  11.296  -3.661  1.00  0.00     0.060 A 
ATOM     10  C   UNL     1       1.882  10.123  -3.326  1.00  0.00     0.016 A 
ATOM     11  C   UNL     1       1.868  12.513  -3.482  1.00  0.00     0.016 A 
ATOM     12  C   UNL     1       0.564  10.142  -2.878  1.00  0.00     0.010 A 
ATOM     13  C   UNL     1       0.541  12.545  -3.034  1.00  0.00     0.010 A 
ATOM     14  C   UNL     1      -0.123  11.347  -2.766  1.00  0.00    -0.014 A 
BRANCH  14  15
ATOM     15  C   UNL     1      -1.588  11.275  -2.613  1.00  0.00     0.031 A 
ATOM     16  C   UNL     1      -2.408  11.307  -3.872  1.00  0.00     0.074 A 
ATOM     17  C   UNL     1      -2.136  11.003  -1.416  1.00  0.00     0.049 A 
ATOM     18  N   UNL     1      -3.698  11.191  -4.026  1.00  0.00    -0.248 NA
ATOM     19  C   UNL     1      -1.663  11.457  -5.137  1.00  0.00     0.031 C 
ATOM     20  C   UNL     1      -1.393  10.831  -0.166  1.00  0.00     0.029 A 
ATOM     21  N   UNL     1      -3.442  10.792  -1.061  1.00  0.00    -0.354 N 
ATOM     22  C   UNL     1      -3.916  11.241  -5.398  1.00  0.00     0.074 A 
ATOM     23  C   UNL     1      -2.633  11.422  -6.035  1.00  0.00     0.031 C 
ATOM     24  C   UNL     1      -2.259  10.541   0.821  1.00  0.00     0.029 A 
ATOM     25  C   UNL     1      -3.615  10.546   0.281  1.00  0.00     0.049 A 
ATOM     26  H   UNL     1      -4.186  10.813  -1.705  1.00  0.00     0.167 HD
ATOM     27  C   UNL     1      -5.087  11.135  -6.065  1.00  0.00     0.037 A 
ATOM     28  C   UNL     1      -4.752  10.373   0.984  1.00  0.00     0.037 A 
ATOM     29  C   UNL     1      -6.354  10.992  -5.404  1.00  0.00     0.049 A 
ATOM     30  C   UNL     1      -6.059  10.387   0.228  1.00  0.00     0.074 A 
ATOM     31  C   UNL     1      -7.622  10.987  -5.952  1.00  0.00     0.029 A 
ATOM     32  N   UNL     1      -6.504  10.831  -4.032  1.00  0.00    -0.354 N 
ATOM     33  N   UNL     1      -6.262  10.502  -1.065  1.00  0.00    -0.248 NA
ATOM     34  C   UNL     1      -7.288  10.251   1.019  1.00  0.00     0.031 C 
ATOM     35  C   UNL     1      -8.543  10.860  -4.905  1.00  0.00     0.029 A 
ATOM     36  C   UNL     1      -7.845  10.736  -3.712  1.00  0.00     0.049 A 
ATOM     37  H   UNL     1      -5.764  10.790  -3.384  1.00  0.00     0.167 HD
ATOM     38  C   UNL     1      -7.640  10.441  -1.243  1.00  0.00     0.074 A 
ATOM     39  C   UNL     1      -8.217  10.249   0.073  1.00  0.00     0.031 C 
ATOM     40  C   UNL     1      -8.370  10.543  -2.383  1.00  0.00     0.037 A 
BRANCH  27  41
ATOM     41  C   UNL     1      -5.035  11.231  -7.563  1.00  0.00     0.058 A 
ATOM     42  C   UNL     1      -4.532  10.184  -8.352  1.00  0.00     0.135 A 
ATOM     43  C   UNL     1      -5.463  12.397  -8.217  1.00  0.00     0.135 A 
ATOM     44  F   UNL     1      -4.073   9.062  -7.775  1.00  0.00    -0.206 F 
ATOM     45  C   UNL     1      -4.439  10.297  -9.737  1.00  0.00     0.059 A 
ATOM     46  C   UNL     1      -5.399  12.524  -9.602  1.00  0.00     0.059 A 
ATOM     47  F   UNL     1      -5.933  13.435  -7.508  1.00  0.00    -0.206 F 
ATOM     48  C   UNL     1      -4.874  11.473 -10.352  1.00  0.00     0.060 A 
BRANCH  48  49
ATOM     49  S   UNL     1      -4.739  11.607 -12.148  1.00  0.00     0.124 S 
ATOM     50  O   UNL     1      -3.296  11.739 -12.323  1.00  0.00    -0.237 OA
ATOM     51  O   UNL     1      -5.319  10.346 -12.598  1.00  0.00    -0.237 OA
ATOM     52  O   UNL     1      -5.520  12.800 -12.459  1.00  0.00    -0.744 OA
ENDBRANCH  48  49
ENDBRANCH  27  41
BRANCH  28  53
ATOM     53  C   UNL     1      -4.718  10.241   2.469  1.00  0.00     0.058 A 
ATOM     54  C   UNL     1      -5.154   9.079   3.124  1.00  0.00     0.135 A 
ATOM     55  C   UNL     1      -4.282  11.309   3.272  1.00  0.00     0.135 A 
ATOM     56  F   UNL     1      -5.589   8.030   2.409  1.00  0.00    -0.206 F 
ATOM     57  C   UNL     1      -5.192   8.992   4.514  1.00  0.00     0.059 A 
ATOM     58  C   UNL     1      -4.281  11.236   4.661  1.00  0.00     0.059 A 
ATOM     59  F   UNL     1      -3.847  12.445   2.704  1.00  0.00    -0.206 F 
ATOM     60  C   UNL     1      -4.758  10.079   5.275  1.00  0.00     0.060 A 
BRANCH  60  61
ATOM     61  S   UNL     1      -4.809   9.965   7.077  1.00  0.00     0.124 S 
ATOM     62  O   UNL     1      -6.239  10.099   7.339  1.00  0.00    -0.237 OA
ATOM     63  O   UNL     1      -4.237   8.645   7.320  1.00  0.00    -0.237 OA
ATOM     64  O   UNL     1      -3.982  11.088   7.508  1.00  0.00    -0.744 OA
ENDBRANCH  60  61
ENDBRANCH  28  53
BRANCH  40  65
ATOM     65  C   UNL     1      -9.861  10.426  -2.246  1.00  0.00     0.058 A 
ATOM     66  C   UNL     1     -10.629  11.458  -1.688  1.00  0.00     0.135 A 
ATOM     67  C   UNL     1     -10.530   9.287  -2.721  1.00  0.00     0.135 A 
ATOM     68  F   UNL     1     -10.034  12.566  -1.218  1.00  0.00    -0.206 F 
ATOM     69  C   UNL     1     -12.010  11.351  -1.574  1.00  0.00     0.059 A 
ATOM     70  C   UNL     1     -11.912   9.171  -2.645  1.00  0.00     0.059 A 
ATOM     71  F   UNL     1      -9.839   8.280  -3.279  1.00  0.00    -0.206 F 
ATOM     72  C   UNL     1     -12.642  10.203  -2.054  1.00  0.00     0.060 A 
BRANCH  72  73
ATOM     73  S   UNL     1     -14.437  10.082  -1.919  1.00  0.00     0.124 S 
ATOM     74  O   UNL     1     -14.603   9.783  -0.500  1.00  0.00    -0.237 OA
ATOM     75  O   UNL     1     -14.873  11.409  -2.343  1.00  0.00    -0.237 OA
ATOM     76  O   UNL     1     -14.773   8.996  -2.835  1.00  0.00    -0.744 OA
ENDBRANCH  72  73
ENDBRANCH  40  65
ENDBRANCH  14  15
ENDBRANCH   7   9
ENDBRANCH   6   7
ENDBRANCH   5   6
ENDBRANCH   4   5
ENDBRANCH   3   4
ENDBRANCH   2   3
ENDBRANCH   1   2
BRANCH   1  77
ATOM     77  O   UNL     1       3.724   8.623   0.511  1.00  0.00    -0.377 OA
BRANCH  77  78
ATOM     78  C   UNL     1       2.498   8.106  -0.031  1.00  0.00     0.188 C 
BRANCH  78  79
ATOM     79  C   UNL     1       1.526   7.607   1.040  1.00  0.00     0.188 C 
BRANCH  79  80
ATOM     80  O   UNL     1       1.191   8.568   2.039  1.00  0.00    -0.376 OA
BRANCH  80  81
ATOM     81  C   UNL     1       2.238   8.973   2.925  1.00  0.00     0.202 C 
BRANCH  81  82
ATOM     82  C   UNL     1       2.982   7.841   3.646  1.00  0.00     0.261 C 
BRANCH  82  83
ATOM     83  O   UNL     1       3.751   7.027   2.733  1.00  0.00    -0.463 OA
BRANCH  83  84
ATOM     84  C   UNL     1       4.308   5.927   3.287  1.00  0.00     0.310 C 
ATOM     85  O   UNL     1       4.336   5.716   4.496  1.00  0.00    -0.252 OA
BRANCH  84  86
ATOM     86  C   UNL     1       4.737   4.886   2.264  1.00  0.00     0.116 C 
ATOM     87  C   UNL     1       5.684   3.862   2.911  1.00  0.00     0.043 C 
ATOM     88  C   UNL     1       5.082   5.261   0.805  1.00  0.00     0.097 C 
ATOM     89  C   UNL     1       6.335   2.921   1.944  1.00  0.00    -0.030 C 
ATOM     90  C   UNL     1       5.128   3.917   0.009  1.00  0.00     0.041 C 
ATOM     91  C   UNL     1       6.069   2.926   0.632  1.00  0.00    -0.030 C 
BRANCH  88  92
ATOM     92  C   UNL     1       6.244   6.146   0.263  1.00  0.00     0.228 C 
ATOM     93  O   UNL     1       6.578   6.044  -0.931  1.00  0.00    -0.274 OA
ATOM     94  N   UNL     1       6.753   7.247   0.872  1.00  0.00    -0.324 N 
ATOM     95  H   UNL     1       7.053   7.949   0.250  1.00  0.00     0.169 HD
BRANCH  94  96
ATOM     96  C   UNL     1       6.930   7.565   2.213  1.00  0.00     0.060 A 
ATOM     97  C   UNL     1       6.517   8.830   2.627  1.00  0.00     0.029 A 
ATOM     98  C   UNL     1       7.569   6.731   3.131  1.00  0.00     0.065 A 
ATOM     99  C   UNL     1       6.474   9.143   3.983  1.00  0.00     0.018 A 
ATOM    100  C   UNL     1       7.508   7.019   4.494  1.00  0.00     0.038 A 
ATOM    101  Cl  UNL     1       8.640   5.478   2.596  1.00  0.00    -0.082 Cl
ATOM    102  C   UNL     1       6.904   8.202   4.914  1.00  0.00     0.019 A 
ATOM    103  Br  UNL     1       6.683   8.548   6.756  1.00  0.00    -0.051 Br
ENDBRANCH  94  96
ENDBRANCH  88  92
ENDBRANCH  84  86
ENDBRANCH  83  84
ENDBRANCH  82  83
ENDBRANCH  81  82
ENDBRANCH  80  81
ENDBRANCH  79  80
ENDBRANCH  78  79
ENDBRANCH  77  78
ENDBRANCH   1  77
TORSDOF 25
