REMARK SMILES Nc1ccc(-c2cc(Cl)cc3c2O[C@H](C(F)(F)F)C(C(=O)OCCOCCOCCOCCOC(=O)c2ccc(-c4c5nc(c(-c6c(F)cc(S(=O)(=O)[O-])cc6F)c6ccc([nH]6)c(-c6c(F)cc(S(=O)(=O)[O-])cc6F)c6nc(c(-c7c(F)cc(S(=O)(=O)[O-])cc7F)c7ccc4[nH]7)C=C6)C=C5)cc2)=C3)cc1
REMARK SMILES IDX 29 1 28 2 27 3 26 4 25 5 24 6 23 7 22 8 20 9 21 10 19 11
REMARK SMILES IDX 6 12 7 13 12 14 8 15 11 16 13 17 9 18 10 19 103 20 14 21
REMARK SMILES IDX 5 22 2 23 3 24 105 25 4 26 104 27 1 28 15 31 16 32 17 33
REMARK SMILES IDX 18 34 30 35 31 36 32 37 33 38 34 39 35 40 36 41 37 42 38 43
REMARK SMILES IDX 102 44 39 45 101 46 40 47 41 48 42 49 95 50 43 51 100 52
REMARK SMILES IDX 94 53 96 54 44 55 99 56 93 57 92 58 45 60 79 61 58 62 78 63
REMARK SMILES IDX 59 64 62 65 77 66 97 67 60 68 61 69 76 71 98 72 63 73 46 74
REMARK SMILES IDX 47 75 56 76 48 77 49 78 55 79 57 80 50 81 51 82 52 83 53 84
REMARK SMILES IDX 54 85 80 86 81 87 90 88 82 89 83 90 89 91 91 92 84 93 85 94
REMARK SMILES IDX 86 95 87 96 88 97 64 98 65 99 74 100 66 101 67 102 73 103
REMARK SMILES IDX 75 104 68 105 69 106 70 107 71 108 72 109
REMARK H PARENT 1 29 1 30 96 59 62 70
REMARK Flexibility Score: inf
ROOT
ATOM      1  C   UNL     1      -6.014  -1.069   7.715  1.00  0.00     0.188 C 
ENDROOT
BRANCH   1   2
ATOM      2  O   UNL     1      -5.731  -1.452   6.369  1.00  0.00    -0.377 OA
BRANCH   2   3
ATOM      3  C   UNL     1      -6.454  -0.793   5.341  1.00  0.00     0.188 C 
BRANCH   3   4
ATOM      4  C   UNL     1      -7.809  -1.467   5.058  1.00  0.00     0.188 C 
BRANCH   4   5
ATOM      5  O   UNL     1      -8.188  -2.396   6.066  1.00  0.00    -0.376 OA
BRANCH   5   6
ATOM      6  C   UNL     1      -7.944  -3.779   5.837  1.00  0.00     0.202 C 
BRANCH   6   7
ATOM      7  C   UNL     1      -6.507  -4.267   5.584  1.00  0.00     0.261 C 
BRANCH   7   8
ATOM      8  O   UNL     1      -5.782  -3.579   4.555  1.00  0.00    -0.460 OA
BRANCH   8   9
ATOM      9  C   UNL     1      -6.205  -3.700   3.284  1.00  0.00     0.338 C 
ATOM     10  O   UNL     1      -7.136  -4.372   2.880  1.00  0.00    -0.246 OA
BRANCH   9  11
ATOM     11  C   UNL     1      -5.455  -2.715   2.470  1.00  0.00     0.087 C 
ATOM     12  C   UNL     1      -3.321  -0.037   0.042  1.00  0.00     0.026 A 
ATOM     13  C   UNL     1      -4.039   0.716  -0.905  1.00  0.00     0.033 A 
ATOM     14  C   UNL     1      -4.054  -0.871   0.919  1.00  0.00     0.135 A 
ATOM     15  C   UNL     1      -5.428   0.631  -0.982  1.00  0.00     0.042 A 
ATOM     16  C   UNL     1      -5.443  -1.002   0.794  1.00  0.00     0.019 A 
ATOM     17  O   UNL     1      -3.346  -1.521   1.893  1.00  0.00    -0.475 OA
ATOM     18  Cl  UNL     1      -6.277   1.562  -2.155  1.00  0.00    -0.084 Cl
ATOM     19  C   UNL     1      -6.132  -0.229  -0.144  1.00  0.00     0.032 A 
ATOM     20  C   UNL     1      -6.157  -1.985   1.594  1.00  0.00     0.027 C 
ATOM     21  C   UNL     1      -3.983  -2.523   2.727  1.00  0.00     0.316 C 
BRANCH  12  22
ATOM     22  C   UNL     1      -1.843   0.002   0.041  1.00  0.00    -0.014 A 
ATOM     23  C   UNL     1       0.999   0.036   0.007  1.00  0.00     0.031 A 
ATOM     24  C   UNL     1       0.302  -1.169  -0.042  1.00  0.00     0.026 A 
ATOM     25  C   UNL     1       0.270   1.225   0.013  1.00  0.00     0.026 A 
ATOM     26  C   UNL     1      -1.096  -1.186  -0.019  1.00  0.00     0.011 A 
ATOM     27  C   UNL     1      -1.132   1.212   0.047  1.00  0.00     0.011 A 
BRANCH  23  28
ATOM     28  N   UNL     1       2.382   0.051  -0.102  1.00  0.00    -0.399 N 
ATOM     29  H   UNL     1       2.885  -0.796  -0.105  1.00  0.00     0.156 HD
ATOM     30  H   UNL     1       2.861   0.908  -0.176  1.00  0.00     0.156 HD
ENDBRANCH  23  28
ENDBRANCH  12  22
BRANCH  21  31
ATOM     31  C   UNL     1      -3.187  -3.827   2.583  1.00  0.00     0.430 C 
ATOM     32  F   UNL     1      -1.863  -3.619   2.775  1.00  0.00    -0.167 F 
ATOM     33  F   UNL     1      -3.576  -4.764   3.473  1.00  0.00    -0.167 F 
ATOM     34  F   UNL     1      -3.335  -4.357   1.344  1.00  0.00    -0.167 F 
ENDBRANCH  21  31
ENDBRANCH   9  11
ENDBRANCH   8   9
ENDBRANCH   7   8
ENDBRANCH   6   7
ENDBRANCH   5   6
ENDBRANCH   4   5
ENDBRANCH   3   4
ENDBRANCH   2   3
ENDBRANCH   1   2
BRANCH   1  35
ATOM     35  C   UNL     1      -7.410  -0.540   8.119  1.00  0.00     0.188 C 
BRANCH  35  36
ATOM     36  O   UNL     1      -7.899   0.504   7.277  1.00  0.00    -0.376 OA
BRANCH  36  37
ATOM     37  C   UNL     1      -7.913   1.815   7.826  1.00  0.00     0.202 C 
BRANCH  37  38
ATOM     38  C   UNL     1      -6.540   2.497   7.855  1.00  0.00     0.261 C 
BRANCH  38  39
ATOM     39  O   UNL     1      -5.558   1.857   8.683  1.00  0.00    -0.460 OA
BRANCH  39  40
ATOM     40  C   UNL     1      -5.846   1.702   9.995  1.00  0.00     0.338 C 
ATOM     41  O   UNL     1      -6.831   2.112  10.583  1.00  0.00    -0.246 OA
BRANCH  40  42
ATOM     42  C   UNL     1      -4.854   0.762  10.559  1.00  0.00     0.060 A 
ATOM     43  C   UNL     1      -3.489   0.952  10.326  1.00  0.00     0.016 A 
ATOM     44  C   UNL     1      -5.302  -0.337  11.304  1.00  0.00     0.016 A 
ATOM     45  C   UNL     1      -2.568   0.063  10.880  1.00  0.00     0.010 A 
ATOM     46  C   UNL     1      -4.377  -1.228  11.854  1.00  0.00     0.010 A 
ATOM     47  C   UNL     1      -3.003  -1.014  11.672  1.00  0.00    -0.014 A 
BRANCH  47  48
ATOM     48  C   UNL     1      -2.012  -1.761  12.483  1.00  0.00     0.031 A 
ATOM     49  C   UNL     1      -1.505  -3.114  12.090  1.00  0.00     0.074 A 
ATOM     50  C   UNL     1      -1.565  -1.167  13.606  1.00  0.00     0.049 A 
ATOM     51  N   UNL     1      -0.553  -3.820  12.645  1.00  0.00    -0.248 NA
ATOM     52  C   UNL     1      -2.147  -3.762  10.939  1.00  0.00     0.031 C 
ATOM     53  C   UNL     1      -2.024   0.135  14.101  1.00  0.00     0.029 A 
ATOM     54  N   UNL     1      -0.625  -1.559  14.522  1.00  0.00    -0.354 N 
ATOM     55  C   UNL     1      -0.458  -4.986  11.899  1.00  0.00     0.074 A 
ATOM     56  C   UNL     1      -1.486  -4.913  10.879  1.00  0.00     0.031 C 
ATOM     57  C   UNL     1      -1.340   0.448  15.211  1.00  0.00     0.029 A 
ATOM     58  C   UNL     1      -0.412  -0.636  15.517  1.00  0.00     0.049 A 
ATOM     59  H   UNL     1      -0.149  -2.419  14.473  1.00  0.00     0.167 HD
ATOM     60  C   UNL     1       0.420  -6.009  12.046  1.00  0.00     0.037 A 
ATOM     61  C   UNL     1       0.445  -0.649  16.555  1.00  0.00     0.037 A 
ATOM     62  C   UNL     1       1.425  -6.074  13.081  1.00  0.00     0.049 A 
ATOM     63  C   UNL     1       1.385  -1.808  16.713  1.00  0.00     0.074 A 
ATOM     64  C   UNL     1       2.387  -7.048  13.284  1.00  0.00     0.029 A 
ATOM     65  N   UNL     1       1.588  -5.139  14.095  1.00  0.00    -0.354 N 
ATOM     66  N   UNL     1       1.522  -2.864  15.948  1.00  0.00    -0.248 NA
ATOM     67  C   UNL     1       2.292  -1.777  17.867  1.00  0.00     0.031 C 
ATOM     68  C   UNL     1       3.098  -6.730  14.447  1.00  0.00     0.029 A 
ATOM     69  C   UNL     1       2.614  -5.530  14.941  1.00  0.00     0.049 A 
ATOM     70  H   UNL     1       1.054  -4.319  14.197  1.00  0.00     0.167 HD
ATOM     71  C   UNL     1       2.543  -3.615  16.516  1.00  0.00     0.074 A 
ATOM     72  C   UNL     1       2.998  -2.885  17.683  1.00  0.00     0.031 C 
ATOM     73  C   UNL     1       3.057  -4.800  16.105  1.00  0.00     0.037 A 
BRANCH  60  74
ATOM     74  C   UNL     1       0.354  -7.144  11.060  1.00  0.00     0.058 A 
ATOM     75  C   UNL     1       0.784  -6.983   9.733  1.00  0.00     0.135 A 
ATOM     76  C   UNL     1      -0.059  -8.425  11.462  1.00  0.00     0.135 A 
ATOM     77  F   UNL     1       1.185  -5.779   9.294  1.00  0.00    -0.206 F 
ATOM     78  C   UNL     1       0.790  -8.046   8.835  1.00  0.00     0.059 A 
ATOM     79  C   UNL     1      -0.039  -9.509  10.587  1.00  0.00     0.059 A 
ATOM     80  F   UNL     1      -0.475  -8.637  12.720  1.00  0.00    -0.206 F 
ATOM     81  C   UNL     1       0.379  -9.306   9.272  1.00  0.00     0.060 A 
BRANCH  81  82
ATOM     82  S   UNL     1       0.407 -10.676   8.095  1.00  0.00     0.124 S 
ATOM     83  O   UNL     1      -0.684 -10.310   7.198  1.00  0.00    -0.237 OA
ATOM     84  O   UNL     1       1.750 -10.575   7.533  1.00  0.00    -0.237 OA
ATOM     85  O   UNL     1       0.166 -11.848   8.930  1.00  0.00    -0.744 OA
ENDBRANCH  81  82
ENDBRANCH  60  74
BRANCH  61  86
ATOM     86  C   UNL     1       0.476   0.506  17.487  1.00  0.00     0.058 A 
ATOM     87  C   UNL     1       1.546   1.412  17.471  1.00  0.00     0.135 A 
ATOM     88  C   UNL     1      -0.588   0.761  18.366  1.00  0.00     0.135 A 
ATOM     89  F   UNL     1       2.585   1.208  16.647  1.00  0.00    -0.206 F 
ATOM     90  C   UNL     1       1.564   2.529  18.298  1.00  0.00     0.059 A 
ATOM     91  C   UNL     1      -0.604   1.885  19.185  1.00  0.00     0.059 A 
ATOM     92  F   UNL     1      -1.644  -0.066  18.401  1.00  0.00    -0.206 F 
ATOM     93  C   UNL     1       0.480   2.761  19.147  1.00  0.00     0.060 A 
BRANCH  93  94
ATOM     94  S   UNL     1       0.486   4.251  20.166  1.00  0.00     0.124 S 
ATOM     95  O   UNL     1       1.524   3.936  21.141  1.00  0.00    -0.237 OA
ATOM     96  O   UNL     1       0.818   5.285  19.191  1.00  0.00    -0.237 OA
ATOM     97  O   UNL     1      -0.875   4.307  20.689  1.00  0.00    -0.744 OA
ENDBRANCH  93  94
ENDBRANCH  61  86
BRANCH  73  98
ATOM     98  C   UNL     1       4.178  -5.390  16.915  1.00  0.00     0.058 A 
ATOM     99  C   UNL     1       3.946  -5.978  18.169  1.00  0.00     0.135 A 
ATOM    100  C   UNL     1       5.484  -5.437  16.400  1.00  0.00     0.135 A 
ATOM    101  F   UNL     1       2.719  -5.950  18.711  1.00  0.00    -0.206 F 
ATOM    102  C   UNL     1       4.971  -6.586  18.886  1.00  0.00     0.059 A 
ATOM    103  C   UNL     1       6.519  -6.062  17.090  1.00  0.00     0.059 A 
ATOM    104  F   UNL     1       5.758  -4.893  15.204  1.00  0.00    -0.206 F 
ATOM    105  C   UNL     1       6.253  -6.631  18.334  1.00  0.00     0.060 A 
BRANCH 105 106
ATOM    106  S   UNL     1       7.557  -7.478  19.252  1.00  0.00     0.124 S 
ATOM    107  O   UNL     1       7.782  -6.558  20.362  1.00  0.00    -0.237 OA
ATOM    108  O   UNL     1       6.920  -8.745  19.598  1.00  0.00    -0.237 OA
ATOM    109  O   UNL     1       8.647  -7.573  18.285  1.00  0.00    -0.744 OA
ENDBRANCH 105 106
ENDBRANCH  73  98
ENDBRANCH  47  48
ENDBRANCH  40  42
ENDBRANCH  39  40
ENDBRANCH  38  39
ENDBRANCH  37  38
ENDBRANCH  36  37
ENDBRANCH  35  36
ENDBRANCH   1  35
TORSDOF 26
