REMARK SMILES COc1ccc2cc([C@@H](C)C(=O)OCCOCCOCCOCCOC(=O)c3ccc(-c4c5nc(c(-c6c(F)cc(S(=O)(=O)[O-])cc6F)c6ccc([nH]6)c(-c6c(F)cc(S(=O)(=O)[O-])cc6F)c6nc(c(-c7c(F)cc(S(=O)(=O)[O-])cc7F)c7ccc4[nH]7)C=C6)C=C5)cc3)ccc2c1
REMARK SMILES IDX 20 1 19 2 18 3 17 4 16 5 15 6 14 7 13 8 11 9 12 10 9 11
REMARK SMILES IDX 10 12 8 13 3 14 4 15 97 16 5 17 96 18 6 19 95 20 7 21 94 22
REMARK SMILES IDX 2 23 1 24 21 25 22 26 23 27 24 28 25 29 26 30 27 31 28 32
REMARK SMILES IDX 29 33 93 34 30 35 92 36 31 37 32 38 33 39 86 40 34 41 91 42
REMARK SMILES IDX 85 43 87 44 35 45 90 46 84 47 83 48 36 50 70 51 49 52 69 53
REMARK SMILES IDX 50 54 53 55 68 56 88 57 51 58 52 59 67 61 89 62 54 63 37 64
REMARK SMILES IDX 38 65 47 66 39 67 40 68 46 69 48 70 41 71 42 72 43 73 44 74
REMARK SMILES IDX 45 75 71 76 72 77 81 78 73 79 74 80 80 81 82 82 75 83 76 84
REMARK SMILES IDX 77 85 78 86 79 87 55 88 56 89 65 90 57 91 58 92 64 93 66 94
REMARK SMILES IDX 59 95 60 96 61 97 62 98 63 99
REMARK H PARENT 87 49 53 60
REMARK Flexibility Score: inf
ROOT
ATOM      1  C   UNL     1       3.443   5.958   5.337  1.00  0.00     0.188 C 
ENDROOT
BRANCH   1   2
ATOM      2  O   UNL     1       3.048   5.062   6.363  1.00  0.00    -0.377 OA
BRANCH   2   3
ATOM      3  C   UNL     1       1.772   5.269   6.931  1.00  0.00     0.188 C 
BRANCH   3   4
ATOM      4  C   UNL     1       1.776   5.953   8.306  1.00  0.00     0.188 C 
BRANCH   4   5
ATOM      5  O   UNL     1       2.965   6.508   8.854  1.00  0.00    -0.376 OA
BRANCH   5   6
ATOM      6  C   UNL     1       4.223   5.880   8.654  1.00  0.00     0.202 C 
BRANCH   6   7
ATOM      7  C   UNL     1       4.435   4.387   8.972  1.00  0.00     0.261 C 
BRANCH   7   8
ATOM      8  O   UNL     1       3.467   3.458   8.443  1.00  0.00    -0.463 OA
BRANCH   8   9
ATOM      9  C   UNL     1       2.569   2.965   9.325  1.00  0.00     0.313 C 
ATOM     10  O   UNL     1       2.558   3.264  10.519  1.00  0.00    -0.252 OA
BRANCH   9  11
ATOM     11  C   UNL     1       1.548   1.979   8.764  1.00  0.00     0.126 C 
ATOM     12  C   UNL     1       1.867   0.591   9.306  1.00  0.00     0.025 C 
BRANCH  11  13
ATOM     13  C   UNL     1       1.219   1.919   7.273  1.00  0.00    -0.033 A 
ATOM     14  C   UNL     1       1.029   1.371   2.195  1.00  0.00     0.119 A 
ATOM     15  C   UNL     1       2.362   1.194   2.554  1.00  0.00     0.047 A 
ATOM     16  C   UNL     1       0.091   1.700   3.173  1.00  0.00     0.055 A 
ATOM     17  C   UNL     1       2.745   1.296   3.898  1.00  0.00     0.012 A 
ATOM     18  C   UNL     1       0.460   1.786   4.528  1.00  0.00    -0.015 A 
ATOM     19  C   UNL     1       1.805   1.575   4.906  1.00  0.00    -0.018 A 
ATOM     20  C   UNL     1      -0.487   2.066   5.520  1.00  0.00     0.009 A 
ATOM     21  C   UNL     1       2.167   1.646   6.274  1.00  0.00     0.013 A 
ATOM     22  C   UNL     1      -0.117   2.117   6.867  1.00  0.00     0.005 A 
BRANCH  14  23
ATOM     23  O   UNL     1       0.566   1.300   0.908  1.00  0.00    -0.497 OA
ATOM     24  C   UNL     1       1.062   0.177   0.180  1.00  0.00     0.278 C 
ENDBRANCH  14  23
ENDBRANCH  11  13
ENDBRANCH   9  11
ENDBRANCH   8   9
ENDBRANCH   7   8
ENDBRANCH   6   7
ENDBRANCH   5   6
ENDBRANCH   4   5
ENDBRANCH   3   4
ENDBRANCH   2   3
ENDBRANCH   1   2
BRANCH   1  25
ATOM     25  C   UNL     1       3.077   7.442   5.524  1.00  0.00     0.188 C 
BRANCH  25  26
ATOM     26  O   UNL     1       1.693   7.671   5.770  1.00  0.00    -0.376 OA
BRANCH  26  27
ATOM     27  C   UNL     1       0.851   7.983   4.669  1.00  0.00     0.202 C 
BRANCH  27  28
ATOM     28  C   UNL     1       0.636   6.914   3.581  1.00  0.00     0.261 C 
BRANCH  28  29
ATOM     29  O   UNL     1       1.799   6.444   2.884  1.00  0.00    -0.460 OA
BRANCH  29  30
ATOM     30  C   UNL     1       2.595   7.349   2.272  1.00  0.00     0.338 C 
ATOM     31  O   UNL     1       2.404   8.542   2.176  1.00  0.00    -0.246 OA
BRANCH  30  32
ATOM     32  C   UNL     1       3.862   6.662   1.919  1.00  0.00     0.060 A 
ATOM     33  C   UNL     1       5.065   7.153   2.443  1.00  0.00     0.016 A 
ATOM     34  C   UNL     1       3.863   5.541   1.086  1.00  0.00     0.016 A 
ATOM     35  C   UNL     1       6.277   6.547   2.105  1.00  0.00     0.010 A 
ATOM     36  C   UNL     1       5.080   4.952   0.726  1.00  0.00     0.010 A 
ATOM     37  C   UNL     1       6.295   5.472   1.208  1.00  0.00    -0.014 A 
BRANCH  37  38
ATOM     38  C   UNL     1       7.583   5.021   0.621  1.00  0.00     0.031 A 
ATOM     39  C   UNL     1       7.962   5.538  -0.743  1.00  0.00     0.074 A 
ATOM     40  C   UNL     1       8.410   4.193   1.284  1.00  0.00     0.049 A 
ATOM     41  N   UNL     1       8.983   5.225  -1.496  1.00  0.00    -0.248 NA
ATOM     42  C   UNL     1       7.064   6.546  -1.334  1.00  0.00     0.031 C 
ATOM     43  C   UNL     1       8.182   3.665   2.629  1.00  0.00     0.029 A 
ATOM     44  N   UNL     1       9.609   3.638   0.906  1.00  0.00    -0.354 N 
ATOM     45  C   UNL     1       8.854   5.997  -2.645  1.00  0.00     0.074 A 
ATOM     46  C   UNL     1       7.637   6.765  -2.509  1.00  0.00     0.031 C 
ATOM     47  C   UNL     1       9.196   2.843   2.953  1.00  0.00     0.029 A 
ATOM     48  C   UNL     1      10.126   2.756   1.827  1.00  0.00     0.049 A 
ATOM     49  H   UNL     1      10.056   3.852   0.055  1.00  0.00     0.167 HD
ATOM     50  C   UNL     1       9.684   6.070  -3.712  1.00  0.00     0.037 A 
ATOM     51  C   UNL     1      11.204   1.948   1.752  1.00  0.00     0.037 A 
ATOM     52  C   UNL     1      10.892   5.299  -3.847  1.00  0.00     0.049 A 
ATOM     53  C   UNL     1      12.060   1.975   0.506  1.00  0.00     0.074 A 
ATOM     54  C   UNL     1      11.793   5.291  -4.897  1.00  0.00     0.029 A 
ATOM     55  N   UNL     1      11.368   4.401  -2.905  1.00  0.00    -0.354 N 
ATOM     56  N   UNL     1      11.931   2.714  -0.571  1.00  0.00    -0.248 NA
ATOM     57  C   UNL     1      13.211   1.060   0.467  1.00  0.00     0.031 C 
ATOM     58  C   UNL     1      12.789   4.352  -4.612  1.00  0.00     0.029 A 
ATOM     59  C   UNL     1      12.541   3.820  -3.357  1.00  0.00     0.049 A 
ATOM     60  H   UNL     1      10.937   4.205  -2.042  1.00  0.00     0.167 HD
ATOM     61  C   UNL     1      13.002   2.377  -1.396  1.00  0.00     0.074 A 
ATOM     62  C   UNL     1      13.777   1.382  -0.688  1.00  0.00     0.031 C 
ATOM     63  C   UNL     1      13.316   2.847  -2.629  1.00  0.00     0.037 A 
BRANCH  50  64
ATOM     64  C   UNL     1       9.318   7.011  -4.827  1.00  0.00     0.058 A 
ATOM     65  C   UNL     1       9.421   8.402  -4.676  1.00  0.00     0.135 A 
ATOM     66  C   UNL     1       8.929   6.515  -6.082  1.00  0.00     0.135 A 
ATOM     67  F   UNL     1       9.765   8.931  -3.490  1.00  0.00    -0.206 F 
ATOM     68  C   UNL     1       9.150   9.270  -5.729  1.00  0.00     0.059 A 
ATOM     69  C   UNL     1       8.680   7.362  -7.157  1.00  0.00     0.059 A 
ATOM     70  F   UNL     1       8.807   5.192  -6.278  1.00  0.00    -0.206 F 
ATOM     71  C   UNL     1       8.789   8.739  -6.969  1.00  0.00     0.060 A 
BRANCH  71  72
ATOM     72  S   UNL     1       8.489   9.880  -8.335  1.00  0.00     0.124 S 
ATOM     73  O   UNL     1       7.248  10.522  -7.912  1.00  0.00    -0.237 OA
ATOM     74  O   UNL     1       9.681  10.720  -8.304  1.00  0.00    -0.237 OA
ATOM     75  O   UNL     1       8.374   9.000  -9.495  1.00  0.00    -0.744 OA
ENDBRANCH  71  72
ENDBRANCH  50  64
BRANCH  51  76
ATOM     76  C   UNL     1      11.524   1.004   2.860  1.00  0.00     0.058 A 
ATOM     77  C   UNL     1      12.711   1.121   3.601  1.00  0.00     0.135 A 
ATOM     78  C   UNL     1      10.677  -0.075   3.159  1.00  0.00     0.135 A 
ATOM     79  F   UNL     1      13.562   2.127   3.349  1.00  0.00    -0.206 F 
ATOM     80  C   UNL     1      13.066   0.182   4.565  1.00  0.00     0.059 A 
ATOM     81  C   UNL     1      10.993  -1.007   4.142  1.00  0.00     0.059 A 
ATOM     82  F   UNL     1       9.523  -0.232   2.490  1.00  0.00    -0.206 F 
ATOM     83  C   UNL     1      12.201  -0.883   4.825  1.00  0.00     0.060 A 
BRANCH  83  84
ATOM     84  S   UNL     1      12.671  -2.099   6.074  1.00  0.00     0.124 S 
ATOM     85  O   UNL     1      13.742  -2.819   5.394  1.00  0.00    -0.237 OA
ATOM     86  O   UNL     1      13.079  -1.249   7.189  1.00  0.00    -0.237 OA
ATOM     87  O   UNL     1      11.439  -2.852   6.288  1.00  0.00    -0.744 OA
ENDBRANCH  83  84
ENDBRANCH  51  76
BRANCH  63  88
ATOM     88  C   UNL     1      14.577   2.336  -3.276  1.00  0.00     0.058 A 
ATOM     89  C   UNL     1      14.681   1.025  -3.765  1.00  0.00     0.135 A 
ATOM     90  C   UNL     1      15.674   3.195  -3.465  1.00  0.00     0.135 A 
ATOM     91  F   UNL     1      13.666   0.162  -3.608  1.00  0.00    -0.206 F 
ATOM     92  C   UNL     1      15.837   0.575  -4.397  1.00  0.00     0.059 A 
ATOM     93  C   UNL     1      16.826   2.776  -4.123  1.00  0.00     0.059 A 
ATOM     94  F   UNL     1      15.623   4.463  -3.027  1.00  0.00    -0.206 F 
ATOM     95  C   UNL     1      16.902   1.460  -4.576  1.00  0.00     0.060 A 
BRANCH  95  96
ATOM     96  S   UNL     1      18.378   0.873  -5.434  1.00  0.00     0.124 S 
ATOM     97  O   UNL     1      18.959  -0.025  -4.441  1.00  0.00    -0.237 OA
ATOM     98  O   UNL     1      17.815   0.231  -6.617  1.00  0.00    -0.237 OA
ATOM     99  O   UNL     1      19.133   2.096  -5.690  1.00  0.00    -0.744 OA
ENDBRANCH  95  96
ENDBRANCH  63  88
ENDBRANCH  37  38
ENDBRANCH  30  32
ENDBRANCH  29  30
ENDBRANCH  28  29
ENDBRANCH  27  28
ENDBRANCH  26  27
ENDBRANCH  25  26
ENDBRANCH   1  25
TORSDOF 25
