REMARK SMILES O=C(CCCNc1ccccc1SC(F)F)OCCOCCOCCOCCOC(=O)c1ccc(-c2c3nc(c(-c4c(F)cc(S(=O)(=O)[O-])cc4F)c4ccc([nH]4)c(-c4c(F)cc(S(=O)(=O)[O-])cc4F)c4nc(c(-c5c(F)cc(S(=O)(=O)[O-])cc5F)c5ccc2[nH]5)C=C4)C=C3)cc1
REMARK SMILES IDX 21 1 20 2 19 3 18 4 17 5 2 6 1 7 3 8 4 9 5 10 6 11 7 13 8 14
REMARK SMILES IDX 12 15 9 16 11 17 10 18 13 19 14 20 15 21 16 22 22 23 23 24
REMARK SMILES IDX 24 25 25 26 26 27 27 28 28 29 29 30 30 31 31 32 32 33 33 34
REMARK SMILES IDX 97 35 34 36 96 37 35 38 36 39 37 40 90 41 38 42 95 43 89 44
REMARK SMILES IDX 91 45 39 46 94 47 88 48 87 49 40 51 74 52 53 53 73 54 54 55
REMARK SMILES IDX 57 56 72 57 92 58 55 59 56 60 71 62 93 63 58 64 41 65 42 66
REMARK SMILES IDX 51 67 43 68 44 69 50 70 52 71 45 72 46 73 47 74 48 75 49 76
REMARK SMILES IDX 75 77 76 78 85 79 77 80 78 81 84 82 86 83 79 84 80 85 81 86
REMARK SMILES IDX 82 87 83 88 59 89 60 90 69 91 61 92 62 93 68 94 70 95 63 96
REMARK SMILES IDX 64 97 65 98 66 99 67 100
REMARK H PARENT 6 12 91 50 57 61
REMARK Flexibility Score: inf
ROOT
ATOM      1  C   UNL     1       2.646   0.948   1.391  1.00  0.00     0.188 C 
ENDROOT
BRANCH   1   2
ATOM      2  O   UNL     1       3.713   0.508   0.549  1.00  0.00    -0.376 OA
BRANCH   2   3
ATOM      3  C   UNL     1       3.692   1.020  -0.777  1.00  0.00     0.202 C 
BRANCH   3   4
ATOM      4  C   UNL     1       2.889   0.158  -1.737  1.00  0.00     0.261 C 
BRANCH   4   5
ATOM      5  O   UNL     1       1.737  -0.440  -1.128  1.00  0.00    -0.463 OA
BRANCH   5   6
ATOM      6  C   UNL     1       1.751  -1.782  -0.935  1.00  0.00     0.305 C 
ATOM      7  O   UNL     1       0.895  -2.501  -1.444  1.00  0.00    -0.252 OA
BRANCH   6   8
ATOM      8  C   UNL     1       2.711  -2.325   0.106  1.00  0.00     0.124 C 
BRANCH   8   9
ATOM      9  C   UNL     1       3.803  -3.258  -0.405  1.00  0.00     0.033 C 
BRANCH   9  10
ATOM     10  C   UNL     1       5.066  -2.621  -0.990  1.00  0.00     0.113 C 
BRANCH  10  11
ATOM     11  N   UNL     1       5.802  -1.814  -0.038  1.00  0.00    -0.384 N 
ATOM     12  H   UNL     1       5.340  -1.594   0.803  1.00  0.00     0.160 HD
BRANCH  11  13
ATOM     13  C   UNL     1       7.096  -1.316  -0.190  1.00  0.00     0.048 A 
ATOM     14  C   UNL     1       7.699  -0.845   1.003  1.00  0.00     0.027 A 
ATOM     15  C   UNL     1       7.905  -1.314  -1.353  1.00  0.00     0.036 A 
ATOM     16  C   UNL     1       9.017  -0.377   1.054  1.00  0.00     0.002 A 
ATOM     17  C   UNL     1       9.228  -0.817  -1.291  1.00  0.00     0.017 A 
ATOM     18  C   UNL     1       9.780  -0.352  -0.100  1.00  0.00     0.001 A 
BRANCH  15  19
ATOM     19  S   UNL     1       7.460  -1.952  -2.974  1.00  0.00    -0.053 SA
BRANCH  19  20
ATOM     20  C   UNL     1       6.450  -0.604  -3.628  1.00  0.00     0.405 C 
ATOM     21  F   UNL     1       5.216  -1.080  -3.946  1.00  0.00    -0.198 F 
ATOM     22  F   UNL     1       6.255   0.394  -2.733  1.00  0.00    -0.198 F 
ENDBRANCH  19  20
ENDBRANCH  15  19
ENDBRANCH  11  13
ENDBRANCH  10  11
ENDBRANCH   9  10
ENDBRANCH   8   9
ENDBRANCH   6   8
ENDBRANCH   5   6
ENDBRANCH   4   5
ENDBRANCH   3   4
ENDBRANCH   2   3
ENDBRANCH   1   2
BRANCH   1  23
ATOM     23  C   UNL     1       2.460   2.464   1.509  1.00  0.00     0.188 C 
BRANCH  23  24
ATOM     24  O   UNL     1       3.607   3.311   1.445  1.00  0.00    -0.377 OA
BRANCH  24  25
ATOM     25  C   UNL     1       4.873   2.789   1.821  1.00  0.00     0.188 C 
BRANCH  25  26
ATOM     26  C   UNL     1       5.069   2.385   3.282  1.00  0.00     0.188 C 
BRANCH  26  27
ATOM     27  O   UNL     1       3.872   1.965   3.929  1.00  0.00    -0.376 OA
BRANCH  27  28
ATOM     28  C   UNL     1       3.580   2.701   5.114  1.00  0.00     0.202 C 
BRANCH  28  29
ATOM     29  C   UNL     1       2.782   3.996   4.886  1.00  0.00     0.261 C 
BRANCH  29  30
ATOM     30  O   UNL     1       3.234   4.859   3.832  1.00  0.00    -0.460 OA
BRANCH  30  31
ATOM     31  C   UNL     1       4.412   5.509   3.995  1.00  0.00     0.338 C 
ATOM     32  O   UNL     1       5.161   5.420   4.940  1.00  0.00    -0.246 OA
BRANCH  31  33
ATOM     33  C   UNL     1       4.698   6.263   2.745  1.00  0.00     0.060 A 
ATOM     34  C   UNL     1       5.951   6.128   2.131  1.00  0.00     0.016 A 
ATOM     35  C   UNL     1       3.735   7.108   2.188  1.00  0.00     0.016 A 
ATOM     36  C   UNL     1       6.237   6.823   0.949  1.00  0.00     0.010 A 
ATOM     37  C   UNL     1       4.037   7.837   1.034  1.00  0.00     0.010 A 
ATOM     38  C   UNL     1       5.294   7.713   0.417  1.00  0.00    -0.014 A 
BRANCH  38  39
ATOM     39  C   UNL     1       5.684   8.711  -0.612  1.00  0.00     0.031 A 
ATOM     40  C   UNL     1       6.219  10.031  -0.129  1.00  0.00     0.074 A 
ATOM     41  C   UNL     1       5.501   8.499  -1.927  1.00  0.00     0.049 A 
ATOM     42  N   UNL     1       6.468  11.126  -0.798  1.00  0.00    -0.248 NA
ATOM     43  C   UNL     1       6.494  10.127   1.314  1.00  0.00     0.031 C 
ATOM     44  C   UNL     1       5.028   7.256  -2.528  1.00  0.00     0.029 A 
ATOM     45  N   UNL     1       5.663   9.351  -2.995  1.00  0.00    -0.354 N 
ATOM     46  C   UNL     1       6.907  12.047   0.145  1.00  0.00     0.074 A 
ATOM     47  C   UNL     1       6.880  11.386   1.432  1.00  0.00     0.031 C 
ATOM     48  C   UNL     1       4.898   7.437  -3.855  1.00  0.00     0.029 A 
ATOM     49  C   UNL     1       5.239   8.821  -4.190  1.00  0.00     0.049 A 
ATOM     50  H   UNL     1       6.046  10.255  -2.910  1.00  0.00     0.167 HD
ATOM     51  C   UNL     1       7.288  13.333  -0.039  1.00  0.00     0.037 A 
ATOM     52  C   UNL     1       5.101   9.398  -5.403  1.00  0.00     0.037 A 
ATOM     53  C   UNL     1       7.283  13.997  -1.314  1.00  0.00     0.049 A 
ATOM     54  C   UNL     1       5.471  10.850  -5.585  1.00  0.00     0.074 A 
ATOM     55  C   UNL     1       7.660  15.294  -1.610  1.00  0.00     0.029 A 
ATOM     56  N   UNL     1       6.857  13.421  -2.502  1.00  0.00    -0.354 N 
ATOM     57  N   UNL     1       5.911  11.707  -4.694  1.00  0.00    -0.248 NA
ATOM     58  C   UNL     1       5.323  11.416  -6.935  1.00  0.00     0.031 C 
ATOM     59  C   UNL     1       7.411  15.520  -2.967  1.00  0.00     0.029 A 
ATOM     60  C   UNL     1       6.938  14.344  -3.531  1.00  0.00     0.049 A 
ATOM     61  H   UNL     1       6.543  12.493  -2.600  1.00  0.00     0.167 HD
ATOM     62  C   UNL     1       6.122  12.901  -5.379  1.00  0.00     0.074 A 
ATOM     63  C   UNL     1       5.758  12.659  -6.759  1.00  0.00     0.031 C 
ATOM     64  C   UNL     1       6.585  14.086  -4.907  1.00  0.00     0.037 A 
BRANCH  51  65
ATOM     65  C   UNL     1       7.675  14.111   1.189  1.00  0.00     0.058 A 
ATOM     66  C   UNL     1       8.847  13.828   1.909  1.00  0.00     0.135 A 
ATOM     67  C   UNL     1       6.837  15.127   1.675  1.00  0.00     0.135 A 
ATOM     68  F   UNL     1       9.673  12.851   1.500  1.00  0.00    -0.206 F 
ATOM     69  C   UNL     1       9.147  14.488   3.095  1.00  0.00     0.059 A 
ATOM     70  C   UNL     1       7.134  15.822   2.842  1.00  0.00     0.059 A 
ATOM     71  F   UNL     1       5.703  15.437   1.027  1.00  0.00    -0.206 F 
ATOM     72  C   UNL     1       8.278  15.477   3.559  1.00  0.00     0.060 A 
BRANCH  72  73
ATOM     73  S   UNL     1       8.653  16.290   5.126  1.00  0.00     0.124 S 
ATOM     74  O   UNL     1       8.310  15.244   6.085  1.00  0.00    -0.237 OA
ATOM     75  O   UNL     1      10.076  16.586   4.993  1.00  0.00    -0.237 OA
ATOM     76  O   UNL     1       7.771  17.453   5.124  1.00  0.00    -0.744 OA
ENDBRANCH  72  73
ENDBRANCH  51  65
BRANCH  52  77
ATOM     77  C   UNL     1       4.564   8.598  -6.538  1.00  0.00     0.058 A 
ATOM     78  C   UNL     1       5.392   8.183  -7.591  1.00  0.00     0.135 A 
ATOM     79  C   UNL     1       3.220   8.192  -6.566  1.00  0.00     0.135 A 
ATOM     80  F   UNL     1       6.678   8.563  -7.622  1.00  0.00    -0.206 F 
ATOM     81  C   UNL     1       4.913   7.381  -8.623  1.00  0.00     0.059 A 
ATOM     82  C   UNL     1       2.723   7.372  -7.575  1.00  0.00     0.059 A 
ATOM     83  F   UNL     1       2.385   8.563  -5.583  1.00  0.00    -0.206 F 
ATOM     84  C   UNL     1       3.580   6.967  -8.598  1.00  0.00     0.060 A 
BRANCH  84  85
ATOM     85  S   UNL     1       3.002   5.832  -9.879  1.00  0.00     0.124 S 
ATOM     86  O   UNL     1       2.966   6.699 -11.050  1.00  0.00    -0.237 OA
ATOM     87  O   UNL     1       4.046   4.811  -9.872  1.00  0.00    -0.237 OA
ATOM     88  O   UNL     1       1.704   5.391  -9.378  1.00  0.00    -0.744 OA
ENDBRANCH  84  85
ENDBRANCH  52  77
BRANCH  64  89
ATOM     89  C   UNL     1       6.784  15.213  -5.885  1.00  0.00     0.058 A 
ATOM     90  C   UNL     1       5.706  15.941  -6.411  1.00  0.00     0.135 A 
ATOM     91  C   UNL     1       8.083  15.637  -6.213  1.00  0.00     0.135 A 
ATOM     92  F   UNL     1       4.444  15.577  -6.135  1.00  0.00    -0.206 F 
ATOM     93  C   UNL     1       5.910  17.049  -7.231  1.00  0.00     0.059 A 
ATOM     94  C   UNL     1       8.309  16.756  -7.009  1.00  0.00     0.059 A 
ATOM     95  F   UNL     1       9.150  14.982  -5.728  1.00  0.00    -0.206 F 
ATOM     96  C   UNL     1       7.215  17.454  -7.516  1.00  0.00     0.060 A 
BRANCH  96  97
ATOM     97  S   UNL     1       7.466  18.933  -8.523  1.00  0.00     0.124 S 
ATOM     98  O   UNL     1       7.095  18.453  -9.850  1.00  0.00    -0.237 OA
ATOM     99  O   UNL     1       6.545  19.886  -7.912  1.00  0.00    -0.237 OA
ATOM    100  O   UNL     1       8.883  19.234  -8.339  1.00  0.00    -0.744 OA
ENDBRANCH  96  97
ENDBRANCH  64  89
ENDBRANCH  38  39
ENDBRANCH  31  33
ENDBRANCH  30  31
ENDBRANCH  29  30
ENDBRANCH  28  29
ENDBRANCH  27  28
ENDBRANCH  26  27
ENDBRANCH  25  26
ENDBRANCH  24  25
ENDBRANCH  23  24
ENDBRANCH   1  23
TORSDOF 29
