REMARK SMILES O=C(OCCOCCOCCOCCOC(=O)c1cc(N2C(=O)[C@H]3[C@@H]4C=C[C@@H]([C@@H]5C[C@H]45)[C@@H]3C2=O)ccc1Cl)c1ccc(-c2c3nc(c(-c4c(F)cc(S(=O)(=O)[O-])cc4F)c4ccc([nH]4)c(-c4c(F)cc(S(=O)(=O)[O-])cc4F)c4nc(c(-c5c(F)cc(S(=O)(=O)[O-])cc5F)c5ccc2[nH]5)C=C4)C=C3)cc1
REMARK SMILES IDX 8 1 7 2 6 3 5 4 4 5 3 6 2 7 1 8 39 9 40 10 104 11 41 12
REMARK SMILES IDX 103 13 42 14 43 15 44 16 97 17 45 18 102 19 96 20 98 21
REMARK SMILES IDX 46 22 101 23 95 24 94 25 47 27 81 28 60 29 80 30 61 31 64 32
REMARK SMILES IDX 79 33 99 34 62 35 63 36 78 38 100 39 65 40 48 41 49 42 58 43
REMARK SMILES IDX 50 44 51 45 57 46 59 47 52 48 53 49 54 50 55 51 56 52 82 53
REMARK SMILES IDX 83 54 92 55 84 56 85 57 91 58 93 59 86 60 87 61 88 62 89 63
REMARK SMILES IDX 90 64 66 65 67 66 76 67 68 68 69 69 75 70 77 71 70 72 71 73
REMARK SMILES IDX 72 74 73 75 74 76 9 77 10 78 11 79 12 80 13 81 14 82 15 83
REMARK SMILES IDX 16 84 17 85 18 86 19 87 37 88 20 89 36 90 38 91 35 92 21 93
REMARK SMILES IDX 22 94 33 95 23 96 24 97 32 98 34 99 25 100 28 101 26 102
REMARK SMILES IDX 31 103 27 104 29 105 30 106
REMARK H PARENT 98 26 64 37
REMARK Flexibility Score: inf
ROOT
ATOM      1  C   UNL     1       1.832  -0.920   2.719  1.00  0.00     0.188 C 
ENDROOT
BRANCH   1   2
ATOM      2  C   UNL     1       2.314   0.050   1.637  1.00  0.00     0.188 C 
BRANCH   2   3
ATOM      3  O   UNL     1       3.639  -0.267   1.232  1.00  0.00    -0.376 OA
BRANCH   3   4
ATOM      4  C   UNL     1       4.538   0.781   0.899  1.00  0.00     0.202 C 
BRANCH   4   5
ATOM      5  C   UNL     1       4.153   1.647  -0.296  1.00  0.00     0.261 C 
BRANCH   5   6
ATOM      6  O   UNL     1       2.800   1.489  -0.749  1.00  0.00    -0.460 OA
BRANCH   6   7
ATOM      7  C   UNL     1       2.265   0.562  -1.577  1.00  0.00     0.338 C 
ATOM      8  O   UNL     1       1.081   0.680  -1.892  1.00  0.00    -0.246 OA
BRANCH   7   9
ATOM      9  C   UNL     1       3.014  -0.600  -2.136  1.00  0.00     0.060 A 
ATOM     10  C   UNL     1       4.015  -1.301  -1.471  1.00  0.00     0.016 A 
ATOM     11  C   UNL     1       2.575  -1.109  -3.367  1.00  0.00     0.016 A 
ATOM     12  C   UNL     1       4.624  -2.416  -2.010  1.00  0.00     0.010 A 
ATOM     13  C   UNL     1       3.140  -2.270  -3.903  1.00  0.00     0.010 A 
ATOM     14  C   UNL     1       4.178  -2.915  -3.221  1.00  0.00    -0.014 A 
BRANCH  14  15
ATOM     15  C   UNL     1       4.913  -4.053  -3.783  1.00  0.00     0.031 A 
ATOM     16  C   UNL     1       5.824  -3.780  -4.933  1.00  0.00     0.074 A 
ATOM     17  C   UNL     1       4.853  -5.250  -3.171  1.00  0.00     0.049 A 
ATOM     18  N   UNL     1       6.485  -4.620  -5.673  1.00  0.00    -0.248 NA
ATOM     19  C   UNL     1       6.030  -2.363  -5.292  1.00  0.00     0.031 C 
ATOM     20  C   UNL     1       4.108  -5.535  -1.937  1.00  0.00     0.029 A 
ATOM     21  N   UNL     1       5.437  -6.446  -3.485  1.00  0.00    -0.354 N 
ATOM     22  C   UNL     1       7.135  -3.844  -6.621  1.00  0.00     0.074 A 
ATOM     23  C   UNL     1       6.817  -2.462  -6.351  1.00  0.00     0.031 C 
ATOM     24  C   UNL     1       4.275  -6.826  -1.610  1.00  0.00     0.029 A 
ATOM     25  C   UNL     1       5.055  -7.474  -2.654  1.00  0.00     0.049 A 
ATOM     26  H   UNL     1       6.068  -6.560  -4.232  1.00  0.00     0.167 HD
ATOM     27  C   UNL     1       7.905  -4.275  -7.641  1.00  0.00     0.037 A 
ATOM     28  C   UNL     1       5.258  -8.799  -2.783  1.00  0.00     0.037 A 
ATOM     29  C   UNL     1       8.203  -5.664  -7.849  1.00  0.00     0.049 A 
ATOM     30  C   UNL     1       6.033  -9.258  -3.991  1.00  0.00     0.074 A 
ATOM     31  C   UNL     1       8.952  -6.244  -8.852  1.00  0.00     0.029 A 
ATOM     32  N   UNL     1       7.750  -6.692  -7.030  1.00  0.00    -0.354 N 
ATOM     33  N   UNL     1       6.617  -8.531  -4.918  1.00  0.00    -0.248 NA
ATOM     34  C   UNL     1       6.159 -10.705  -4.192  1.00  0.00     0.031 C 
ATOM     35  C   UNL     1       8.896  -7.630  -8.678  1.00  0.00     0.029 A 
ATOM     36  C   UNL     1       8.167  -7.910  -7.530  1.00  0.00     0.049 A 
ATOM     37  H   UNL     1       7.213  -6.571  -6.215  1.00  0.00     0.167 HD
ATOM     38  C   UNL     1       7.184  -9.432  -5.808  1.00  0.00     0.074 A 
ATOM     39  C   UNL     1       6.902 -10.757  -5.289  1.00  0.00     0.031 C 
ATOM     40  C   UNL     1       7.864  -9.199  -6.958  1.00  0.00     0.037 A 
BRANCH  27  41
ATOM     41  C   UNL     1       8.385  -3.264  -8.636  1.00  0.00     0.058 A 
ATOM     42  C   UNL     1       9.411  -2.351  -8.352  1.00  0.00     0.135 A 
ATOM     43  C   UNL     1       7.813  -3.232  -9.918  1.00  0.00     0.135 A 
ATOM     44  F   UNL     1       9.959  -2.307  -7.127  1.00  0.00    -0.206 F 
ATOM     45  C   UNL     1       9.863  -1.450  -9.310  1.00  0.00     0.059 A 
ATOM     46  C   UNL     1       8.264  -2.357 -10.899  1.00  0.00     0.059 A 
ATOM     47  F   UNL     1       6.805  -4.063 -10.229  1.00  0.00    -0.206 F 
ATOM     48  C   UNL     1       9.292  -1.470 -10.586  1.00  0.00     0.060 A 
BRANCH  48  49
ATOM     49  S   UNL     1       9.937  -0.341 -11.837  1.00  0.00     0.124 S 
ATOM     50  O   UNL     1       9.471   0.949 -11.338  1.00  0.00    -0.237 OA
ATOM     51  O   UNL     1      11.376  -0.572 -11.748  1.00  0.00    -0.237 OA
ATOM     52  O   UNL     1       9.306  -0.802 -13.070  1.00  0.00    -0.744 OA
ENDBRANCH  48  49
ENDBRANCH  27  41
BRANCH  28  53
ATOM     53  C   UNL     1       4.632  -9.768  -1.840  1.00  0.00     0.058 A 
ATOM     54  C   UNL     1       5.406 -10.648  -1.068  1.00  0.00     0.135 A 
ATOM     55  C   UNL     1       3.234  -9.873  -1.729  1.00  0.00     0.135 A 
ATOM     56  F   UNL     1       6.745 -10.597  -1.135  1.00  0.00    -0.206 F 
ATOM     57  C   UNL     1       4.822 -11.618  -0.257  1.00  0.00     0.059 A 
ATOM     58  C   UNL     1       2.627 -10.809  -0.898  1.00  0.00     0.059 A 
ATOM     59  F   UNL     1       2.437  -9.053  -2.433  1.00  0.00    -0.206 F 
ATOM     60  C   UNL     1       3.429 -11.696  -0.186  1.00  0.00     0.060 A 
BRANCH  60  61
ATOM     61  S   UNL     1       2.679 -12.974   0.845  1.00  0.00     0.124 S 
ATOM     62  O   UNL     1       2.960 -14.177   0.069  1.00  0.00    -0.237 OA
ATOM     63  O   UNL     1       3.418 -12.833   2.096  1.00  0.00    -0.237 OA
ATOM     64  O   UNL     1       1.276 -12.577   0.906  1.00  0.00    -0.744 OA
ENDBRANCH  60  61
ENDBRANCH  28  53
BRANCH  40  65
ATOM     65  C   UNL     1       8.358 -10.398  -7.709  1.00  0.00     0.058 A 
ATOM     66  C   UNL     1       7.479 -11.215  -8.435  1.00  0.00     0.135 A 
ATOM     67  C   UNL     1       9.733 -10.672  -7.777  1.00  0.00     0.135 A 
ATOM     68  F   UNL     1       6.156 -10.995  -8.390  1.00  0.00    -0.206 F 
ATOM     69  C   UNL     1       7.949 -12.274  -9.200  1.00  0.00     0.059 A 
ATOM     70  C   UNL     1      10.226 -11.704  -8.563  1.00  0.00     0.059 A 
ATOM     71  F   UNL     1      10.610  -9.907  -7.107  1.00  0.00    -0.206 F 
ATOM     72  C   UNL     1       9.325 -12.502  -9.266  1.00  0.00     0.060 A 
BRANCH  72  73
ATOM     73  S   UNL     1       9.924 -13.836 -10.321  1.00  0.00     0.124 S 
ATOM     74  O   UNL     1       9.514 -15.015  -9.564  1.00  0.00    -0.237 OA
ATOM     75  O   UNL     1       9.200 -13.597 -11.565  1.00  0.00    -0.237 OA
ATOM     76  O   UNL     1      11.363 -13.600 -10.384  1.00  0.00    -0.744 OA
ENDBRANCH  72  73
ENDBRANCH  40  65
ENDBRANCH  14  15
ENDBRANCH   7   9
ENDBRANCH   6   7
ENDBRANCH   5   6
ENDBRANCH   4   5
ENDBRANCH   3   4
ENDBRANCH   2   3
ENDBRANCH   1   2
BRANCH   1  77
ATOM     77  O   UNL     1       2.557  -0.882   3.948  1.00  0.00    -0.377 OA
BRANCH  77  78
ATOM     78  C   UNL     1       3.979  -0.852   3.842  1.00  0.00     0.188 C 
BRANCH  78  79
ATOM     79  C   UNL     1       4.706  -2.023   3.130  1.00  0.00     0.188 C 
BRANCH  79  80
ATOM     80  O   UNL     1       3.841  -2.874   2.401  1.00  0.00    -0.376 OA
BRANCH  80  81
ATOM     81  C   UNL     1       3.560  -4.149   2.964  1.00  0.00     0.202 C 
BRANCH  81  82
ATOM     82  C   UNL     1       3.047  -4.251   4.416  1.00  0.00     0.261 C 
BRANCH  82  83
ATOM     83  O   UNL     1       3.575  -3.300   5.358  1.00  0.00    -0.460 OA
BRANCH  83  84
ATOM     84  C   UNL     1       4.734  -3.577   6.006  1.00  0.00     0.339 C 
ATOM     85  O   UNL     1       5.431  -4.553   5.877  1.00  0.00    -0.246 OA
BRANCH  84  86
ATOM     86  C   UNL     1       5.150  -2.340   6.721  1.00  0.00     0.080 A 
ATOM     87  C   UNL     1       6.337  -1.702   6.287  1.00  0.00     0.044 A 
ATOM     88  C   UNL     1       4.337  -1.731   7.685  1.00  0.00     0.055 A 
ATOM     89  C   UNL     1       6.666  -0.436   6.779  1.00  0.00     0.053 A 
ATOM     90  C   UNL     1       4.705  -0.488   8.212  1.00  0.00     0.023 A 
ATOM     91  Cl  UNL     1       2.876  -2.440   8.269  1.00  0.00    -0.083 Cl
ATOM     92  C   UNL     1       5.855   0.159   7.755  1.00  0.00     0.028 A 
BRANCH  89  93
ATOM     93  N   UNL     1       7.750   0.305   6.254  1.00  0.00    -0.250 N 
ATOM     94  C   UNL     1       7.532   1.411   5.402  1.00  0.00     0.238 C 
ATOM     95  C   UNL     1       8.928   0.473   7.014  1.00  0.00     0.238 C 
ATOM     96  O   UNL     1       6.519   1.759   4.824  1.00  0.00    -0.274 OA
ATOM     97  C   UNL     1       8.858   2.107   5.369  1.00  0.00     0.100 C 
ATOM     98  C   UNL     1       9.212   1.930   6.847  1.00  0.00     0.100 C 
ATOM     99  O   UNL     1       9.447  -0.280   7.817  1.00  0.00    -0.274 OA
ATOM    100  C   UNL     1       9.237   3.532   4.920  1.00  0.00     0.028 C 
ATOM    101  C   UNL     1      10.330   2.894   7.220  1.00  0.00     0.028 C 
ATOM    102  C   UNL     1      10.781   3.409   4.885  1.00  0.00    -0.026 C 
ATOM    103  C   UNL     1       8.978   4.647   5.949  1.00  0.00     0.001 C 
ATOM    104  C   UNL     1      11.330   3.025   6.062  1.00  0.00    -0.026 C 
ATOM    105  C   UNL     1       9.613   4.296   7.304  1.00  0.00     0.001 C 
ATOM    106  C   UNL     1       8.115   4.586   7.172  1.00  0.00     0.009 C 
ENDBRANCH  89  93
ENDBRANCH  84  86
ENDBRANCH  83  84
ENDBRANCH  82  83
ENDBRANCH  81  82
ENDBRANCH  80  81
ENDBRANCH  79  80
ENDBRANCH  78  79
ENDBRANCH  77  78
ENDBRANCH   1  77
TORSDOF 24
