REMARK SMILES CC1=C(CC(=O)OCCOCCOCCOCCOC(=O)c2ccc(-c3c4nc(c(-c5c(F)cc(S(=O)(=O)[O-])cc5F)c5ccc([nH]5)c(-c5c(F)cc(S(=O)(=O)[O-])cc5F)c5nc(c(-c6c(F)cc(S(=O)(=O)[O-])cc6F)c6ccc3[nH]6)C=C5)C=C4)cc2)c2cc(F)ccc2/C1=C\c1cccc(OCc2ccccc2)c1
REMARK SMILES IDX 12 1 11 2 10 3 9 4 8 5 7 6 5 7 6 8 4 9 3 10 1 11 2 12 95 13
REMARK SMILES IDX 88 14 94 15 96 16 89 17 93 18 90 19 92 20 91 21 97 22 98 23
REMARK SMILES IDX 110 24 99 25 101 26 100 27 102 28 103 29 104 30 105 31
REMARK SMILES IDX 109 32 106 33 108 34 107 35 13 36 14 37 15 38 16 39 17 40
REMARK SMILES IDX 18 41 19 42 20 43 21 44 22 45 23 46 87 47 24 48 86 49 25 50
REMARK SMILES IDX 26 51 27 52 80 53 28 54 85 55 79 56 81 57 29 58 84 59 78 60
REMARK SMILES IDX 77 61 30 63 64 64 43 65 63 66 44 67 47 68 62 69 82 70 45 71
REMARK SMILES IDX 46 72 61 74 83 75 48 76 31 77 32 78 41 79 33 80 34 81 40 82
REMARK SMILES IDX 42 83 35 84 36 85 37 86 38 87 39 88 65 89 66 90 75 91 67 92
REMARK SMILES IDX 68 93 74 94 76 95 69 96 70 97 71 98 72 99 73 100 49 101
REMARK SMILES IDX 50 102 59 103 51 104 52 105 58 106 60 107 53 108 54 109
REMARK SMILES IDX 55 110 56 111 57 112
REMARK H PARENT 81 62 47 73
REMARK Flexibility Score: inf
ROOT
ATOM      1  C   UNL     1       0.962  -0.748   5.042  1.00  0.00     0.188 C 
ENDROOT
BRANCH   1   2
ATOM      2  C   UNL     1       0.463  -2.123   5.533  1.00  0.00     0.188 C 
BRANCH   2   3
ATOM      3  O   UNL     1       1.464  -3.061   5.846  1.00  0.00    -0.376 OA
BRANCH   3   4
ATOM      4  C   UNL     1       2.068  -3.872   4.859  1.00  0.00     0.202 C 
BRANCH   4   5
ATOM      5  C   UNL     1       2.084  -3.588   3.342  1.00  0.00     0.261 C 
BRANCH   5   6
ATOM      6  O   UNL     1       1.213  -2.577   2.813  1.00  0.00    -0.463 OA
BRANCH   6   7
ATOM      7  C   UNL     1       0.034  -2.965   2.276  1.00  0.00     0.310 C 
ATOM      8  O   UNL     1      -0.359  -4.128   2.266  1.00  0.00    -0.252 OA
BRANCH   7   9
ATOM      9  C   UNL     1      -0.800  -1.825   1.664  1.00  0.00     0.159 C 
BRANCH   9  10
ATOM     10  C   UNL     1      -0.435  -0.377   1.855  1.00  0.00    -0.025 C 
ATOM     11  C   UNL     1       1.264  -0.035  -0.021  1.00  0.00     0.045 C 
ATOM     12  C   UNL     1       0.430   0.387   1.143  1.00  0.00    -0.039 C 
ATOM     13  C   UNL     1       0.441   1.768   1.665  1.00  0.00    -0.014 C 
ATOM     14  C   UNL     1      -1.089   0.518   2.839  1.00  0.00    -0.011 A 
ATOM     15  C   UNL     1      -0.529   1.810   2.769  1.00  0.00    -0.010 A 
ATOM     16  C   UNL     1       1.198   2.774   1.186  1.00  0.00     0.017 C 
ATOM     17  C   UNL     1      -2.068   0.239   3.787  1.00  0.00     0.048 A 
ATOM     18  C   UNL     1      -0.900   2.807   3.666  1.00  0.00     0.012 A 
ATOM     19  C   UNL     1      -2.435   1.248   4.680  1.00  0.00     0.123 A 
ATOM     20  C   UNL     1      -1.861   2.518   4.632  1.00  0.00     0.040 A 
ATOM     21  F   UNL     1      -3.334   0.980   5.637  1.00  0.00    -0.207 F 
BRANCH  16  22
ATOM     22  C   UNL     1       1.200   4.165   1.660  1.00  0.00    -0.021 A 
ATOM     23  C   UNL     1       2.140   4.591   2.602  1.00  0.00     0.008 A 
ATOM     24  C   UNL     1       0.232   5.065   1.191  1.00  0.00     0.054 A 
ATOM     25  C   UNL     1       2.100   5.902   3.079  1.00  0.00     0.004 A 
ATOM     26  C   UNL     1       0.207   6.388   1.637  1.00  0.00     0.120 A 
ATOM     27  C   UNL     1       1.137   6.793   2.598  1.00  0.00     0.046 A 
BRANCH  26  28
ATOM     28  O   UNL     1      -0.660   7.365   1.230  1.00  0.00    -0.489 OA
BRANCH  28  29
ATOM     29  C   UNL     1      -1.524   7.104   0.118  1.00  0.00     0.265 C 
BRANCH  29  30
ATOM     30  C   UNL     1      -0.795   7.114  -1.207  1.00  0.00    -0.011 A 
ATOM     31  C   UNL     1      -0.148   8.275  -1.653  1.00  0.00     0.007 A 
ATOM     32  C   UNL     1      -0.720   5.955  -1.993  1.00  0.00     0.007 A 
ATOM     33  C   UNL     1       0.582   8.266  -2.842  1.00  0.00     0.000 A 
ATOM     34  C   UNL     1       0.030   5.940  -3.169  1.00  0.00     0.000 A 
ATOM     35  C   UNL     1       0.682   7.095  -3.592  1.00  0.00     0.000 A 
ENDBRANCH  29  30
ENDBRANCH  28  29
ENDBRANCH  26  28
ENDBRANCH  16  22
ENDBRANCH   9  10
ENDBRANCH   7   9
ENDBRANCH   6   7
ENDBRANCH   5   6
ENDBRANCH   4   5
ENDBRANCH   3   4
ENDBRANCH   2   3
ENDBRANCH   1   2
BRANCH   1  36
ATOM     36  O   UNL     1       2.101  -0.065   5.537  1.00  0.00    -0.377 OA
BRANCH  36  37
ATOM     37  C   UNL     1       2.989  -0.764   6.373  1.00  0.00     0.188 C 
BRANCH  37  38
ATOM     38  C   UNL     1       2.490  -0.879   7.817  1.00  0.00     0.188 C 
BRANCH  38  39
ATOM     39  O   UNL     1       1.086  -0.663   7.948  1.00  0.00    -0.376 OA
BRANCH  39  40
ATOM     40  C   UNL     1       0.680   0.594   8.481  1.00  0.00     0.202 C 
BRANCH  40  41
ATOM     41  C   UNL     1       0.860   1.843   7.601  1.00  0.00     0.261 C 
BRANCH  41  42
ATOM     42  O   UNL     1       2.195   2.160   7.189  1.00  0.00    -0.460 OA
BRANCH  42  43
ATOM     43  C   UNL     1       3.140   2.358   8.127  1.00  0.00     0.338 C 
ATOM     44  O   UNL     1       2.995   2.359   9.336  1.00  0.00    -0.246 OA
BRANCH  43  45
ATOM     45  C   UNL     1       4.436   2.366   7.415  1.00  0.00     0.060 A 
ATOM     46  C   UNL     1       4.624   3.184   6.295  1.00  0.00     0.016 A 
ATOM     47  C   UNL     1       5.438   1.479   7.824  1.00  0.00     0.016 A 
ATOM     48  C   UNL     1       5.825   3.120   5.589  1.00  0.00     0.010 A 
ATOM     49  C   UNL     1       6.630   1.398   7.102  1.00  0.00     0.010 A 
ATOM     50  C   UNL     1       6.838   2.234   5.995  1.00  0.00    -0.014 A 
BRANCH  50  51
ATOM     51  C   UNL     1       8.192   2.344   5.406  1.00  0.00     0.031 A 
ATOM     52  C   UNL     1       8.687   1.415   4.343  1.00  0.00     0.074 A 
ATOM     53  C   UNL     1       8.987   3.313   5.895  1.00  0.00     0.049 A 
ATOM     54  N   UNL     1       9.834   1.431   3.714  1.00  0.00    -0.248 NA
ATOM     55  C   UNL     1       7.789   0.326   3.938  1.00  0.00     0.031 C 
ATOM     56  C   UNL     1       8.599   4.253   6.949  1.00  0.00     0.029 A 
ATOM     57  N   UNL     1      10.269   3.672   5.579  1.00  0.00    -0.354 N 
ATOM     58  C   UNL     1       9.793   0.371   2.817  1.00  0.00     0.074 A 
ATOM     59  C   UNL     1       8.523  -0.297   3.022  1.00  0.00     0.031 C 
ATOM     60  C   UNL     1       9.614   5.097   7.178  1.00  0.00     0.029 A 
ATOM     61  C   UNL     1      10.729   4.742   6.306  1.00  0.00     0.049 A 
ATOM     62  H   UNL     1      10.808   3.210   4.897  1.00  0.00     0.167 HD
ATOM     63  C   UNL     1      10.727   0.008   1.901  1.00  0.00     0.037 A 
ATOM     64  C   UNL     1      11.916   5.373   6.274  1.00  0.00     0.037 A 
ATOM     65  C   UNL     1      12.002   0.667   1.743  1.00  0.00     0.049 A 
ATOM     66  C   UNL     1      12.954   4.919   5.292  1.00  0.00     0.074 A 
ATOM     67  C   UNL     1      13.009   0.391   0.833  1.00  0.00     0.029 A 
ATOM     68  N   UNL     1      12.457   1.721   2.526  1.00  0.00    -0.354 N 
ATOM     69  N   UNL     1      12.879   3.954   4.406  1.00  0.00    -0.248 NA
ATOM     70  C   UNL     1      14.233   5.637   5.299  1.00  0.00     0.031 C 
ATOM     71  C   UNL     1      14.088   1.242   1.099  1.00  0.00     0.029 A 
ATOM     72  C   UNL     1      13.738   2.086   2.141  1.00  0.00     0.049 A 
ATOM     73  H   UNL     1      11.943   2.147   3.250  1.00  0.00     0.167 HD
ATOM     74  C   UNL     1      14.096   3.957   3.738  1.00  0.00     0.074 A 
ATOM     75  C   UNL     1      14.883   5.031   4.314  1.00  0.00     0.031 C 
ATOM     76  C   UNL     1      14.520   3.144   2.738  1.00  0.00     0.037 A 
BRANCH  63  77
ATOM     77  C   UNL     1      10.404  -1.158   1.003  1.00  0.00     0.058 A 
ATOM     78  C   UNL     1       9.417  -1.063   0.008  1.00  0.00     0.135 A 
ATOM     79  C   UNL     1      11.106  -2.370   1.107  1.00  0.00     0.135 A 
ATOM     80  F   UNL     1       8.711   0.070  -0.138  1.00  0.00    -0.206 F 
ATOM     81  C   UNL     1       9.108  -2.138  -0.820  1.00  0.00     0.059 A 
ATOM     82  C   UNL     1      10.832  -3.451   0.272  1.00  0.00     0.059 A 
ATOM     83  F   UNL     1      12.068  -2.517   2.032  1.00  0.00    -0.206 F 
ATOM     84  C   UNL     1       9.816  -3.332  -0.675  1.00  0.00     0.060 A 
BRANCH  84  85
ATOM     85  S   UNL     1       9.371  -4.727  -1.731  1.00  0.00     0.124 S 
ATOM     86  O   UNL     1       8.067  -5.096  -1.189  1.00  0.00    -0.237 OA
ATOM     87  O   UNL     1       9.356  -4.122  -3.058  1.00  0.00    -0.237 OA
ATOM     88  O   UNL     1      10.442  -5.690  -1.494  1.00  0.00    -0.744 OA
ENDBRANCH  84  85
ENDBRANCH  63  77
BRANCH  64  89
ATOM     89  C   UNL     1      12.133   6.538   7.167  1.00  0.00     0.058 A 
ATOM     90  C   UNL     1      12.116   7.841   6.654  1.00  0.00     0.135 A 
ATOM     91  C   UNL     1      12.251   6.378   8.557  1.00  0.00     0.135 A 
ATOM     92  F   UNL     1      12.005   8.040   5.332  1.00  0.00    -0.206 F 
ATOM     93  C   UNL     1      12.195   8.950   7.488  1.00  0.00     0.059 A 
ATOM     94  C   UNL     1      12.309   7.473   9.414  1.00  0.00     0.059 A 
ATOM     95  F   UNL     1      12.248   5.149   9.096  1.00  0.00    -0.206 F 
ATOM     96  C   UNL     1      12.277   8.755   8.868  1.00  0.00     0.060 A 
BRANCH  96  97
ATOM     97  S   UNL     1      12.276  10.207   9.941  1.00  0.00     0.124 S 
ATOM     98  O   UNL     1      13.579  10.793   9.646  1.00  0.00    -0.237 OA
ATOM     99  O   UNL     1      11.117  10.947   9.450  1.00  0.00    -0.237 OA
ATOM    100  O   UNL     1      12.128   9.639  11.278  1.00  0.00    -0.744 OA
ENDBRANCH  96  97
ENDBRANCH  64  89
BRANCH  76 101
ATOM    101  C   UNL     1      15.906   3.381   2.203  1.00  0.00     0.058 A 
ATOM    102  C   UNL     1      17.047   3.033   2.943  1.00  0.00     0.135 A 
ATOM    103  C   UNL     1      16.096   3.914   0.918  1.00  0.00     0.135 A 
ATOM    104  F   UNL     1      16.922   2.531   4.182  1.00  0.00    -0.206 F 
ATOM    105  C   UNL     1      18.328   3.217   2.434  1.00  0.00     0.059 A 
ATOM    106  C   UNL     1      17.368   4.082   0.378  1.00  0.00     0.059 A 
ATOM    107  F   UNL     1      15.039   4.260   0.166  1.00  0.00    -0.206 F 
ATOM    108  C   UNL     1      18.478   3.738   1.147  1.00  0.00     0.060 A 
BRANCH 108 109
ATOM    109  S   UNL     1      20.147   3.929   0.484  1.00  0.00     0.124 S 
ATOM    110  O   UNL     1      20.656   5.039   1.283  1.00  0.00    -0.237 OA
ATOM    111  O   UNL     1      20.741   2.625   0.760  1.00  0.00    -0.237 OA
ATOM    112  O   UNL     1      19.921   4.223  -0.928  1.00  0.00    -0.744 OA
ENDBRANCH 108 109
ENDBRANCH  76 101
ENDBRANCH  50  51
ENDBRANCH  43  45
ENDBRANCH  42  43
ENDBRANCH  41  42
ENDBRANCH  40  41
ENDBRANCH  39  40
ENDBRANCH  38  39
ENDBRANCH  37  38
ENDBRANCH  36  37
ENDBRANCH   1  36
TORSDOF 28
