REMARK SMILES Cc1ccc(-c2nc(C)c(C(=O)N3CCC(C(=O)OCCOCCOCCOCCOC(=O)c4ccc(-c5c6nc(c(-c7c(F)cc(S(=O)(=O)[O-])cc7F)c7ccc([nH]7)c(-c7c(F)cc(S(=O)(=O)[O-])cc7F)c7nc(c(-c8c(F)cc(S(=O)(=O)[O-])cc8F)c8ccc5[nH]8)C=C7)C=C6)cc4)CC3)s2)o1
REMARK SMILES IDX 26 1 25 2 24 3 23 4 22 5 21 6 20 7 19 8 17 9 18 10 16 11
REMARK SMILES IDX 11 12 12 13 13 14 14 15 101 16 15 17 100 18 10 19 6 20 7 21
REMARK SMILES IDX 102 22 8 23 9 24 5 25 1 26 2 27 3 28 103 29 4 30 27 31 28 32
REMARK SMILES IDX 29 33 30 34 31 35 32 36 33 37 34 38 35 39 99 40 36 41 98 42
REMARK SMILES IDX 37 43 38 44 39 45 92 46 40 47 97 48 91 49 93 50 41 51 96 52
REMARK SMILES IDX 90 53 89 54 42 56 76 57 55 58 75 59 56 60 59 61 74 62 94 63
REMARK SMILES IDX 57 64 58 65 73 67 95 68 60 69 43 70 44 71 53 72 45 73 46 74
REMARK SMILES IDX 52 75 54 76 47 77 48 78 49 79 50 80 51 81 77 82 78 83 87 84
REMARK SMILES IDX 79 85 80 86 86 87 88 88 81 89 82 90 83 91 84 92 85 93 61 94
REMARK SMILES IDX 62 95 71 96 63 97 64 98 70 99 72 100 65 101 66 102 67 103
REMARK SMILES IDX 68 104 69 105
REMARK H PARENT 93 55 59 66
REMARK Flexibility Score: inf
ROOT
ATOM      1  C   UNL     1     -11.558   8.032   2.747  1.00  0.00     0.188 C 
ENDROOT
BRANCH   1   2
ATOM      2  O   UNL     1     -10.794   7.566   1.638  1.00  0.00    -0.377 OA
BRANCH   2   3
ATOM      3  C   UNL     1     -10.216   8.543   0.802  1.00  0.00     0.188 C 
BRANCH   3   4
ATOM      4  C   UNL     1     -10.960   8.853  -0.499  1.00  0.00     0.188 C 
BRANCH   4   5
ATOM      5  O   UNL     1     -12.300   8.446  -0.708  1.00  0.00    -0.376 OA
BRANCH   5   6
ATOM      6  C   UNL     1     -12.766   7.176  -0.276  1.00  0.00     0.202 C 
BRANCH   6   7
ATOM      7  C   UNL     1     -12.038   5.870  -0.636  1.00  0.00     0.261 C 
BRANCH   7   8
ATOM      8  O   UNL     1     -10.638   5.800  -0.318  1.00  0.00    -0.463 OA
BRANCH   8   9
ATOM      9  C   UNL     1      -9.792   5.938  -1.359  1.00  0.00     0.309 C 
ATOM     10  O   UNL     1     -10.137   6.146  -2.519  1.00  0.00    -0.252 OA
BRANCH   9  11
ATOM     11  C   UNL     1      -8.334   5.745  -1.002  1.00  0.00     0.103 C 
ATOM     12  C   UNL     1      -5.238   3.654   0.844  1.00  0.00     0.265 C 
ATOM     13  O   UNL     1      -5.447   3.624   2.057  1.00  0.00    -0.268 OA
ATOM     14  N   UNL     1      -5.978   4.492   0.027  1.00  0.00    -0.338 N 
ATOM     15  C   UNL     1      -6.375   5.770   0.565  1.00  0.00     0.120 C 
ATOM     16  C   UNL     1      -6.441   4.152  -1.315  1.00  0.00     0.120 C 
ATOM     17  C   UNL     1      -7.868   5.991   0.439  1.00  0.00     0.037 C 
ATOM     18  C   UNL     1      -7.949   4.322  -1.416  1.00  0.00     0.037 C 
BRANCH  12  19
ATOM     19  C   UNL     1      -4.140   2.948   0.225  1.00  0.00     0.115 A 
ATOM     20  C   UNL     1      -2.289   1.454  -0.143  1.00  0.00     0.159 A 
ATOM     21  N   UNL     1      -2.235   2.436  -1.014  1.00  0.00    -0.237 NA
ATOM     22  S   UNL     1      -3.628   1.461   0.912  1.00  0.00    -0.105 S 
ATOM     23  C   UNL     1      -3.285   3.310  -0.808  1.00  0.00     0.062 A 
ATOM     24  C   UNL     1      -3.299   4.524  -1.667  1.00  0.00     0.068 C 
BRANCH  20  25
ATOM     25  C   UNL     1      -1.256   0.472  -0.057  1.00  0.00     0.162 A 
ATOM     26  C   UNL     1       2.260  -0.149  -0.018  1.00  0.00     0.087 C 
ATOM     27  C   UNL     1       0.798  -0.327  -0.001  1.00  0.00     0.101 A 
ATOM     28  C   UNL     1      -0.038  -1.414   0.114  1.00  0.00     0.046 A 
ATOM     29  O   UNL     1       0.070   0.811  -0.123  1.00  0.00    -0.459 OA
ATOM     30  C   UNL     1      -1.357  -0.900   0.095  1.00  0.00     0.054 A 
ENDBRANCH  20  25
ENDBRANCH  12  19
ENDBRANCH   9  11
ENDBRANCH   8   9
ENDBRANCH   7   8
ENDBRANCH   6   7
ENDBRANCH   5   6
ENDBRANCH   4   5
ENDBRANCH   3   4
ENDBRANCH   2   3
ENDBRANCH   1   2
BRANCH   1  31
ATOM     31  C   UNL     1     -12.316   9.365   2.586  1.00  0.00     0.188 C 
BRANCH  31  32
ATOM     32  O   UNL     1     -11.524  10.436   2.087  1.00  0.00    -0.376 OA
BRANCH  32  33
ATOM     33  C   UNL     1     -10.878  11.309   3.003  1.00  0.00     0.202 C 
BRANCH  33  34
ATOM     34  C   UNL     1      -9.827  10.727   3.969  1.00  0.00     0.261 C 
BRANCH  34  35
ATOM     35  O   UNL     1     -10.274   9.704   4.870  1.00  0.00    -0.460 OA
BRANCH  35  36
ATOM     36  C   UNL     1     -11.335   9.993   5.655  1.00  0.00     0.338 C 
ATOM     37  O   UNL     1     -11.900  11.061   5.751  1.00  0.00    -0.246 OA
BRANCH  36  38
ATOM     38  C   UNL     1     -11.845   8.727   6.226  1.00  0.00     0.060 A 
ATOM     39  C   UNL     1     -13.190   8.403   6.011  1.00  0.00     0.016 A 
ATOM     40  C   UNL     1     -11.028   7.899   7.001  1.00  0.00     0.016 A 
ATOM     41  C   UNL     1     -13.748   7.297   6.643  1.00  0.00     0.010 A 
ATOM     42  C   UNL     1     -11.595   6.800   7.654  1.00  0.00     0.010 A 
ATOM     43  C   UNL     1     -12.972   6.539   7.528  1.00  0.00    -0.014 A 
BRANCH  43  44
ATOM     44  C   UNL     1     -13.677   5.690   8.518  1.00  0.00     0.031 A 
ATOM     45  C   UNL     1     -13.924   6.264   9.889  1.00  0.00     0.074 A 
ATOM     46  C   UNL     1     -14.173   4.486   8.185  1.00  0.00     0.049 A 
ATOM     47  N   UNL     1     -14.551   5.744  10.911  1.00  0.00    -0.248 NA
ATOM     48  C   UNL     1     -13.387   7.613  10.138  1.00  0.00     0.031 C 
ATOM     49  C   UNL     1     -14.037   3.847   6.878  1.00  0.00     0.029 A 
ATOM     50  N   UNL     1     -14.898   3.590   8.928  1.00  0.00    -0.354 N 
ATOM     51  C   UNL     1     -14.486   6.699  11.919  1.00  0.00     0.074 A 
ATOM     52  C   UNL     1     -13.713   7.807  11.405  1.00  0.00     0.031 C 
ATOM     53  C   UNL     1     -14.648   2.650   6.916  1.00  0.00     0.029 A 
ATOM     54  C   UNL     1     -15.197   2.431   8.254  1.00  0.00     0.049 A 
ATOM     55  H   UNL     1     -15.177   3.760   9.857  1.00  0.00     0.167 HD
ATOM     56  C   UNL     1     -15.037   6.668  13.156  1.00  0.00     0.037 A 
ATOM     57  C   UNL     1     -15.826   1.317   8.677  1.00  0.00     0.037 A 
ATOM     58  C   UNL     1     -15.793   5.555  13.665  1.00  0.00     0.049 A 
ATOM     59  C   UNL     1     -16.379   1.271  10.078  1.00  0.00     0.074 A 
ATOM     60  C   UNL     1     -16.386   5.410  14.906  1.00  0.00     0.029 A 
ATOM     61  N   UNL     1     -16.053   4.387  12.960  1.00  0.00    -0.354 N 
ATOM     62  N   UNL     1     -16.320   2.183  11.021  1.00  0.00    -0.248 NA
ATOM     63  C   UNL     1     -17.101   0.052  10.467  1.00  0.00     0.031 C 
ATOM     64  C   UNL     1     -16.955   4.134  14.971  1.00  0.00     0.029 A 
ATOM     65  C   UNL     1     -16.781   3.510  13.746  1.00  0.00     0.049 A 
ATOM     66  H   UNL     1     -15.761   4.209  12.036  1.00  0.00     0.167 HD
ATOM     67  C   UNL     1     -17.023   1.662  12.103  1.00  0.00     0.074 A 
ATOM     68  C   UNL     1     -17.506   0.359  11.692  1.00  0.00     0.031 C 
ATOM     69  C   UNL     1     -17.256   2.214  13.322  1.00  0.00     0.037 A 
BRANCH  56  70
ATOM     70  C   UNL     1     -14.802   7.862  14.043  1.00  0.00     0.058 A 
ATOM     71  C   UNL     1     -15.358   9.122  13.759  1.00  0.00     0.135 A 
ATOM     72  C   UNL     1     -13.990   7.753  15.184  1.00  0.00     0.135 A 
ATOM     73  F   UNL     1     -16.126   9.292  12.671  1.00  0.00    -0.206 F 
ATOM     74  C   UNL     1     -15.079  10.237  14.543  1.00  0.00     0.059 A 
ATOM     75  C   UNL     1     -13.726   8.847  16.003  1.00  0.00     0.059 A 
ATOM     76  F   UNL     1     -13.429   6.576  15.504  1.00  0.00    -0.206 F 
ATOM     77  C   UNL     1     -14.256  10.090  15.661  1.00  0.00     0.060 A 
BRANCH  77  78
ATOM     78  S   UNL     1     -13.878  11.550  16.652  1.00  0.00     0.124 S 
ATOM     79  O   UNL     1     -12.979  12.280  15.762  1.00  0.00    -0.237 OA
ATOM     80  O   UNL     1     -15.196  12.145  16.846  1.00  0.00    -0.237 OA
ATOM     81  O   UNL     1     -13.259  10.997  17.852  1.00  0.00    -0.744 OA
ENDBRANCH  77  78
ENDBRANCH  56  70
BRANCH  57  82
ATOM     82  C   UNL     1     -15.955   0.156   7.756  1.00  0.00     0.058 A 
ATOM     83  C   UNL     1     -17.194  -0.226   7.222  1.00  0.00     0.135 A 
ATOM     84  C   UNL     1     -14.823  -0.578   7.365  1.00  0.00     0.135 A 
ATOM     85  F   UNL     1     -18.308   0.434   7.573  1.00  0.00    -0.206 F 
ATOM     86  C   UNL     1     -17.308  -1.292   6.334  1.00  0.00     0.059 A 
ATOM     87  C   UNL     1     -14.907  -1.629   6.458  1.00  0.00     0.059 A 
ATOM     88  F   UNL     1     -13.612  -0.248   7.841  1.00  0.00    -0.206 F 
ATOM     89  C   UNL     1     -16.156  -1.981   5.950  1.00  0.00     0.060 A 
BRANCH  89  90
ATOM     90  S   UNL     1     -16.304  -3.307   4.733  1.00  0.00     0.124 S 
ATOM     91  O   UNL     1     -16.983  -4.342   5.505  1.00  0.00    -0.237 OA
ATOM     92  O   UNL     1     -17.094  -2.670   3.685  1.00  0.00    -0.237 OA
ATOM     93  O   UNL     1     -14.918  -3.593   4.376  1.00  0.00    -0.744 OA
ENDBRANCH  89  90
ENDBRANCH  57  82
BRANCH  69  94
ATOM     94  C   UNL     1     -18.113   1.434  14.286  1.00  0.00     0.058 A 
ATOM     95  C   UNL     1     -17.671   0.247  14.890  1.00  0.00     0.135 A 
ATOM     96  C   UNL     1     -19.390   1.907  14.634  1.00  0.00     0.135 A 
ATOM     97  F   UNL     1     -16.459  -0.252  14.595  1.00  0.00    -0.206 F 
ATOM     98  C   UNL     1     -18.479  -0.466  15.771  1.00  0.00     0.059 A 
ATOM     99  C   UNL     1     -20.201   1.230  15.539  1.00  0.00     0.059 A 
ATOM    100  F   UNL     1     -19.859   3.046  14.101  1.00  0.00    -0.206 F 
ATOM    101  C   UNL     1     -19.745   0.032  16.087  1.00  0.00     0.060 A 
BRANCH 101 102
ATOM    102  S   UNL     1     -20.784  -0.901  17.230  1.00  0.00     0.124 S 
ATOM    103  O   UNL     1     -21.177  -2.039  16.406  1.00  0.00    -0.237 OA
ATOM    104  O   UNL     1     -19.861  -1.197  18.321  1.00  0.00    -0.237 OA
ATOM    105  O   UNL     1     -21.855   0.035  17.559  1.00  0.00    -0.744 OA
ENDBRANCH 101 102
ENDBRANCH  69  94
ENDBRANCH  43  44
ENDBRANCH  36  38
ENDBRANCH  35  36
ENDBRANCH  34  35
ENDBRANCH  33  34
ENDBRANCH  32  33
ENDBRANCH  31  32
ENDBRANCH   1  31
TORSDOF 25
