REMARK SMILES CCC1(C(=O)OCCOCCOCCOCCOC(=O)c2ccc(-c3c4nc(c(-c5c(F)cc(S(=O)(=O)[O-])cc5F)c5ccc([nH]5)c(-c5c(F)cc(S(=O)(=O)[O-])cc5F)c5nc(c(-c6c(F)cc(S(=O)(=O)[O-])cc6F)c6ccc3[nH]6)C=C5)C=C4)cc2)CCN(C(=O)C[C@H]2CSCC[NH2+]2)CC1
REMARK SMILES IDX 13 1 12 2 11 3 10 4 9 5 8 6 7 7 6 8 4 9 5 10 3 11 87 12
REMARK SMILES IDX 100 13 88 14 99 15 89 16 90 17 91 18 2 19 1 20 92 21 93 22
REMARK SMILES IDX 94 23 98 24 95 25 97 26 96 29 14 30 15 31 16 32 17 33 18 34
REMARK SMILES IDX 19 35 20 36 21 37 22 38 86 39 23 40 85 41 24 42 25 43 26 44
REMARK SMILES IDX 79 45 27 46 84 47 78 48 80 49 28 50 83 51 77 52 76 53 29 55
REMARK SMILES IDX 63 56 42 57 62 58 43 59 46 60 61 61 81 62 44 63 45 64 60 66
REMARK SMILES IDX 82 67 47 68 30 69 31 70 40 71 32 72 33 73 39 74 41 75 34 76
REMARK SMILES IDX 35 77 36 78 37 79 38 80 64 81 65 82 74 83 66 84 67 85 73 86
REMARK SMILES IDX 75 87 68 88 69 89 70 90 71 91 72 92 48 93 49 94 58 95 50 96
REMARK SMILES IDX 51 97 57 98 59 99 52 100 53 101 54 102 55 103 56 104
REMARK H PARENT 98 27 98 28 80 54 46 65
REMARK Flexibility Score: inf
ROOT
ATOM      1  C   UNL     1      -2.488   7.459   5.152  1.00  0.00     0.188 C 
ENDROOT
BRANCH   1   2
ATOM      2  O   UNL     1      -2.033   8.082   3.962  1.00  0.00    -0.377 OA
BRANCH   2   3
ATOM      3  C   UNL     1      -1.131   9.156   4.111  1.00  0.00     0.188 C 
BRANCH   3   4
ATOM      4  C   UNL     1      -1.771  10.547   4.164  1.00  0.00     0.188 C 
BRANCH   4   5
ATOM      5  O   UNL     1      -3.180  10.682   4.187  1.00  0.00    -0.376 OA
BRANCH   5   6
ATOM      6  C   UNL     1      -3.984   9.914   3.302  1.00  0.00     0.202 C 
BRANCH   6   7
ATOM      7  C   UNL     1      -3.599   9.621   1.833  1.00  0.00     0.261 C 
BRANCH   7   8
ATOM      8  O   UNL     1      -2.232   9.271   1.532  1.00  0.00    -0.463 OA
BRANCH   8   9
ATOM      9  C   UNL     1      -1.497  10.184   0.851  1.00  0.00     0.312 C 
ATOM     10  O   UNL     1      -1.921  11.289   0.524  1.00  0.00    -0.252 OA
BRANCH   9  11
ATOM     11  C   UNL     1      -0.077   9.701   0.451  1.00  0.00     0.071 C 
ATOM     12  C   UNL     1       0.441   8.383   1.121  1.00  0.00     0.040 C 
ATOM     13  C   UNL     1      -0.225   9.456  -1.075  1.00  0.00     0.040 C 
ATOM     14  C   UNL     1       1.577   7.667   0.377  1.00  0.00     0.120 C 
ATOM     15  C   UNL     1       0.993   8.786  -1.692  1.00  0.00     0.120 C 
ATOM     16  N   UNL     1       1.243   7.520  -1.026  1.00  0.00    -0.342 N 
ATOM     17  C   UNL     1       1.092   6.246  -1.561  1.00  0.00     0.228 C 
ATOM     18  O   UNL     1       1.440   5.239  -0.940  1.00  0.00    -0.275 OA
BRANCH  11  19
ATOM     19  C   UNL     1       0.952  10.857   0.674  1.00  0.00     0.015 C 
ATOM     20  C   UNL     1       0.826  11.663   1.962  1.00  0.00     0.005 C 
ENDBRANCH  11  19
BRANCH  17  21
ATOM     21  C   UNL     1       0.469   6.093  -2.943  1.00  0.00     0.166 C 
BRANCH  21  22
ATOM     22  C   UNL     1      -1.013   6.519  -2.946  1.00  0.00     0.201 C 
ATOM     23  C   UNL     1      -1.291   7.492  -4.111  1.00  0.00     0.135 C 
ATOM     24  N   UNL     1      -1.933   5.367  -3.034  1.00  0.00    -0.342 N 
ATOM     25  S   UNL     1      -2.893   8.325  -3.897  1.00  0.00    -0.150 SA
ATOM     26  C   UNL     1      -3.324   5.790  -2.761  1.00  0.00     0.271 C 
ATOM     27  H   UNL     1      -1.656   4.664  -2.350  1.00  0.00     0.346 HD
ATOM     28  H   UNL     1      -1.885   4.981  -3.977  1.00  0.00     0.346 HD
ATOM     29  C   UNL     1      -3.904   6.814  -3.750  1.00  0.00     0.131 C 
ENDBRANCH  21  22
ENDBRANCH  17  21
ENDBRANCH   9  11
ENDBRANCH   8   9
ENDBRANCH   7   8
ENDBRANCH   6   7
ENDBRANCH   5   6
ENDBRANCH   4   5
ENDBRANCH   3   4
ENDBRANCH   2   3
ENDBRANCH   1   2
BRANCH   1  30
ATOM     30  C   UNL     1      -2.569   8.315   6.430  1.00  0.00     0.188 C 
BRANCH  30  31
ATOM     31  O   UNL     1      -1.370   9.020   6.734  1.00  0.00    -0.376 OA
BRANCH  31  32
ATOM     32  C   UNL     1      -0.433   8.445   7.633  1.00  0.00     0.202 C 
BRANCH  32  33
ATOM     33  C   UNL     1       0.271   7.141   7.224  1.00  0.00     0.261 C 
BRANCH  33  34
ATOM     34  O   UNL     1      -0.558   6.000   6.966  1.00  0.00    -0.460 OA
BRANCH  34  35
ATOM     35  C   UNL     1      -1.464   5.625   7.893  1.00  0.00     0.338 C 
ATOM     36  O   UNL     1      -1.633   6.109   8.998  1.00  0.00    -0.246 OA
BRANCH  35  37
ATOM     37  C   UNL     1      -2.364   4.653   7.240  1.00  0.00     0.060 A 
ATOM     38  C   UNL     1      -3.737   4.928   7.159  1.00  0.00     0.016 A 
ATOM     39  C   UNL     1      -1.838   3.490   6.674  1.00  0.00     0.016 A 
ATOM     40  C   UNL     1      -4.596   4.022   6.533  1.00  0.00     0.010 A 
ATOM     41  C   UNL     1      -2.700   2.572   6.077  1.00  0.00     0.010 A 
ATOM     42  C   UNL     1      -4.084   2.818   6.035  1.00  0.00    -0.014 A 
BRANCH  42  43
ATOM     43  C   UNL     1      -4.986   1.689   5.711  1.00  0.00     0.031 A 
ATOM     44  C   UNL     1      -5.214   0.664   6.787  1.00  0.00     0.074 A 
ATOM     45  C   UNL     1      -5.532   1.540   4.492  1.00  0.00     0.049 A 
ATOM     46  N   UNL     1      -5.774  -0.512   6.710  1.00  0.00    -0.248 NA
ATOM     47  C   UNL     1      -4.724   1.014   8.132  1.00  0.00     0.031 C 
ATOM     48  C   UNL     1      -5.429   2.496   3.393  1.00  0.00     0.029 A 
ATOM     49  N   UNL     1      -6.258   0.499   3.969  1.00  0.00    -0.354 N 
ATOM     50  C   UNL     1      -5.680  -1.054   7.986  1.00  0.00     0.074 A 
ATOM     51  C   UNL     1      -4.997  -0.087   8.815  1.00  0.00     0.031 C 
ATOM     52  C   UNL     1      -6.042   1.982   2.311  1.00  0.00     0.029 A 
ATOM     53  C   UNL     1      -6.534   0.641   2.629  1.00  0.00     0.049 A 
ATOM     54  H   UNL     1      -6.554  -0.275   4.502  1.00  0.00     0.167 HD
ATOM     55  C   UNL     1      -6.121  -2.255   8.425  1.00  0.00     0.037 A 
ATOM     56  C   UNL     1      -7.078  -0.232   1.757  1.00  0.00     0.037 A 
ATOM     57  C   UNL     1      -6.791  -3.211   7.585  1.00  0.00     0.049 A 
ATOM     58  C   UNL     1      -7.494  -1.599   2.246  1.00  0.00     0.074 A 
ATOM     59  C   UNL     1      -7.282  -4.457   7.925  1.00  0.00     0.029 A 
ATOM     60  N   UNL     1      -7.054  -3.028   6.235  1.00  0.00    -0.354 N 
ATOM     61  N   UNL     1      -7.403  -2.107   3.453  1.00  0.00    -0.248 NA
ATOM     62  C   UNL     1      -8.081  -2.516   1.257  1.00  0.00     0.031 C 
ATOM     63  C   UNL     1      -7.795  -5.051   6.769  1.00  0.00     0.029 A 
ATOM     64  C   UNL     1      -7.686  -4.146   5.724  1.00  0.00     0.049 A 
ATOM     65  H   UNL     1      -6.825  -2.221   5.719  1.00  0.00     0.167 HD
ATOM     66  C   UNL     1      -7.964  -3.378   3.378  1.00  0.00     0.074 A 
ATOM     67  C   UNL     1      -8.381  -3.569   2.005  1.00  0.00     0.031 C 
ATOM     68  C   UNL     1      -8.129  -4.300   4.359  1.00  0.00     0.037 A 
BRANCH  55  69
ATOM     69  C   UNL     1      -5.855  -2.615   9.859  1.00  0.00     0.058 A 
ATOM     70  C   UNL     1      -6.514  -1.973  10.920  1.00  0.00     0.135 A 
ATOM     71  C   UNL     1      -4.943  -3.635  10.176  1.00  0.00     0.135 A 
ATOM     72  F   UNL     1      -7.377  -0.974  10.675  1.00  0.00    -0.206 F 
ATOM     73  C   UNL     1      -6.258  -2.311  12.244  1.00  0.00     0.059 A 
ATOM     74  C   UNL     1      -4.696  -4.011  11.492  1.00  0.00     0.059 A 
ATOM     75  F   UNL     1      -4.279  -4.275   9.201  1.00  0.00    -0.206 F 
ATOM     76  C   UNL     1      -5.348  -3.334  12.520  1.00  0.00     0.060 A 
BRANCH  76  77
ATOM     77  S   UNL     1      -5.035  -3.765  14.244  1.00  0.00     0.124 S 
ATOM     78  O   UNL     1      -4.276  -2.606  14.701  1.00  0.00    -0.237 OA
ATOM     79  O   UNL     1      -6.386  -3.891  14.783  1.00  0.00    -0.237 OA
ATOM     80  O   UNL     1      -4.281  -5.012  14.152  1.00  0.00    -0.744 OA
ENDBRANCH  76  77
ENDBRANCH  55  69
BRANCH  56  81
ATOM     81  C   UNL     1      -7.245   0.147   0.327  1.00  0.00     0.058 A 
ATOM     82  C   UNL     1      -8.520   0.331  -0.228  1.00  0.00     0.135 A 
ATOM     83  C   UNL     1      -6.136   0.333  -0.514  1.00  0.00     0.135 A 
ATOM     84  F   UNL     1      -9.613   0.151   0.530  1.00  0.00    -0.206 F 
ATOM     85  C   UNL     1      -8.693   0.675  -1.565  1.00  0.00     0.059 A 
ATOM     86  C   UNL     1      -6.282   0.705  -1.848  1.00  0.00     0.059 A 
ATOM     87  F   UNL     1      -4.893   0.177  -0.034  1.00  0.00    -0.206 F 
ATOM     88  C   UNL     1      -7.566   0.866  -2.366  1.00  0.00     0.060 A 
BRANCH  88  89
ATOM     89  S   UNL     1      -7.801   1.372  -4.084  1.00  0.00     0.124 S 
ATOM     90  O   UNL     1      -8.328   0.151  -4.682  1.00  0.00    -0.237 OA
ATOM     91  O   UNL     1      -8.746   2.477  -3.948  1.00  0.00    -0.237 OA
ATOM     92  O   UNL     1      -6.458   1.757  -4.507  1.00  0.00    -0.744 OA
ENDBRANCH  88  89
ENDBRANCH  56  81
BRANCH  68  93
ATOM     93  C   UNL     1      -8.862  -5.571   4.027  1.00  0.00     0.058 A 
ATOM     94  C   UNL     1      -8.268  -6.604   3.287  1.00  0.00     0.135 A 
ATOM     95  C   UNL     1     -10.137  -5.802   4.572  1.00  0.00     0.135 A 
ATOM     96  F   UNL     1      -7.055  -6.433   2.739  1.00  0.00    -0.206 F 
ATOM     97  C   UNL     1      -8.913  -7.823   3.101  1.00  0.00     0.059 A 
ATOM     98  C   UNL     1     -10.786  -7.022   4.423  1.00  0.00     0.059 A 
ATOM     99  F   UNL     1     -10.744  -4.848   5.298  1.00  0.00    -0.206 F 
ATOM    100  C   UNL     1     -10.166  -8.027   3.684  1.00  0.00     0.060 A 
BRANCH 100 101
ATOM    101  S   UNL     1     -10.950  -9.644   3.510  1.00  0.00     0.124 S 
ATOM    102  O   UNL     1     -11.338  -9.633   2.103  1.00  0.00    -0.237 OA
ATOM    103  O   UNL     1      -9.866 -10.555   3.862  1.00  0.00    -0.237 OA
ATOM    104  O   UNL     1     -12.053  -9.594   4.465  1.00  0.00    -0.744 OA
ENDBRANCH 100 101
ENDBRANCH  68  93
ENDBRANCH  42  43
ENDBRANCH  35  37
ENDBRANCH  34  35
ENDBRANCH  33  34
ENDBRANCH  32  33
ENDBRANCH  31  32
ENDBRANCH  30  31
ENDBRANCH   1  30
TORSDOF 26
