REMARK SMILES Cc1ccccc1NC(=O)C[NH+]1CCC(CC(=O)OCCOCCOCCOCCOC(=O)c2ccc(-c3c4nc(c(-c5c(F)cc(S(=O)(=O)[O-])cc5F)c5ccc([nH]5)c(-c5c(F)cc(S(=O)(=O)[O-])cc5F)c5nc(c(-c6c(F)cc(S(=O)(=O)[O-])cc6F)c6ccc3[nH]6)C=C5)C=C4)cc2)CC1
REMARK SMILES IDX 24 1 23 2 22 3 21 4 20 5 19 6 17 7 18 8 16 9 15 10 12 11
REMARK SMILES IDX 13 12 101 13 14 15 100 16 11 17 9 18 8 19 10 21 7 22 1 23
REMARK SMILES IDX 2 24 3 25 4 26 6 27 5 28 25 29 26 30 27 31 28 32 29 33 30 34
REMARK SMILES IDX 31 35 32 36 33 37 34 38 35 39 99 40 36 41 98 42 37 43 38 44
REMARK SMILES IDX 39 45 92 46 40 47 97 48 91 49 93 50 41 51 96 52 90 53 89 54
REMARK SMILES IDX 42 56 76 57 55 58 75 59 56 60 59 61 74 62 94 63 57 64 58 65
REMARK SMILES IDX 73 67 95 68 60 69 43 70 44 71 53 72 45 73 46 74 52 75 54 76
REMARK SMILES IDX 47 77 48 78 49 79 50 80 51 81 77 82 78 83 87 84 79 85 80 86
REMARK SMILES IDX 86 87 88 88 81 89 82 90 83 91 84 92 85 93 61 94 62 95 71 96
REMARK SMILES IDX 63 97 64 98 70 99 72 100 65 101 66 102 67 103 68 104 69 105
REMARK H PARENT 12 14 8 20 93 55 59 66
REMARK Flexibility Score: inf
ROOT
ATOM      1  C   UNL     1       1.783   3.280  -3.893  1.00  0.00     0.188 C 
ENDROOT
BRANCH   1   2
ATOM      2  C   UNL     1       1.657   3.486  -5.461  1.00  0.00     0.188 C 
BRANCH   2   3
ATOM      3  O   UNL     1       0.696   4.238  -6.398  1.00  0.00    -0.376 OA
BRANCH   3   4
ATOM      4  C   UNL     1      -0.091   3.735  -7.803  1.00  0.00     0.202 C 
BRANCH   4   5
ATOM      5  C   UNL     1      -1.177   2.313  -8.382  1.00  0.00     0.261 C 
BRANCH   5   6
ATOM      6  O   UNL     1      -1.445   0.586  -7.782  1.00  0.00    -0.463 OA
BRANCH   6   7
ATOM      7  C   UNL     1      -0.933  -0.496  -6.758  1.00  0.00     0.306 C 
ATOM      8  O   UNL     1      -0.109  -1.351  -7.116  1.00  0.00    -0.252 OA
BRANCH   7   9
ATOM      9  C   UNL     1      -1.573  -0.686  -5.095  1.00  0.00     0.126 C 
BRANCH   9  10
ATOM     10  C   UNL     1      -1.284   0.002  -3.559  1.00  0.00     0.011 C 
ATOM     11  N   UNL     1      -1.935   1.809  -1.093  1.00  0.00    -0.327 N 
ATOM     12  C   UNL     1      -0.871   2.134  -2.014  1.00  0.00     0.262 C 
ATOM     13  C   UNL     1      -2.151   0.360  -1.089  1.00  0.00     0.262 C 
ATOM     14  H   UNL     1      -2.845   2.158  -1.394  1.00  0.00     0.348 HD
ATOM     15  C   UNL     1      -1.185   1.507  -3.361  1.00  0.00     0.066 C 
ATOM     16  C   UNL     1      -2.385  -0.326  -2.498  1.00  0.00     0.066 C 
BRANCH  11  17
ATOM     17  C   UNL     1      -1.805   2.561   0.187  1.00  0.00     0.363 C 
BRANCH  17  18
ATOM     18  C   UNL     1      -0.370   2.930   0.673  1.00  0.00     0.279 C 
ATOM     19  N   UNL     1       0.554   1.977   1.015  1.00  0.00    -0.321 N 
ATOM     20  H   UNL     1       1.480   2.289   1.138  1.00  0.00     0.170 HD
ATOM     21  O   UNL     1      -0.008   4.111   0.744  1.00  0.00    -0.268 OA
BRANCH  19  22
ATOM     22  C   UNL     1       0.330   0.613   1.209  1.00  0.00     0.044 A 
ATOM     23  C   UNL     1       2.502  -0.018  -0.016  1.00  0.00     0.046 C 
ATOM     24  C   UNL     1       1.187  -0.341   0.639  1.00  0.00    -0.027 A 
ATOM     25  C   UNL     1       0.755  -1.680   0.618  1.00  0.00     0.005 A 
ATOM     26  C   UNL     1      -0.460  -2.058   1.196  1.00  0.00     0.000 A 
ATOM     27  C   UNL     1      -0.816   0.206   1.905  1.00  0.00     0.026 A 
ATOM     28  C   UNL     1      -1.227  -1.122   1.878  1.00  0.00     0.002 A 
ENDBRANCH  19  22
ENDBRANCH  17  18
ENDBRANCH  11  17
ENDBRANCH   9  10
ENDBRANCH   7   9
ENDBRANCH   6   7
ENDBRANCH   5   6
ENDBRANCH   4   5
ENDBRANCH   3   4
ENDBRANCH   2   3
ENDBRANCH   1   2
BRANCH   1  29
ATOM     29  O   UNL     1       2.216   4.273  -2.999  1.00  0.00    -0.377 OA
BRANCH  29  30
ATOM     30  C   UNL     1       2.994   5.255  -3.644  1.00  0.00     0.188 C 
BRANCH  30  31
ATOM     31  C   UNL     1       4.405   4.789  -4.034  1.00  0.00     0.188 C 
BRANCH  31  32
ATOM     32  O   UNL     1       4.430   3.475  -4.601  1.00  0.00    -0.376 OA
BRANCH  32  33
ATOM     33  C   UNL     1       5.301   2.534  -3.988  1.00  0.00     0.202 C 
BRANCH  33  34
ATOM     34  C   UNL     1       6.730   2.703  -4.507  1.00  0.00     0.261 C 
BRANCH  34  35
ATOM     35  O   UNL     1       6.836   2.269  -5.881  1.00  0.00    -0.460 OA
BRANCH  35  36
ATOM     36  C   UNL     1       6.327   3.150  -6.791  1.00  0.00     0.338 C 
ATOM     37  O   UNL     1       6.774   4.257  -7.005  1.00  0.00    -0.246 OA
BRANCH  36  38
ATOM     38  C   UNL     1       5.047   2.597  -7.337  1.00  0.00     0.060 A 
ATOM     39  C   UNL     1       4.154   3.464  -7.944  1.00  0.00     0.016 A 
ATOM     40  C   UNL     1       4.611   1.310  -6.999  1.00  0.00     0.016 A 
ATOM     41  C   UNL     1       2.804   3.087  -8.051  1.00  0.00     0.010 A 
ATOM     42  C   UNL     1       3.241   1.007  -6.955  1.00  0.00     0.010 A 
ATOM     43  C   UNL     1       2.276   1.930  -7.396  1.00  0.00    -0.014 A 
BRANCH  43  44
ATOM     44  C   UNL     1       0.694   1.478  -7.189  1.00  0.00     0.031 A 
ATOM     45  C   UNL     1       0.753   0.541  -8.729  1.00  0.00     0.074 A 
ATOM     46  C   UNL     1      -0.589   1.949  -6.218  1.00  0.00     0.049 A 
ATOM     47  N   UNL     1      -0.241   0.314  -9.540  1.00  0.00    -0.248 NA
ATOM     48  C   UNL     1       1.971   0.110  -9.468  1.00  0.00     0.031 C 
ATOM     49  C   UNL     1      -2.216   1.485  -6.037  1.00  0.00     0.029 A 
ATOM     50  N   UNL     1      -1.014   3.227  -5.512  1.00  0.00    -0.354 N 
ATOM     51  C   UNL     1       0.046  -0.631 -10.457  1.00  0.00     0.074 A 
ATOM     52  C   UNL     1       1.478  -0.566 -10.519  1.00  0.00     0.031 C 
ATOM     53  C   UNL     1      -3.085   2.341  -5.532  1.00  0.00     0.029 A 
ATOM     54  C   UNL     1      -2.405   3.553  -5.591  1.00  0.00     0.049 A 
ATOM     55  H   UNL     1      -0.371   3.796  -5.029  1.00  0.00     0.167 HD
ATOM     56  C   UNL     1      -0.977  -1.423 -10.906  1.00  0.00     0.037 A 
ATOM     57  C   UNL     1      -3.043   4.623  -6.146  1.00  0.00     0.037 A 
ATOM     58  C   UNL     1      -2.304  -1.053 -10.292  1.00  0.00     0.049 A 
ATOM     59  C   UNL     1      -3.948   4.173  -7.362  1.00  0.00     0.074 A 
ATOM     60  C   UNL     1      -3.116  -1.626  -9.320  1.00  0.00     0.029 A 
ATOM     61  N   UNL     1      -2.839   0.238 -10.448  1.00  0.00    -0.354 N 
ATOM     62  N   UNL     1      -4.057   2.921  -7.786  1.00  0.00    -0.248 NA
ATOM     63  C   UNL     1      -4.735   5.053  -8.222  1.00  0.00     0.031 C 
ATOM     64  C   UNL     1      -4.127  -0.682  -8.920  1.00  0.00     0.029 A 
ATOM     65  C   UNL     1      -3.956   0.496  -9.632  1.00  0.00     0.049 A 
ATOM     66  H   UNL     1      -2.466   0.902 -11.072  1.00  0.00     0.167 HD
ATOM     67  C   UNL     1      -4.702   2.835  -8.992  1.00  0.00     0.074 A 
ATOM     68  C   UNL     1      -5.199   4.201  -9.164  1.00  0.00     0.031 C 
ATOM     69  C   UNL     1      -4.756   1.733  -9.825  1.00  0.00     0.037 A 
BRANCH  56  70
ATOM     70  C   UNL     1      -0.646  -2.736 -11.623  1.00  0.00     0.058 A 
ATOM     71  C   UNL     1      -1.445  -3.890 -11.495  1.00  0.00     0.135 A 
ATOM     72  C   UNL     1       0.512  -2.929 -12.414  1.00  0.00     0.135 A 
ATOM     73  F   UNL     1      -2.633  -3.848 -10.878  1.00  0.00    -0.206 F 
ATOM     74  C   UNL     1      -1.066  -5.146 -11.999  1.00  0.00     0.059 A 
ATOM     75  C   UNL     1       0.950  -4.181 -12.865  1.00  0.00     0.059 A 
ATOM     76  F   UNL     1       1.240  -1.889 -12.842  1.00  0.00    -0.206 F 
ATOM     77  C   UNL     1       0.154  -5.293 -12.649  1.00  0.00     0.060 A 
BRANCH  77  78
ATOM     78  S   UNL     1       0.659  -6.918 -13.255  1.00  0.00     0.124 S 
ATOM     79  O   UNL     1       0.612  -7.733 -12.045  1.00  0.00    -0.237 OA
ATOM     80  O   UNL     1      -0.366  -7.204 -14.253  1.00  0.00    -0.237 OA
ATOM     81  O   UNL     1       1.998  -6.685 -13.790  1.00  0.00    -0.744 OA
ENDBRANCH  77  78
ENDBRANCH  56  70
BRANCH  57  82
ATOM     82  C   UNL     1      -2.360   5.895  -5.786  1.00  0.00     0.058 A 
ATOM     83  C   UNL     1      -2.115   6.096  -4.398  1.00  0.00     0.135 A 
ATOM     84  C   UNL     1      -1.622   6.681  -6.669  1.00  0.00     0.135 A 
ATOM     85  F   UNL     1      -2.839   5.419  -3.489  1.00  0.00    -0.206 F 
ATOM     86  C   UNL     1      -1.058   6.868  -3.924  1.00  0.00     0.059 A 
ATOM     87  C   UNL     1      -0.560   7.475  -6.215  1.00  0.00     0.059 A 
ATOM     88  F   UNL     1      -1.833   6.587  -7.990  1.00  0.00    -0.206 F 
ATOM     89  C   UNL     1      -0.257   7.527  -4.848  1.00  0.00     0.060 A 
BRANCH  89  90
ATOM     90  S   UNL     1       1.240   8.392  -4.307  1.00  0.00     0.124 S 
ATOM     91  O   UNL     1       0.886   9.786  -4.546  1.00  0.00    -0.237 OA
ATOM     92  O   UNL     1       1.371   8.014  -2.904  1.00  0.00    -0.237 OA
ATOM     93  O   UNL     1       2.266   7.846  -5.192  1.00  0.00    -0.744 OA
ENDBRANCH  89  90
ENDBRANCH  57  82
BRANCH  69  94
ATOM     94  C   UNL     1      -5.699   1.736 -11.004  1.00  0.00     0.058 A 
ATOM     95  C   UNL     1      -7.043   2.122 -10.864  1.00  0.00     0.135 A 
ATOM     96  C   UNL     1      -5.321   1.229 -12.263  1.00  0.00     0.135 A 
ATOM     97  F   UNL     1      -7.519   2.529  -9.675  1.00  0.00    -0.206 F 
ATOM     98  C   UNL     1      -7.930   2.112 -11.938  1.00  0.00     0.059 A 
ATOM     99  C   UNL     1      -6.205   1.149 -13.332  1.00  0.00     0.059 A 
ATOM    100  F   UNL     1      -4.065   0.834 -12.513  1.00  0.00    -0.206 F 
ATOM    101  C   UNL     1      -7.493   1.642 -13.174  1.00  0.00     0.060 A 
BRANCH 101 102
ATOM    102  S   UNL     1      -8.596   1.718 -14.594  1.00  0.00     0.124 S 
ATOM    103  O   UNL     1      -9.903   1.448 -14.002  1.00  0.00    -0.237 OA
ATOM    104  O   UNL     1      -8.378   3.087 -15.047  1.00  0.00    -0.237 OA
ATOM    105  O   UNL     1      -8.084   0.672 -15.474  1.00  0.00    -0.744 OA
ENDBRANCH 101 102
ENDBRANCH  69  94
ENDBRANCH  43  44
ENDBRANCH  36  38
ENDBRANCH  35  36
ENDBRANCH  34  35
ENDBRANCH  33  34
ENDBRANCH  32  33
ENDBRANCH  31  32
ENDBRANCH  30  31
ENDBRANCH  29  30
ENDBRANCH   1  29
TORSDOF 27
