REMARK SMILES COc1ccc2[nH]c(C(=O)c3cc(C)ccn3)c(CC(=O)OCCOCCOCCOCCOC(=O)c3ccc(-c4c5nc(c(-c6c(F)cc(S(=O)(=O)[O-])cc6F)c6ccc([nH]6)c(-c6c(F)cc(S(=O)(=O)[O-])cc6F)c6nc(c(-c7c(F)cc(S(=O)(=O)[O-])cc7F)c7ccc4[nH]7)C=C6)C=C5)cc3)c2c1
REMARK SMILES IDX 28 1 27 2 26 3 25 4 24 5 23 6 22 7 20 8 21 9 19 10 18 11
REMARK SMILES IDX 3 12 4 13 104 14 5 15 103 16 6 17 7 18 8 19 2 21 1 22 9 23
REMARK SMILES IDX 10 24 11 25 12 26 17 27 13 28 16 29 14 30 15 31 29 32 30 33
REMARK SMILES IDX 31 34 32 35 33 36 34 37 35 38 36 39 37 40 38 41 102 42 39 43
REMARK SMILES IDX 101 44 40 45 41 46 42 47 95 48 43 49 100 50 94 51 96 52
REMARK SMILES IDX 44 53 99 54 93 55 92 56 45 58 79 59 58 60 78 61 59 62 62 63
REMARK SMILES IDX 77 64 97 65 60 66 61 67 76 69 98 70 63 71 46 72 47 73 56 74
REMARK SMILES IDX 48 75 49 76 55 77 57 78 50 79 51 80 52 81 53 82 54 83 80 84
REMARK SMILES IDX 81 85 90 86 82 87 83 88 89 89 91 90 84 91 85 92 86 93 87 94
REMARK SMILES IDX 88 95 64 96 65 97 74 98 66 99 67 100 73 101 75 102 68 103
REMARK SMILES IDX 69 104 70 105 71 106 72 107
REMARK H PARENT 7 20 96 57 62 68
REMARK Flexibility Score: inf
ROOT
ATOM      1  O   UNL     1      -1.962   7.775  -2.109  1.00  0.00    -0.377 OA
ENDROOT
BRANCH   1   2
ATOM      2  C   UNL     1      -1.658   7.388  -3.438  1.00  0.00     0.188 C 
BRANCH   2   3
ATOM      3  C   UNL     1      -2.792   7.551  -4.476  1.00  0.00     0.188 C 
BRANCH   3   4
ATOM      4  O   UNL     1      -4.148   7.722  -4.071  1.00  0.00    -0.376 OA
BRANCH   4   5
ATOM      5  C   UNL     1      -4.530   7.304  -2.774  1.00  0.00     0.202 C 
BRANCH   5   6
ATOM      6  C   UNL     1      -4.345   5.815  -2.408  1.00  0.00     0.261 C 
BRANCH   6   7
ATOM      7  O   UNL     1      -3.188   5.146  -2.976  1.00  0.00    -0.463 OA
BRANCH   7   8
ATOM      8  C   UNL     1      -3.397   4.356  -4.056  1.00  0.00     0.310 C 
ATOM      9  O   UNL     1      -4.522   4.082  -4.474  1.00  0.00    -0.252 OA
BRANCH   8  10
ATOM     10  C   UNL     1      -2.161   3.803  -4.770  1.00  0.00     0.161 C 
BRANCH  10  11
ATOM     11  C   UNL     1      -0.735   4.136  -4.346  1.00  0.00     0.000 A 
ATOM     12  C   UNL     1       0.714   1.696  -1.756  1.00  0.00     0.119 A 
ATOM     13  C   UNL     1       1.975   2.283  -1.686  1.00  0.00     0.048 A 
ATOM     14  C   UNL     1      -0.280   2.257  -2.570  1.00  0.00     0.057 A 
ATOM     15  C   UNL     1       2.274   3.432  -2.430  1.00  0.00     0.030 A 
ATOM     16  C   UNL     1       0.003   3.393  -3.357  1.00  0.00     0.008 A 
ATOM     17  C   UNL     1       1.276   3.944  -3.269  1.00  0.00     0.046 A 
ATOM     18  N   UNL     1       1.309   5.007  -4.133  1.00  0.00    -0.352 N 
ATOM     19  C   UNL     1       0.189   5.025  -4.943  1.00  0.00     0.093 A 
ATOM     20  H   UNL     1       2.035   5.671  -4.172  1.00  0.00     0.167 HD
BRANCH  12  21
ATOM     21  O   UNL     1       0.349   0.529  -1.139  1.00  0.00    -0.497 OA
ATOM     22  C   UNL     1       1.047   0.199   0.055  1.00  0.00     0.278 C 
ENDBRANCH  12  21
BRANCH  19  23
ATOM     23  C   UNL     1       0.034   5.863  -6.141  1.00  0.00     0.227 C 
ATOM     24  O   UNL     1      -0.969   5.795  -6.850  1.00  0.00    -0.285 OA
BRANCH  23  25
ATOM     25  C   UNL     1       1.080   6.875  -6.547  1.00  0.00     0.113 A 
ATOM     26  C   UNL     1       2.440   6.581  -6.656  1.00  0.00     0.036 A 
ATOM     27  N   UNL     1       0.583   8.107  -6.843  1.00  0.00    -0.253 NA
ATOM     28  C   UNL     1       3.326   7.603  -7.044  1.00  0.00    -0.047 A 
ATOM     29  C   UNL     1       1.450   9.063  -7.236  1.00  0.00     0.112 A 
ATOM     30  C   UNL     1       4.806   7.382  -7.164  1.00  0.00     0.044 C 
ATOM     31  C   UNL     1       2.814   8.874  -7.314  1.00  0.00     0.023 A 
ENDBRANCH  23  25
ENDBRANCH  19  23
ENDBRANCH  10  11
ENDBRANCH   8  10
ENDBRANCH   7   8
ENDBRANCH   6   7
ENDBRANCH   5   6
ENDBRANCH   4   5
ENDBRANCH   3   4
ENDBRANCH   2   3
ENDBRANCH   1   2
BRANCH   1  32
ATOM     32  C   UNL     1      -1.312   8.950  -1.663  1.00  0.00     0.188 C 
BRANCH  32  33
ATOM     33  C   UNL     1      -1.669  10.187  -2.493  1.00  0.00     0.188 C 
BRANCH  33  34
ATOM     34  O   UNL     1      -1.382  10.031  -3.876  1.00  0.00    -0.376 OA
BRANCH  34  35
ATOM     35  C   UNL     1      -0.165  10.546  -4.390  1.00  0.00     0.202 C 
BRANCH  35  36
ATOM     36  C   UNL     1       1.138   9.829  -3.992  1.00  0.00     0.261 C 
BRANCH  36  37
ATOM     37  O   UNL     1       1.454   9.839  -2.600  1.00  0.00    -0.460 OA
BRANCH  37  38
ATOM     38  C   UNL     1       1.568  11.046  -2.013  1.00  0.00     0.338 C 
ATOM     39  O   UNL     1       1.557  12.137  -2.553  1.00  0.00    -0.246 OA
BRANCH  38  40
ATOM     40  C   UNL     1       1.463  10.805  -0.567  1.00  0.00     0.060 A 
ATOM     41  C   UNL     1       0.412  11.415   0.127  1.00  0.00     0.016 A 
ATOM     42  C   UNL     1       2.346   9.931   0.075  1.00  0.00     0.016 A 
ATOM     43  C   UNL     1       0.253  11.169   1.481  1.00  0.00     0.010 A 
ATOM     44  C   UNL     1       2.208   9.713   1.443  1.00  0.00     0.010 A 
ATOM     45  C   UNL     1       1.182  10.362   2.149  1.00  0.00    -0.014 A 
BRANCH  45  46
ATOM     46  C   UNL     1       1.220  10.427   3.621  1.00  0.00     0.031 A 
ATOM     47  C   UNL     1       2.145  11.436   4.239  1.00  0.00     0.074 A 
ATOM     48  C   UNL     1       0.400   9.666   4.362  1.00  0.00     0.049 A 
ATOM     49  N   UNL     1       2.352  11.711   5.496  1.00  0.00    -0.248 NA
ATOM     50  C   UNL     1       2.946  12.250   3.304  1.00  0.00     0.031 C 
ATOM     51  C   UNL     1      -0.565   8.702   3.835  1.00  0.00     0.029 A 
ATOM     52  N   UNL     1       0.245   9.594   5.720  1.00  0.00    -0.354 N 
ATOM     53  C   UNL     1       3.302  12.726   5.505  1.00  0.00     0.074 A 
ATOM     54  C   UNL     1       3.659  12.995   4.133  1.00  0.00     0.031 C 
ATOM     55  C   UNL     1      -1.211   8.127   4.865  1.00  0.00     0.029 A 
ATOM     56  C   UNL     1      -0.683   8.662   6.117  1.00  0.00     0.049 A 
ATOM     57  H   UNL     1       0.750  10.155   6.351  1.00  0.00     0.167 HD
ATOM     58  C   UNL     1       3.819  13.378   6.570  1.00  0.00     0.037 A 
ATOM     59  C   UNL     1      -1.042   8.282   7.358  1.00  0.00     0.037 A 
ATOM     60  C   UNL     1       3.451  13.081   7.928  1.00  0.00     0.049 A 
ATOM     61  C   UNL     1      -0.400   8.976   8.533  1.00  0.00     0.074 A 
ATOM     62  C   UNL     1       3.908  13.665   9.093  1.00  0.00     0.029 A 
ATOM     63  N   UNL     1       2.536  12.102   8.298  1.00  0.00    -0.354 N 
ATOM     64  N   UNL     1       0.492   9.941   8.534  1.00  0.00    -0.248 NA
ATOM     65  C   UNL     1      -0.814   8.538   9.870  1.00  0.00     0.031 C 
ATOM     66  C   UNL     1       3.312  13.001  10.171  1.00  0.00     0.029 A 
ATOM     67  C   UNL     1       2.433  12.048   9.676  1.00  0.00     0.049 A 
ATOM     68  H   UNL     1       2.035  11.532   7.671  1.00  0.00     0.167 HD
ATOM     69  C   UNL     1       0.725  10.245   9.871  1.00  0.00     0.074 A 
ATOM     70  C   UNL     1      -0.132   9.369  10.647  1.00  0.00     0.031 C 
ATOM     71  C   UNL     1       1.566  11.162  10.413  1.00  0.00     0.037 A 
BRANCH  58  72
ATOM     72  C   UNL     1       4.857  14.433   6.304  1.00  0.00     0.058 A 
ATOM     73  C   UNL     1       4.539  15.654   5.688  1.00  0.00     0.135 A 
ATOM     74  C   UNL     1       6.194  14.219   6.676  1.00  0.00     0.135 A 
ATOM     75  F   UNL     1       3.282  15.901   5.283  1.00  0.00    -0.206 F 
ATOM     76  C   UNL     1       5.512  16.615   5.429  1.00  0.00     0.059 A 
ATOM     77  C   UNL     1       7.178  15.178   6.454  1.00  0.00     0.059 A 
ATOM     78  F   UNL     1       6.559  13.064   7.254  1.00  0.00    -0.206 F 
ATOM     79  C   UNL     1       6.829  16.368   5.818  1.00  0.00     0.060 A 
BRANCH  79  80
ATOM     80  S   UNL     1       8.078  17.627   5.483  1.00  0.00     0.124 S 
ATOM     81  O   UNL     1       8.203  17.536   4.032  1.00  0.00    -0.237 OA
ATOM     82  O   UNL     1       7.441  18.839   5.989  1.00  0.00    -0.237 OA
ATOM     83  O   UNL     1       9.238  17.168   6.242  1.00  0.00    -0.744 OA
ENDBRANCH  79  80
ENDBRANCH  58  72
BRANCH  59  84
ATOM     84  C   UNL     1      -2.041   7.195   7.547  1.00  0.00     0.058 A 
ATOM     85  C   UNL     1      -3.305   7.450   8.097  1.00  0.00     0.135 A 
ATOM     86  C   UNL     1      -1.749   5.873   7.171  1.00  0.00     0.135 A 
ATOM     87  F   UNL     1      -3.631   8.694   8.480  1.00  0.00    -0.206 F 
ATOM     88  C   UNL     1      -4.239   6.434   8.283  1.00  0.00     0.059 A 
ATOM     89  C   UNL     1      -2.676   4.846   7.320  1.00  0.00     0.059 A 
ATOM     90  F   UNL     1      -0.557   5.575   6.630  1.00  0.00    -0.206 F 
ATOM     91  C   UNL     1      -3.915   5.135   7.887  1.00  0.00     0.060 A 
BRANCH  91  92
ATOM     92  S   UNL     1      -5.149   3.832   8.095  1.00  0.00     0.124 S 
ATOM     93  O   UNL     1      -5.163   3.670   9.544  1.00  0.00    -0.237 OA
ATOM     94  O   UNL     1      -6.338   4.442   7.508  1.00  0.00    -0.237 OA
ATOM     95  O   UNL     1      -4.588   2.715   7.341  1.00  0.00    -0.744 OA
ENDBRANCH  91  92
ENDBRANCH  59  84
BRANCH  71  96
ATOM     96  C   UNL     1       1.569  11.287  11.912  1.00  0.00     0.058 A 
ATOM     97  C   UNL     1       2.123  10.296  12.736  1.00  0.00     0.135 A 
ATOM     98  C   UNL     1       1.054  12.441  12.525  1.00  0.00     0.135 A 
ATOM     99  F   UNL     1       2.626   9.173  12.199  1.00  0.00    -0.206 F 
ATOM    100  C   UNL     1       2.134  10.429  14.120  1.00  0.00     0.059 A 
ATOM    101  C   UNL     1       1.087  12.611  13.904  1.00  0.00     0.059 A 
ATOM    102  F   UNL     1       0.528  13.427  11.780  1.00  0.00    -0.206 F 
ATOM    103  C   UNL     1       1.615  11.591  14.694  1.00  0.00     0.060 A 
BRANCH 103 104
ATOM    104  S   UNL     1       1.656  11.759  16.490  1.00  0.00     0.124 S 
ATOM    105  O   UNL     1       0.617  10.819  16.896  1.00  0.00    -0.237 OA
ATOM    106  O   UNL     1       3.026  11.368  16.808  1.00  0.00    -0.237 OA
ATOM    107  O   UNL     1       1.346  13.169  16.706  1.00  0.00    -0.744 OA
ENDBRANCH 103 104
ENDBRANCH  71  96
ENDBRANCH  45  46
ENDBRANCH  38  40
ENDBRANCH  37  38
ENDBRANCH  36  37
ENDBRANCH  35  36
ENDBRANCH  34  35
ENDBRANCH  33  34
ENDBRANCH  32  33
ENDBRANCH   1  32
TORSDOF 27
