REMARK SMILES CC[C@@](C)(NC(=O)Nc1cccc(C[NH2+]C)c1)C(=O)OCCOCCOCCOCCOC(=O)c1ccc(-c2c3nc(c(-c4c(F)cc(S(=O)(=O)[O-])cc4F)c4ccc([nH]4)c(-c4c(F)cc(S(=O)(=O)[O-])cc4F)c4nc(c(-c5c(F)cc(S(=O)(=O)[O-])cc5F)c5ccc2[nH]5)C=C4)C=C3)cc1
REMARK SMILES IDX 25 1 24 2 23 3 22 4 21 5 20 6 18 7 19 8 3 9 4 10 2 11 1 12
REMARK SMILES IDX 5 13 6 14 7 16 8 17 9 19 10 20 17 21 11 22 13 23 12 24 14 25
REMARK SMILES IDX 15 26 16 27 26 30 27 31 28 32 29 33 30 34 31 35 32 36 33 37
REMARK SMILES IDX 34 38 35 39 36 40 100 41 37 42 99 43 38 44 39 45 40 46 93 47
REMARK SMILES IDX 41 48 98 49 92 50 94 51 42 52 97 53 91 54 90 55 43 57 77 58
REMARK SMILES IDX 56 59 76 60 57 61 60 62 75 63 95 64 58 65 59 66 74 68 96 69
REMARK SMILES IDX 61 70 44 71 45 72 54 73 46 74 47 75 53 76 55 77 48 78 49 79
REMARK SMILES IDX 50 80 51 81 52 82 78 83 79 84 88 85 80 86 81 87 87 88 89 89
REMARK SMILES IDX 82 90 83 91 84 92 85 93 86 94 62 95 63 96 72 97 64 98 65 99
REMARK SMILES IDX 71 100 73 101 66 102 67 103 68 104 69 105 70 106
REMARK H PARENT 5 15 8 18 15 28 15 29 94 56 60 67
REMARK Flexibility Score: inf
ROOT
ATOM      1  C   UNL     1       3.381   4.518   1.146  1.00  0.00     0.188 C 
ENDROOT
BRANCH   1   2
ATOM      2  C   UNL     1       4.531   3.645   0.534  1.00  0.00     0.188 C 
BRANCH   2   3
ATOM      3  O   UNL     1       4.401   3.730  -0.911  1.00  0.00    -0.376 OA
BRANCH   3   4
ATOM      4  C   UNL     1       4.941   2.960  -2.000  1.00  0.00     0.202 C 
BRANCH   4   5
ATOM      5  C   UNL     1       3.992   2.946  -3.389  1.00  0.00     0.261 C 
BRANCH   5   6
ATOM      6  O   UNL     1       2.506   2.711  -3.269  1.00  0.00    -0.462 OA
BRANCH   6   7
ATOM      7  C   UNL     1       1.530   1.780  -3.649  1.00  0.00     0.331 C 
ATOM      8  O   UNL     1       1.643   1.033  -4.617  1.00  0.00    -0.249 OA
BRANCH   7   9
ATOM      9  C   UNL     1       0.255   1.634  -2.499  1.00  0.00     0.136 C 
ATOM     10  C   UNL     1      -1.044   1.495  -3.296  1.00  0.00     0.047 C 
BRANCH   9  11
ATOM     11  C   UNL     1      -0.043   0.881  -1.109  1.00  0.00     0.037 C 
ATOM     12  C   UNL     1       0.214  -0.567  -0.781  1.00  0.00     0.007 C 
ENDBRANCH   9  11
BRANCH   9  13
ATOM     13  N   UNL     1       0.431   2.935  -1.970  1.00  0.00    -0.322 N 
ATOM     14  C   UNL     1       1.532   3.179  -1.249  1.00  0.00     0.320 C 
ATOM     15  H   UNL     1      -0.238   3.640  -2.128  1.00  0.00     0.166 HD
ATOM     16  O   UNL     1       1.738   4.382  -1.096  1.00  0.00    -0.248 OA
ATOM     17  N   UNL     1       2.425   2.202  -0.817  1.00  0.00    -0.308 N 
ATOM     18  H   UNL     1       2.877   2.610  -0.044  1.00  0.00     0.171 HD
BRANCH  17  19
ATOM     19  C   UNL     1       3.032   0.869  -0.933  1.00  0.00     0.043 A 
ATOM     20  C   UNL     1       3.884   0.405   0.086  1.00  0.00     0.026 A 
ATOM     21  C   UNL     1       3.067   0.028  -2.041  1.00  0.00     0.035 A 
ATOM     22  C   UNL     1       4.703  -0.745  -0.037  1.00  0.00     0.003 A 
ATOM     23  C   UNL     1       3.709  -1.225  -2.131  1.00  0.00     0.008 A 
ATOM     24  C   UNL     1       4.590  -1.585  -1.136  1.00  0.00     0.010 A 
BRANCH  23  25
ATOM     25  C   UNL     1       3.333  -2.114  -3.296  1.00  0.00     0.297 C 
BRANCH  25  26
ATOM     26  N   UNL     1       4.136  -1.897  -4.494  1.00  0.00    -0.345 N 
ATOM     27  C   UNL     1       3.403  -2.392  -5.663  1.00  0.00     0.331 C 
ATOM     28  H   UNL     1       5.020  -2.400  -4.407  1.00  0.00     0.346 HD
ATOM     29  H   UNL     1       4.325  -0.900  -4.604  1.00  0.00     0.346 HD
ENDBRANCH  25  26
ENDBRANCH  23  25
ENDBRANCH  17  19
ENDBRANCH   9  13
ENDBRANCH   7   9
ENDBRANCH   6   7
ENDBRANCH   5   6
ENDBRANCH   4   5
ENDBRANCH   3   4
ENDBRANCH   2   3
ENDBRANCH   1   2
BRANCH   1  30
ATOM     30  O   UNL     1       3.177   5.801   0.570  1.00  0.00    -0.377 OA
BRANCH  30  31
ATOM     31  C   UNL     1       4.212   6.294  -0.264  1.00  0.00     0.188 C 
BRANCH  31  32
ATOM     32  C   UNL     1       5.532   6.459   0.491  1.00  0.00     0.188 C 
BRANCH  32  33
ATOM     33  O   UNL     1       5.541   7.019   1.797  1.00  0.00    -0.376 OA
BRANCH  33  34
ATOM     34  C   UNL     1       4.345   7.501   2.381  1.00  0.00     0.202 C 
BRANCH  34  35
ATOM     35  C   UNL     1       3.560   8.659   1.726  1.00  0.00     0.261 C 
BRANCH  35  36
ATOM     36  O   UNL     1       3.826   9.031   0.365  1.00  0.00    -0.460 OA
BRANCH  36  37
ATOM     37  C   UNL     1       5.083   9.415   0.019  1.00  0.00     0.338 C 
ATOM     38  O   UNL     1       5.999   9.647   0.763  1.00  0.00    -0.246 OA
BRANCH  37  39
ATOM     39  C   UNL     1       5.206   9.310  -1.473  1.00  0.00     0.060 A 
ATOM     40  C   UNL     1       6.323   8.661  -2.031  1.00  0.00     0.016 A 
ATOM     41  C   UNL     1       4.235   9.852  -2.316  1.00  0.00     0.016 A 
ATOM     42  C   UNL     1       6.503   8.598  -3.413  1.00  0.00     0.010 A 
ATOM     43  C   UNL     1       4.447   9.851  -3.699  1.00  0.00     0.010 A 
ATOM     44  C   UNL     1       5.611   9.276  -4.244  1.00  0.00    -0.014 A 
BRANCH  44  45
ATOM     45  C   UNL     1       6.056   9.695  -5.595  1.00  0.00     0.031 A 
ATOM     46  C   UNL     1       6.656  11.072  -5.716  1.00  0.00     0.074 A 
ATOM     47  C   UNL     1       5.929   8.911  -6.677  1.00  0.00     0.049 A 
ATOM     48  N   UNL     1       6.953  11.762  -6.783  1.00  0.00    -0.248 NA
ATOM     49  C   UNL     1       6.944  11.767  -4.449  1.00  0.00     0.031 C 
ATOM     50  C   UNL     1       5.436   7.537  -6.674  1.00  0.00     0.029 A 
ATOM     51  N   UNL     1       6.175   9.184  -8.000  1.00  0.00    -0.354 N 
ATOM     52  C   UNL     1       7.419  12.987  -6.318  1.00  0.00     0.074 A 
ATOM     53  C   UNL     1       7.359  12.948  -4.875  1.00  0.00     0.031 C 
ATOM     54  C   UNL     1       5.366   7.101  -7.944  1.00  0.00     0.029 A 
ATOM     55  C   UNL     1       5.761   8.184  -8.847  1.00  0.00     0.049 A 
ATOM     56  H   UNL     1       6.605  10.013  -8.310  1.00  0.00     0.167 HD
ATOM     57  C   UNL     1       7.849  14.053  -7.032  1.00  0.00     0.037 A 
ATOM     58  C   UNL     1       5.659   8.170 -10.192  1.00  0.00     0.037 A 
ATOM     59  C   UNL     1       7.901  14.075  -8.469  1.00  0.00     0.049 A 
ATOM     60  C   UNL     1       6.079   9.387 -10.979  1.00  0.00     0.074 A 
ATOM     61  C   UNL     1       8.344  15.089  -9.297  1.00  0.00     0.029 A 
ATOM     62  N   UNL     1       7.477  13.040  -9.291  1.00  0.00    -0.354 N 
ATOM     63  N   UNL     1       6.530  10.539 -10.538  1.00  0.00    -0.248 NA
ATOM     64  C   UNL     1       5.976   9.307 -12.443  1.00  0.00     0.031 C 
ATOM     65  C   UNL     1       8.125  14.694 -10.620  1.00  0.00     0.029 A 
ATOM     66  C   UNL     1       7.617  13.404 -10.618  1.00  0.00     0.049 A 
ATOM     67  H   UNL     1       7.129  12.174  -8.976  1.00  0.00     0.167 HD
ATOM     68  C   UNL     1       6.792  11.308 -11.668  1.00  0.00     0.074 A 
ATOM     69  C   UNL     1       6.449  10.491 -12.814  1.00  0.00     0.031 C 
ATOM     70  C   UNL     1       7.281  12.571 -11.750  1.00  0.00     0.037 A 
BRANCH  57  71
ATOM     71  C   UNL     1       8.227  15.294  -6.270  1.00  0.00     0.058 A 
ATOM     72  C   UNL     1       9.355  15.349  -5.435  1.00  0.00     0.135 A 
ATOM     73  C   UNL     1       7.433  16.448  -6.370  1.00  0.00     0.135 A 
ATOM     74  F   UNL     1      10.140  14.270  -5.285  1.00  0.00    -0.206 F 
ATOM     75  C   UNL     1       9.655  16.487  -4.692  1.00  0.00     0.059 A 
ATOM     76  C   UNL     1       7.734  17.609  -5.665  1.00  0.00     0.059 A 
ATOM     77  F   UNL     1       6.340  16.453  -7.150  1.00  0.00    -0.206 F 
ATOM     78  C   UNL     1       8.835  17.611  -4.811  1.00  0.00     0.060 A 
BRANCH  78  79
ATOM     79  S   UNL     1       9.223  19.072  -3.824  1.00  0.00     0.124 S 
ATOM     80  O   UNL     1       8.855  18.625  -2.485  1.00  0.00    -0.237 OA
ATOM     81  O   UNL     1      10.653  19.239  -4.065  1.00  0.00    -0.237 OA
ATOM     82  O   UNL     1       8.369  20.107  -4.396  1.00  0.00    -0.744 OA
ENDBRANCH  78  79
ENDBRANCH  57  71
BRANCH  58  83
ATOM     83  C   UNL     1       5.093   6.971 -10.867  1.00  0.00     0.058 A 
ATOM     84  C   UNL     1       5.897   6.117 -11.634  1.00  0.00     0.135 A 
ATOM     85  C   UNL     1       3.739   6.628 -10.712  1.00  0.00     0.135 A 
ATOM     86  F   UNL     1       7.193   6.409 -11.828  1.00  0.00    -0.206 F 
ATOM     87  C   UNL     1       5.385   4.961 -12.216  1.00  0.00     0.059 A 
ATOM     88  C   UNL     1       3.210   5.465 -11.261  1.00  0.00     0.059 A 
ATOM     89  F   UNL     1       2.927   7.410  -9.984  1.00  0.00    -0.206 F 
ATOM     90  C   UNL     1       4.042   4.636 -12.011  1.00  0.00     0.060 A 
BRANCH  90  91
ATOM     91  S   UNL     1       3.415   3.083 -12.688  1.00  0.00     0.124 S 
ATOM     92  O   UNL     1       3.410   3.365 -14.119  1.00  0.00    -0.237 OA
ATOM     93  O   UNL     1       4.417   2.126 -12.229  1.00  0.00    -0.237 OA
ATOM     94  O   UNL     1       2.101   2.950 -12.066  1.00  0.00    -0.744 OA
ENDBRANCH  90  91
ENDBRANCH  58  83
BRANCH  70  95
ATOM     95  C   UNL     1       7.532  13.149 -13.117  1.00  0.00     0.058 A 
ATOM     96  C   UNL     1       6.486  13.575 -13.949  1.00  0.00     0.135 A 
ATOM     97  C   UNL     1       8.849  13.385 -13.548  1.00  0.00     0.135 A 
ATOM     98  F   UNL     1       5.209  13.368 -13.590  1.00  0.00    -0.206 F 
ATOM     99  C   UNL     1       6.737  14.213 -15.161  1.00  0.00     0.059 A 
ATOM    100  C   UNL     1       9.123  14.046 -14.740  1.00  0.00     0.059 A 
ATOM    101  F   UNL     1       9.887  13.007 -12.785  1.00  0.00    -0.206 F 
ATOM    102  C   UNL     1       8.059  14.455 -15.542  1.00  0.00     0.060 A 
BRANCH 102 103
ATOM    103  S   UNL     1       8.367  15.351 -17.079  1.00  0.00     0.124 S 
ATOM    104  O   UNL     1       7.987  14.360 -18.080  1.00  0.00    -0.237 OA
ATOM    105  O   UNL     1       7.476  16.500 -16.953  1.00  0.00    -0.237 OA
ATOM    106  O   UNL     1       9.793  15.661 -17.014  1.00  0.00    -0.744 OA
ENDBRANCH 102 103
ENDBRANCH  70  95
ENDBRANCH  44  45
ENDBRANCH  37  39
ENDBRANCH  36  37
ENDBRANCH  35  36
ENDBRANCH  34  35
ENDBRANCH  33  34
ENDBRANCH  32  33
ENDBRANCH  31  32
ENDBRANCH  30  31
ENDBRANCH   1  30
TORSDOF 28
