REMARK SMILES CC[NH+]1CCC2(CC1)OC[C@H](C(=O)OCCOCCOCCOCCOC(=O)c1ccc(-c3c4nc(c(-c5c(F)cc(S(=O)(=O)[O-])cc5F)c5ccc([nH]5)c(-c5c(F)cc(S(=O)(=O)[O-])cc5F)c5nc(c(-c6c(F)cc(S(=O)(=O)[O-])cc6F)c6ccc3[nH]6)C=C5)C=C4)cc1)N2C(=O)c1ccc(F)cc1
REMARK SMILES IDX 21 1 20 2 19 3 18 4 17 5 16 6 15 7 14 8 12 9 13 10 11 11
REMARK SMILES IDX 3 12 4 13 8 14 5 16 7 17 6 18 9 19 95 20 10 21 2 22 1 23
REMARK SMILES IDX 96 24 97 25 98 26 99 27 104 28 100 29 103 30 101 31 102 32
REMARK SMILES IDX 22 33 23 34 24 35 25 36 26 37 27 38 28 39 29 40 30 41 94 42
REMARK SMILES IDX 31 43 93 44 32 45 33 46 34 47 87 48 35 49 92 50 86 51 88 52
REMARK SMILES IDX 36 53 91 54 85 55 84 56 37 58 71 59 50 60 70 61 51 62 54 63
REMARK SMILES IDX 69 64 89 65 52 66 53 67 68 69 90 70 55 71 38 72 39 73 48 74
REMARK SMILES IDX 40 75 41 76 47 77 49 78 42 79 43 80 44 81 45 82 46 83 72 84
REMARK SMILES IDX 73 85 82 86 74 87 75 88 81 89 83 90 76 91 77 92 78 93 79 94
REMARK SMILES IDX 80 95 56 96 57 97 66 98 58 99 59 100 65 101 67 102 60 103
REMARK SMILES IDX 61 104 62 105 63 106 64 107
REMARK H PARENT 3 15 88 57 54 68
REMARK Flexibility Score: inf
ROOT
ATOM      1  C   UNL     1       2.868   9.760   5.540  1.00  0.00     0.188 C 
ENDROOT
BRANCH   1   2
ATOM      2  O   UNL     1       2.705   8.354   5.715  1.00  0.00    -0.377 OA
BRANCH   2   3
ATOM      3  C   UNL     1       3.349   7.489   4.798  1.00  0.00     0.188 C 
BRANCH   3   4
ATOM      4  C   UNL     1       2.650   7.409   3.428  1.00  0.00     0.188 C 
BRANCH   4   5
ATOM      5  O   UNL     1       1.736   8.469   3.188  1.00  0.00    -0.376 OA
BRANCH   5   6
ATOM      6  C   UNL     1       0.367   8.381   3.547  1.00  0.00     0.202 C 
BRANCH   6   7
ATOM      7  C   UNL     1      -0.127   7.824   4.902  1.00  0.00     0.261 C 
BRANCH   7   8
ATOM      8  O   UNL     1       0.501   6.645   5.419  1.00  0.00    -0.462 OA
BRANCH   8   9
ATOM      9  C   UNL     1       0.518   5.584   4.582  1.00  0.00     0.331 C 
ATOM     10  O   UNL     1      -0.018   5.585   3.480  1.00  0.00    -0.250 OA
BRANCH   9  11
ATOM     11  C   UNL     1       1.381   4.455   5.154  1.00  0.00     0.224 C 
ATOM     12  N   UNL     1       0.421   1.113   1.519  1.00  0.00    -0.335 N 
ATOM     13  C   UNL     1      -0.090   2.466   1.676  1.00  0.00     0.267 C 
ATOM     14  C   UNL     1       1.175   0.509   2.619  1.00  0.00     0.267 C 
ATOM     15  H   UNL     1       1.172   1.300   0.855  1.00  0.00     0.348 HD
ATOM     16  C   UNL     1      -0.547   2.740   3.075  1.00  0.00     0.120 C 
ATOM     17  C   UNL     1       0.959   1.040   4.029  1.00  0.00     0.120 C 
ATOM     18  C   UNL     1       0.587   2.511   4.080  1.00  0.00     0.155 C 
ATOM     19  O   UNL     1      -0.089   2.677   5.375  1.00  0.00    -0.352 OA
ATOM     20  N   UNL     1       1.707   3.481   4.123  1.00  0.00    -0.293 N 
ATOM     21  C   UNL     1       0.615   3.650   6.151  1.00  0.00     0.200 C 
BRANCH  12  22
ATOM     22  C   UNL     1      -0.500   0.191   0.875  1.00  0.00     0.258 C 
ATOM     23  C   UNL     1       0.244  -0.489  -0.264  1.00  0.00     0.071 C 
ENDBRANCH  12  22
BRANCH  20  24
ATOM     24  C   UNL     1       2.930   3.660   3.471  1.00  0.00     0.256 C 
ATOM     25  O   UNL     1       3.744   4.518   3.824  1.00  0.00    -0.269 OA
BRANCH  24  26
ATOM     26  C   UNL     1       3.408   2.847   2.344  1.00  0.00     0.040 A 
ATOM     27  C   UNL     1       4.323   1.809   2.572  1.00  0.00     0.017 A 
ATOM     28  C   UNL     1       3.091   3.212   1.030  1.00  0.00     0.017 A 
ATOM     29  C   UNL     1       4.737   1.006   1.502  1.00  0.00     0.040 A 
ATOM     30  C   UNL     1       3.481   2.394  -0.033  1.00  0.00     0.040 A 
ATOM     31  C   UNL     1       4.271   1.278   0.217  1.00  0.00     0.123 A 
ATOM     32  F   UNL     1       4.591   0.455  -0.790  1.00  0.00    -0.207 F 
ENDBRANCH  24  26
ENDBRANCH  20  24
ENDBRANCH   9  11
ENDBRANCH   8   9
ENDBRANCH   7   8
ENDBRANCH   6   7
ENDBRANCH   5   6
ENDBRANCH   4   5
ENDBRANCH   3   4
ENDBRANCH   2   3
ENDBRANCH   1   2
BRANCH   1  33
ATOM     33  C   UNL     1       3.414  10.383   4.227  1.00  0.00     0.188 C 
BRANCH  33  34
ATOM     34  O   UNL     1       4.342   9.585   3.509  1.00  0.00    -0.376 OA
BRANCH  34  35
ATOM     35  C   UNL     1       5.720   9.895   3.568  1.00  0.00     0.202 C 
BRANCH  35  36
ATOM     36  C   UNL     1       6.412   9.739   4.929  1.00  0.00     0.261 C 
BRANCH  36  37
ATOM     37  O   UNL     1       5.805  10.446   6.020  1.00  0.00    -0.460 OA
BRANCH  37  38
ATOM     38  C   UNL     1       5.784  11.793   5.934  1.00  0.00     0.338 C 
ATOM     39  O   UNL     1       6.271  12.476   5.045  1.00  0.00    -0.246 OA
BRANCH  38  40
ATOM     40  C   UNL     1       4.884  12.306   6.986  1.00  0.00     0.060 A 
ATOM     41  C   UNL     1       3.773  13.071   6.607  1.00  0.00     0.016 A 
ATOM     42  C   UNL     1       5.115  12.013   8.333  1.00  0.00     0.016 A 
ATOM     43  C   UNL     1       2.912  13.579   7.576  1.00  0.00     0.010 A 
ATOM     44  C   UNL     1       4.266  12.548   9.306  1.00  0.00     0.010 A 
ATOM     45  C   UNL     1       3.183  13.363   8.933  1.00  0.00    -0.014 A 
BRANCH  45  46
ATOM     46  C   UNL     1       2.444  14.153   9.947  1.00  0.00     0.031 A 
ATOM     47  C   UNL     1       3.090  15.398  10.493  1.00  0.00     0.074 A 
ATOM     48  C   UNL     1       1.201  13.808  10.329  1.00  0.00     0.049 A 
ATOM     49  N   UNL     1       2.635  16.255  11.368  1.00  0.00    -0.248 NA
ATOM     50  C   UNL     1       4.433  15.718   9.979  1.00  0.00     0.031 C 
ATOM     51  C   UNL     1       0.458  12.649   9.840  1.00  0.00     0.029 A 
ATOM     52  N   UNL     1       0.345  14.408  11.218  1.00  0.00    -0.354 N 
ATOM     53  C   UNL     1       3.631  17.214  11.511  1.00  0.00     0.074 A 
ATOM     54  C   UNL     1       4.730  16.814  10.660  1.00  0.00     0.031 C 
ATOM     55  C   UNL     1      -0.745  12.617  10.442  1.00  0.00     0.029 A 
ATOM     56  C   UNL     1      -0.843  13.736  11.378  1.00  0.00     0.049 A 
ATOM     57  H   UNL     1       0.562  15.240  11.697  1.00  0.00     0.167 HD
ATOM     58  C   UNL     1       3.625  18.333  12.274  1.00  0.00     0.037 A 
ATOM     59  C   UNL     1      -1.882  13.988  12.200  1.00  0.00     0.037 A 
ATOM     60  C   UNL     1       2.529  18.721  13.123  1.00  0.00     0.049 A 
ATOM     61  C   UNL     1      -1.836  15.203  13.093  1.00  0.00     0.074 A 
ATOM     62  C   UNL     1       2.418  19.844  13.925  1.00  0.00     0.029 A 
ATOM     63  N   UNL     1       1.359  17.994  13.292  1.00  0.00    -0.354 N 
ATOM     64  N   UNL     1      -0.900  16.118  13.198  1.00  0.00    -0.248 NA
ATOM     65  C   UNL     1      -2.992  15.423  13.973  1.00  0.00     0.031 C 
ATOM     66  C   UNL     1       1.209  19.764  14.625  1.00  0.00     0.029 A 
ATOM     67  C   UNL     1       0.535  18.627  14.210  1.00  0.00     0.049 A 
ATOM     68  H   UNL     1       1.146  17.152  12.829  1.00  0.00     0.167 HD
ATOM     69  C   UNL     1      -1.366  17.034  14.139  1.00  0.00     0.074 A 
ATOM     70  C   UNL     1      -2.676  16.574  14.551  1.00  0.00     0.031 C 
ATOM     71  C   UNL     1      -0.765  18.152  14.619  1.00  0.00     0.037 A 
BRANCH  58  72
ATOM     72  C   UNL     1       4.855  19.200  12.249  1.00  0.00     0.058 A 
ATOM     73  C   UNL     1       5.210  19.957  11.121  1.00  0.00     0.135 A 
ATOM     74  C   UNL     1       5.674  19.301  13.386  1.00  0.00     0.135 A 
ATOM     75  F   UNL     1       4.476  19.884   9.999  1.00  0.00    -0.206 F 
ATOM     76  C   UNL     1       6.344  20.764  11.112  1.00  0.00     0.059 A 
ATOM     77  C   UNL     1       6.795  20.125  13.410  1.00  0.00     0.059 A 
ATOM     78  F   UNL     1       5.387  18.595  14.491  1.00  0.00    -0.206 F 
ATOM     79  C   UNL     1       7.129  20.844  12.264  1.00  0.00     0.060 A 
BRANCH  79  80
ATOM     80  S   UNL     1       8.588  21.906  12.241  1.00  0.00     0.124 S 
ATOM     81  O   UNL     1       9.474  21.165  11.348  1.00  0.00    -0.237 OA
ATOM     82  O   UNL     1       8.053  23.155  11.709  1.00  0.00    -0.237 OA
ATOM     83  O   UNL     1       9.001  21.949  13.640  1.00  0.00    -0.744 OA
ENDBRANCH  79  80
ENDBRANCH  58  72
BRANCH  59  84
ATOM     84  C   UNL     1      -3.051  13.067  12.229  1.00  0.00     0.058 A 
ATOM     85  C   UNL     1      -4.315  13.476  11.779  1.00  0.00     0.135 A 
ATOM     86  C   UNL     1      -2.927  11.757  12.720  1.00  0.00     0.135 A 
ATOM     87  F   UNL     1      -4.491  14.722  11.315  1.00  0.00    -0.206 F 
ATOM     88  C   UNL     1      -5.417  12.627  11.828  1.00  0.00     0.059 A 
ATOM     89  C   UNL     1      -4.006  10.880  12.751  1.00  0.00     0.059 A 
ATOM     90  F   UNL     1      -1.739  11.312  13.158  1.00  0.00    -0.206 F 
ATOM     91  C   UNL     1      -5.251  11.328  12.311  1.00  0.00     0.060 A 
BRANCH  91  92
ATOM     92  S   UNL     1      -6.675  10.217  12.318  1.00  0.00     0.124 S 
ATOM     93  O   UNL     1      -7.486  10.785  13.388  1.00  0.00    -0.237 OA
ATOM     94  O   UNL     1      -7.195  10.382  10.964  1.00  0.00    -0.237 OA
ATOM     95  O   UNL     1      -6.082   8.913  12.599  1.00  0.00    -0.744 OA
ENDBRANCH  91  92
ENDBRANCH  59  84
BRANCH  71  96
ATOM     96  C   UNL     1      -1.532  18.969  15.627  1.00  0.00     0.058 A 
ATOM     97  C   UNL     1      -1.781  18.500  16.927  1.00  0.00     0.135 A 
ATOM     98  C   UNL     1      -2.011  20.247  15.293  1.00  0.00     0.135 A 
ATOM     99  F   UNL     1      -1.348  17.285  17.301  1.00  0.00    -0.206 F 
ATOM    100  C   UNL     1      -2.519  19.245  17.841  1.00  0.00     0.059 A 
ATOM    101  C   UNL     1      -2.719  21.025  16.203  1.00  0.00     0.059 A 
ATOM    102  F   UNL     1      -1.788  20.756  14.070  1.00  0.00    -0.206 F 
ATOM    103  C   UNL     1      -2.987  20.506  17.469  1.00  0.00     0.060 A 
BRANCH 103 104
ATOM    104  S   UNL     1      -3.950  21.459  18.662  1.00  0.00     0.124 S 
ATOM    105  O   UNL     1      -5.214  20.730  18.669  1.00  0.00    -0.237 OA
ATOM    106  O   UNL     1      -3.145  21.345  19.875  1.00  0.00    -0.237 OA
ATOM    107  O   UNL     1      -3.998  22.794  18.073  1.00  0.00    -0.744 OA
ENDBRANCH 103 104
ENDBRANCH  71  96
ENDBRANCH  45  46
ENDBRANCH  38  40
ENDBRANCH  37  38
ENDBRANCH  36  37
ENDBRANCH  35  36
ENDBRANCH  34  35
ENDBRANCH  33  34
ENDBRANCH   1  33
TORSDOF 26
