REMARK SMILES CC[NH2+][C@@]1(C(=O)OCCOCCOCCOCCOC(=O)c2ccc(-c3c4nc(c(-c5c(F)cc(S(=O)(=O)[O-])cc5F)c5ccc([nH]5)c(-c5c(F)cc(S(=O)(=O)[O-])cc5F)c5nc(c(-c6c(F)cc(S(=O)(=O)[O-])cc6F)c6ccc3[nH]6)C=C5)C=C4)cc2)CCC[C@@H]([N@@H+](C)[C@@H](C)C2CC2)C1
REMARK SMILES IDX 13 1 12 2 11 3 10 4 9 5 8 6 7 7 5 8 6 9 4 10 88 11 99 12
REMARK SMILES IDX 89 13 91 14 90 15 3 16 2 19 1 20 92 21 93 22 94 24 95 25
REMARK SMILES IDX 96 26 97 27 98 28 14 29 15 30 16 31 17 32 18 33 19 34 20 35
REMARK SMILES IDX 21 36 22 37 23 38 87 39 24 40 86 41 25 42 26 43 27 44 80 45
REMARK SMILES IDX 28 46 85 47 79 48 81 49 29 50 84 51 78 52 77 53 30 55 64 56
REMARK SMILES IDX 43 57 63 58 44 59 47 60 62 61 82 62 45 63 46 64 61 66 83 67
REMARK SMILES IDX 48 68 31 69 32 70 41 71 33 72 34 73 40 74 42 75 35 76 36 77
REMARK SMILES IDX 37 78 38 79 39 80 65 81 66 82 75 83 67 84 68 85 74 86 76 87
REMARK SMILES IDX 69 88 70 89 71 90 72 91 73 92 49 93 50 94 59 95 51 96 52 97
REMARK SMILES IDX 58 98 60 99 53 100 54 101 55 102 56 103 57 104
REMARK H PARENT 3 17 3 18 92 23 81 54 47 65
REMARK Flexibility Score: inf
ROOT
ATOM      1  O   UNL     1       2.962   1.822  -5.680  1.00  0.00    -0.377 OA
ENDROOT
BRANCH   1   2
ATOM      2  C   UNL     1       3.489   1.069  -4.610  1.00  0.00     0.188 C 
BRANCH   2   3
ATOM      3  C   UNL     1       3.576  -0.440  -4.845  1.00  0.00     0.188 C 
BRANCH   3   4
ATOM      4  O   UNL     1       3.880  -0.870  -6.150  1.00  0.00    -0.376 OA
BRANCH   4   5
ATOM      5  C   UNL     1       2.902  -0.934  -7.177  1.00  0.00     0.202 C 
BRANCH   5   6
ATOM      6  C   UNL     1       1.409  -0.547  -7.098  1.00  0.00     0.261 C 
BRANCH   6   7
ATOM      7  O   UNL     1       0.933   0.212  -5.983  1.00  0.00    -0.459 OA
BRANCH   7   8
ATOM      8  C   UNL     1       0.337  -0.516  -5.016  1.00  0.00     0.368 C 
ATOM      9  O   UNL     1       0.296  -1.747  -5.036  1.00  0.00    -0.245 OA
BRANCH   8  10
ATOM     10  C   UNL     1      -0.275   0.322  -3.837  1.00  0.00     0.200 C 
ATOM     11  C   UNL     1      -1.796   0.278  -4.079  1.00  0.00     0.081 C 
ATOM     12  C   UNL     1       0.093   1.809  -3.671  1.00  0.00     0.146 C 
ATOM     13  C   UNL     1      -2.185   1.142  -5.293  1.00  0.00     0.013 C 
ATOM     14  C   UNL     1      -0.337   2.835  -4.709  1.00  0.00     0.190 C 
ATOM     15  C   UNL     1      -1.803   2.620  -5.125  1.00  0.00     0.065 C 
BRANCH  10  16
ATOM     16  N   UNL     1       0.115  -0.473  -2.607  1.00  0.00    -0.332 N 
ATOM     17  H   UNL     1      -0.568  -1.223  -2.505  1.00  0.00     0.347 HD
ATOM     18  H   UNL     1       1.076  -0.761  -2.792  1.00  0.00     0.347 HD
BRANCH  16  19
ATOM     19  C   UNL     1       0.190   0.218  -1.327  1.00  0.00     0.257 C 
ATOM     20  C   UNL     1       0.855  -0.658  -0.274  1.00  0.00     0.071 C 
ENDBRANCH  16  19
ENDBRANCH  10  16
BRANCH  14  21
ATOM     21  N   UNL     1       0.103   4.211  -4.292  1.00  0.00    -0.332 N 
ATOM     22  C   UNL     1       0.178   5.075  -5.487  1.00  0.00     0.333 C 
ATOM     23  H   UNL     1       0.985   3.962  -3.845  1.00  0.00     0.348 HD
BRANCH  21  24
ATOM     24  C   UNL     1      -0.490   4.971  -3.157  1.00  0.00     0.184 C 
ATOM     25  C   UNL     1      -2.014   5.034  -3.044  1.00  0.00     0.075 C 
BRANCH  24  26
ATOM     26  C   UNL     1       0.130   4.892  -1.763  1.00  0.00     0.047 C 
ATOM     27  C   UNL     1      -0.172   3.788  -0.774  1.00  0.00     0.010 C 
ATOM     28  C   UNL     1       1.224   3.957  -1.316  1.00  0.00     0.010 C 
ENDBRANCH  24  26
ENDBRANCH  21  24
ENDBRANCH  14  21
ENDBRANCH   8  10
ENDBRANCH   7   8
ENDBRANCH   6   7
ENDBRANCH   5   6
ENDBRANCH   4   5
ENDBRANCH   3   4
ENDBRANCH   2   3
ENDBRANCH   1   2
BRANCH   1  29
ATOM     29  C   UNL     1       3.821   2.212  -6.748  1.00  0.00     0.188 C 
BRANCH  29  30
ATOM     30  C   UNL     1       5.273   1.694  -6.845  1.00  0.00     0.188 C 
BRANCH  30  31
ATOM     31  O   UNL     1       5.948   1.522  -5.610  1.00  0.00    -0.376 OA
BRANCH  31  32
ATOM     32  C   UNL     1       6.755   2.583  -5.122  1.00  0.00     0.202 C 
BRANCH  32  33
ATOM     33  C   UNL     1       6.085   3.942  -4.861  1.00  0.00     0.261 C 
BRANCH  33  34
ATOM     34  O   UNL     1       5.499   4.596  -5.997  1.00  0.00    -0.460 OA
BRANCH  34  35
ATOM     35  C   UNL     1       6.275   4.836  -7.075  1.00  0.00     0.338 C 
ATOM     36  O   UNL     1       7.470   4.619  -7.187  1.00  0.00    -0.246 OA
BRANCH  35  37
ATOM     37  C   UNL     1       5.378   5.229  -8.181  1.00  0.00     0.060 A 
ATOM     38  C   UNL     1       5.275   4.401  -9.307  1.00  0.00     0.016 A 
ATOM     39  C   UNL     1       4.621   6.398  -8.090  1.00  0.00     0.016 A 
ATOM     40  C   UNL     1       4.419   4.747 -10.354  1.00  0.00     0.010 A 
ATOM     41  C   UNL     1       3.789   6.759  -9.153  1.00  0.00     0.010 A 
ATOM     42  C   UNL     1       3.699   5.946 -10.297  1.00  0.00    -0.014 A 
BRANCH  42  43
ATOM     43  C   UNL     1       2.979   6.444 -11.494  1.00  0.00     0.031 A 
ATOM     44  C   UNL     1       3.664   7.456 -12.369  1.00  0.00     0.074 A 
ATOM     45  C   UNL     1       1.737   6.020 -11.788  1.00  0.00     0.049 A 
ATOM     46  N   UNL     1       3.195   8.122 -13.390  1.00  0.00    -0.248 NA
ATOM     47  C   UNL     1       5.068   7.758 -12.043  1.00  0.00     0.031 C 
ATOM     48  C   UNL     1       0.992   5.004 -11.046  1.00  0.00     0.029 A 
ATOM     49  N   UNL     1       0.875   6.412 -12.782  1.00  0.00    -0.354 N 
ATOM     50  C   UNL     1       4.238   8.934 -13.821  1.00  0.00     0.074 A 
ATOM     51  C   UNL     1       5.359   8.690 -12.939  1.00  0.00     0.031 C 
ATOM     52  C   UNL     1      -0.228   4.872 -11.595  1.00  0.00     0.029 A 
ATOM     53  C   UNL     1      -0.366   5.825 -12.697  1.00  0.00     0.049 A 
ATOM     54  H   UNL     1       1.121   7.052 -13.488  1.00  0.00     0.167 HD
ATOM     55  C   UNL     1       4.257   9.803 -14.858  1.00  0.00     0.037 A 
ATOM     56  C   UNL     1      -1.493   6.061 -13.400  1.00  0.00     0.037 A 
ATOM     57  C   UNL     1       3.134  10.042 -15.726  1.00  0.00     0.049 A 
ATOM     58  C   UNL     1      -1.477   7.103 -14.492  1.00  0.00     0.074 A 
ATOM     59  C   UNL     1       3.059  10.885 -16.821  1.00  0.00     0.029 A 
ATOM     60  N   UNL     1       1.885   9.453 -15.589  1.00  0.00    -0.354 N 
ATOM     61  N   UNL     1      -0.478   7.844 -14.911  1.00  0.00    -0.248 NA
ATOM     62  C   UNL     1      -2.741   7.346 -15.202  1.00  0.00     0.031 C 
ATOM     63  C   UNL     1       1.748  10.855 -17.305  1.00  0.00     0.029 A 
ATOM     64  C   UNL     1       1.022   9.944 -16.554  1.00  0.00     0.049 A 
ATOM     65  H   UNL     1       1.649   8.784 -14.907  1.00  0.00     0.167 HD
ATOM     66  C   UNL     1      -0.988   8.624 -15.946  1.00  0.00     0.074 A 
ATOM     67  C   UNL     1      -2.379   8.253 -16.100  1.00  0.00     0.031 C 
ATOM     68  C   UNL     1      -0.362   9.563 -16.699  1.00  0.00     0.037 A 
BRANCH  55  69
ATOM     69  C   UNL     1       5.517  10.590 -15.090  1.00  0.00     0.058 A 
ATOM     70  C   UNL     1       6.689   9.990 -15.576  1.00  0.00     0.135 A 
ATOM     71  C   UNL     1       5.539  11.976 -14.859  1.00  0.00     0.135 A 
ATOM     72  F   UNL     1       6.731   8.666 -15.796  1.00  0.00    -0.206 F 
ATOM     73  C   UNL     1       7.844  10.732 -15.805  1.00  0.00     0.059 A 
ATOM     74  C   UNL     1       6.673  12.742 -15.109  1.00  0.00     0.059 A 
ATOM     75  F   UNL     1       4.447  12.599 -14.388  1.00  0.00    -0.206 F 
ATOM     76  C   UNL     1       7.825  12.108 -15.571  1.00  0.00     0.060 A 
BRANCH  76  77
ATOM     77  S   UNL     1       9.328  13.056 -15.885  1.00  0.00     0.124 S 
ATOM     78  O   UNL     1      10.193  12.598 -14.802  1.00  0.00    -0.237 OA
ATOM     79  O   UNL     1       9.700  12.613 -17.224  1.00  0.00    -0.237 OA
ATOM     80  O   UNL     1       8.884  14.443 -15.786  1.00  0.00    -0.744 OA
ENDBRANCH  76  77
ENDBRANCH  55  69
BRANCH  56  81
ATOM     81  C   UNL     1      -2.745   5.327 -13.070  1.00  0.00     0.058 A 
ATOM     82  C   UNL     1      -3.308   4.409 -13.969  1.00  0.00     0.135 A 
ATOM     83  C   UNL     1      -3.409   5.535 -11.850  1.00  0.00     0.135 A 
ATOM     84  F   UNL     1      -2.722   4.186 -15.155  1.00  0.00    -0.206 F 
ATOM     85  C   UNL     1      -4.488   3.731 -13.676  1.00  0.00     0.059 A 
ATOM     86  C   UNL     1      -4.574   4.847 -11.522  1.00  0.00     0.059 A 
ATOM     87  F   UNL     1      -2.912   6.399 -10.951  1.00  0.00    -0.206 F 
ATOM     88  C   UNL     1      -5.110   3.953 -12.447  1.00  0.00     0.060 A 
BRANCH  88  89
ATOM     89  S   UNL     1      -6.610   3.026 -12.055  1.00  0.00     0.124 S 
ATOM     90  O   UNL     1      -7.579   3.642 -12.954  1.00  0.00    -0.237 OA
ATOM     91  O   UNL     1      -6.215   1.659 -12.380  1.00  0.00    -0.237 OA
ATOM     92  O   UNL     1      -6.808   3.293 -10.634  1.00  0.00    -0.744 OA
ENDBRANCH  88  89
ENDBRANCH  56  81
BRANCH  68  93
ATOM     93  C   UNL     1      -1.160  10.248 -17.776  1.00  0.00     0.058 A 
ATOM     94  C   UNL     1      -2.146  11.199 -17.471  1.00  0.00     0.135 A 
ATOM     95  C   UNL     1      -0.873  10.015 -19.132  1.00  0.00     0.135 A 
ATOM     96  F   UNL     1      -2.466  11.454 -16.192  1.00  0.00    -0.206 F 
ATOM     97  C   UNL     1      -2.826  11.888 -18.471  1.00  0.00     0.059 A 
ATOM     98  C   UNL     1      -1.519  10.714 -20.147  1.00  0.00     0.059 A 
ATOM     99  F   UNL     1       0.068   9.123 -19.480  1.00  0.00    -0.206 F 
ATOM    100  C   UNL     1      -2.498  11.646 -19.806  1.00  0.00     0.060 A 
BRANCH 100 101
ATOM    101  S   UNL     1      -3.344  12.595 -21.088  1.00  0.00     0.124 S 
ATOM    102  O   UNL     1      -4.688  12.028 -21.037  1.00  0.00    -0.237 OA
ATOM    103  O   UNL     1      -3.214  13.963 -20.598  1.00  0.00    -0.237 OA
ATOM    104  O   UNL     1      -2.582  12.292 -22.296  1.00  0.00    -0.744 OA
ENDBRANCH 100 101
ENDBRANCH  68  93
ENDBRANCH  42  43
ENDBRANCH  35  37
ENDBRANCH  34  35
ENDBRANCH  33  34
ENDBRANCH  32  33
ENDBRANCH  31  32
ENDBRANCH  30  31
ENDBRANCH  29  30
ENDBRANCH   1  29
TORSDOF 28
