REMARK SMILES COc1ccccc1-n1nnc(C(=O)OCCOCCOCCOCCOC(=O)c2ccc(-c3c4nc(c(-c5c(F)cc(S(=O)(=O)[O-])cc5F)c5ccc([nH]5)c(-c5c(F)cc(S(=O)(=O)[O-])cc5F)c5nc(c(-c6c(F)cc(S(=O)(=O)[O-])cc6F)c6ccc3[nH]6)C=C5)C=C4)cc2)c1-c1ccc(Cl)cc1
REMARK SMILES IDX 22 1 21 2 20 3 19 4 18 5 17 6 16 7 15 8 13 9 14 10 12 11
REMARK SMILES IDX 9 12 10 13 96 14 11 15 8 16 3 17 4 18 5 19 7 20 6 21 2 22
REMARK SMILES IDX 1 23 97 24 98 25 103 26 99 27 102 28 100 29 101 30 23 31
REMARK SMILES IDX 24 32 25 33 26 34 27 35 28 36 29 37 30 38 31 39 95 40 32 41
REMARK SMILES IDX 94 42 33 43 34 44 35 45 88 46 36 47 93 48 87 49 89 50 37 51
REMARK SMILES IDX 92 52 86 53 85 54 38 56 72 57 51 58 71 59 52 60 55 61 70 62
REMARK SMILES IDX 90 63 53 64 54 65 69 67 91 68 56 69 39 70 40 71 49 72 41 73
REMARK SMILES IDX 42 74 48 75 50 76 43 77 44 78 45 79 46 80 47 81 73 82 74 83
REMARK SMILES IDX 83 84 75 85 76 86 82 87 84 88 77 89 78 90 79 91 80 92 81 93
REMARK SMILES IDX 57 94 58 95 67 96 59 97 60 98 66 99 68 100 61 101 62 102
REMARK SMILES IDX 63 103 64 104 65 105
REMARK H PARENT 89 55 55 66
REMARK Flexibility Score: inf
ROOT
ATOM      1  C   UNL     1       6.931   0.518  -4.187  1.00  0.00     0.188 C 
ENDROOT
BRANCH   1   2
ATOM      2  O   UNL     1       5.970   0.192  -3.180  1.00  0.00    -0.377 OA
BRANCH   2   3
ATOM      3  C   UNL     1       6.475   0.047  -1.865  1.00  0.00     0.188 C 
BRANCH   3   4
ATOM      4  C   UNL     1       6.725  -1.417  -1.424  1.00  0.00     0.188 C 
BRANCH   4   5
ATOM      5  O   UNL     1       6.794  -2.501  -2.350  1.00  0.00    -0.376 OA
BRANCH   5   6
ATOM      6  C   UNL     1       5.907  -2.620  -3.452  1.00  0.00     0.202 C 
BRANCH   6   7
ATOM      7  C   UNL     1       4.395  -2.621  -3.229  1.00  0.00     0.261 C 
BRANCH   7   8
ATOM      8  O   UNL     1       3.941  -1.544  -2.418  1.00  0.00    -0.458 OA
BRANCH   8   9
ATOM      9  C   UNL     1       3.646  -1.821  -1.125  1.00  0.00     0.361 C 
ATOM     10  O   UNL     1       3.608  -2.953  -0.643  1.00  0.00    -0.244 OA
BRANCH   9  11
ATOM     11  C   UNL     1       3.465  -0.614  -0.341  1.00  0.00     0.198 A 
ATOM     12  N   UNL     1       2.921   1.330   0.437  1.00  0.00    -0.208 N 
ATOM     13  N   UNL     1       3.663   0.715   1.387  1.00  0.00    -0.061 NA
ATOM     14  C   UNL     1       2.983   0.623  -0.755  1.00  0.00     0.109 A 
ATOM     15  N   UNL     1       3.885  -0.522   0.967  1.00  0.00    -0.122 NA
BRANCH  12  16
ATOM     16  C   UNL     1       2.055   2.381   0.785  1.00  0.00     0.109 A 
ATOM     17  C   UNL     1       0.712   2.361   0.383  1.00  0.00     0.144 A 
ATOM     18  C   UNL     1      -0.083   3.482   0.609  1.00  0.00     0.049 A 
ATOM     19  C   UNL     1       0.441   4.589   1.280  1.00  0.00     0.004 A 
ATOM     20  C   UNL     1       2.567   3.461   1.518  1.00  0.00     0.032 A 
ATOM     21  C   UNL     1       1.757   4.573   1.746  1.00  0.00     0.003 A 
BRANCH  17  22
ATOM     22  O   UNL     1       0.110   1.315  -0.266  1.00  0.00    -0.494 OA
ATOM     23  C   UNL     1      -0.044   0.151   0.549  1.00  0.00     0.278 C 
ENDBRANCH  17  22
ENDBRANCH  12  16
BRANCH  14  24
ATOM     24  C   UNL     1       2.563   1.134  -2.062  1.00  0.00     0.003 A 
ATOM     25  C   UNL     1       1.744   0.361  -2.896  1.00  0.00     0.012 A 
ATOM     26  C   UNL     1       3.003   2.386  -2.519  1.00  0.00     0.012 A 
ATOM     27  C   UNL     1       1.397   0.810  -4.170  1.00  0.00     0.021 A 
ATOM     28  C   UNL     1       2.642   2.845  -3.790  1.00  0.00     0.021 A 
ATOM     29  C   UNL     1       1.849   2.049  -4.613  1.00  0.00     0.041 A 
ATOM     30  Cl  UNL     1       1.427   2.592  -6.189  1.00  0.00    -0.084 Cl
ENDBRANCH  14  24
ENDBRANCH   9  11
ENDBRANCH   8   9
ENDBRANCH   7   8
ENDBRANCH   6   7
ENDBRANCH   5   6
ENDBRANCH   4   5
ENDBRANCH   3   4
ENDBRANCH   2   3
ENDBRANCH   1   2
BRANCH   1  31
ATOM     31  C   UNL     1       8.294  -0.227  -4.182  1.00  0.00     0.188 C 
BRANCH  31  32
ATOM     32  O   UNL     1       8.828  -0.480  -2.889  1.00  0.00    -0.376 OA
BRANCH  32  33
ATOM     33  C   UNL     1       9.941   0.237  -2.381  1.00  0.00     0.202 C 
BRANCH  33  34
ATOM     34  C   UNL     1       9.759   1.726  -2.103  1.00  0.00     0.261 C 
BRANCH  34  35
ATOM     35  O   UNL     1       9.064   2.413  -3.124  1.00  0.00    -0.460 OA
BRANCH  35  36
ATOM     36  C   UNL     1       9.732   2.503  -4.287  1.00  0.00     0.338 C 
ATOM     37  O   UNL     1      10.747   1.897  -4.607  1.00  0.00    -0.246 OA
BRANCH  36  38
ATOM     38  C   UNL     1       9.110   3.551  -5.087  1.00  0.00     0.060 A 
ATOM     39  C   UNL     1       9.604   3.709  -6.380  1.00  0.00     0.016 A 
ATOM     40  C   UNL     1       8.373   4.545  -4.423  1.00  0.00     0.016 A 
ATOM     41  C   UNL     1       9.611   4.978  -6.897  1.00  0.00     0.010 A 
ATOM     42  C   UNL     1       8.398   5.813  -4.934  1.00  0.00     0.010 A 
ATOM     43  C   UNL     1       9.112   6.021  -6.108  1.00  0.00    -0.014 A 
BRANCH  43  44
ATOM     44  C   UNL     1       9.284   7.366  -6.593  1.00  0.00     0.031 A 
ATOM     45  C   UNL     1       8.329   7.660  -7.672  1.00  0.00     0.074 A 
ATOM     46  C   UNL     1      10.164   8.224  -6.046  1.00  0.00     0.049 A 
ATOM     47  N   UNL     1       8.559   7.633  -8.941  1.00  0.00    -0.248 NA
ATOM     48  C   UNL     1       6.900   7.720  -7.321  1.00  0.00     0.031 C 
ATOM     49  C   UNL     1      10.910   8.068  -4.792  1.00  0.00     0.029 A 
ATOM     50  N   UNL     1      10.511   9.473  -6.457  1.00  0.00    -0.354 N 
ATOM     51  C   UNL     1       7.351   7.997  -9.519  1.00  0.00     0.074 A 
ATOM     52  C   UNL     1       6.339   7.745  -8.531  1.00  0.00     0.031 C 
ATOM     53  C   UNL     1      11.435   9.263  -4.434  1.00  0.00     0.029 A 
ATOM     54  C   UNL     1      11.194  10.218  -5.503  1.00  0.00     0.049 A 
ATOM     55  H   UNL     1      10.298   9.819  -7.354  1.00  0.00     0.167 HD
ATOM     56  C   UNL     1       7.342   8.838 -10.588  1.00  0.00     0.037 A 
ATOM     57  C   UNL     1      11.488  11.540  -5.587  1.00  0.00     0.037 A 
ATOM     58  C   UNL     1       8.662   8.942 -11.162  1.00  0.00     0.049 A 
ATOM     59  C   UNL     1      11.445  11.907  -7.025  1.00  0.00     0.074 A 
ATOM     60  C   UNL     1       9.487   8.143 -11.922  1.00  0.00     0.029 A 
ATOM     61  N   UNL     1       9.446   9.902 -10.574  1.00  0.00    -0.354 N 
ATOM     62  N   UNL     1      12.286  11.439  -7.908  1.00  0.00    -0.248 NA
ATOM     63  C   UNL     1      10.229  12.495  -7.579  1.00  0.00     0.031 C 
ATOM     64  C   UNL     1      10.820   8.569 -11.646  1.00  0.00     0.029 A 
ATOM     65  C   UNL     1      10.777   9.641 -10.757  1.00  0.00     0.049 A 
ATOM     66  H   UNL     1       9.095  10.680 -10.082  1.00  0.00     0.167 HD
ATOM     67  C   UNL     1      11.537  11.292  -9.060  1.00  0.00     0.074 A 
ATOM     68  C   UNL     1      10.345  12.105  -8.852  1.00  0.00     0.031 C 
ATOM     69  C   UNL     1      11.787  10.274  -9.932  1.00  0.00     0.037 A 
BRANCH  56  70
ATOM     70  C   UNL     1       6.323   9.940 -10.788  1.00  0.00     0.058 A 
ATOM     71  C   UNL     1       6.335  10.662 -11.998  1.00  0.00     0.135 A 
ATOM     72  C   UNL     1       5.544  10.508  -9.753  1.00  0.00     0.135 A 
ATOM     73  F   UNL     1       7.055  10.226 -13.045  1.00  0.00    -0.206 F 
ATOM     74  C   UNL     1       5.671  11.881 -12.148  1.00  0.00     0.059 A 
ATOM     75  C   UNL     1       4.831  11.690  -9.899  1.00  0.00     0.059 A 
ATOM     76  F   UNL     1       5.508  10.009  -8.513  1.00  0.00    -0.206 F 
ATOM     77  C   UNL     1       4.929  12.390 -11.087  1.00  0.00     0.060 A 
BRANCH  77  78
ATOM     78  S   UNL     1       4.127  13.993 -11.243  1.00  0.00     0.124 S 
ATOM     79  O   UNL     1       5.275  14.891 -11.277  1.00  0.00    -0.237 OA
ATOM     80  O   UNL     1       3.391  13.840 -12.493  1.00  0.00    -0.237 OA
ATOM     81  O   UNL     1       3.300  14.071 -10.042  1.00  0.00    -0.744 OA
ENDBRANCH  77  78
ENDBRANCH  56  70
BRANCH  57  82
ATOM     82  C   UNL     1      11.508  12.554  -4.503  1.00  0.00     0.058 A 
ATOM     83  C   UNL     1      12.138  13.799  -4.673  1.00  0.00     0.135 A 
ATOM     84  C   UNL     1      10.659  12.432  -3.384  1.00  0.00     0.135 A 
ATOM     85  F   UNL     1      12.944  14.008  -5.724  1.00  0.00    -0.206 F 
ATOM     86  C   UNL     1      11.905  14.877  -3.810  1.00  0.00     0.059 A 
ATOM     87  C   UNL     1      10.415  13.491  -2.509  1.00  0.00     0.059 A 
ATOM     88  F   UNL     1       9.970  11.303  -3.163  1.00  0.00    -0.206 F 
ATOM     89  C   UNL     1      11.024  14.718  -2.741  1.00  0.00     0.060 A 
BRANCH  89  90
ATOM     90  S   UNL     1      10.595  16.151  -1.722  1.00  0.00     0.124 S 
ATOM     91  O   UNL     1      11.848  16.410  -1.023  1.00  0.00    -0.237 OA
ATOM     92  O   UNL     1      10.208  17.138  -2.724  1.00  0.00    -0.237 OA
ATOM     93  O   UNL     1       9.505  15.657  -0.885  1.00  0.00    -0.744 OA
ENDBRANCH  89  90
ENDBRANCH  57  82
BRANCH  69  94
ATOM     94  C   UNL     1      13.171   9.693  -9.945  1.00  0.00     0.058 A 
ATOM     95  C   UNL     1      13.738   8.927  -8.914  1.00  0.00     0.135 A 
ATOM     96  C   UNL     1      13.924   9.859 -11.117  1.00  0.00     0.135 A 
ATOM     97  F   UNL     1      13.049   8.660  -7.795  1.00  0.00    -0.206 F 
ATOM     98  C   UNL     1      15.017   8.376  -9.035  1.00  0.00     0.059 A 
ATOM     99  C   UNL     1      15.183   9.294 -11.272  1.00  0.00     0.059 A 
ATOM    100  F   UNL     1      13.413  10.544 -12.153  1.00  0.00    -0.206 F 
ATOM    101  C   UNL     1      15.730   8.564 -10.221  1.00  0.00     0.060 A 
BRANCH 101 102
ATOM    102  S   UNL     1      17.356   7.800 -10.409  1.00  0.00     0.124 S 
ATOM    103  O   UNL     1      18.173   8.588  -9.493  1.00  0.00    -0.237 OA
ATOM    104  O   UNL     1      17.104   6.419 -10.008  1.00  0.00    -0.237 OA
ATOM    105  O   UNL     1      17.657   7.982 -11.827  1.00  0.00    -0.744 OA
ENDBRANCH 101 102
ENDBRANCH  69  94
ENDBRANCH  43  44
ENDBRANCH  36  38
ENDBRANCH  35  36
ENDBRANCH  34  35
ENDBRANCH  33  34
ENDBRANCH  32  33
ENDBRANCH  31  32
ENDBRANCH   1  31
TORSDOF 26
