REMARK SMILES CCc1ccc(C(=O)N2Cc3nc[nH]c3C[C@@H]2C(=O)OCCOCCOCCOCCOC(=O)c2ccc(-c3c4nc(c(-c5c(F)cc(S(=O)(=O)[O-])cc5F)c5ccc([nH]5)c(-c5c(F)cc(S(=O)(=O)[O-])cc5F)c5nc(c(-c6c(F)cc(S(=O)(=O)[O-])cc6F)c6ccc3[nH]6)C=C5)C=C4)cc2)o1
REMARK SMILES IDX 26 1 25 2 24 3 23 4 22 5 21 6 20 7 18 8 19 9 17 10 9 11
REMARK SMILES IDX 10 12 11 13 16 14 12 15 15 16 13 17 14 18 7 20 8 21 6 22
REMARK SMILES IDX 3 23 4 24 101 25 5 26 2 27 1 28 27 29 28 30 29 31 30 32
REMARK SMILES IDX 31 33 32 34 33 35 34 36 35 37 36 38 100 39 37 40 99 41 38 42
REMARK SMILES IDX 39 43 40 44 93 45 41 46 98 47 92 48 94 49 42 50 97 51 91 52
REMARK SMILES IDX 90 53 43 55 77 56 56 57 76 58 57 59 60 60 75 61 95 62 58 63
REMARK SMILES IDX 59 64 74 66 96 67 61 68 44 69 45 70 54 71 46 72 47 73 53 74
REMARK SMILES IDX 55 75 48 76 49 77 50 78 51 79 52 80 78 81 79 82 88 83 80 84
REMARK SMILES IDX 81 85 87 86 89 87 82 88 83 89 84 90 85 91 86 92 62 93 63 94
REMARK SMILES IDX 72 95 64 96 65 97 71 98 73 99 66 100 67 101 68 102 69 103
REMARK SMILES IDX 70 104
REMARK H PARENT 14 19 94 54 60 65
REMARK Flexibility Score: inf
ROOT
ATOM      1  O   UNL     1      -2.059   6.233   3.595  1.00  0.00    -0.377 OA
ENDROOT
BRANCH   1   2
ATOM      2  C   UNL     1      -0.972   5.398   3.978  1.00  0.00     0.188 C 
BRANCH   2   3
ATOM      3  C   UNL     1      -1.030   3.864   3.844  1.00  0.00     0.188 C 
BRANCH   3   4
ATOM      4  O   UNL     1      -2.307   3.313   4.131  1.00  0.00    -0.376 OA
BRANCH   4   5
ATOM      5  C   UNL     1      -2.312   2.226   5.042  1.00  0.00     0.202 C 
BRANCH   5   6
ATOM      6  C   UNL     1      -2.276   2.756   6.475  1.00  0.00     0.261 C 
BRANCH   6   7
ATOM      7  O   UNL     1      -1.060   3.477   6.751  1.00  0.00    -0.462 OA
BRANCH   7   8
ATOM      8  C   UNL     1       0.094   2.744   6.777  1.00  0.00     0.329 C 
ATOM      9  O   UNL     1       0.140   1.524   6.810  1.00  0.00    -0.250 OA
BRANCH   8  10
ATOM     10  C   UNL     1       1.286   3.714   6.700  1.00  0.00     0.201 C 
ATOM     11  N   UNL     1       2.615   3.133   6.333  1.00  0.00    -0.316 N 
ATOM     12  C   UNL     1       3.792   4.017   6.378  1.00  0.00     0.179 C 
ATOM     13  C   UNL     1       3.710   4.919   7.553  1.00  0.00     0.081 A 
ATOM     14  C   UNL     1       1.301   4.389   8.108  1.00  0.00     0.093 C 
ATOM     15  N   UNL     1       4.723   5.714   8.015  1.00  0.00    -0.240 NA
ATOM     16  C   UNL     1       2.580   5.094   8.311  1.00  0.00     0.042 A 
ATOM     17  C   UNL     1       4.218   6.337   9.060  1.00  0.00     0.197 A 
ATOM     18  N   UNL     1       2.912   5.988   9.283  1.00  0.00    -0.348 N 
ATOM     19  H   UNL     1       2.328   6.319  10.004  1.00  0.00     0.167 HD
BRANCH  11  20
ATOM     20  C   UNL     1       2.786   1.993   5.547  1.00  0.00     0.290 C 
ATOM     21  O   UNL     1       3.533   1.100   5.950  1.00  0.00    -0.265 OA
BRANCH  20  22
ATOM     22  C   UNL     1       2.220   1.980   4.209  1.00  0.00     0.191 A 
ATOM     23  C   UNL     1       1.340   0.994   2.432  1.00  0.00     0.104 A 
ATOM     24  C   UNL     1       1.631   2.287   2.055  1.00  0.00     0.046 A 
ATOM     25  O   UNL     1       1.708   0.802   3.732  1.00  0.00    -0.456 OA
ATOM     26  C   UNL     1       2.187   2.924   3.197  1.00  0.00     0.056 A 
BRANCH  23  27
ATOM     27  C   UNL     1       0.719  -0.177   1.754  1.00  0.00     0.072 C 
ATOM     28  C   UNL     1       0.996  -0.232   0.259  1.00  0.00     0.012 C 
ENDBRANCH  23  27
ENDBRANCH  20  22
ENDBRANCH  11  20
ENDBRANCH   8  10
ENDBRANCH   7   8
ENDBRANCH   6   7
ENDBRANCH   5   6
ENDBRANCH   4   5
ENDBRANCH   3   4
ENDBRANCH   2   3
ENDBRANCH   1   2
BRANCH   1  29
ATOM     29  C   UNL     1      -3.217   5.635   3.034  1.00  0.00     0.188 C 
BRANCH  29  30
ATOM     30  C   UNL     1      -3.033   4.928   1.671  1.00  0.00     0.188 C 
BRANCH  30  31
ATOM     31  O   UNL     1      -1.679   4.619   1.337  1.00  0.00    -0.376 OA
BRANCH  31  32
ATOM     32  C   UNL     1      -1.121   5.182   0.160  1.00  0.00     0.202 C 
BRANCH  32  33
ATOM     33  C   UNL     1      -0.500   6.562   0.380  1.00  0.00     0.261 C 
BRANCH  33  34
ATOM     34  O   UNL     1      -1.371   7.458   1.049  1.00  0.00    -0.460 OA
BRANCH  34  35
ATOM     35  C   UNL     1      -2.534   7.687   0.430  1.00  0.00     0.338 C 
ATOM     36  O   UNL     1      -2.892   7.234  -0.665  1.00  0.00    -0.246 OA
BRANCH  35  37
ATOM     37  C   UNL     1      -3.336   8.610   1.219  1.00  0.00     0.060 A 
ATOM     38  C   UNL     1      -4.599   8.908   0.707  1.00  0.00     0.016 A 
ATOM     39  C   UNL     1      -2.701   9.402   2.187  1.00  0.00     0.016 A 
ATOM     40  C   UNL     1      -5.064  10.180   0.892  1.00  0.00     0.010 A 
ATOM     41  C   UNL     1      -3.156  10.682   2.357  1.00  0.00     0.010 A 
ATOM     42  C   UNL     1      -4.252  11.075   1.595  1.00  0.00    -0.014 A 
BRANCH  42  43
ATOM     43  C   UNL     1      -4.506  12.475   1.373  1.00  0.00     0.031 A 
ATOM     44  C   UNL     1      -5.592  13.025   2.190  1.00  0.00     0.074 A 
ATOM     45  C   UNL     1      -3.765  13.180   0.500  1.00  0.00     0.049 A 
ATOM     46  N   UNL     1      -6.753  13.429   1.801  1.00  0.00    -0.248 NA
ATOM     47  C   UNL     1      -5.410  12.973   3.647  1.00  0.00     0.031 C 
ATOM     48  C   UNL     1      -2.494  12.792  -0.125  1.00  0.00     0.029 A 
ATOM     49  N   UNL     1      -3.949  14.454   0.071  1.00  0.00    -0.354 N 
ATOM     50  C   UNL     1      -7.371  13.894   2.952  1.00  0.00     0.074 A 
ATOM     51  C   UNL     1      -6.594  13.414   4.066  1.00  0.00     0.031 C 
ATOM     52  C   UNL     1      -1.923  13.888  -0.671  1.00  0.00     0.029 A 
ATOM     53  C   UNL     1      -2.838  15.009  -0.541  1.00  0.00     0.049 A 
ATOM     54  H   UNL     1      -4.797  14.941   0.185  1.00  0.00     0.167 HD
ATOM     55  C   UNL     1      -8.320  14.863   2.903  1.00  0.00     0.037 A 
ATOM     56  C   UNL     1      -2.660  16.324  -0.813  1.00  0.00     0.037 A 
ATOM     57  C   UNL     1      -8.872  15.012   1.582  1.00  0.00     0.049 A 
ATOM     58  C   UNL     1      -4.004  16.963  -0.823  1.00  0.00     0.074 A 
ATOM     59  C   UNL     1      -9.581  14.191   0.729  1.00  0.00     0.029 A 
ATOM     60  N   UNL     1      -8.406  16.053   0.816  1.00  0.00    -0.354 N 
ATOM     61  N   UNL     1      -4.933  16.712  -1.706  1.00  0.00    -0.248 NA
ATOM     62  C   UNL     1      -4.474  17.610   0.395  1.00  0.00     0.031 C 
ATOM     63  C   UNL     1      -9.183  14.567  -0.586  1.00  0.00     0.029 A 
ATOM     64  C   UNL     1      -8.257  15.607  -0.474  1.00  0.00     0.049 A 
ATOM     65  H   UNL     1      -8.212  16.963   1.138  1.00  0.00     0.167 HD
ATOM     66  C   UNL     1      -6.130  16.796  -1.008  1.00  0.00     0.074 A 
ATOM     67  C   UNL     1      -5.793  17.478   0.235  1.00  0.00     0.031 C 
ATOM     68  C   UNL     1      -7.219  16.061  -1.379  1.00  0.00     0.037 A 
BRANCH  55  69
ATOM     69  C   UNL     1      -8.462  15.907   3.975  1.00  0.00     0.058 A 
ATOM     70  C   UNL     1      -9.623  16.696   4.027  1.00  0.00     0.135 A 
ATOM     71  C   UNL     1      -7.387  16.333   4.791  1.00  0.00     0.135 A 
ATOM     72  F   UNL     1     -10.689  16.392   3.270  1.00  0.00    -0.206 F 
ATOM     73  C   UNL     1      -9.694  17.858   4.796  1.00  0.00     0.059 A 
ATOM     74  C   UNL     1      -7.459  17.446   5.613  1.00  0.00     0.059 A 
ATOM     75  F   UNL     1      -6.182  15.750   4.750  1.00  0.00    -0.206 F 
ATOM     76  C   UNL     1      -8.599  18.230   5.573  1.00  0.00     0.060 A 
BRANCH  76  77
ATOM     77  S   UNL     1      -8.629  19.792   6.465  1.00  0.00     0.124 S 
ATOM     78  O   UNL     1      -8.454  20.746   5.376  1.00  0.00    -0.237 OA
ATOM     79  O   UNL     1      -9.948  19.764   7.088  1.00  0.00    -0.237 OA
ATOM     80  O   UNL     1      -7.504  19.671   7.388  1.00  0.00    -0.744 OA
ENDBRANCH  76  77
ENDBRANCH  55  69
BRANCH  56  81
ATOM     81  C   UNL     1      -1.393  17.089  -0.696  1.00  0.00     0.058 A 
ATOM     82  C   UNL     1      -1.268  18.375  -1.245  1.00  0.00     0.135 A 
ATOM     83  C   UNL     1      -0.362  16.682   0.178  1.00  0.00     0.135 A 
ATOM     84  F   UNL     1      -2.219  18.855  -2.062  1.00  0.00    -0.206 F 
ATOM     85  C   UNL     1      -0.206  19.224  -0.917  1.00  0.00     0.059 A 
ATOM     86  C   UNL     1       0.715  17.501   0.504  1.00  0.00     0.059 A 
ATOM     87  F   UNL     1      -0.415  15.506   0.820  1.00  0.00    -0.206 F 
ATOM     88  C   UNL     1       0.774  18.782  -0.028  1.00  0.00     0.060 A 
BRANCH  88  89
ATOM     89  S   UNL     1       2.055  19.928   0.529  1.00  0.00     0.124 S 
ATOM     90  O   UNL     1       2.858  20.090  -0.678  1.00  0.00    -0.237 OA
ATOM     91  O   UNL     1       1.272  21.089   0.937  1.00  0.00    -0.237 OA
ATOM     92  O   UNL     1       2.707  19.205   1.619  1.00  0.00    -0.744 OA
ENDBRANCH  88  89
ENDBRANCH  56  81
BRANCH  68  93
ATOM     93  C   UNL     1      -7.217  15.460  -2.762  1.00  0.00     0.058 A 
ATOM     94  C   UNL     1      -6.351  14.429  -3.168  1.00  0.00     0.135 A 
ATOM     95  C   UNL     1      -8.227  15.839  -3.659  1.00  0.00     0.135 A 
ATOM     96  F   UNL     1      -5.425  13.941  -2.331  1.00  0.00    -0.206 F 
ATOM     97  C   UNL     1      -6.462  13.828  -4.423  1.00  0.00     0.059 A 
ATOM     98  C   UNL     1      -8.375  15.232  -4.904  1.00  0.00     0.059 A 
ATOM     99  F   UNL     1      -9.125  16.774  -3.305  1.00  0.00    -0.206 F 
ATOM    100  C   UNL     1      -7.481  14.233  -5.284  1.00  0.00     0.060 A 
BRANCH 100 101
ATOM    101  S   UNL     1      -7.687  13.381  -6.864  1.00  0.00     0.124 S 
ATOM    102  O   UNL     1      -6.591  13.930  -7.655  1.00  0.00    -0.237 OA
ATOM    103  O   UNL     1      -7.556  11.976  -6.489  1.00  0.00    -0.237 OA
ATOM    104  O   UNL     1      -9.027  13.778  -7.292  1.00  0.00    -0.744 OA
ENDBRANCH 100 101
ENDBRANCH  68  93
ENDBRANCH  42  43
ENDBRANCH  35  37
ENDBRANCH  34  35
ENDBRANCH  33  34
ENDBRANCH  32  33
ENDBRANCH  31  32
ENDBRANCH  30  31
ENDBRANCH  29  30
ENDBRANCH   1  29
TORSDOF 26
