REMARK SMILES Cc1cc2c(c(C)c1Cl)C=C(C(=O)OCCOCCOCCOCCOC(=O)c1ccc(-c3c4nc(c(-c5c(F)cc(S(=O)(=O)[O-])cc5F)c5ccc([nH]5)c(-c5c(F)cc(S(=O)(=O)[O-])cc5F)c5nc(c(-c6c(F)cc(S(=O)(=O)[O-])cc6F)c6ccc3[nH]6)C=C5)C=C4)cc1)[C@@H](C(F)(F)F)O2
REMARK SMILES IDX 21 1 20 2 19 3 18 4 17 5 16 6 15 7 14 8 12 9 13 10 11 11
REMARK SMILES IDX 1 12 2 13 3 14 8 15 4 16 6 17 9 18 5 19 100 20 7 21 10 22
REMARK SMILES IDX 95 23 96 24 97 25 98 26 99 27 22 28 23 29 24 30 25 31 26 32
REMARK SMILES IDX 27 33 28 34 29 35 30 36 94 37 31 38 93 39 32 40 33 41 34 42
REMARK SMILES IDX 87 43 35 44 92 45 86 46 88 47 36 48 91 49 85 50 84 51 37 53
REMARK SMILES IDX 71 54 50 55 70 56 51 57 54 58 69 59 89 60 52 61 53 62 68 64
REMARK SMILES IDX 90 65 55 66 38 67 39 68 48 69 40 70 41 71 47 72 49 73 42 74
REMARK SMILES IDX 43 75 44 76 45 77 46 78 72 79 73 80 82 81 74 82 75 83 81 84
REMARK SMILES IDX 83 85 76 86 77 87 78 88 79 89 80 90 56 91 57 92 66 93 58 94
REMARK SMILES IDX 59 95 65 96 67 97 60 98 61 99 62 100 63 101 64 102
REMARK H PARENT 88 52 54 63
REMARK Flexibility Score: inf
ROOT
ATOM      1  C   UNL     1      -2.759   8.278   5.160  1.00  0.00     0.188 C 
ENDROOT
BRANCH   1   2
ATOM      2  O   UNL     1      -2.657   7.354   4.074  1.00  0.00    -0.377 OA
BRANCH   2   3
ATOM      3  C   UNL     1      -1.384   7.158   3.483  1.00  0.00     0.188 C 
BRANCH   3   4
ATOM      4  C   UNL     1      -1.008   8.256   2.470  1.00  0.00     0.188 C 
BRANCH   4   5
ATOM      5  O   UNL     1      -1.770   9.441   2.615  1.00  0.00    -0.376 OA
BRANCH   5   6
ATOM      6  C   UNL     1      -2.968   9.640   1.880  1.00  0.00     0.202 C 
BRANCH   6   7
ATOM      7  C   UNL     1      -4.010   8.537   1.609  1.00  0.00     0.261 C 
BRANCH   7   8
ATOM      8  O   UNL     1      -3.529   7.197   1.480  1.00  0.00    -0.460 OA
BRANCH   8   9
ATOM      9  C   UNL     1      -2.951   6.845   0.320  1.00  0.00     0.338 C 
ATOM     10  O   UNL     1      -2.800   7.542  -0.667  1.00  0.00    -0.246 OA
BRANCH   9  11
ATOM     11  C   UNL     1      -2.344   5.509   0.517  1.00  0.00     0.087 C 
ATOM     12  C   UNL     1       0.955  -0.020   0.101  1.00  0.00     0.046 C 
ATOM     13  C   UNL     1       0.560   1.425   0.246  1.00  0.00    -0.028 A 
ATOM     14  C   UNL     1      -0.702   1.714   0.781  1.00  0.00     0.052 A 
ATOM     15  C   UNL     1       1.362   2.488  -0.216  1.00  0.00     0.047 A 
ATOM     16  C   UNL     1      -1.195   3.016   0.786  1.00  0.00     0.128 A 
ATOM     17  C   UNL     1       0.896   3.823  -0.172  1.00  0.00    -0.021 A 
ATOM     18  Cl  UNL     1       2.921   2.123  -0.893  1.00  0.00    -0.084 Cl
ATOM     19  C   UNL     1      -0.430   4.064   0.266  1.00  0.00     0.022 A 
ATOM     20  O   UNL     1      -2.450   3.153   1.304  1.00  0.00    -0.475 OA
ATOM     21  C   UNL     1       1.772   4.988  -0.572  1.00  0.00     0.047 C 
ATOM     22  C   UNL     1      -1.075   5.365   0.114  1.00  0.00     0.027 C 
ATOM     23  C   UNL     1      -3.129   4.434   1.216  1.00  0.00     0.316 C 
BRANCH  23  24
ATOM     24  C   UNL     1      -4.500   4.199   0.569  1.00  0.00     0.430 C 
ATOM     25  F   UNL     1      -5.155   3.174   1.166  1.00  0.00    -0.167 F 
ATOM     26  F   UNL     1      -5.299   5.285   0.660  1.00  0.00    -0.167 F 
ATOM     27  F   UNL     1      -4.380   3.892  -0.744  1.00  0.00    -0.167 F 
ENDBRANCH  23  24
ENDBRANCH   9  11
ENDBRANCH   8   9
ENDBRANCH   7   8
ENDBRANCH   6   7
ENDBRANCH   5   6
ENDBRANCH   4   5
ENDBRANCH   3   4
ENDBRANCH   2   3
ENDBRANCH   1   2
BRANCH   1  28
ATOM     28  C   UNL     1      -1.688   9.367   5.417  1.00  0.00     0.188 C 
BRANCH  28  29
ATOM     29  O   UNL     1      -0.347   8.934   5.214  1.00  0.00    -0.376 OA
BRANCH  29  30
ATOM     30  C   UNL     1       0.456   8.713   6.361  1.00  0.00     0.202 C 
BRANCH  30  31
ATOM     31  C   UNL     1       0.088   7.484   7.203  1.00  0.00     0.261 C 
BRANCH  31  32
ATOM     32  O   UNL     1      -1.248   7.467   7.727  1.00  0.00    -0.460 OA
BRANCH  32  33
ATOM     33  C   UNL     1      -1.595   8.459   8.576  1.00  0.00     0.338 C 
ATOM     34  O   UNL     1      -0.882   9.359   8.985  1.00  0.00    -0.246 OA
BRANCH  33  35
ATOM     35  C   UNL     1      -3.057   8.380   8.773  1.00  0.00     0.060 A 
ATOM     36  C   UNL     1      -3.854   9.472   8.407  1.00  0.00     0.016 A 
ATOM     37  C   UNL     1      -3.636   7.222   9.298  1.00  0.00     0.016 A 
ATOM     38  C   UNL     1      -5.236   9.418   8.595  1.00  0.00     0.010 A 
ATOM     39  C   UNL     1      -5.016   7.180   9.509  1.00  0.00     0.010 A 
ATOM     40  C   UNL     1      -5.817   8.290   9.189  1.00  0.00    -0.014 A 
BRANCH  40  41
ATOM     41  C   UNL     1      -7.215   8.356   9.678  1.00  0.00     0.031 A 
ATOM     42  C   UNL     1      -7.437   8.725  11.121  1.00  0.00     0.074 A 
ATOM     43  C   UNL     1      -8.261   8.131   8.864  1.00  0.00     0.049 A 
ATOM     44  N   UNL     1      -8.554   8.808  11.794  1.00  0.00    -0.248 NA
ATOM     45  C   UNL     1      -6.234   9.048  11.909  1.00  0.00     0.031 C 
ATOM     46  C   UNL     1      -8.175   7.822   7.438  1.00  0.00     0.029 A 
ATOM     47  N   UNL     1      -9.609   8.128   9.127  1.00  0.00    -0.354 N 
ATOM     48  C   UNL     1      -8.191   9.200  13.077  1.00  0.00     0.074 A 
ATOM     49  C   UNL     1      -6.750   9.300  13.103  1.00  0.00     0.031 C 
ATOM     50  C   UNL     1      -9.418   7.657   6.951  1.00  0.00     0.029 A 
ATOM     51  C   UNL     1     -10.386   7.816   8.036  1.00  0.00     0.049 A 
ATOM     52  H   UNL     1      -9.985   8.332  10.014  1.00  0.00     0.167 HD
ATOM     53  C   UNL     1      -8.990   9.469  14.135  1.00  0.00     0.037 A 
ATOM     54  C   UNL     1     -11.723   7.659   7.935  1.00  0.00     0.037 A 
ATOM     55  C   UNL     1     -10.424   9.362  14.107  1.00  0.00     0.049 A 
ATOM     56  C   UNL     1     -12.584   7.860   9.159  1.00  0.00     0.074 A 
ATOM     57  C   UNL     1     -11.322   9.601  15.133  1.00  0.00     0.029 A 
ATOM     58  N   UNL     1     -11.169   8.985  13.001  1.00  0.00    -0.354 N 
ATOM     59  N   UNL     1     -12.229   8.230  10.367  1.00  0.00    -0.248 NA
ATOM     60  C   UNL     1     -14.027   7.618   9.008  1.00  0.00     0.031 C 
ATOM     61  C   UNL     1     -12.607   9.321  14.660  1.00  0.00     0.029 A 
ATOM     62  C   UNL     1     -12.515   8.963  13.324  1.00  0.00     0.049 A 
ATOM     63  H   UNL     1     -10.796   8.766  12.116  1.00  0.00     0.167 HD
ATOM     64  C   UNL     1     -13.406   8.293  11.109  1.00  0.00     0.074 A 
ATOM     65  C   UNL     1     -14.484   7.936  10.212  1.00  0.00     0.031 C 
ATOM     66  C   UNL     1     -13.579   8.617  12.415  1.00  0.00     0.037 A 
BRANCH  53  67
ATOM     67  C   UNL     1      -8.336   9.902  15.416  1.00  0.00     0.058 A 
ATOM     68  C   UNL     1      -7.772  11.180  15.554  1.00  0.00     0.135 A 
ATOM     69  C   UNL     1      -8.335   9.058  16.538  1.00  0.00     0.135 A 
ATOM     70  F   UNL     1      -7.724  12.016  14.504  1.00  0.00    -0.206 F 
ATOM     71  C   UNL     1      -7.227  11.606  16.760  1.00  0.00     0.059 A 
ATOM     72  C   UNL     1      -7.818   9.473  17.762  1.00  0.00     0.059 A 
ATOM     73  F   UNL     1      -8.852   7.823  16.455  1.00  0.00    -0.206 F 
ATOM     74  C   UNL     1      -7.264  10.748  17.861  1.00  0.00     0.060 A 
BRANCH  74  75
ATOM     75  S   UNL     1      -6.590  11.338  19.429  1.00  0.00     0.124 S 
ATOM     76  O   UNL     1      -5.165  11.419  19.123  1.00  0.00    -0.237 OA
ATOM     77  O   UNL     1      -7.277  12.614  19.598  1.00  0.00    -0.237 OA
ATOM     78  O   UNL     1      -6.968  10.294  20.377  1.00  0.00    -0.744 OA
ENDBRANCH  74  75
ENDBRANCH  53  67
BRANCH  54  79
ATOM     79  C   UNL     1     -12.341   7.287   6.632  1.00  0.00     0.058 A 
ATOM     80  C   UNL     1     -13.181   8.180   5.949  1.00  0.00     0.135 A 
ATOM     81  C   UNL     1     -12.127   6.025   6.055  1.00  0.00     0.135 A 
ATOM     82  F   UNL     1     -13.430   9.393   6.465  1.00  0.00    -0.206 F 
ATOM     83  C   UNL     1     -13.799   7.832   4.752  1.00  0.00     0.059 A 
ATOM     84  C   UNL     1     -12.712   5.664   4.844  1.00  0.00     0.059 A 
ATOM     85  F   UNL     1     -11.331   5.133   6.664  1.00  0.00    -0.206 F 
ATOM     86  C   UNL     1     -13.555   6.571   4.205  1.00  0.00     0.060 A 
BRANCH  86  87
ATOM     87  S   UNL     1     -14.338   6.146   2.634  1.00  0.00     0.124 S 
ATOM     88  O   UNL     1     -15.740   6.042   3.022  1.00  0.00    -0.237 OA
ATOM     89  O   UNL     1     -13.988   7.292   1.801  1.00  0.00    -0.237 OA
ATOM     90  O   UNL     1     -13.692   4.890   2.265  1.00  0.00    -0.744 OA
ENDBRANCH  86  87
ENDBRANCH  54  79
BRANCH  66  91
ATOM     91  C   UNL     1     -14.982   8.633  12.958  1.00  0.00     0.058 A 
ATOM     92  C   UNL     1     -15.692   7.447  13.197  1.00  0.00     0.135 A 
ATOM     93  C   UNL     1     -15.588   9.846  13.329  1.00  0.00     0.135 A 
ATOM     94  F   UNL     1     -15.161   6.261  12.859  1.00  0.00    -0.206 F 
ATOM     95  C   UNL     1     -16.960   7.463  13.771  1.00  0.00     0.059 A 
ATOM     96  C   UNL     1     -16.842   9.883  13.931  1.00  0.00     0.059 A 
ATOM     97  F   UNL     1     -14.947  11.009  13.135  1.00  0.00    -0.206 F 
ATOM     98  C   UNL     1     -17.523   8.685  14.141  1.00  0.00     0.060 A 
BRANCH  98  99
ATOM     99  S   UNL     1     -19.148   8.681  14.929  1.00  0.00     0.124 S 
ATOM    100  O   UNL     1     -20.012   8.288  13.821  1.00  0.00    -0.237 OA
ATOM    101  O   UNL     1     -18.978   7.688  15.985  1.00  0.00    -0.237 OA
ATOM    102  O   UNL     1     -19.307  10.057  15.390  1.00  0.00    -0.744 OA
ENDBRANCH  98  99
ENDBRANCH  66  91
ENDBRANCH  40  41
ENDBRANCH  33  35
ENDBRANCH  32  33
ENDBRANCH  31  32
ENDBRANCH  30  31
ENDBRANCH  29  30
ENDBRANCH  28  29
ENDBRANCH   1  28
TORSDOF 24
