REMARK SMILES C[C@H](c1ccc(C(=O)OCCOCCOCCOCCOC(=O)c2ccc(-c3c4nc(c(-c5c(F)cc(S(=O)(=O)[O-])cc5F)c5ccc([nH]5)c(-c5c(F)cc(S(=O)(=O)[O-])cc5F)c5nc(c(-c6c(F)cc(S(=O)(=O)[O-])cc6F)c6ccc3[nH]6)C=C5)C=C4)cc2)o1)[NH+]1Cc2ccccc2C1
REMARK SMILES IDX 16 1 15 2 14 3 13 4 12 5 11 6 10 7 9 8 7 9 8 10 6 11 3 12
REMARK SMILES IDX 4 13 90 14 5 15 2 16 1 17 91 18 92 19 99 20 93 22 98 23
REMARK SMILES IDX 94 24 97 25 95 26 96 27 17 28 18 29 19 30 20 31 21 32 22 33
REMARK SMILES IDX 23 34 24 35 25 36 89 37 26 38 88 39 27 40 28 41 29 42 82 43
REMARK SMILES IDX 30 44 87 45 81 46 83 47 31 48 86 49 80 50 79 51 32 53 66 54
REMARK SMILES IDX 45 55 65 56 46 57 49 58 64 59 84 60 47 61 48 62 63 64 85 65
REMARK SMILES IDX 50 66 33 67 34 68 43 69 35 70 36 71 42 72 44 73 37 74 38 75
REMARK SMILES IDX 39 76 40 77 41 78 67 79 68 80 77 81 69 82 70 83 76 84 78 85
REMARK SMILES IDX 71 86 72 87 73 88 74 89 75 90 51 91 52 92 61 93 53 94 54 95
REMARK SMILES IDX 60 96 62 97 55 98 56 99 57 100 58 101 59 102
REMARK H PARENT 91 21 83 52 49 63
REMARK Flexibility Score: inf
ROOT
ATOM      1  C   UNL     1       5.611  -2.688   3.542  1.00  0.00     0.188 C 
ENDROOT
BRANCH   1   2
ATOM      2  O   UNL     1       4.338  -2.344   2.996  1.00  0.00    -0.377 OA
BRANCH   2   3
ATOM      3  C   UNL     1       4.122  -0.995   2.623  1.00  0.00     0.188 C 
BRANCH   3   4
ATOM      4  C   UNL     1       3.689  -0.105   3.797  1.00  0.00     0.188 C 
BRANCH   4   5
ATOM      5  O   UNL     1       3.858  -0.724   5.074  1.00  0.00    -0.376 OA
BRANCH   5   6
ATOM      6  C   UNL     1       2.660  -1.074   5.763  1.00  0.00     0.202 C 
BRANCH   6   7
ATOM      7  C   UNL     1       2.010  -2.388   5.301  1.00  0.00     0.261 C 
BRANCH   7   8
ATOM      8  O   UNL     1       1.534  -2.371   3.949  1.00  0.00    -0.457 OA
BRANCH   8   9
ATOM      9  C   UNL     1       0.576  -1.463   3.631  1.00  0.00     0.374 C 
ATOM     10  O   UNL     1      -0.034  -0.775   4.443  1.00  0.00    -0.242 OA
BRANCH   9  11
ATOM     11  C   UNL     1       0.546  -1.335   2.196  1.00  0.00     0.212 A 
ATOM     12  C   UNL     1       0.462  -0.202   0.310  1.00  0.00     0.162 A 
ATOM     13  C   UNL     1       0.904  -1.472  -0.012  1.00  0.00     0.053 A 
ATOM     14  O   UNL     1       0.220  -0.121   1.650  1.00  0.00    -0.448 OA
ATOM     15  C   UNL     1       0.939  -2.203   1.192  1.00  0.00     0.059 A 
BRANCH  12  16
ATOM     16  C   UNL     1       0.257   1.048  -0.509  1.00  0.00     0.248 C 
ATOM     17  C   UNL     1       1.452   1.196  -1.481  1.00  0.00     0.084 C 
BRANCH  16  18
ATOM     18  N   UNL     1      -1.133   1.176  -1.045  1.00  0.00    -0.319 N 
ATOM     19  C   UNL     1      -1.658  -0.069  -1.671  1.00  0.00     0.300 C 
ATOM     20  C   UNL     1      -1.220   2.172  -2.154  1.00  0.00     0.300 C 
ATOM     21  H   UNL     1      -1.667   1.438  -0.216  1.00  0.00     0.349 HD
ATOM     22  C   UNL     1      -1.247   0.023  -3.102  1.00  0.00     0.015 A 
ATOM     23  C   UNL     1      -1.009   1.367  -3.404  1.00  0.00     0.015 A 
ATOM     24  C   UNL     1      -1.052  -0.980  -4.030  1.00  0.00     0.010 A 
ATOM     25  C   UNL     1      -0.581   1.748  -4.660  1.00  0.00     0.010 A 
ATOM     26  C   UNL     1      -0.594  -0.610  -5.294  1.00  0.00     0.001 A 
ATOM     27  C   UNL     1      -0.365   0.742  -5.608  1.00  0.00     0.001 A 
ENDBRANCH  16  18
ENDBRANCH  12  16
ENDBRANCH   9  11
ENDBRANCH   8   9
ENDBRANCH   7   8
ENDBRANCH   6   7
ENDBRANCH   5   6
ENDBRANCH   4   5
ENDBRANCH   3   4
ENDBRANCH   2   3
ENDBRANCH   1   2
BRANCH   1  28
ATOM     28  C   UNL     1       6.547  -1.622   4.152  1.00  0.00     0.188 C 
BRANCH  28  29
ATOM     29  O   UNL     1       6.782  -0.495   3.307  1.00  0.00    -0.376 OA
BRANCH  29  30
ATOM     30  C   UNL     1       8.081  -0.402   2.732  1.00  0.00     0.202 C 
BRANCH  30  31
ATOM     31  C   UNL     1       8.249  -1.265   1.477  1.00  0.00     0.261 C 
BRANCH  31  32
ATOM     32  O   UNL     1       8.194  -2.679   1.712  1.00  0.00    -0.460 OA
BRANCH  32  33
ATOM     33  C   UNL     1       9.119  -3.200   2.548  1.00  0.00     0.338 C 
ATOM     34  O   UNL     1      10.031  -2.612   3.099  1.00  0.00    -0.246 OA
BRANCH  33  35
ATOM     35  C   UNL     1       8.737  -4.597   2.817  1.00  0.00     0.060 A 
ATOM     36  C   UNL     1       8.578  -5.017   4.144  1.00  0.00     0.016 A 
ATOM     37  C   UNL     1       8.545  -5.484   1.756  1.00  0.00     0.016 A 
ATOM     38  C   UNL     1       8.260  -6.348   4.414  1.00  0.00     0.010 A 
ATOM     39  C   UNL     1       8.246  -6.816   2.029  1.00  0.00     0.010 A 
ATOM     40  C   UNL     1       8.133  -7.260   3.357  1.00  0.00    -0.014 A 
BRANCH  40  41
ATOM     41  C   UNL     1       8.084  -8.717   3.608  1.00  0.00     0.031 A 
ATOM     42  C   UNL     1       9.378  -9.479   3.580  1.00  0.00     0.074 A 
ATOM     43  C   UNL     1       6.913  -9.355   3.779  1.00  0.00     0.049 A 
ATOM     44  N   UNL     1       9.581 -10.768   3.590  1.00  0.00    -0.248 NA
ATOM     45  C   UNL     1      10.610  -8.672   3.518  1.00  0.00     0.031 C 
ATOM     46  C   UNL     1       5.602  -8.714   3.856  1.00  0.00     0.029 A 
ATOM     47  N   UNL     1       6.643 -10.695   3.887  1.00  0.00    -0.354 N 
ATOM     48  C   UNL     1      10.959 -10.931   3.520  1.00  0.00     0.074 A 
ATOM     49  C   UNL     1      11.543  -9.610   3.457  1.00  0.00     0.031 C 
ATOM     50  C   UNL     1       4.659  -9.666   3.969  1.00  0.00     0.029 A 
ATOM     51  C   UNL     1       5.299 -10.981   3.934  1.00  0.00     0.049 A 
ATOM     52  H   UNL     1       7.343 -11.386   3.928  1.00  0.00     0.167 HD
ATOM     53  C   UNL     1      11.672 -12.080   3.504  1.00  0.00     0.037 A 
ATOM     54  C   UNL     1       4.664 -12.170   3.913  1.00  0.00     0.037 A 
ATOM     55  C   UNL     1      11.083 -13.390   3.552  1.00  0.00     0.049 A 
ATOM     56  C   UNL     1       5.474 -13.439   3.838  1.00  0.00     0.074 A 
ATOM     57  C   UNL     1      11.715 -14.620   3.538  1.00  0.00     0.029 A 
ATOM     58  N   UNL     1       9.720 -13.638   3.618  1.00  0.00    -0.354 N 
ATOM     59  N   UNL     1       6.777 -13.583   3.781  1.00  0.00    -0.248 NA
ATOM     60  C   UNL     1       4.731 -14.708   3.817  1.00  0.00     0.031 C 
ATOM     61  C   UNL     1      10.731 -15.614   3.563  1.00  0.00     0.029 A 
ATOM     62  C   UNL     1       9.489 -15.001   3.633  1.00  0.00     0.049 A 
ATOM     63  H   UNL     1       9.020 -12.945   3.648  1.00  0.00     0.167 HD
ATOM     64  C   UNL     1       7.010 -14.954   3.753  1.00  0.00     0.074 A 
ATOM     65  C   UNL     1       5.713 -15.599   3.792  1.00  0.00     0.031 C 
ATOM     66  C   UNL     1       8.189 -15.620   3.703  1.00  0.00     0.037 A 
BRANCH  53  67
ATOM     67  C   UNL     1      13.164 -11.963   3.400  1.00  0.00     0.058 A 
ATOM     68  C   UNL     1      13.945 -11.548   4.489  1.00  0.00     0.135 A 
ATOM     69  C   UNL     1      13.820 -12.277   2.200  1.00  0.00     0.135 A 
ATOM     70  F   UNL     1      13.362 -11.214   5.651  1.00  0.00    -0.206 F 
ATOM     71  C   UNL     1      15.326 -11.424   4.385  1.00  0.00     0.059 A 
ATOM     72  C   UNL     1      15.203 -12.181   2.079  1.00  0.00     0.059 A 
ATOM     73  F   UNL     1      13.116 -12.671   1.127  1.00  0.00    -0.206 F 
ATOM     74  C   UNL     1      15.946 -11.739   3.173  1.00  0.00     0.060 A 
BRANCH  74  75
ATOM     75  S   UNL     1      17.738 -11.567   3.048  1.00  0.00     0.124 S 
ATOM     76  O   UNL     1      17.883 -10.119   2.936  1.00  0.00    -0.237 OA
ATOM     77  O   UNL     1      18.199 -12.155   4.301  1.00  0.00    -0.237 OA
ATOM     78  O   UNL     1      18.068 -12.325   1.845  1.00  0.00    -0.744 OA
ENDBRANCH  74  75
ENDBRANCH  53  67
BRANCH  54  79
ATOM     79  C   UNL     1       3.179 -12.219   3.944  1.00  0.00     0.058 A 
ATOM     80  C   UNL     1       2.496 -12.664   5.085  1.00  0.00     0.135 A 
ATOM     81  C   UNL     1       2.413 -11.821   2.837  1.00  0.00     0.135 A 
ATOM     82  F   UNL     1       3.186 -13.066   6.164  1.00  0.00    -0.206 F 
ATOM     83  C   UNL     1       1.107 -12.723   5.127  1.00  0.00     0.059 A 
ATOM     84  C   UNL     1       1.022 -11.852   2.861  1.00  0.00     0.059 A 
ATOM     85  F   UNL     1       3.019 -11.379   1.724  1.00  0.00    -0.206 F 
ATOM     86  C   UNL     1       0.378 -12.314   4.009  1.00  0.00     0.060 A 
BRANCH  86  87
ATOM     87  S   UNL     1      -1.426 -12.347   4.088  1.00  0.00     0.124 S 
ATOM     88  O   UNL     1      -1.700 -13.771   3.934  1.00  0.00    -0.237 OA
ATOM     89  O   UNL     1      -1.688 -11.785   5.409  1.00  0.00    -0.237 OA
ATOM     90  O   UNL     1      -1.824 -11.502   2.966  1.00  0.00    -0.744 OA
ENDBRANCH  86  87
ENDBRANCH  54  79
BRANCH  66  91
ATOM     91  C   UNL     1       8.153 -17.120   3.746  1.00  0.00     0.058 A 
ATOM     92  C   UNL     1       7.838 -17.882   2.612  1.00  0.00     0.135 A 
ATOM     93  C   UNL     1       8.549 -17.800   4.910  1.00  0.00     0.135 A 
ATOM     94  F   UNL     1       7.449 -17.278   1.479  1.00  0.00    -0.206 F 
ATOM     95  C   UNL     1       7.921 -19.271   2.629  1.00  0.00     0.059 A 
ATOM     96  C   UNL     1       8.657 -19.186   4.943  1.00  0.00     0.059 A 
ATOM     97  F   UNL     1       8.869 -17.112   6.018  1.00  0.00    -0.206 F 
ATOM     98  C   UNL     1       8.339 -19.913   3.797  1.00  0.00     0.060 A 
BRANCH  98  99
ATOM     99  S   UNL     1       8.523 -21.710   3.783  1.00  0.00     0.124 S 
ATOM    100  O   UNL     1       7.134 -22.148   3.873  1.00  0.00    -0.237 OA
ATOM    101  O   UNL     1       9.182 -21.949   2.503  1.00  0.00    -0.237 OA
ATOM    102  O   UNL     1       9.343 -21.976   4.961  1.00  0.00    -0.744 OA
ENDBRANCH  98  99
ENDBRANCH  66  91
ENDBRANCH  40  41
ENDBRANCH  33  35
ENDBRANCH  32  33
ENDBRANCH  31  32
ENDBRANCH  30  31
ENDBRANCH  29  30
ENDBRANCH  28  29
ENDBRANCH   1  28
TORSDOF 25
