REMARK SMILES C[C@H]1[C@H](C)CC[C@@]2(C(=O)OCCOCCOCCOCCOC(=O)c3ccc(-c4c5nc(c(-c6c(F)cc(S(=O)(=O)[O-])cc6F)c6ccc([nH]6)c(-c6c(F)cc(S(=O)(=O)[O-])cc6F)c6nc(c(-c7c(F)cc(S(=O)(=O)[O-])cc7F)c7ccc4[nH]7)C=C6)C=C5)cc3)CC[C@@]3(C)C(=CC[C@@H]4[C@@]5(C)CC[C@H](O)C(C)(C)[C@@H]5CC[C@]43C)[C@H]12
REMARK SMILES IDX 17 1 16 2 15 3 14 4 13 5 12 6 11 7 10 8 8 9 9 10 7 11 1 12
REMARK SMILES IDX 2 13 3 14 113 15 4 16 5 17 95 18 6 19 91 20 93 21 96 22
REMARK SMILES IDX 92 23 94 24 111 25 97 26 98 27 110 28 112 29 99 30 109 31
REMARK SMILES IDX 100 32 101 33 108 34 102 35 105 36 103 37 106 38 107 39
REMARK SMILES IDX 104 40 18 42 19 43 20 44 21 45 22 46 23 47 24 48 25 49 26 50
REMARK SMILES IDX 90 51 27 52 89 53 28 54 29 55 30 56 83 57 31 58 88 59 82 60
REMARK SMILES IDX 84 61 32 62 87 63 81 64 80 65 33 67 67 68 46 69 66 70 47 71
REMARK SMILES IDX 50 72 65 73 85 74 48 75 49 76 64 78 86 79 51 80 34 81 35 82
REMARK SMILES IDX 44 83 36 84 37 85 43 86 45 87 38 88 39 89 40 90 41 91 42 92
REMARK SMILES IDX 68 93 69 94 78 95 70 96 71 97 77 98 79 99 72 100 73 101
REMARK SMILES IDX 74 102 75 103 76 104 52 105 53 106 62 107 54 108 55 109
REMARK SMILES IDX 61 110 63 111 56 112 57 113 58 114 59 115 60 116
REMARK H PARENT 104 41 84 66 50 77
REMARK Flexibility Score: inf
ROOT
ATOM      1  C   UNL     1       1.328   0.809  -5.499  1.00  0.00     0.188 C 
ENDROOT
BRANCH   1   2
ATOM      2  O   UNL     1       0.866   1.649  -4.465  1.00  0.00    -0.377 OA
BRANCH   2   3
ATOM      3  C   UNL     1       1.518   2.868  -4.207  1.00  0.00     0.188 C 
BRANCH   3   4
ATOM      4  C   UNL     1       2.982   2.764  -3.743  1.00  0.00     0.188 C 
BRANCH   4   5
ATOM      5  O   UNL     1       3.565   1.473  -3.774  1.00  0.00    -0.376 OA
BRANCH   5   6
ATOM      6  C   UNL     1       3.061   0.508  -2.881  1.00  0.00     0.202 C 
BRANCH   6   7
ATOM      7  C   UNL     1       1.792   0.755  -2.076  1.00  0.00     0.261 C 
BRANCH   7   8
ATOM      8  O   UNL     1       1.623   1.905  -1.171  1.00  0.00    -0.463 OA
BRANCH   8   9
ATOM      9  C   UNL     1       1.493   3.225  -0.939  1.00  0.00     0.312 C 
ATOM     10  O   UNL     1       1.625   4.167  -1.709  1.00  0.00    -0.252 OA
BRANCH   9  11
ATOM     11  C   UNL     1       1.032   3.455   0.515  1.00  0.00     0.075 C 
ATOM     12  C   UNL     1       0.909  -0.180   2.119  1.00  0.00     0.008 C 
ATOM     13  C   UNL     1       0.661   0.960   1.133  1.00  0.00    -0.003 C 
ATOM     14  C   UNL     1      -0.885   1.195   0.912  1.00  0.00    -0.011 C 
ATOM     15  C   UNL     1       1.546   2.287   1.417  1.00  0.00     0.036 C 
ATOM     16  C   UNL     1      -1.612  -0.007   0.272  1.00  0.00     0.008 C 
ATOM     17  C   UNL     1      -1.210   2.386   0.008  1.00  0.00     0.005 C 
ATOM     18  C   UNL     1       3.144   2.357   1.204  1.00  0.00    -0.063 C 
ATOM     19  C   UNL     1      -0.494   3.628   0.470  1.00  0.00     0.020 C 
ATOM     20  C   UNL     1       1.579   4.796   1.055  1.00  0.00     0.020 C 
ATOM     21  C   UNL     1       3.887   3.715   1.550  1.00  0.00    -0.006 C 
ATOM     22  C   UNL     1       3.813   1.418   0.501  1.00  0.00    -0.027 C 
ATOM     23  C   UNL     1       3.091   4.918   0.976  1.00  0.00     0.013 C 
ATOM     24  C   UNL     1       3.882   3.849   3.091  1.00  0.00     0.017 C 
ATOM     25  C   UNL     1       5.447   3.787   0.974  1.00  0.00    -0.020 C 
ATOM     26  C   UNL     1       5.090   1.683  -0.276  1.00  0.00     0.032 C 
ATOM     27  C   UNL     1       5.410   3.187  -0.474  1.00  0.00     0.006 C 
ATOM     28  C   UNL     1       6.045   5.219   0.917  1.00  0.00     0.008 C 
ATOM     29  C   UNL     1       6.396   2.974   1.905  1.00  0.00     0.012 C 
ATOM     30  C   UNL     1       6.598   3.523  -1.522  1.00  0.00    -0.025 C 
ATOM     31  C   UNL     1       7.385   5.297   0.156  1.00  0.00     0.005 C 
ATOM     32  C   UNL     1       7.654   2.400  -1.484  1.00  0.00     0.012 C 
ATOM     33  C   UNL     1       6.027   3.552  -2.978  1.00  0.00     0.010 C 
ATOM     34  C   UNL     1       7.154   4.981  -1.325  1.00  0.00     0.003 C 
ATOM     35  C   UNL     1       6.996   4.003  -4.079  1.00  0.00     0.033 C 
ATOM     36  C   UNL     1       8.293   5.427  -2.338  1.00  0.00    -0.006 C 
ATOM     37  C   UNL     1       7.701   5.326  -3.780  1.00  0.00     0.120 C 
ATOM     38  C   UNL     1       9.620   4.647  -2.220  1.00  0.00     0.014 C 
ATOM     39  C   UNL     1       8.677   6.914  -2.109  1.00  0.00     0.014 C 
BRANCH  37  40
ATOM     40  O   UNL     1       8.701   5.572  -4.773  1.00  0.00    -0.393 OA
ATOM     41  H   UNL     1       9.375   4.876  -4.731  1.00  0.00     0.210 HD
ENDBRANCH  37  40
ENDBRANCH   9  11
ENDBRANCH   8   9
ENDBRANCH   7   8
ENDBRANCH   6   7
ENDBRANCH   5   6
ENDBRANCH   4   5
ENDBRANCH   3   4
ENDBRANCH   2   3
ENDBRANCH   1   2
BRANCH   1  42
ATOM     42  C   UNL     1       2.540   1.170  -6.382  1.00  0.00     0.188 C 
BRANCH  42  43
ATOM     43  O   UNL     1       2.827   2.553  -6.485  1.00  0.00    -0.376 OA
BRANCH  43  44
ATOM     44  C   UNL     1       2.321   3.286  -7.584  1.00  0.00     0.202 C 
BRANCH  44  45
ATOM     45  C   UNL     1       0.796   3.436  -7.724  1.00  0.00     0.261 C 
BRANCH  45  46
ATOM     46  O   UNL     1       0.025   2.227  -7.754  1.00  0.00    -0.460 OA
BRANCH  46  47
ATOM     47  C   UNL     1       0.325   1.286  -8.677  1.00  0.00     0.338 C 
ATOM     48  O   UNL     1       1.132   1.388  -9.586  1.00  0.00    -0.246 OA
BRANCH  47  49
ATOM     49  C   UNL     1      -0.276   0.011  -8.204  1.00  0.00     0.060 A 
ATOM     50  C   UNL     1       0.568  -1.101  -8.030  1.00  0.00     0.016 A 
ATOM     51  C   UNL     1      -1.600  -0.035  -7.747  1.00  0.00     0.016 A 
ATOM     52  C   UNL     1       0.087  -2.261  -7.422  1.00  0.00     0.010 A 
ATOM     53  C   UNL     1      -2.102  -1.220  -7.202  1.00  0.00     0.010 A 
ATOM     54  C   UNL     1      -1.272  -2.349  -7.087  1.00  0.00    -0.014 A 
BRANCH  54  55
ATOM     55  C   UNL     1      -1.896  -3.693  -7.076  1.00  0.00     0.031 A 
ATOM     56  C   UNL     1      -2.247  -4.254  -8.432  1.00  0.00     0.074 A 
ATOM     57  C   UNL     1      -2.140  -4.391  -5.953  1.00  0.00     0.049 A 
ATOM     58  N   UNL     1      -2.840  -5.373  -8.746  1.00  0.00    -0.248 NA
ATOM     59  C   UNL     1      -1.871  -3.431  -9.598  1.00  0.00     0.031 C 
ATOM     60  C   UNL     1      -1.800  -3.975  -4.594  1.00  0.00     0.029 A 
ATOM     61  N   UNL     1      -2.750  -5.610  -5.789  1.00  0.00    -0.354 N 
ATOM     62  C   UNL     1      -2.899  -5.383 -10.136  1.00  0.00     0.074 A 
ATOM     63  C   UNL     1      -2.303  -4.160 -10.609  1.00  0.00     0.031 C 
ATOM     64  C   UNL     1      -2.226  -4.918  -3.731  1.00  0.00     0.029 A 
ATOM     65  C   UNL     1      -2.896  -5.986  -4.474  1.00  0.00     0.049 A 
ATOM     66  H   UNL     1      -3.055  -6.165  -6.543  1.00  0.00     0.167 HD
ATOM     67  C   UNL     1      -3.411  -6.327 -10.954  1.00  0.00     0.037 A 
ATOM     68  C   UNL     1      -3.522  -7.058  -3.946  1.00  0.00     0.037 A 
ATOM     69  C   UNL     1      -4.042  -7.523 -10.480  1.00  0.00     0.049 A 
ATOM     70  C   UNL     1      -4.171  -8.058  -4.876  1.00  0.00     0.074 A 
ATOM     71  C   UNL     1      -4.615  -8.541 -11.216  1.00  0.00     0.029 A 
ATOM     72  N   UNL     1      -4.197  -7.848  -9.142  1.00  0.00    -0.354 N 
ATOM     73  N   UNL     1      -4.205  -8.066  -6.189  1.00  0.00    -0.248 NA
ATOM     74  C   UNL     1      -4.867  -9.194  -4.253  1.00  0.00     0.031 C 
ATOM     75  C   UNL     1      -5.161  -9.463 -10.319  1.00  0.00     0.029 A 
ATOM     76  C   UNL     1      -4.877  -9.045  -9.027  1.00  0.00     0.049 A 
ATOM     77  H   UNL     1      -3.871  -7.307  -8.386  1.00  0.00     0.167 HD
ATOM     78  C   UNL     1      -4.897  -9.221  -6.547  1.00  0.00     0.074 A 
ATOM     79  C   UNL     1      -5.258  -9.888  -5.314  1.00  0.00     0.031 C 
ATOM     80  C   UNL     1      -5.206  -9.691  -7.782  1.00  0.00     0.037 A 
BRANCH  67  81
ATOM     81  C   UNL     1      -3.347  -6.064 -12.429  1.00  0.00     0.058 A 
ATOM     82  C   UNL     1      -2.136  -6.124 -13.137  1.00  0.00     0.135 A 
ATOM     83  C   UNL     1      -4.510  -5.732 -13.140  1.00  0.00     0.135 A 
ATOM     84  F   UNL     1      -0.988  -6.393 -12.494  1.00  0.00    -0.206 F 
ATOM     85  C   UNL     1      -2.079  -5.854 -14.500  1.00  0.00     0.059 A 
ATOM     86  C   UNL     1      -4.481  -5.484 -14.508  1.00  0.00     0.059 A 
ATOM     87  F   UNL     1      -5.687  -5.635 -12.503  1.00  0.00    -0.206 F 
ATOM     88  C   UNL     1      -3.258  -5.539 -15.177  1.00  0.00     0.060 A 
BRANCH  88  89
ATOM     89  S   UNL     1      -3.173  -5.215 -16.950  1.00  0.00     0.124 S 
ATOM     90  O   UNL     1      -2.534  -3.903 -16.976  1.00  0.00    -0.237 OA
ATOM     91  O   UNL     1      -2.358  -6.326 -17.430  1.00  0.00    -0.237 OA
ATOM     92  O   UNL     1      -4.571  -5.240 -17.367  1.00  0.00    -0.744 OA
ENDBRANCH  88  89
ENDBRANCH  67  81
BRANCH  68  93
ATOM     93  C   UNL     1      -3.598  -7.240  -2.469  1.00  0.00     0.058 A 
ATOM     94  C   UNL     1      -2.926  -8.293  -1.829  1.00  0.00     0.135 A 
ATOM     95  C   UNL     1      -4.367  -6.381  -1.668  1.00  0.00     0.135 A 
ATOM     96  F   UNL     1      -2.191  -9.154  -2.549  1.00  0.00    -0.206 F 
ATOM     97  C   UNL     1      -3.025  -8.498  -0.455  1.00  0.00     0.059 A 
ATOM     98  C   UNL     1      -4.462  -6.550  -0.289  1.00  0.00     0.059 A 
ATOM     99  F   UNL     1      -5.029  -5.355  -2.225  1.00  0.00    -0.206 F 
ATOM    100  C   UNL     1      -3.795  -7.618   0.307  1.00  0.00     0.060 A 
BRANCH 100 101
ATOM    101  S   UNL     1      -3.881  -7.865   2.095  1.00  0.00     0.124 S 
ATOM    102  O   UNL     1      -4.737  -9.042   2.190  1.00  0.00    -0.237 OA
ATOM    103  O   UNL     1      -2.478  -8.066   2.444  1.00  0.00    -0.237 OA
ATOM    104  O   UNL     1      -4.465  -6.617   2.578  1.00  0.00    -0.744 OA
ENDBRANCH 100 101
ENDBRANCH  68  93
BRANCH  80 105
ATOM    105  C   UNL     1      -5.924 -11.008  -7.870  1.00  0.00     0.058 A 
ATOM    106  C   UNL     1      -7.283 -11.132  -7.547  1.00  0.00     0.135 A 
ATOM    107  C   UNL     1      -5.259 -12.141  -8.368  1.00  0.00     0.135 A 
ATOM    108  F   UNL     1      -7.963 -10.078  -7.068  1.00  0.00    -0.206 F 
ATOM    109  C   UNL     1      -7.955 -12.341  -7.694  1.00  0.00     0.059 A 
ATOM    110  C   UNL     1      -5.918 -13.351  -8.550  1.00  0.00     0.059 A 
ATOM    111  F   UNL     1      -3.963 -12.069  -8.710  1.00  0.00    -0.206 F 
ATOM    112  C   UNL     1      -7.264 -13.444  -8.199  1.00  0.00     0.060 A 
BRANCH 112 113
ATOM    113  S   UNL     1      -8.156 -14.997  -8.422  1.00  0.00     0.124 S 
ATOM    114  O   UNL     1      -8.286 -15.460  -7.045  1.00  0.00    -0.237 OA
ATOM    115  O   UNL     1      -9.392 -14.558  -9.063  1.00  0.00    -0.237 OA
ATOM    116  O   UNL     1      -7.264 -15.783  -9.269  1.00  0.00    -0.744 OA
ENDBRANCH 112 113
ENDBRANCH  80 105
ENDBRANCH  54  55
ENDBRANCH  47  49
ENDBRANCH  46  47
ENDBRANCH  45  46
ENDBRANCH  44  45
ENDBRANCH  43  44
ENDBRANCH  42  43
ENDBRANCH   1  42
TORSDOF 24
