REMARK SMILES CC1(C)C[C@](CC(=O)OCCOCCOCCOCCOC(=O)c2ccc(-c3c4nc(c(-c5c(F)cc(S(=O)(=O)[O-])cc5F)c5ccc([nH]5)c(-c5c(F)cc(S(=O)(=O)[O-])cc5F)c5nc(c(-c6c(F)cc(S(=O)(=O)[O-])cc6F)c6ccc3[nH]6)C=C5)C=C4)cc2)([NH+]2CCCC2)C(C)(C)O1
REMARK SMILES IDX 16 1 15 2 14 3 13 4 12 5 11 6 10 7 9 8 7 9 8 10 6 11 5 12
REMARK SMILES IDX 1 13 2 14 3 15 4 16 98 17 95 18 96 19 97 20 90 21 91 22
REMARK SMILES IDX 94 23 92 25 93 26 17 27 18 28 19 29 20 30 21 31 22 32 23 33
REMARK SMILES IDX 24 34 25 35 89 36 26 37 88 38 27 39 28 40 29 41 82 42 30 43
REMARK SMILES IDX 87 44 81 45 83 46 31 47 86 48 80 49 79 50 32 52 66 53 45 54
REMARK SMILES IDX 65 55 46 56 49 57 64 58 84 59 47 60 48 61 63 63 85 64 50 65
REMARK SMILES IDX 33 66 34 67 43 68 35 69 36 70 42 71 44 72 37 73 38 74 39 75
REMARK SMILES IDX 40 76 41 77 67 78 68 79 77 80 69 81 70 82 76 83 78 84 71 85
REMARK SMILES IDX 72 86 73 87 74 88 75 89 51 90 52 91 61 92 53 93 54 94 60 95
REMARK SMILES IDX 62 96 55 97 56 98 57 99 58 100 59 101
REMARK H PARENT 90 24 83 51 49 62
REMARK Flexibility Score: inf
ROOT
ATOM      1  C   UNL     1      -1.398   4.405   6.862  1.00  0.00     0.188 C 
ENDROOT
BRANCH   1   2
ATOM      2  O   UNL     1      -0.449   3.357   6.993  1.00  0.00    -0.377 OA
BRANCH   2   3
ATOM      3  C   UNL     1       0.082   3.078   8.280  1.00  0.00     0.188 C 
BRANCH   3   4
ATOM      4  C   UNL     1       1.551   2.651   8.130  1.00  0.00     0.188 C 
BRANCH   4   5
ATOM      5  O   UNL     1       2.489   3.731   8.135  1.00  0.00    -0.376 OA
BRANCH   5   6
ATOM      6  C   UNL     1       2.276   4.762   7.176  1.00  0.00     0.202 C 
BRANCH   6   7
ATOM      7  C   UNL     1       2.789   4.503   5.752  1.00  0.00     0.261 C 
BRANCH   7   8
ATOM      8  O   UNL     1       2.224   3.361   5.064  1.00  0.00    -0.463 OA
BRANCH   8   9
ATOM      9  C   UNL     1       3.111   2.390   4.747  1.00  0.00     0.312 C 
ATOM     10  O   UNL     1       4.266   2.363   5.174  1.00  0.00    -0.252 OA
BRANCH   9  11
ATOM     11  C   UNL     1       2.632   1.257   3.850  1.00  0.00     0.194 C 
BRANCH  11  12
ATOM     12  C   UNL     1       1.418   1.247   2.852  1.00  0.00     0.140 C 
ATOM     13  C   UNL     1       2.191   0.365  -0.645  1.00  0.00     0.042 C 
ATOM     14  C   UNL     1       1.145   0.520   0.468  1.00  0.00     0.070 C 
ATOM     15  C   UNL     1      -0.088  -0.287   0.017  1.00  0.00     0.042 C 
ATOM     16  C   UNL     1       1.724   0.099   1.825  1.00  0.00     0.107 C 
ATOM     17  O   UNL     1       0.796   1.910   0.595  1.00  0.00    -0.363 OA
ATOM     18  C   UNL     1       1.317   2.460   1.845  1.00  0.00     0.118 C 
ATOM     19  C   UNL     1       2.677   3.096   1.496  1.00  0.00     0.049 C 
ATOM     20  C   UNL     1       0.388   3.616   2.244  1.00  0.00     0.049 C 
BRANCH  12  21
ATOM     21  N   UNL     1       0.188   0.791   3.567  1.00  0.00    -0.327 N 
ATOM     22  C   UNL     1      -0.150   1.524   4.769  1.00  0.00     0.263 C 
ATOM     23  C   UNL     1      -1.048   0.599   2.809  1.00  0.00     0.263 C 
ATOM     24  H   UNL     1       0.537  -0.140   3.795  1.00  0.00     0.348 HD
ATOM     25  C   UNL     1      -1.570   1.112   5.069  1.00  0.00     0.067 C 
ATOM     26  C   UNL     1      -2.211   0.885   3.732  1.00  0.00     0.067 C 
ENDBRANCH  12  21
ENDBRANCH  11  12
ENDBRANCH   9  11
ENDBRANCH   8   9
ENDBRANCH   7   8
ENDBRANCH   6   7
ENDBRANCH   5   6
ENDBRANCH   4   5
ENDBRANCH   3   4
ENDBRANCH   2   3
ENDBRANCH   1   2
BRANCH   1  27
ATOM     27  C   UNL     1      -2.448   4.603   7.965  1.00  0.00     0.188 C 
BRANCH  27  28
ATOM     28  O   UNL     1      -3.119   3.491   8.540  1.00  0.00    -0.376 OA
BRANCH  28  29
ATOM     29  C   UNL     1      -3.509   2.409   7.710  1.00  0.00     0.202 C 
BRANCH  29  30
ATOM     30  C   UNL     1      -4.538   2.669   6.597  1.00  0.00     0.261 C 
BRANCH  30  31
ATOM     31  O   UNL     1      -4.124   3.645   5.623  1.00  0.00    -0.460 OA
BRANCH  31  32
ATOM     32  C   UNL     1      -4.910   4.746   5.543  1.00  0.00     0.338 C 
ATOM     33  O   UNL     1      -5.915   4.980   6.190  1.00  0.00    -0.246 OA
BRANCH  32  34
ATOM     34  C   UNL     1      -4.318   5.748   4.638  1.00  0.00     0.060 A 
ATOM     35  C   UNL     1      -3.805   6.916   5.212  1.00  0.00     0.016 A 
ATOM     36  C   UNL     1      -4.448   5.637   3.251  1.00  0.00     0.016 A 
ATOM     37  C   UNL     1      -3.470   8.002   4.407  1.00  0.00     0.010 A 
ATOM     38  C   UNL     1      -4.124   6.737   2.443  1.00  0.00     0.010 A 
ATOM     39  C   UNL     1      -3.681   7.939   3.024  1.00  0.00    -0.014 A 
BRANCH  39  40
ATOM     40  C   UNL     1      -3.636   9.201   2.243  1.00  0.00     0.031 A 
ATOM     41  C   UNL     1      -4.923   9.942   1.989  1.00  0.00     0.074 A 
ATOM     42  C   UNL     1      -2.464   9.727   1.845  1.00  0.00     0.049 A 
ATOM     43  N   UNL     1      -5.122  11.068   1.354  1.00  0.00    -0.248 NA
ATOM     44  C   UNL     1      -6.149   9.335   2.534  1.00  0.00     0.031 C 
ATOM     45  C   UNL     1      -1.149   9.138   2.090  1.00  0.00     0.029 A 
ATOM     46  N   UNL     1      -2.194  10.881   1.153  1.00  0.00    -0.354 N 
ATOM     47  C   UNL     1      -6.491  11.304   1.422  1.00  0.00     0.074 A 
ATOM     48  C   UNL     1      -7.078  10.193   2.138  1.00  0.00     0.031 C 
ATOM     49  C   UNL     1      -0.209   9.932   1.547  1.00  0.00     0.029 A 
ATOM     50  C   UNL     1      -0.858  11.066   0.889  1.00  0.00     0.049 A 
ATOM     51  H   UNL     1      -2.891  11.516   0.872  1.00  0.00     0.167 HD
ATOM     52  C   UNL     1      -7.194  12.356   0.938  1.00  0.00     0.037 A 
ATOM     53  C   UNL     1      -0.234  12.027   0.179  1.00  0.00     0.037 A 
ATOM     54  C   UNL     1      -6.607  13.457   0.221  1.00  0.00     0.049 A 
ATOM     55  C   UNL     1      -1.049  13.141  -0.429  1.00  0.00     0.074 A 
ATOM     56  C   UNL     1      -7.233  14.573  -0.307  1.00  0.00     0.029 A 
ATOM     57  N   UNL     1      -5.258  13.578  -0.077  1.00  0.00    -0.354 N 
ATOM     58  N   UNL     1      -2.340  13.358  -0.349  1.00  0.00    -0.248 NA
ATOM     59  C   UNL     1      -0.321  14.140  -1.225  1.00  0.00     0.031 C 
ATOM     60  C   UNL     1      -6.270  15.341  -0.970  1.00  0.00     0.029 A 
ATOM     61  C   UNL     1      -5.035  14.733  -0.808  1.00  0.00     0.049 A 
ATOM     62  H   UNL     1      -4.561  12.937   0.191  1.00  0.00     0.167 HD
ATOM     63  C   UNL     1      -2.576  14.528  -1.065  1.00  0.00     0.074 A 
ATOM     64  C   UNL     1      -1.292  14.980  -1.558  1.00  0.00     0.031 C 
ATOM     65  C   UNL     1      -3.749  15.170  -1.293  1.00  0.00     0.037 A 
BRANCH  52  66
ATOM     66  C   UNL     1      -8.685  12.346   1.136  1.00  0.00     0.058 A 
ATOM     67  C   UNL     1      -9.268  12.572   2.393  1.00  0.00     0.135 A 
ATOM     68  C   UNL     1      -9.544  12.134   0.045  1.00  0.00     0.135 A 
ATOM     69  F   UNL     1      -8.494  12.762   3.473  1.00  0.00    -0.206 F 
ATOM     70  C   UNL     1     -10.649  12.564   2.566  1.00  0.00     0.059 A 
ATOM     71  C   UNL     1     -10.928  12.147   0.190  1.00  0.00     0.059 A 
ATOM     72  F   UNL     1      -9.040  11.909  -1.178  1.00  0.00    -0.206 F 
ATOM     73  C   UNL     1     -11.471  12.349   1.458  1.00  0.00     0.060 A 
BRANCH  73  74
ATOM     74  S   UNL     1     -13.261  12.343   1.698  1.00  0.00     0.124 S 
ATOM     75  O   UNL     1     -13.457  11.072   2.389  1.00  0.00    -0.237 OA
ATOM     76  O   UNL     1     -13.472  13.541   2.503  1.00  0.00    -0.237 OA
ATOM     77  O   UNL     1     -13.787  12.405   0.338  1.00  0.00    -0.744 OA
ENDBRANCH  73  74
ENDBRANCH  52  66
BRANCH  53  78
ATOM     78  C   UNL     1       1.238  11.965  -0.022  1.00  0.00     0.058 A 
ATOM     79  C   UNL     1       2.096  12.906   0.565  1.00  0.00     0.135 A 
ATOM     80  C   UNL     1       1.816  10.959  -0.815  1.00  0.00     0.135 A 
ATOM     81  F   UNL     1       1.592  13.894   1.319  1.00  0.00    -0.206 F 
ATOM     82  C   UNL     1       3.473  12.860   0.366  1.00  0.00     0.059 A 
ATOM     83  C   UNL     1       3.191  10.877  -1.007  1.00  0.00     0.059 A 
ATOM     84  F   UNL     1       1.039  10.030  -1.393  1.00  0.00    -0.206 F 
ATOM     85  C   UNL     1       4.011  11.838  -0.419  1.00  0.00     0.060 A 
BRANCH  85  86
ATOM     86  S   UNL     1       5.803  11.756  -0.628  1.00  0.00     0.124 S 
ATOM     87  O   UNL     1       6.044  12.871  -1.536  1.00  0.00    -0.237 OA
ATOM     88  O   UNL     1       6.278  11.931   0.741  1.00  0.00    -0.237 OA
ATOM     89  O   UNL     1       6.013  10.425  -1.191  1.00  0.00    -0.744 OA
ENDBRANCH  85  86
ENDBRANCH  53  78
BRANCH  65  90
ATOM     90  C   UNL     1      -3.700  16.445  -2.091  1.00  0.00     0.058 A 
ATOM     91  C   UNL     1      -3.471  16.440  -3.475  1.00  0.00     0.135 A 
ATOM     92  C   UNL     1      -3.942  17.683  -1.471  1.00  0.00     0.135 A 
ATOM     93  F   UNL     1      -3.229  15.285  -4.116  1.00  0.00    -0.206 F 
ATOM     94  C   UNL     1      -3.460  17.619  -4.214  1.00  0.00     0.059 A 
ATOM     95  C   UNL     1      -3.964  18.871  -2.195  1.00  0.00     0.059 A 
ATOM     96  F   UNL     1      -4.179  17.743  -0.151  1.00  0.00    -0.206 F 
ATOM     97  C   UNL     1      -3.709  18.830  -3.565  1.00  0.00     0.060 A 
BRANCH  97  98
ATOM     98  S   UNL     1      -3.726  20.348  -4.542  1.00  0.00     0.124 S 
ATOM     99  O   UNL     1      -2.304  20.547  -4.800  1.00  0.00    -0.237 OA
ATOM    100  O   UNL     1      -4.533  19.969  -5.697  1.00  0.00    -0.237 OA
ATOM    101  O   UNL     1      -4.343  21.322  -3.646  1.00  0.00    -0.744 OA
ENDBRANCH  97  98
ENDBRANCH  65  90
ENDBRANCH  39  40
ENDBRANCH  32  34
ENDBRANCH  31  32
ENDBRANCH  30  31
ENDBRANCH  29  30
ENDBRANCH  28  29
ENDBRANCH  27  28
ENDBRANCH   1  27
TORSDOF 25
