REMARK SMILES CC(C)[C@H](NC(=O)[C@H](C)NC(=O)CNC(=O)OCc1ccccc1)C(=O)OCCOCCOCCOCCOC(=O)c1ccc(-c2c3nc(c(-c4c(F)cc(S(=O)(=O)[O-])cc4F)c4ccc([nH]4)c(-c4c(F)cc(S(=O)(=O)[O-])cc4F)c4nc(c(-c5c(F)cc(S(=O)(=O)[O-])cc5F)c5ccc2[nH]5)C=C4)C=C3)cc1
REMARK SMILES IDX 31 1 30 2 29 3 28 4 27 5 25 6 26 7 4 8 2 9 1 10 3 11 5 12
REMARK SMILES IDX 6 13 7 15 8 16 9 17 10 18 11 19 12 21 13 22 14 23 15 24
REMARK SMILES IDX 16 26 17 27 18 28 19 29 20 30 24 31 21 32 23 33 22 34 32 35
REMARK SMILES IDX 33 36 34 37 35 38 36 39 37 40 38 41 39 42 40 43 41 44 42 45
REMARK SMILES IDX 43 46 107 47 44 48 106 49 45 50 46 51 47 52 100 53 48 54
REMARK SMILES IDX 105 55 99 56 101 57 49 58 104 59 98 60 97 61 50 63 84 64
REMARK SMILES IDX 63 65 83 66 64 67 67 68 82 69 102 70 65 71 66 72 81 74
REMARK SMILES IDX 103 75 68 76 51 77 52 78 61 79 53 80 54 81 60 82 62 83 55 84
REMARK SMILES IDX 56 85 57 86 58 87 59 88 85 89 86 90 95 91 87 92 88 93 94 94
REMARK SMILES IDX 96 95 89 96 90 97 91 98 92 99 93 100 69 101 70 102 79 103
REMARK SMILES IDX 71 104 72 105 78 106 80 107 73 108 74 109 75 110 76 111
REMARK SMILES IDX 77 112
REMARK H PARENT 5 14 10 20 14 25 101 62 67 73
REMARK Flexibility Score: inf
ROOT
ATOM      1  C   UNL     1      -5.942   5.300  -2.709  1.00  0.00     0.188 C 
ENDROOT
BRANCH   1   2
ATOM      2  O   UNL     1      -6.460   4.131  -2.086  1.00  0.00    -0.376 OA
BRANCH   2   3
ATOM      3  C   UNL     1      -6.006   3.726  -0.802  1.00  0.00     0.202 C 
BRANCH   3   4
ATOM      4  C   UNL     1      -4.513   3.437  -0.591  1.00  0.00     0.261 C 
BRANCH   4   5
ATOM      5  O   UNL     1      -3.605   4.470  -1.037  1.00  0.00    -0.462 OA
BRANCH   5   6
ATOM      6  C   UNL     1      -2.889   4.144  -2.142  1.00  0.00     0.328 C 
ATOM      7  O   UNL     1      -2.969   3.045  -2.684  1.00  0.00    -0.250 OA
BRANCH   6   8
ATOM      8  C   UNL     1      -2.083   5.317  -2.777  1.00  0.00     0.194 C 
BRANCH   8   9
ATOM      9  C   UNL     1      -0.705   4.891  -3.340  1.00  0.00     0.017 C 
ATOM     10  C   UNL     1      -0.691   3.572  -4.117  1.00  0.00     0.010 C 
ATOM     11  C   UNL     1      -0.102   5.985  -4.229  1.00  0.00     0.010 C 
ENDBRANCH   8   9
BRANCH   8  12
ATOM     12  N   UNL     1      -2.050   6.674  -2.170  1.00  0.00    -0.341 N 
ATOM     13  C   UNL     1      -1.373   7.332  -1.196  1.00  0.00     0.242 C 
ATOM     14  H   UNL     1      -2.711   7.266  -2.599  1.00  0.00     0.164 HD
ATOM     15  O   UNL     1      -1.521   8.560  -1.189  1.00  0.00    -0.273 OA
BRANCH  13  16
ATOM     16  C   UNL     1      -0.482   6.627  -0.165  1.00  0.00     0.168 C 
ATOM     17  C   UNL     1      -0.112   7.593   0.967  1.00  0.00     0.041 C 
BRANCH  16  18
ATOM     18  N   UNL     1       0.759   6.128  -0.747  1.00  0.00    -0.343 N 
ATOM     19  C   UNL     1       1.338   4.899  -0.583  1.00  0.00     0.240 C 
ATOM     20  H   UNL     1       1.242   6.755  -1.333  1.00  0.00     0.164 HD
ATOM     21  O   UNL     1       2.429   4.685  -1.114  1.00  0.00    -0.273 OA
BRANCH  19  22
ATOM     22  C   UNL     1       0.604   3.812   0.212  1.00  0.00     0.219 C 
BRANCH  22  23
ATOM     23  N   UNL     1       0.681   4.143   1.616  1.00  0.00    -0.312 N 
ATOM     24  C   UNL     1      -0.344   4.517   2.427  1.00  0.00     0.407 C 
ATOM     25  H   UNL     1       1.573   4.093   2.030  1.00  0.00     0.167 HD
ATOM     26  O   UNL     1      -0.118   5.101   3.476  1.00  0.00    -0.225 OA
BRANCH  24  27
ATOM     27  O   UNL     1      -1.570   4.225   1.928  1.00  0.00    -0.445 OA
BRANCH  27  28
ATOM     28  C   UNL     1      -2.684   4.690   2.712  1.00  0.00     0.270 C 
BRANCH  28  29
ATOM     29  C   UNL     1      -3.185   3.610   3.637  1.00  0.00    -0.011 A 
ATOM     30  C   UNL     1      -4.491   3.110   3.532  1.00  0.00     0.007 A 
ATOM     31  C   UNL     1      -2.358   3.111   4.655  1.00  0.00     0.007 A 
ATOM     32  C   UNL     1      -4.941   2.116   4.405  1.00  0.00     0.000 A 
ATOM     33  C   UNL     1      -2.806   2.120   5.524  1.00  0.00     0.000 A 
ATOM     34  C   UNL     1      -4.096   1.618   5.396  1.00  0.00     0.000 A 
ENDBRANCH  28  29
ENDBRANCH  27  28
ENDBRANCH  24  27
ENDBRANCH  22  23
ENDBRANCH  19  22
ENDBRANCH  16  18
ENDBRANCH  13  16
ENDBRANCH   8  12
ENDBRANCH   6   8
ENDBRANCH   5   6
ENDBRANCH   4   5
ENDBRANCH   3   4
ENDBRANCH   2   3
ENDBRANCH   1   2
BRANCH   1  35
ATOM     35  C   UNL     1      -5.500   6.528  -1.893  1.00  0.00     0.188 C 
BRANCH  35  36
ATOM     36  O   UNL     1      -5.607   6.392  -0.491  1.00  0.00    -0.377 OA
BRANCH  36  37
ATOM     37  C   UNL     1      -6.707   7.071   0.104  1.00  0.00     0.188 C 
BRANCH  37  38
ATOM     38  C   UNL     1      -8.076   6.839  -0.560  1.00  0.00     0.188 C 
BRANCH  38  39
ATOM     39  O   UNL     1      -8.132   7.313  -1.907  1.00  0.00    -0.376 OA
BRANCH  39  40
ATOM     40  C   UNL     1      -8.736   8.588  -2.114  1.00  0.00     0.202 C 
BRANCH  40  41
ATOM     41  C   UNL     1      -7.876   9.796  -1.705  1.00  0.00     0.261 C 
BRANCH  41  42
ATOM     42  O   UNL     1      -7.614   9.930  -0.298  1.00  0.00    -0.460 OA
BRANCH  42  43
ATOM     43  C   UNL     1      -8.677   9.954   0.533  1.00  0.00     0.338 C 
ATOM     44  O   UNL     1      -9.853   9.982   0.216  1.00  0.00    -0.246 OA
BRANCH  43  45
ATOM     45  C   UNL     1      -8.197   9.726   1.911  1.00  0.00     0.060 A 
ATOM     46  C   UNL     1      -8.798   8.706   2.661  1.00  0.00     0.016 A 
ATOM     47  C   UNL     1      -7.207  10.534   2.474  1.00  0.00     0.016 A 
ATOM     48  C   UNL     1      -8.467   8.545   4.004  1.00  0.00     0.010 A 
ATOM     49  C   UNL     1      -6.890  10.385   3.826  1.00  0.00     0.010 A 
ATOM     50  C   UNL     1      -7.563   9.429   4.607  1.00  0.00    -0.014 A 
BRANCH  50  51
ATOM     51  C   UNL     1      -7.549   9.538   6.085  1.00  0.00     0.031 A 
ATOM     52  C   UNL     1      -8.444  10.574   6.716  1.00  0.00     0.074 A 
ATOM     53  C   UNL     1      -6.804   8.721   6.850  1.00  0.00     0.049 A 
ATOM     54  N   UNL     1      -8.607  10.877   7.977  1.00  0.00    -0.248 NA
ATOM     55  C   UNL     1      -9.269  11.376   5.795  1.00  0.00     0.031 C 
ATOM     56  C   UNL     1      -5.935   7.655   6.356  1.00  0.00     0.029 A 
ATOM     57  N   UNL     1      -6.662   8.669   8.213  1.00  0.00    -0.354 N 
ATOM     58  C   UNL     1      -9.547  11.902   7.999  1.00  0.00     0.074 A 
ATOM     59  C   UNL     1      -9.896  12.192   6.627  1.00  0.00     0.031 C 
ATOM     60  C   UNL     1      -5.339   7.060   7.404  1.00  0.00     0.029 A 
ATOM     61  C   UNL     1      -5.766   7.718   8.639  1.00  0.00     0.049 A 
ATOM     62  H   UNL     1      -7.157   9.257   8.829  1.00  0.00     0.167 HD
ATOM     63  C   UNL     1     -10.081  12.538   9.067  1.00  0.00     0.037 A 
ATOM     64  C   UNL     1      -5.333   7.429   9.882  1.00  0.00     0.037 A 
ATOM     65  C   UNL     1      -9.728  12.249  10.430  1.00  0.00     0.049 A 
ATOM     66  C   UNL     1      -5.895   8.195  11.055  1.00  0.00     0.074 A 
ATOM     67  C   UNL     1     -10.210  12.835  11.587  1.00  0.00     0.029 A 
ATOM     68  N   UNL     1      -8.799  11.295  10.819  1.00  0.00    -0.354 N 
ATOM     69  N   UNL     1      -6.796   9.149  11.065  1.00  0.00    -0.248 NA
ATOM     70  C   UNL     1      -5.387   7.839  12.388  1.00  0.00     0.031 C 
ATOM     71  C   UNL     1      -9.541  12.263  12.675  1.00  0.00     0.029 A 
ATOM     72  C   UNL     1      -8.681  11.287  12.197  1.00  0.00     0.049 A 
ATOM     73  H   UNL     1      -8.299  10.711  10.205  1.00  0.00     0.167 HD
ATOM     74  C   UNL     1      -6.986   9.484  12.403  1.00  0.00     0.074 A 
ATOM     75  C   UNL     1      -6.109   8.626  13.174  1.00  0.00     0.031 C 
ATOM     76  C   UNL     1      -7.813  10.412  12.947  1.00  0.00     0.037 A 
BRANCH  63  77
ATOM     77  C   UNL     1     -11.082  13.626   8.795  1.00  0.00     0.058 A 
ATOM     78  C   UNL     1     -12.378  13.338   8.338  1.00  0.00     0.135 A 
ATOM     79  C   UNL     1     -10.743  14.972   9.004  1.00  0.00     0.135 A 
ATOM     80  F   UNL     1     -12.745  12.070   8.098  1.00  0.00    -0.206 F 
ATOM     81  C   UNL     1     -13.296  14.350   8.074  1.00  0.00     0.059 A 
ATOM     82  C   UNL     1     -11.653  15.998   8.771  1.00  0.00     0.059 A 
ATOM     83  F   UNL     1      -9.514  15.301   9.432  1.00  0.00    -0.206 F 
ATOM     84  C   UNL     1     -12.923  15.678   8.292  1.00  0.00     0.060 A 
BRANCH  84  85
ATOM     85  S   UNL     1     -14.124  16.980   7.944  1.00  0.00     0.124 S 
ATOM     86  O   UNL     1     -14.123  16.994   6.485  1.00  0.00    -0.237 OA
ATOM     87  O   UNL     1     -15.336  16.463   8.572  1.00  0.00    -0.237 OA
ATOM     88  O   UNL     1     -13.544  18.157   8.583  1.00  0.00    -0.744 OA
ENDBRANCH  84  85
ENDBRANCH  63  77
BRANCH  64  89
ATOM     89  C   UNL     1      -4.309   6.369  10.087  1.00  0.00     0.058 A 
ATOM     90  C   UNL     1      -4.633   5.158  10.714  1.00  0.00     0.135 A 
ATOM     91  C   UNL     1      -2.983   6.551   9.663  1.00  0.00     0.135 A 
ATOM     92  F   UNL     1      -5.884   4.941  11.150  1.00  0.00    -0.206 F 
ATOM     93  C   UNL     1      -3.678   4.169  10.929  1.00  0.00     0.059 A 
ATOM     94  C   UNL     1      -2.015   5.567   9.843  1.00  0.00     0.059 A 
ATOM     95  F   UNL     1      -2.623   7.691   9.053  1.00  0.00    -0.206 F 
ATOM     96  C   UNL     1      -2.371   4.382  10.486  1.00  0.00     0.060 A 
BRANCH  96  97
ATOM     97  S   UNL     1      -1.150   3.073  10.731  1.00  0.00     0.124 S 
ATOM     98  O   UNL     1      -0.918   3.152  12.168  1.00  0.00    -0.237 OA
ATOM     99  O   UNL     1      -1.870   1.892  10.263  1.00  0.00    -0.237 OA
ATOM    100  O   UNL     1      -0.035   3.490   9.887  1.00  0.00    -0.744 OA
ENDBRANCH  96  97
ENDBRANCH  64  89
BRANCH  76 101
ATOM    101  C   UNL     1      -7.851  10.521  14.446  1.00  0.00     0.058 A 
ATOM    102  C   UNL     1      -6.803  11.106  15.173  1.00  0.00     0.135 A 
ATOM    103  C   UNL     1      -8.983  10.090  15.157  1.00  0.00     0.135 A 
ATOM    104  F   UNL     1      -5.698  11.532  14.541  1.00  0.00    -0.206 F 
ATOM    105  C   UNL     1      -6.867  11.241  16.556  1.00  0.00     0.059 A 
ATOM    106  C   UNL     1      -9.080  10.240  16.537  1.00  0.00     0.059 A 
ATOM    107  F   UNL     1     -10.020   9.537  14.508  1.00  0.00    -0.206 F 
ATOM    108  C   UNL     1      -8.011  10.806  17.230  1.00  0.00     0.060 A 
BRANCH 108 109
ATOM    109  S   UNL     1      -8.097  11.017  19.020  1.00  0.00     0.124 S 
ATOM    110  O   UNL     1      -7.207   9.959  19.485  1.00  0.00    -0.237 OA
ATOM    111  O   UNL     1      -7.608  12.381  19.200  1.00  0.00    -0.237 OA
ATOM    112  O   UNL     1      -9.514  10.823  19.317  1.00  0.00    -0.744 OA
ENDBRANCH 108 109
ENDBRANCH  76 101
ENDBRANCH  50  51
ENDBRANCH  43  45
ENDBRANCH  42  43
ENDBRANCH  41  42
ENDBRANCH  40  41
ENDBRANCH  39  40
ENDBRANCH  38  39
ENDBRANCH  37  38
ENDBRANCH  36  37
ENDBRANCH  35  36
ENDBRANCH   1  35
TORSDOF 32
