REMARK SMILES CS(=O)(=O)c1ccc(/C=C(/C(=O)OCCOCCOCCOCCOC(=O)c2ccc(-c3c4nc(c(-c5c(F)cc(S(=O)(=O)[O-])cc5F)c5ccc([nH]5)c(-c5c(F)cc(S(=O)(=O)[O-])cc5F)c5nc(c(-c6c(F)cc(S(=O)(=O)[O-])cc6F)c6ccc3[nH]6)C=C5)C=C4)cc2)c2ccccc2)cc1
REMARK SMILES IDX 20 1 19 2 18 3 17 4 16 5 15 6 14 7 13 8 11 9 12 10 10 11
REMARK SMILES IDX 9 12 8 13 5 14 6 15 101 16 7 17 100 18 2 19 1 20 3 21 4 22
REMARK SMILES IDX 94 23 95 24 99 25 96 26 98 27 97 28 21 29 22 30 23 31 24 32
REMARK SMILES IDX 25 33 26 34 27 35 28 36 29 37 93 38 30 39 92 40 31 41 32 42
REMARK SMILES IDX 33 43 86 44 34 45 91 46 85 47 87 48 35 49 90 50 84 51 83 52
REMARK SMILES IDX 36 54 70 55 49 56 69 57 50 58 53 59 68 60 88 61 51 62 52 63
REMARK SMILES IDX 67 65 89 66 54 67 37 68 38 69 47 70 39 71 40 72 46 73 48 74
REMARK SMILES IDX 41 75 42 76 43 77 44 78 45 79 71 80 72 81 81 82 73 83 74 84
REMARK SMILES IDX 80 85 82 86 75 87 76 88 77 89 78 90 79 91 55 92 56 93 65 94
REMARK SMILES IDX 57 95 58 96 64 97 66 98 59 99 60 100 61 101 62 102 63 103
REMARK H PARENT 87 53 53 64
REMARK Flexibility Score: inf
ROOT
ATOM      1  C   UNL     1       0.289  -1.585  11.665  1.00  0.00     0.188 C 
ENDROOT
BRANCH   1   2
ATOM      2  O   UNL     1       0.453  -1.367  10.267  1.00  0.00    -0.377 OA
BRANCH   2   3
ATOM      3  C   UNL     1       0.343  -2.460   9.373  1.00  0.00     0.188 C 
BRANCH   3   4
ATOM      4  C   UNL     1       1.194  -3.719   9.651  1.00  0.00     0.188 C 
BRANCH   4   5
ATOM      5  O   UNL     1       1.880  -3.676  10.887  1.00  0.00    -0.376 OA
BRANCH   5   6
ATOM      6  C   UNL     1       3.263  -3.375  10.877  1.00  0.00     0.202 C 
BRANCH   6   7
ATOM      7  C   UNL     1       3.775  -2.114  10.158  1.00  0.00     0.261 C 
BRANCH   7   8
ATOM      8  O   UNL     1       3.148  -1.778   8.910  1.00  0.00    -0.460 OA
BRANCH   8   9
ATOM      9  C   UNL     1       3.508  -2.478   7.809  1.00  0.00     0.338 C 
ATOM     10  O   UNL     1       4.357  -3.356   7.776  1.00  0.00    -0.246 OA
BRANCH   9  11
ATOM     11  C   UNL     1       2.605  -2.139   6.652  1.00  0.00     0.067 C 
ATOM     12  C   UNL     1       2.217  -0.852   6.463  1.00  0.00     0.024 C 
BRANCH  12  13
ATOM     13  C   UNL     1       1.500  -0.261   5.304  1.00  0.00    -0.025 A 
ATOM     14  C   UNL     1       0.614   0.799   2.859  1.00  0.00     0.067 A 
ATOM     15  C   UNL     1       0.166  -0.452   3.271  1.00  0.00     0.021 A 
ATOM     16  C   UNL     1       1.380   1.588   3.714  1.00  0.00     0.021 A 
ATOM     17  C   UNL     1       0.581  -0.954   4.505  1.00  0.00     0.009 A 
ATOM     18  C   UNL     1       1.818   1.056   4.934  1.00  0.00     0.009 A 
BRANCH  14  19
ATOM     19  S   UNL     1       0.240   1.341   1.212  1.00  0.00     0.175 S 
ATOM     20  C   UNL     1       1.012   0.118   0.177  1.00  0.00     0.163 C 
ATOM     21  O   UNL     1       0.935   2.594   0.984  1.00  0.00    -0.224 OA
ATOM     22  O   UNL     1      -1.195   1.236   1.041  1.00  0.00    -0.224 OA
ENDBRANCH  14  19
ENDBRANCH  12  13
BRANCH  11  23
ATOM     23  C   UNL     1       2.196  -3.239   5.752  1.00  0.00    -0.011 A 
ATOM     24  C   UNL     1       1.063  -4.019   6.056  1.00  0.00     0.009 A 
ATOM     25  C   UNL     1       2.834  -3.430   4.525  1.00  0.00     0.009 A 
ATOM     26  C   UNL     1       0.562  -4.945   5.142  1.00  0.00     0.001 A 
ATOM     27  C   UNL     1       2.325  -4.351   3.606  1.00  0.00     0.001 A 
ATOM     28  C   UNL     1       1.187  -5.101   3.910  1.00  0.00     0.000 A 
ENDBRANCH  11  23
ENDBRANCH   9  11
ENDBRANCH   8   9
ENDBRANCH   7   8
ENDBRANCH   6   7
ENDBRANCH   5   6
ENDBRANCH   4   5
ENDBRANCH   3   4
ENDBRANCH   2   3
ENDBRANCH   1   2
BRANCH   1  29
ATOM     29  C   UNL     1      -0.422  -2.845  12.216  1.00  0.00     0.188 C 
BRANCH  29  30
ATOM     30  O   UNL     1      -1.124  -3.616  11.253  1.00  0.00    -0.376 OA
BRANCH  30  31
ATOM     31  C   UNL     1      -2.538  -3.544  11.245  1.00  0.00     0.202 C 
BRANCH  31  32
ATOM     32  C   UNL     1      -3.160  -2.190  10.876  1.00  0.00     0.261 C 
BRANCH  32  33
ATOM     33  O   UNL     1      -2.729  -1.069  11.661  1.00  0.00    -0.460 OA
BRANCH  33  34
ATOM     34  C   UNL     1      -3.033  -1.099  12.975  1.00  0.00     0.338 C 
ATOM     35  O   UNL     1      -3.655  -1.972  13.563  1.00  0.00    -0.246 OA
BRANCH  34  36
ATOM     36  C   UNL     1      -2.313   0.004  13.639  1.00  0.00     0.060 A 
ATOM     37  C   UNL     1      -1.423  -0.302  14.676  1.00  0.00     0.016 A 
ATOM     38  C   UNL     1      -2.520   1.328  13.246  1.00  0.00     0.016 A 
ATOM     39  C   UNL     1      -0.787   0.723  15.370  1.00  0.00     0.010 A 
ATOM     40  C   UNL     1      -1.898   2.358  13.958  1.00  0.00     0.010 A 
ATOM     41  C   UNL     1      -1.073   2.058  15.056  1.00  0.00    -0.014 A 
BRANCH  41  42
ATOM     42  C   UNL     1      -0.712   3.110  16.038  1.00  0.00     0.031 A 
ATOM     43  C   UNL     1      -1.776   3.574  16.998  1.00  0.00     0.074 A 
ATOM     44  C   UNL     1       0.543   3.583  16.130  1.00  0.00     0.049 A 
ATOM     45  N   UNL     1      -1.700   4.449  17.965  1.00  0.00    -0.248 NA
ATOM     46  C   UNL     1      -3.109   2.964  16.844  1.00  0.00     0.031 C 
ATOM     47  C   UNL     1       1.665   3.180  15.284  1.00  0.00     0.029 A 
ATOM     48  N   UNL     1       1.082   4.508  16.989  1.00  0.00    -0.354 N 
ATOM     49  C   UNL     1      -2.970   4.497  18.531  1.00  0.00     0.074 A 
ATOM     50  C   UNL     1      -3.808   3.596  17.774  1.00  0.00     0.031 C 
ATOM     51  C   UNL     1       2.762   3.857  15.666  1.00  0.00     0.029 A 
ATOM     52  C   UNL     1       2.415   4.758  16.764  1.00  0.00     0.049 A 
ATOM     53  H   UNL     1       0.564   4.950  17.699  1.00  0.00     0.167 HD
ATOM     54  C   UNL     1      -3.396   5.215  19.597  1.00  0.00     0.037 A 
ATOM     55  C   UNL     1       3.250   5.625  17.370  1.00  0.00     0.037 A 
ATOM     56  C   UNL     1      -2.556   6.112  20.346  1.00  0.00     0.049 A 
ATOM     57  C   UNL     1       2.737   6.461  18.517  1.00  0.00     0.074 A 
ATOM     58  C   UNL     1      -2.885   6.881  21.448  1.00  0.00     0.029 A 
ATOM     59  N   UNL     1      -1.221   6.368  20.065  1.00  0.00    -0.354 N 
ATOM     60  N   UNL     1       1.540   6.481  19.057  1.00  0.00    -0.248 NA
ATOM     61  C   UNL     1       3.693   7.382  19.144  1.00  0.00     0.031 C 
ATOM     62  C   UNL     1      -1.767   7.645  21.797  1.00  0.00     0.029 A 
ATOM     63  C   UNL     1      -0.720   7.302  20.957  1.00  0.00     0.049 A 
ATOM     64  H   UNL     1      -0.706   5.948  19.339  1.00  0.00     0.167 HD
ATOM     65  C   UNL     1       1.611   7.393  20.107  1.00  0.00     0.074 A 
ATOM     66  C   UNL     1       2.972   7.886  20.136  1.00  0.00     0.031 C 
ATOM     67  C   UNL     1       0.639   7.786  20.971  1.00  0.00     0.037 A 
BRANCH  54  68
ATOM     68  C   UNL     1      -4.842   5.082  19.992  1.00  0.00     0.058 A 
ATOM     69  C   UNL     1      -5.355   3.901  20.555  1.00  0.00     0.135 A 
ATOM     70  C   UNL     1      -5.725   6.162  19.825  1.00  0.00     0.135 A 
ATOM     71  F   UNL     1      -4.563   2.829  20.716  1.00  0.00    -0.206 F 
ATOM     72  C   UNL     1      -6.695   3.787  20.912  1.00  0.00     0.059 A 
ATOM     73  C   UNL     1      -7.061   6.081  20.206  1.00  0.00     0.059 A 
ATOM     74  F   UNL     1      -5.292   7.312  19.286  1.00  0.00    -0.206 F 
ATOM     75  C   UNL     1      -7.540   4.884  20.736  1.00  0.00     0.060 A 
BRANCH  75  76
ATOM     76  S   UNL     1      -9.273   4.723  21.216  1.00  0.00     0.124 S 
ATOM     77  O   UNL     1      -9.778   3.819  20.187  1.00  0.00    -0.237 OA
ATOM     78  O   UNL     1      -9.172   4.161  22.559  1.00  0.00    -0.237 OA
ATOM     79  O   UNL     1      -9.774   6.092  21.148  1.00  0.00    -0.744 OA
ENDBRANCH  75  76
ENDBRANCH  54  68
BRANCH  55  80
ATOM     80  C   UNL     1       4.659   5.752  16.907  1.00  0.00     0.058 A 
ATOM     81  C   UNL     1       5.734   5.353  17.716  1.00  0.00     0.135 A 
ATOM     82  C   UNL     1       4.960   6.290  15.645  1.00  0.00     0.135 A 
ATOM     83  F   UNL     1       5.502   4.844  18.936  1.00  0.00    -0.206 F 
ATOM     84  C   UNL     1       7.054   5.497  17.300  1.00  0.00     0.059 A 
ATOM     85  C   UNL     1       6.270   6.416  15.195  1.00  0.00     0.059 A 
ATOM     86  F   UNL     1       3.970   6.681  14.827  1.00  0.00    -0.206 F 
ATOM     87  C   UNL     1       7.312   6.026  16.035  1.00  0.00     0.060 A 
BRANCH  87  88
ATOM     88  S   UNL     1       9.027   6.162  15.485  1.00  0.00     0.124 S 
ATOM     89  O   UNL     1       9.521   7.247  16.324  1.00  0.00    -0.237 OA
ATOM     90  O   UNL     1       9.548   4.832  15.786  1.00  0.00    -0.237 OA
ATOM     91  O   UNL     1       8.900   6.470  14.063  1.00  0.00    -0.744 OA
ENDBRANCH  87  88
ENDBRANCH  55  80
BRANCH  67  92
ATOM     92  C   UNL     1       1.028   8.767  22.047  1.00  0.00     0.058 A 
ATOM     93  C   UNL     1       1.363  10.100  21.755  1.00  0.00     0.135 A 
ATOM     94  C   UNL     1       1.054   8.369  23.394  1.00  0.00     0.135 A 
ATOM     95  F   UNL     1       1.353  10.536  20.485  1.00  0.00    -0.206 F 
ATOM     96  C   UNL     1       1.762  10.985  22.751  1.00  0.00     0.059 A 
ATOM     97  C   UNL     1       1.414   9.248  24.411  1.00  0.00     0.059 A 
ATOM     98  F   UNL     1       0.726   7.113  23.736  1.00  0.00    -0.206 F 
ATOM     99  C   UNL     1       1.790  10.548  24.077  1.00  0.00     0.060 A 
BRANCH  99 100
ATOM    100  S   UNL     1       2.326  11.700  25.358  1.00  0.00     0.124 S 
ATOM    101  O   UNL     1       3.763  11.767  25.110  1.00  0.00    -0.237 OA
ATOM    102  O   UNL     1       1.570  12.905  25.032  1.00  0.00    -0.237 OA
ATOM    103  O   UNL     1       1.934  11.037  26.598  1.00  0.00    -0.744 OA
ENDBRANCH  99 100
ENDBRANCH  67  92
ENDBRANCH  41  42
ENDBRANCH  34  36
ENDBRANCH  33  34
ENDBRANCH  32  33
ENDBRANCH  31  32
ENDBRANCH  30  31
ENDBRANCH  29  30
ENDBRANCH   1  29
TORSDOF 26
