REMARK SMILES O=C(CCc1cccnc1)Nc1ccsc1C(=O)OCCOCCOCCOCCOC(=O)c1ccc(-c2c3nc(c(-c4c(F)cc(S(=O)(=O)[O-])cc4F)c4ccc([nH]4)c(-c4c(F)cc(S(=O)(=O)[O-])cc4F)c4nc(c(-c5c(F)cc(S(=O)(=O)[O-])cc5F)c5ccc2[nH]5)C=C4)C=C3)cc1
REMARK SMILES IDX 24 1 23 2 22 3 21 4 20 5 19 6 17 7 18 8 16 9 12 10 13 11
REMARK SMILES IDX 14 12 15 13 11 14 1 15 2 16 3 18 4 19 5 20 6 21 10 22 7 23
REMARK SMILES IDX 9 24 8 25 25 26 26 27 27 28 28 29 29 30 30 31 31 32 32 33
REMARK SMILES IDX 33 34 34 35 35 36 99 37 36 38 98 39 37 40 38 41 39 42 92 43
REMARK SMILES IDX 40 44 97 45 91 46 93 47 41 48 96 49 90 50 89 51 42 53 76 54
REMARK SMILES IDX 55 55 75 56 56 57 59 58 74 59 94 60 57 61 58 62 73 64 95 65
REMARK SMILES IDX 60 66 43 67 44 68 53 69 45 70 46 71 52 72 54 73 47 74 48 75
REMARK SMILES IDX 49 76 50 77 51 78 77 79 78 80 87 81 79 82 80 83 86 84 88 85
REMARK SMILES IDX 81 86 82 87 83 88 84 89 85 90 61 91 62 92 71 93 63 94 64 95
REMARK SMILES IDX 70 96 72 97 65 98 66 99 67 100 68 101 69 102
REMARK H PARENT 11 17 93 52 59 63
REMARK Flexibility Score: inf
ROOT
ATOM      1  C   UNL     1       2.528   0.821  -4.639  1.00  0.00     0.188 C 
ENDROOT
BRANCH   1   2
ATOM      2  C   UNL     1       2.985   2.078  -5.409  1.00  0.00     0.188 C 
BRANCH   2   3
ATOM      3  O   UNL     1       4.301   2.230  -5.928  1.00  0.00    -0.376 OA
BRANCH   3   4
ATOM      4  C   UNL     1       5.420   1.656  -5.272  1.00  0.00     0.202 C 
BRANCH   4   5
ATOM      5  C   UNL     1       5.726   2.027  -3.815  1.00  0.00     0.261 C 
BRANCH   5   6
ATOM      6  O   UNL     1       4.581   2.127  -2.955  1.00  0.00    -0.459 OA
BRANCH   6   7
ATOM      7  C   UNL     1       4.240   3.390  -2.573  1.00  0.00     0.350 C 
ATOM      8  O   UNL     1       4.921   4.385  -2.797  1.00  0.00    -0.245 OA
BRANCH   7   9
ATOM      9  C   UNL     1       2.917   3.392  -1.966  1.00  0.00     0.136 A 
ATOM     10  C   UNL     1       2.194   2.420  -1.279  1.00  0.00     0.066 A 
ATOM     11  C   UNL     1       0.886   2.902  -0.943  1.00  0.00     0.039 A 
ATOM     12  C   UNL     1       0.654   4.189  -1.367  1.00  0.00     0.068 A 
ATOM     13  S   UNL     1       2.013   4.852  -2.137  1.00  0.00    -0.135 S 
BRANCH  10  14
ATOM     14  N   UNL     1       2.711   1.162  -0.946  1.00  0.00    -0.325 N 
ATOM     15  O   UNL     1       0.828   0.189  -0.008  1.00  0.00    -0.275 OA
ATOM     16  C   UNL     1       2.041   0.193  -0.222  1.00  0.00     0.224 C 
ATOM     17  H   UNL     1       3.623   0.951  -1.251  1.00  0.00     0.169 HD
BRANCH  16  18
ATOM     18  C   UNL     1       2.913  -0.845   0.476  1.00  0.00     0.105 C 
BRANCH  18  19
ATOM     19  C   UNL     1       4.014  -1.513  -0.339  1.00  0.00     0.047 C 
BRANCH  19  20
ATOM     20  C   UNL     1       5.300  -0.757  -0.562  1.00  0.00    -0.029 A 
ATOM     21  C   UNL     1       5.660   0.423   0.096  1.00  0.00     0.007 A 
ATOM     22  C   UNL     1       6.222  -1.272  -1.473  1.00  0.00     0.114 A 
ATOM     23  C   UNL     1       6.864   1.052  -0.209  1.00  0.00     0.020 A 
ATOM     24  N   UNL     1       7.396  -0.683  -1.790  1.00  0.00    -0.264 NA
ATOM     25  C   UNL     1       7.697   0.460  -1.141  1.00  0.00     0.111 A 
ENDBRANCH  19  20
ENDBRANCH  18  19
ENDBRANCH  16  18
ENDBRANCH  10  14
ENDBRANCH   7   9
ENDBRANCH   6   7
ENDBRANCH   5   6
ENDBRANCH   4   5
ENDBRANCH   3   4
ENDBRANCH   2   3
ENDBRANCH   1   2
BRANCH   1  26
ATOM     26  O   UNL     1       3.545  -0.129  -4.373  1.00  0.00    -0.377 OA
BRANCH  26  27
ATOM     27  C   UNL     1       3.474  -1.321  -5.154  1.00  0.00     0.188 C 
BRANCH  27  28
ATOM     28  C   UNL     1       3.423  -1.122  -6.679  1.00  0.00     0.188 C 
BRANCH  28  29
ATOM     29  O   UNL     1       2.225  -0.473  -7.114  1.00  0.00    -0.376 OA
BRANCH  29  30
ATOM     30  C   UNL     1       1.233  -1.319  -7.694  1.00  0.00     0.202 C 
BRANCH  30  31
ATOM     31  C   UNL     1       0.409  -2.114  -6.669  1.00  0.00     0.261 C 
BRANCH  31  32
ATOM     32  O   UNL     1       1.144  -3.128  -5.961  1.00  0.00    -0.460 OA
BRANCH  32  33
ATOM     33  C   UNL     1       1.710  -4.102  -6.705  1.00  0.00     0.338 C 
ATOM     34  O   UNL     1       1.593  -4.265  -7.906  1.00  0.00    -0.246 OA
BRANCH  33  35
ATOM     35  C   UNL     1       2.663  -4.841  -5.855  1.00  0.00     0.060 A 
ATOM     36  C   UNL     1       3.982  -4.976  -6.303  1.00  0.00     0.016 A 
ATOM     37  C   UNL     1       2.259  -5.422  -4.649  1.00  0.00     0.016 A 
ATOM     38  C   UNL     1       4.889  -5.741  -5.570  1.00  0.00     0.010 A 
ATOM     39  C   UNL     1       3.167  -6.199  -3.923  1.00  0.00     0.010 A 
ATOM     40  C   UNL     1       4.474  -6.393  -4.401  1.00  0.00    -0.014 A 
BRANCH  40  41
ATOM     41  C   UNL     1       5.360  -7.406  -3.780  1.00  0.00     0.031 A 
ATOM     42  C   UNL     1       5.162  -8.855  -4.139  1.00  0.00     0.074 A 
ATOM     43  C   UNL     1       6.337  -7.044  -2.929  1.00  0.00     0.049 A 
ATOM     44  N   UNL     1       5.831  -9.905  -3.742  1.00  0.00    -0.248 NA
ATOM     45  C   UNL     1       4.062  -9.160  -5.071  1.00  0.00     0.031 C 
ATOM     46  C   UNL     1       6.629  -5.675  -2.509  1.00  0.00     0.029 A 
ATOM     47  N   UNL     1       7.261  -7.806  -2.259  1.00  0.00    -0.354 N 
ATOM     48  C   UNL     1       5.237 -10.993  -4.370  1.00  0.00     0.074 A 
ATOM     49  C   UNL     1       4.135 -10.481  -5.156  1.00  0.00     0.031 C 
ATOM     50  C   UNL     1       7.650  -5.695  -1.634  1.00  0.00     0.029 A 
ATOM     51  C   UNL     1       8.076  -7.078  -1.426  1.00  0.00     0.049 A 
ATOM     52  H   UNL     1       7.333  -8.782  -2.366  1.00  0.00     0.167 HD
ATOM     53  C   UNL     1       5.584 -12.300  -4.307  1.00  0.00     0.037 A 
ATOM     54  C   UNL     1       9.046  -7.487  -0.583  1.00  0.00     0.037 A 
ATOM     55  C   UNL     1       6.687 -12.807  -3.535  1.00  0.00     0.049 A 
ATOM     56  C   UNL     1       9.398  -8.952  -0.514  1.00  0.00     0.074 A 
ATOM     57  C   UNL     1       7.154 -14.107  -3.455  1.00  0.00     0.029 A 
ATOM     58  N   UNL     1       7.487 -12.042  -2.701  1.00  0.00    -0.354 N 
ATOM     59  N   UNL     1       8.874  -9.959  -1.172  1.00  0.00    -0.248 NA
ATOM     60  C   UNL     1      10.482  -9.335   0.403  1.00  0.00     0.031 C 
ATOM     61  C   UNL     1       8.209 -14.136  -2.536  1.00  0.00     0.029 A 
ATOM     62  C   UNL     1       8.426 -12.847  -2.078  1.00  0.00     0.049 A 
ATOM     63  H   UNL     1       7.401 -11.070  -2.571  1.00  0.00     0.167 HD
ATOM     64  C   UNL     1       9.576 -11.089  -0.763  1.00  0.00     0.074 A 
ATOM     65  C   UNL     1      10.574 -10.639   0.185  1.00  0.00     0.031 C 
ATOM     66  C   UNL     1       9.412 -12.383  -1.136  1.00  0.00     0.037 A 
BRANCH  53  67
ATOM     67  C   UNL     1       4.758 -13.283  -5.085  1.00  0.00     0.058 A 
ATOM     68  C   UNL     1       4.868 -13.397  -6.479  1.00  0.00     0.135 A 
ATOM     69  C   UNL     1       3.891 -14.164  -4.419  1.00  0.00     0.135 A 
ATOM     70  F   UNL     1       5.667 -12.565  -7.165  1.00  0.00    -0.206 F 
ATOM     71  C   UNL     1       4.142 -14.349  -7.188  1.00  0.00     0.059 A 
ATOM     72  C   UNL     1       3.171 -15.136  -5.105  1.00  0.00     0.059 A 
ATOM     73  F   UNL     1       3.744 -14.088  -3.086  1.00  0.00    -0.206 F 
ATOM     74  C   UNL     1       3.299 -15.217  -6.491  1.00  0.00     0.060 A 
BRANCH  74  75
ATOM     75  S   UNL     1       2.391 -16.470  -7.420  1.00  0.00     0.124 S 
ATOM     76  O   UNL     1       1.363 -15.663  -8.070  1.00  0.00    -0.237 OA
ATOM     77  O   UNL     1       3.420 -17.014  -8.300  1.00  0.00    -0.237 OA
ATOM     78  O   UNL     1       1.912 -17.381  -6.384  1.00  0.00    -0.744 OA
ENDBRANCH  74  75
ENDBRANCH  53  67
BRANCH  54  79
ATOM     79  C   UNL     1       9.745  -6.502   0.284  1.00  0.00     0.058 A 
ATOM     80  C   UNL     1      11.093  -6.173   0.080  1.00  0.00     0.135 A 
ATOM     81  C   UNL     1       9.079  -5.893   1.359  1.00  0.00     0.135 A 
ATOM     82  F   UNL     1      11.775  -6.737  -0.928  1.00  0.00    -0.206 F 
ATOM     83  C   UNL     1      11.765  -5.296   0.926  1.00  0.00     0.059 A 
ATOM     84  C   UNL     1       9.723  -4.995   2.205  1.00  0.00     0.059 A 
ATOM     85  F   UNL     1       7.785  -6.165   1.590  1.00  0.00    -0.206 F 
ATOM     86  C   UNL     1      11.072  -4.715   1.990  1.00  0.00     0.060 A 
BRANCH  86  87
ATOM     87  S   UNL     1      11.942  -3.564   3.076  1.00  0.00     0.124 S 
ATOM     88  O   UNL     1      12.724  -4.476   3.902  1.00  0.00    -0.237 OA
ATOM     89  O   UNL     1      12.698  -2.753   2.128  1.00  0.00    -0.237 OA
ATOM     90  O   UNL     1      10.857  -2.866   3.760  1.00  0.00    -0.744 OA
ENDBRANCH  86  87
ENDBRANCH  54  79
BRANCH  66  91
ATOM     91  C   UNL     1      10.340 -13.400  -0.534  1.00  0.00     0.058 A 
ATOM     92  C   UNL     1      10.214 -13.809   0.803  1.00  0.00     0.135 A 
ATOM     93  C   UNL     1      11.342 -14.002  -1.312  1.00  0.00     0.135 A 
ATOM     94  F   UNL     1       9.273 -13.263   1.590  1.00  0.00    -0.206 F 
ATOM     95  C   UNL     1      11.069 -14.757   1.356  1.00  0.00     0.059 A 
ATOM     96  C   UNL     1      12.192 -14.971  -0.787  1.00  0.00     0.059 A 
ATOM     97  F   UNL     1      11.496 -13.658  -2.601  1.00  0.00    -0.206 F 
ATOM     98  C   UNL     1      12.057 -15.330   0.554  1.00  0.00     0.060 A 
BRANCH  98  99
ATOM     99  S   UNL     1      13.153 -16.570   1.276  1.00  0.00     0.124 S 
ATOM    100  O   UNL     1      14.072 -15.736   2.045  1.00  0.00    -0.237 OA
ATOM    101  O   UNL     1      12.232 -17.387   2.060  1.00  0.00    -0.237 OA
ATOM    102  O   UNL     1      13.730 -17.232   0.110  1.00  0.00    -0.744 OA
ENDBRANCH  98  99
ENDBRANCH  66  91
ENDBRANCH  40  41
ENDBRANCH  33  35
ENDBRANCH  32  33
ENDBRANCH  31  32
ENDBRANCH  30  31
ENDBRANCH  29  30
ENDBRANCH  28  29
ENDBRANCH  27  28
ENDBRANCH  26  27
ENDBRANCH   1  26
TORSDOF 27
