REMARK SMILES COc1ccc(F)c(NC(=O)N2CCCC[C@@H]2C(=O)OCCOCCOCCOCCOC(=O)c2ccc(-c3c4nc(c(-c5c(F)cc(S(=O)(=O)[O-])cc5F)c5ccc([nH]5)c(-c5c(F)cc(S(=O)(=O)[O-])cc5F)c5nc(c(-c6c(F)cc(S(=O)(=O)[O-])cc6F)c6ccc3[nH]6)C=C5)C=C4)cc2)c1
REMARK SMILES IDX 26 1 25 2 24 3 23 4 22 5 21 6 20 7 18 8 19 9 17 10 12 11
REMARK SMILES IDX 13 12 14 13 16 14 15 15 10 16 9 17 11 19 8 20 3 21 4 22
REMARK SMILES IDX 101 23 5 24 6 25 7 26 2 27 1 28 27 29 28 30 29 31 30 32
REMARK SMILES IDX 31 33 32 34 33 35 34 36 35 37 36 38 100 39 37 40 99 41 38 42
REMARK SMILES IDX 39 43 40 44 93 45 41 46 98 47 92 48 94 49 42 50 97 51 91 52
REMARK SMILES IDX 90 53 43 55 77 56 56 57 76 58 57 59 60 60 75 61 95 62 58 63
REMARK SMILES IDX 59 64 74 66 96 67 61 68 44 69 45 70 54 71 46 72 47 73 53 74
REMARK SMILES IDX 55 75 48 76 49 77 50 78 51 79 52 80 78 81 79 82 88 83 80 84
REMARK SMILES IDX 81 85 87 86 89 87 82 88 83 89 84 90 85 91 86 92 62 93 63 94
REMARK SMILES IDX 72 95 64 96 65 97 71 98 73 99 66 100 67 101 68 102 69 103
REMARK SMILES IDX 70 104
REMARK H PARENT 9 18 94 54 60 65
REMARK Flexibility Score: inf
ROOT
ATOM      1  O   UNL     1      -2.861   2.658   2.089  1.00  0.00    -0.377 OA
ENDROOT
BRANCH   1   2
ATOM      2  C   UNL     1      -1.554   2.309   1.659  1.00  0.00     0.188 C 
BRANCH   2   3
ATOM      3  C   UNL     1      -0.465   3.393   1.647  1.00  0.00     0.188 C 
BRANCH   3   4
ATOM      4  O   UNL     1      -0.702   4.450   2.558  1.00  0.00    -0.376 OA
BRANCH   4   5
ATOM      5  C   UNL     1      -1.001   5.736   2.032  1.00  0.00     0.202 C 
BRANCH   5   6
ATOM      6  C   UNL     1      -2.314   5.948   1.246  1.00  0.00     0.261 C 
BRANCH   6   7
ATOM      7  O   UNL     1      -2.725   4.865   0.393  1.00  0.00    -0.462 OA
BRANCH   7   8
ATOM      8  C   UNL     1      -2.076   4.812  -0.794  1.00  0.00     0.329 C 
ATOM      9  O   UNL     1      -1.193   5.620  -1.062  1.00  0.00    -0.250 OA
BRANCH   8  10
ATOM     10  C   UNL     1      -2.403   3.533  -1.640  1.00  0.00     0.196 C 
ATOM     11  N   UNL     1      -2.393   3.786  -3.112  1.00  0.00    -0.311 N 
ATOM     12  C   UNL     1      -3.017   2.833  -4.025  1.00  0.00     0.122 C 
ATOM     13  C   UNL     1      -4.236   2.096  -3.502  1.00  0.00     0.022 C 
ATOM     14  C   UNL     1      -3.719   2.843  -1.214  1.00  0.00     0.037 C 
ATOM     15  C   UNL     1      -4.011   1.623  -2.081  1.00  0.00     0.005 C 
BRANCH  11  16
ATOM     16  C   UNL     1      -1.582   4.705  -3.737  1.00  0.00     0.322 C 
ATOM     17  N   UNL     1      -0.279   4.851  -3.396  1.00  0.00    -0.305 N 
ATOM     18  H   UNL     1       0.095   5.723  -3.658  1.00  0.00     0.171 HD
ATOM     19  O   UNL     1      -2.039   5.438  -4.618  1.00  0.00    -0.248 OA
BRANCH  17  20
ATOM     20  C   UNL     1       0.654   4.024  -2.747  1.00  0.00     0.082 A 
ATOM     21  C   UNL     1       1.397   1.920  -1.806  1.00  0.00     0.121 A 
ATOM     22  C   UNL     1       2.494   2.552  -1.220  1.00  0.00     0.049 A 
ATOM     23  C   UNL     1       0.518   2.644  -2.617  1.00  0.00     0.075 A 
ATOM     24  C   UNL     1       2.697   3.915  -1.430  1.00  0.00     0.045 A 
ATOM     25  C   UNL     1       1.782   4.637  -2.189  1.00  0.00     0.147 A 
ATOM     26  F   UNL     1       1.977   5.955  -2.353  1.00  0.00    -0.205 F 
BRANCH  21  27
ATOM     27  O   UNL     1       1.108   0.590  -1.661  1.00  0.00    -0.497 OA
ATOM     28  C   UNL     1       1.307   0.093  -0.339  1.00  0.00     0.278 C 
ENDBRANCH  21  27
ENDBRANCH  17  20
ENDBRANCH  11  16
ENDBRANCH   8  10
ENDBRANCH   7   8
ENDBRANCH   6   7
ENDBRANCH   5   6
ENDBRANCH   4   5
ENDBRANCH   3   4
ENDBRANCH   2   3
ENDBRANCH   1   2
BRANCH   1  29
ATOM     29  C   UNL     1      -3.051   3.288   3.355  1.00  0.00     0.188 C 
BRANCH  29  30
ATOM     30  C   UNL     1      -2.059   3.027   4.508  1.00  0.00     0.188 C 
BRANCH  30  31
ATOM     31  O   UNL     1      -1.232   1.891   4.324  1.00  0.00    -0.376 OA
BRANCH  31  32
ATOM     32  C   UNL     1      -1.660   0.684   4.935  1.00  0.00     0.202 C 
BRANCH  32  33
ATOM     33  C   UNL     1      -3.041   0.132   4.542  1.00  0.00     0.261 C 
BRANCH  33  34
ATOM     34  O   UNL     1      -4.180   0.968   4.814  1.00  0.00    -0.460 OA
BRANCH  34  35
ATOM     35  C   UNL     1      -4.372   1.404   6.077  1.00  0.00     0.338 C 
ATOM     36  O   UNL     1      -3.711   1.114   7.062  1.00  0.00    -0.246 OA
BRANCH  35  37
ATOM     37  C   UNL     1      -5.398   2.469   6.040  1.00  0.00     0.060 A 
ATOM     38  C   UNL     1      -5.059   3.763   6.463  1.00  0.00     0.016 A 
ATOM     39  C   UNL     1      -6.688   2.193   5.584  1.00  0.00     0.016 A 
ATOM     40  C   UNL     1      -6.022   4.772   6.473  1.00  0.00     0.010 A 
ATOM     41  C   UNL     1      -7.659   3.198   5.618  1.00  0.00     0.010 A 
ATOM     42  C   UNL     1      -7.340   4.480   6.099  1.00  0.00    -0.014 A 
BRANCH  42  43
ATOM     43  C   UNL     1      -8.421   5.449   6.406  1.00  0.00     0.031 A 
ATOM     44  C   UNL     1      -9.239   5.234   7.650  1.00  0.00     0.074 A 
ATOM     45  C   UNL     1      -8.657   6.512   5.617  1.00  0.00     0.049 A 
ATOM     46  N   UNL     1     -10.255   5.919   8.106  1.00  0.00    -0.248 NA
ATOM     47  C   UNL     1      -8.860   4.087   8.491  1.00  0.00     0.031 C 
ATOM     48  C   UNL     1      -7.901   6.855   4.416  1.00  0.00     0.029 A 
ATOM     49  N   UNL     1      -9.609   7.497   5.712  1.00  0.00    -0.354 N 
ATOM     50  C   UNL     1     -10.642   5.282   9.279  1.00  0.00     0.074 A 
ATOM     51  C   UNL     1      -9.774   4.137   9.447  1.00  0.00     0.031 C 
ATOM     52  C   UNL     1      -8.422   7.972   3.880  1.00  0.00     0.029 A 
ATOM     53  C   UNL     1      -9.570   8.401   4.679  1.00  0.00     0.049 A 
ATOM     54  H   UNL     1     -10.257   7.550   6.451  1.00  0.00     0.167 HD
ATOM     55  C   UNL     1     -11.626   5.626  10.143  1.00  0.00     0.037 A 
ATOM     56  C   UNL     1     -10.380   9.443   4.399  1.00  0.00     0.037 A 
ATOM     57  C   UNL     1     -12.488   6.766   9.965  1.00  0.00     0.049 A 
ATOM     58  C   UNL     1     -11.521   9.766   5.328  1.00  0.00     0.074 A 
ATOM     59  C   UNL     1     -13.501   7.213  10.794  1.00  0.00     0.029 A 
ATOM     60  N   UNL     1     -12.451   7.628   8.878  1.00  0.00    -0.354 N 
ATOM     61  N   UNL     1     -11.867   9.170   6.445  1.00  0.00    -0.248 NA
ATOM     62  C   UNL     1     -12.381  10.900   4.962  1.00  0.00     0.031 C 
ATOM     63  C   UNL     1     -14.119   8.304  10.177  1.00  0.00     0.029 A 
ATOM     64  C   UNL     1     -13.449   8.582   8.996  1.00  0.00     0.049 A 
ATOM     65  H   UNL     1     -11.810   7.571   8.133  1.00  0.00     0.167 HD
ATOM     66  C   UNL     1     -12.974   9.865   6.924  1.00  0.00     0.074 A 
ATOM     67  C   UNL     1     -13.231  10.935   5.981  1.00  0.00     0.031 C 
ATOM     68  C   UNL     1     -13.706   9.638   8.044  1.00  0.00     0.037 A 
BRANCH  55  69
ATOM     69  C   UNL     1     -11.847   4.736  11.337  1.00  0.00     0.058 A 
ATOM     70  C   UNL     1     -13.018   3.969  11.442  1.00  0.00     0.135 A 
ATOM     71  C   UNL     1     -10.916   4.651  12.386  1.00  0.00     0.135 A 
ATOM     72  F   UNL     1     -13.940   4.004  10.467  1.00  0.00    -0.206 F 
ATOM     73  C   UNL     1     -13.259   3.152  12.541  1.00  0.00     0.059 A 
ATOM     74  C   UNL     1     -11.121   3.815  13.480  1.00  0.00     0.059 A 
ATOM     75  F   UNL     1      -9.768   5.346  12.329  1.00  0.00    -0.206 F 
ATOM     76  C   UNL     1     -12.302   3.075  13.553  1.00  0.00     0.060 A 
BRANCH  76  77
ATOM     77  S   UNL     1     -12.600   1.954  14.936  1.00  0.00     0.124 S 
ATOM     78  O   UNL     1     -13.694   2.619  15.632  1.00  0.00    -0.237 OA
ATOM     79  O   UNL     1     -12.941   0.710  14.251  1.00  0.00    -0.237 OA
ATOM     80  O   UNL     1     -11.321   1.939  15.640  1.00  0.00    -0.744 OA
ENDBRANCH  76  77
ENDBRANCH  55  69
BRANCH  56  81
ATOM     81  C   UNL     1     -10.118  10.255   3.181  1.00  0.00     0.058 A 
ATOM     82  C   UNL     1     -10.304   9.718   1.897  1.00  0.00     0.135 A 
ATOM     83  C   UNL     1      -9.594  11.552   3.277  1.00  0.00     0.135 A 
ATOM     84  F   UNL     1     -10.803   8.481   1.750  1.00  0.00    -0.206 F 
ATOM     85  C   UNL     1      -9.929  10.416   0.754  1.00  0.00     0.059 A 
ATOM     86  C   UNL     1      -9.235  12.281   2.147  1.00  0.00     0.059 A 
ATOM     87  F   UNL     1      -9.419  12.116   4.482  1.00  0.00    -0.206 F 
ATOM     88  C   UNL     1      -9.380  11.692   0.891  1.00  0.00     0.060 A 
BRANCH  88  89
ATOM     89  S   UNL     1      -8.818  12.545  -0.598  1.00  0.00     0.124 S 
ATOM     90  O   UNL     1      -7.713  11.691  -1.021  1.00  0.00    -0.237 OA
ATOM     91  O   UNL     1     -10.011  12.507  -1.438  1.00  0.00    -0.237 OA
ATOM     92  O   UNL     1      -8.438  13.866  -0.108  1.00  0.00    -0.744 OA
ENDBRANCH  88  89
ENDBRANCH  56  81
BRANCH  68  93
ATOM     93  C   UNL     1     -14.861  10.561   8.332  1.00  0.00     0.058 A 
ATOM     94  C   UNL     1     -14.820  11.432   9.434  1.00  0.00     0.135 A 
ATOM     95  C   UNL     1     -16.044  10.520   7.578  1.00  0.00     0.135 A 
ATOM     96  F   UNL     1     -13.717  11.508  10.197  1.00  0.00    -0.206 F 
ATOM     97  C   UNL     1     -15.916  12.211   9.790  1.00  0.00     0.059 A 
ATOM     98  C   UNL     1     -17.143  11.315   7.897  1.00  0.00     0.059 A 
ATOM     99  F   UNL     1     -16.136   9.712   6.509  1.00  0.00    -0.206 F 
ATOM    100  C   UNL     1     -17.075  12.144   9.016  1.00  0.00     0.060 A 
BRANCH 100 101
ATOM    101  S   UNL     1     -18.483  13.170   9.490  1.00  0.00     0.124 S 
ATOM    102  O   UNL     1     -18.902  12.546  10.740  1.00  0.00    -0.237 OA
ATOM    103  O   UNL     1     -17.873  14.491   9.612  1.00  0.00    -0.237 OA
ATOM    104  O   UNL     1     -19.408  13.015   8.371  1.00  0.00    -0.744 OA
ENDBRANCH 100 101
ENDBRANCH  68  93
ENDBRANCH  42  43
ENDBRANCH  35  37
ENDBRANCH  34  35
ENDBRANCH  33  34
ENDBRANCH  32  33
ENDBRANCH  31  32
ENDBRANCH  30  31
ENDBRANCH  29  30
ENDBRANCH   1  29
TORSDOF 26
