REMARK SMILES CCCOc1ccccc1C(=O)OCCOCCOCCOCCOC(=O)c1ccc(-c2c3nc(c(-c4c(F)cc(S(=O)(=O)[O-])cc4F)c4ccc([nH]4)c(-c4c(F)cc(S(=O)(=O)[O-])cc4F)c4nc(c(-c5c(F)cc(S(=O)(=O)[O-])cc5F)c5ccc2[nH]5)C=C4)C=C3)cc1
REMARK SMILES IDX 19 1 18 2 17 3 16 4 15 5 14 6 13 7 11 8 12 9 10 10 5 11 6 12
REMARK SMILES IDX 7 13 9 14 8 15 4 16 3 17 2 18 1 19 20 20 21 21 22 22 23 23
REMARK SMILES IDX 24 24 25 25 26 26 27 27 28 28 29 29 93 30 30 31 92 32 31 33
REMARK SMILES IDX 32 34 33 35 86 36 34 37 91 38 85 39 87 40 35 41 90 42 84 43
REMARK SMILES IDX 83 44 36 46 70 47 49 48 69 49 50 50 53 51 68 52 88 53 51 54
REMARK SMILES IDX 52 55 67 57 89 58 54 59 37 60 38 61 47 62 39 63 40 64 46 65
REMARK SMILES IDX 48 66 41 67 42 68 43 69 44 70 45 71 71 72 72 73 81 74 73 75
REMARK SMILES IDX 74 76 80 77 82 78 75 79 76 80 77 81 78 82 79 83 55 84 56 85
REMARK SMILES IDX 65 86 57 87 58 88 64 89 66 90 59 91 60 92 61 93 62 94 63 95
REMARK H PARENT 87 45 53 56
REMARK Flexibility Score: inf
ROOT
ATOM      1  O   UNL     1      -2.383  -0.170   0.599  1.00  0.00    -0.377 OA
ENDROOT
BRANCH   1   2
ATOM      2  C   UNL     1      -2.208   0.902  -0.301  1.00  0.00     0.188 C 
BRANCH   2   3
ATOM      3  C   UNL     1      -1.712   0.627  -1.739  1.00  0.00     0.188 C 
BRANCH   3   4
ATOM      4  O   UNL     1      -1.772  -0.664  -2.311  1.00  0.00    -0.376 OA
BRANCH   4   5
ATOM      5  C   UNL     1      -0.983  -1.745  -1.851  1.00  0.00     0.202 C 
BRANCH   5   6
ATOM      6  C   UNL     1       0.290  -1.594  -1.020  1.00  0.00     0.261 C 
BRANCH   6   7
ATOM      7  O   UNL     1       0.325  -0.514  -0.090  1.00  0.00    -0.460 OA
BRANCH   7   8
ATOM      8  C   UNL     1       1.146   0.510  -0.409  1.00  0.00     0.342 C 
ATOM      9  O   UNL     1       1.743   0.651  -1.468  1.00  0.00    -0.246 OA
BRANCH   8  10
ATOM     10  C   UNL     1       1.200   1.535   0.657  1.00  0.00     0.102 A 
ATOM     11  C   UNL     1       1.190   1.236   2.025  1.00  0.00     0.133 A 
ATOM     12  C   UNL     1       1.317   2.268   2.960  1.00  0.00     0.047 A 
ATOM     13  C   UNL     1       1.466   3.591   2.534  1.00  0.00     0.004 A 
ATOM     14  C   UNL     1       1.335   2.868   0.237  1.00  0.00     0.019 A 
ATOM     15  C   UNL     1       1.463   3.893   1.173  1.00  0.00     0.001 A 
BRANCH  11  16
ATOM     16  O   UNL     1       0.941  -0.029   2.473  1.00  0.00    -0.493 OA
BRANCH  16  17
ATOM     17  C   UNL     1       2.095  -0.727   2.951  1.00  0.00     0.229 C 
BRANCH  17  18
ATOM     18  C   UNL     1       2.509  -1.805   1.948  1.00  0.00     0.038 C 
ATOM     19  C   UNL     1       3.433  -1.287   0.851  1.00  0.00     0.007 C 
ENDBRANCH  17  18
ENDBRANCH  16  17
ENDBRANCH  11  16
ENDBRANCH   8  10
ENDBRANCH   7   8
ENDBRANCH   6   7
ENDBRANCH   5   6
ENDBRANCH   4   5
ENDBRANCH   3   4
ENDBRANCH   2   3
ENDBRANCH   1   2
BRANCH   1  20
ATOM     20  C   UNL     1      -3.346  -1.183   0.352  1.00  0.00     0.188 C 
BRANCH  20  21
ATOM     21  C   UNL     1      -4.305  -1.121  -0.855  1.00  0.00     0.188 C 
BRANCH  21  22
ATOM     22  O   UNL     1      -4.496   0.170  -1.404  1.00  0.00    -0.376 OA
BRANCH  22  23
ATOM     23  C   UNL     1      -5.651   0.906  -1.043  1.00  0.00     0.202 C 
BRANCH  23  24
ATOM     24  C   UNL     1      -5.878   1.219   0.444  1.00  0.00     0.261 C 
BRANCH  24  25
ATOM     25  O   UNL     1      -5.899   0.096   1.334  1.00  0.00    -0.460 OA
BRANCH  25  26
ATOM     26  C   UNL     1      -6.866  -0.826   1.131  1.00  0.00     0.338 C 
ATOM     27  O   UNL     1      -7.744  -0.795   0.296  1.00  0.00    -0.246 OA
BRANCH  26  28
ATOM     28  C   UNL     1      -6.550  -1.994   1.981  1.00  0.00     0.060 A 
ATOM     29  C   UNL     1      -6.327  -3.231   1.363  1.00  0.00     0.016 A 
ATOM     30  C   UNL     1      -6.496  -1.870   3.371  1.00  0.00     0.016 A 
ATOM     31  C   UNL     1      -6.113  -4.364   2.141  1.00  0.00     0.010 A 
ATOM     32  C   UNL     1      -6.309  -3.013   4.152  1.00  0.00     0.010 A 
ATOM     33  C   UNL     1      -6.174  -4.270   3.537  1.00  0.00    -0.014 A 
BRANCH  33  34
ATOM     34  C   UNL     1      -6.390  -5.515   4.311  1.00  0.00     0.031 A 
ATOM     35  C   UNL     1      -7.811  -5.886   4.649  1.00  0.00     0.074 A 
ATOM     36  C   UNL     1      -5.374  -6.337   4.624  1.00  0.00     0.049 A 
ATOM     37  N   UNL     1      -8.270  -6.936   5.279  1.00  0.00    -0.248 NA
ATOM     38  C   UNL     1      -8.856  -4.944   4.213  1.00  0.00     0.031 C 
ATOM     39  C   UNL     1      -3.967  -6.106   4.301  1.00  0.00     0.029 A 
ATOM     40  N   UNL     1      -5.377  -7.541   5.280  1.00  0.00    -0.354 N 
ATOM     41  C   UNL     1      -9.651  -6.778   5.314  1.00  0.00     0.074 A 
ATOM     42  C   UNL     1      -9.954  -5.516   4.680  1.00  0.00     0.031 C 
ATOM     43  C   UNL     1      -3.240  -7.138   4.765  1.00  0.00     0.029 A 
ATOM     44  C   UNL     1      -4.126  -8.086   5.438  1.00  0.00     0.049 A 
ATOM     45  H   UNL     1      -6.199  -7.975   5.606  1.00  0.00     0.167 HD
ATOM     46  C   UNL     1     -10.586  -7.618   5.817  1.00  0.00     0.037 A 
ATOM     47  C   UNL     1      -3.745  -9.216   6.067  1.00  0.00     0.037 A 
ATOM     48  C   UNL     1     -10.275  -8.872   6.449  1.00  0.00     0.049 A 
ATOM     49  C   UNL     1      -4.800 -10.105   6.680  1.00  0.00     0.074 A 
ATOM     50  C   UNL     1     -11.144  -9.800   6.994  1.00  0.00     0.029 A 
ATOM     51  N   UNL     1      -8.993  -9.372   6.627  1.00  0.00    -0.354 N 
ATOM     52  N   UNL     1      -6.104  -9.952   6.699  1.00  0.00    -0.248 NA
ATOM     53  C   UNL     1      -4.331 -11.328   7.345  1.00  0.00     0.031 C 
ATOM     54  C   UNL     1     -10.384 -10.833   7.553  1.00  0.00     0.029 A 
ATOM     55  C   UNL     1      -9.045 -10.584   7.294  1.00  0.00     0.049 A 
ATOM     56  H   UNL     1      -8.167  -8.930   6.324  1.00  0.00     0.167 HD
ATOM     57  C   UNL     1      -6.612 -11.076   7.343  1.00  0.00     0.074 A 
ATOM     58  C   UNL     1      -5.474 -11.905   7.686  1.00  0.00     0.031 C 
ATOM     59  C   UNL     1      -7.901 -11.399   7.623  1.00  0.00     0.037 A 
BRANCH  46  60
ATOM     60  C   UNL     1     -12.025  -7.185   5.735  1.00  0.00     0.058 A 
ATOM     61  C   UNL     1     -12.715  -7.120   4.513  1.00  0.00     0.135 A 
ATOM     62  C   UNL     1     -12.729  -6.846   6.902  1.00  0.00     0.135 A 
ATOM     63  F   UNL     1     -12.085  -7.407   3.363  1.00  0.00    -0.206 F 
ATOM     64  C   UNL     1     -14.043  -6.709   4.449  1.00  0.00     0.059 A 
ATOM     65  C   UNL     1     -14.066  -6.464   6.864  1.00  0.00     0.059 A 
ATOM     66  F   UNL     1     -12.117  -6.882   8.096  1.00  0.00    -0.206 F 
ATOM     67  C   UNL     1     -14.711  -6.386   5.631  1.00  0.00     0.060 A 
BRANCH  67  68
ATOM     68  S   UNL     1     -16.437  -5.868   5.533  1.00  0.00     0.124 S 
ATOM     69  O   UNL     1     -16.311  -4.546   4.925  1.00  0.00    -0.237 OA
ATOM     70  O   UNL     1     -17.024  -6.901   4.686  1.00  0.00    -0.237 OA
ATOM     71  O   UNL     1     -16.876  -5.877   6.925  1.00  0.00    -0.744 OA
ENDBRANCH  67  68
ENDBRANCH  46  60
BRANCH  47  72
ATOM     72  C   UNL     1      -2.303  -9.572   6.156  1.00  0.00     0.058 A 
ATOM     73  C   UNL     1      -1.783 -10.692   5.489  1.00  0.00     0.135 A 
ATOM     74  C   UNL     1      -1.415  -8.802   6.923  1.00  0.00     0.135 A 
ATOM     75  F   UNL     1      -2.592 -11.469   4.752  1.00  0.00    -0.206 F 
ATOM     76  C   UNL     1      -0.441 -11.046   5.593  1.00  0.00     0.059 A 
ATOM     77  C   UNL     1      -0.063  -9.118   7.019  1.00  0.00     0.059 A 
ATOM     78  F   UNL     1      -1.857  -7.715   7.576  1.00  0.00    -0.206 F 
ATOM     79  C   UNL     1       0.412 -10.249   6.359  1.00  0.00     0.060 A 
BRANCH  79  80
ATOM     80  S   UNL     1       2.162 -10.690   6.448  1.00  0.00     0.124 S 
ATOM     81  O   UNL     1       2.121 -11.890   7.276  1.00  0.00    -0.237 OA
ATOM     82  O   UNL     1       2.497 -10.894   5.043  1.00  0.00    -0.237 OA
ATOM     83  O   UNL     1       2.772  -9.517   7.066  1.00  0.00    -0.744 OA
ENDBRANCH  79  80
ENDBRANCH  47  72
BRANCH  59  84
ATOM     84  C   UNL     1      -8.154 -12.728   8.286  1.00  0.00     0.058 A 
ATOM     85  C   UNL     1      -7.772 -12.987   9.612  1.00  0.00     0.135 A 
ATOM     86  C   UNL     1      -8.809 -13.754   7.583  1.00  0.00     0.135 A 
ATOM     87  F   UNL     1      -7.145 -12.043  10.332  1.00  0.00    -0.206 F 
ATOM     88  C   UNL     1      -7.983 -14.230  10.200  1.00  0.00     0.059 A 
ATOM     89  C   UNL     1      -9.064 -14.992   8.164  1.00  0.00     0.059 A 
ATOM     90  F   UNL     1      -9.214 -13.557   6.319  1.00  0.00    -0.206 F 
ATOM     91  C   UNL     1      -8.626 -15.229   9.465  1.00  0.00     0.060 A 
BRANCH  91  92
ATOM     92  S   UNL     1      -8.882 -16.841  10.234  1.00  0.00     0.124 S 
ATOM     93  O   UNL     1      -7.530 -17.389  10.223  1.00  0.00    -0.237 OA
ATOM     94  O   UNL     1      -9.411 -16.482  11.546  1.00  0.00    -0.237 OA
ATOM     95  O   UNL     1      -9.832 -17.497   9.340  1.00  0.00    -0.744 OA
ENDBRANCH  91  92
ENDBRANCH  59  84
ENDBRANCH  33  34
ENDBRANCH  26  28
ENDBRANCH  25  26
ENDBRANCH  24  25
ENDBRANCH  23  24
ENDBRANCH  22  23
ENDBRANCH  21  22
ENDBRANCH  20  21
ENDBRANCH   1  20
TORSDOF 26
