REMARK SMILES Cc1ccccc1[C@@H](Cc1c(Cl)cccc1Cl)C(=O)OCCOCCOCCOCCOC(=O)c1ccc(-c2c3nc(c(-c4c(F)cc(S(=O)(=O)[O-])cc4F)c4ccc([nH]4)c(-c4c(F)cc(S(=O)(=O)[O-])cc4F)c4nc(c(-c5c(F)cc(S(=O)(=O)[O-])cc5F)c5ccc2[nH]5)C=C4)C=C3)cc1
REMARK SMILES IDX 27 1 26 2 25 3 24 4 23 5 22 6 21 7 20 8 18 9 19 10 8 11 7 12
REMARK SMILES IDX 1 13 2 14 3 15 4 16 6 17 5 18 9 19 10 20 11 21 16 22 12 23
REMARK SMILES IDX 13 24 15 25 17 26 14 27 28 28 29 29 30 30 31 31 32 32 33 33
REMARK SMILES IDX 34 34 35 35 36 36 100 37 37 38 99 39 38 40 39 41 40 42 93 43
REMARK SMILES IDX 41 44 98 45 92 46 94 47 42 48 97 49 91 50 90 51 43 53 77 54
REMARK SMILES IDX 56 55 76 56 57 57 60 58 75 59 95 60 58 61 59 62 74 64 96 65
REMARK SMILES IDX 61 66 44 67 45 68 54 69 46 70 47 71 53 72 55 73 48 74 49 75
REMARK SMILES IDX 50 76 51 77 52 78 78 79 79 80 88 81 80 82 81 83 87 84 89 85
REMARK SMILES IDX 82 86 83 87 84 88 85 89 86 90 62 91 63 92 72 93 64 94 65 95
REMARK SMILES IDX 71 96 73 97 66 98 67 99 68 100 69 101 70 102
REMARK H PARENT 94 52 60 63
REMARK Flexibility Score: inf
ROOT
ATOM      1  C   UNL     1      -1.530   0.683   3.194  1.00  0.00     0.188 C 
ENDROOT
BRANCH   1   2
ATOM      2  O   UNL     1      -0.433   1.287   2.492  1.00  0.00    -0.377 OA
BRANCH   2   3
ATOM      3  C   UNL     1       0.631   0.413   2.155  1.00  0.00     0.188 C 
BRANCH   3   4
ATOM      4  C   UNL     1       2.083   0.876   2.393  1.00  0.00     0.188 C 
BRANCH   4   5
ATOM      5  O   UNL     1       2.397   2.021   3.160  1.00  0.00    -0.376 OA
BRANCH   5   6
ATOM      6  C   UNL     1       1.810   3.244   2.752  1.00  0.00     0.202 C 
BRANCH   6   7
ATOM      7  C   UNL     1       2.284   3.918   1.477  1.00  0.00     0.261 C 
BRANCH   7   8
ATOM      8  O   UNL     1       1.654   3.362   0.310  1.00  0.00    -0.463 OA
BRANCH   8   9
ATOM      9  C   UNL     1       2.485   2.563  -0.401  1.00  0.00     0.313 C 
ATOM     10  O   UNL     1       3.628   2.315  -0.075  1.00  0.00    -0.252 OA
BRANCH   9  11
ATOM     11  C   UNL     1       1.844   1.966  -1.651  1.00  0.00     0.134 C 
BRANCH  11  12
ATOM     12  C   UNL     1       0.916   0.777  -1.333  1.00  0.00    -0.031 A 
ATOM     13  C   UNL     1       2.910  -0.797  -0.839  1.00  0.00     0.044 C 
ATOM     14  C   UNL     1       1.442  -0.512  -1.040  1.00  0.00    -0.047 A 
ATOM     15  C   UNL     1       0.566  -1.591  -0.785  1.00  0.00     0.004 A 
ATOM     16  C   UNL     1      -0.811  -1.399  -0.717  1.00  0.00     0.000 A 
ATOM     17  C   UNL     1      -0.484   0.946  -1.223  1.00  0.00     0.005 A 
ATOM     18  C   UNL     1      -1.334  -0.127  -0.912  1.00  0.00     0.000 A 
ENDBRANCH  11  12
BRANCH  11  19
ATOM     19  C   UNL     1       1.284   3.020  -2.644  1.00  0.00     0.058 C 
BRANCH  19  20
ATOM     20  C   UNL     1       1.949   4.381  -2.824  1.00  0.00    -0.010 A 
ATOM     21  C   UNL     1       1.158   5.474  -3.243  1.00  0.00     0.045 A 
ATOM     22  C   UNL     1       3.296   4.666  -2.548  1.00  0.00     0.045 A 
ATOM     23  Cl  UNL     1      -0.430   5.258  -3.909  1.00  0.00    -0.084 Cl
ATOM     24  C   UNL     1       1.628   6.789  -3.164  1.00  0.00     0.021 A 
ATOM     25  C   UNL     1       3.729   5.981  -2.348  1.00  0.00     0.021 A 
ATOM     26  Cl  UNL     1       4.546   3.475  -2.631  1.00  0.00    -0.084 Cl
ATOM     27  C   UNL     1       2.885   7.045  -2.634  1.00  0.00     0.003 A 
ENDBRANCH  19  20
ENDBRANCH  11  19
ENDBRANCH   9  11
ENDBRANCH   8   9
ENDBRANCH   7   8
ENDBRANCH   6   7
ENDBRANCH   5   6
ENDBRANCH   4   5
ENDBRANCH   3   4
ENDBRANCH   2   3
ENDBRANCH   1   2
BRANCH   1  28
ATOM     28  C   UNL     1      -1.148  -0.351   4.220  1.00  0.00     0.188 C 
BRANCH  28  29
ATOM     29  O   UNL     1       0.098   0.069   4.770  1.00  0.00    -0.376 OA
BRANCH  29  30
ATOM     30  C   UNL     1       0.855  -0.932   5.405  1.00  0.00     0.202 C 
BRANCH  30  31
ATOM     31  C   UNL     1       0.067  -1.562   6.543  1.00  0.00     0.261 C 
BRANCH  31  32
ATOM     32  O   UNL     1      -0.008  -0.668   7.688  1.00  0.00    -0.460 OA
BRANCH  32  33
ATOM     33  C   UNL     1      -1.118   0.115   7.881  1.00  0.00     0.338 C 
ATOM     34  O   UNL     1      -1.949  -0.135   8.742  1.00  0.00    -0.246 OA
BRANCH  33  35
ATOM     35  C   UNL     1      -1.075   1.432   7.171  1.00  0.00     0.060 A 
ATOM     36  C   UNL     1      -2.234   2.167   6.869  1.00  0.00     0.016 A 
ATOM     37  C   UNL     1       0.142   1.921   6.732  1.00  0.00     0.016 A 
ATOM     38  C   UNL     1      -2.192   3.276   5.987  1.00  0.00     0.010 A 
ATOM     39  C   UNL     1       0.162   2.938   5.787  1.00  0.00     0.010 A 
ATOM     40  C   UNL     1      -0.992   3.632   5.377  1.00  0.00    -0.014 A 
BRANCH  40  41
ATOM     41  C   UNL     1      -0.803   4.649   4.303  1.00  0.00     0.031 A 
ATOM     42  C   UNL     1       0.303   5.669   4.494  1.00  0.00     0.074 A 
ATOM     43  C   UNL     1      -1.321   4.458   3.051  1.00  0.00     0.049 A 
ATOM     44  N   UNL     1       0.679   6.535   3.616  1.00  0.00    -0.248 NA
ATOM     45  C   UNL     1       1.167   5.733   5.675  1.00  0.00     0.031 C 
ATOM     46  C   UNL     1      -0.808   5.005   1.788  1.00  0.00     0.029 A 
ATOM     47  N   UNL     1      -2.336   3.609   2.575  1.00  0.00    -0.354 N 
ATOM     48  C   UNL     1       1.947   7.003   3.926  1.00  0.00     0.074 A 
ATOM     49  C   UNL     1       2.192   6.481   5.244  1.00  0.00     0.031 C 
ATOM     50  C   UNL     1      -1.578   4.663   0.745  1.00  0.00     0.029 A 
ATOM     51  C   UNL     1      -2.768   4.099   1.320  1.00  0.00     0.049 A 
ATOM     52  H   UNL     1      -2.685   2.812   3.036  1.00  0.00     0.167 HD
ATOM     53  C   UNL     1       2.650   7.667   2.952  1.00  0.00     0.037 A 
ATOM     54  C   UNL     1      -4.009   4.638   1.159  1.00  0.00     0.037 A 
ATOM     55  C   UNL     1       1.760   7.898   1.794  1.00  0.00     0.049 A 
ATOM     56  C   UNL     1      -3.849   6.127   0.896  1.00  0.00     0.074 A 
ATOM     57  C   UNL     1       1.751   7.357   0.522  1.00  0.00     0.029 A 
ATOM     58  N   UNL     1       0.505   8.512   1.954  1.00  0.00    -0.354 N 
ATOM     59  N   UNL     1      -2.907   6.870   1.438  1.00  0.00    -0.248 NA
ATOM     60  C   UNL     1      -4.526   6.809  -0.208  1.00  0.00     0.031 C 
ATOM     61  C   UNL     1       0.454   7.513  -0.019  1.00  0.00     0.029 A 
ATOM     62  C   UNL     1      -0.328   8.212   0.885  1.00  0.00     0.049 A 
ATOM     63  H   UNL     1       0.252   9.078   2.719  1.00  0.00     0.167 HD
ATOM     64  C   UNL     1      -2.734   8.002   0.675  1.00  0.00     0.074 A 
ATOM     65  C   UNL     1      -3.821   7.952  -0.294  1.00  0.00     0.031 C 
ATOM     66  C   UNL     1      -1.634   8.824   0.683  1.00  0.00     0.037 A 
BRANCH  53  67
ATOM     67  C   UNL     1       4.185   7.901   2.886  1.00  0.00     0.058 A 
ATOM     68  C   UNL     1       4.819   8.258   1.663  1.00  0.00     0.135 A 
ATOM     69  C   UNL     1       5.104   7.753   3.951  1.00  0.00     0.135 A 
ATOM     70  F   UNL     1       4.115   8.499   0.550  1.00  0.00    -0.206 F 
ATOM     71  C   UNL     1       6.208   8.396   1.501  1.00  0.00     0.059 A 
ATOM     72  C   UNL     1       6.503   7.891   3.815  1.00  0.00     0.059 A 
ATOM     73  F   UNL     1       4.699   7.504   5.198  1.00  0.00    -0.206 F 
ATOM     74  C   UNL     1       7.051   8.208   2.582  1.00  0.00     0.060 A 
BRANCH  74  75
ATOM     75  S   UNL     1       8.829   8.458   2.361  1.00  0.00     0.124 S 
ATOM     76  O   UNL     1       9.185   7.367   1.460  1.00  0.00    -0.237 OA
ATOM     77  O   UNL     1       8.885   9.797   1.783  1.00  0.00    -0.237 OA
ATOM     78  O   UNL     1       9.363   8.346   3.716  1.00  0.00    -0.744 OA
ENDBRANCH  74  75
ENDBRANCH  53  67
BRANCH  54  79
ATOM     79  C   UNL     1      -5.031   3.820   1.888  1.00  0.00     0.058 A 
ATOM     80  C   UNL     1      -5.275   2.538   1.333  1.00  0.00     0.135 A 
ATOM     81  C   UNL     1      -5.201   3.941   3.276  1.00  0.00     0.135 A 
ATOM     82  F   UNL     1      -5.158   2.352   0.006  1.00  0.00    -0.206 F 
ATOM     83  C   UNL     1      -5.446   1.401   2.125  1.00  0.00     0.059 A 
ATOM     84  C   UNL     1      -5.372   2.808   4.090  1.00  0.00     0.059 A 
ATOM     85  F   UNL     1      -5.013   5.127   3.873  1.00  0.00    -0.206 F 
ATOM     86  C   UNL     1      -5.422   1.538   3.509  1.00  0.00     0.060 A 
BRANCH  86  87
ATOM     87  S   UNL     1      -5.217   0.040   4.517  1.00  0.00     0.124 S 
ATOM     88  O   UNL     1      -6.584  -0.454   4.615  1.00  0.00    -0.237 OA
ATOM     89  O   UNL     1      -4.308  -0.772   3.709  1.00  0.00    -0.237 OA
ATOM     90  O   UNL     1      -4.634   0.543   5.753  1.00  0.00    -0.744 OA
ENDBRANCH  86  87
ENDBRANCH  54  79
BRANCH  66  91
ATOM     91  C   UNL     1      -1.634  10.262   0.208  1.00  0.00     0.058 A 
ATOM     92  C   UNL     1      -2.797  11.045   0.161  1.00  0.00     0.135 A 
ATOM     93  C   UNL     1      -0.416  10.960  -0.013  1.00  0.00     0.135 A 
ATOM     94  F   UNL     1      -4.006  10.522   0.411  1.00  0.00    -0.206 F 
ATOM     95  C   UNL     1      -2.758  12.412  -0.098  1.00  0.00     0.059 A 
ATOM     96  C   UNL     1      -0.351  12.331  -0.206  1.00  0.00     0.059 A 
ATOM     97  F   UNL     1       0.777  10.348  -0.018  1.00  0.00    -0.206 F 
ATOM     98  C   UNL     1      -1.530  13.050  -0.252  1.00  0.00     0.060 A 
BRANCH  98  99
ATOM     99  S   UNL     1      -1.483  14.837  -0.418  1.00  0.00     0.124 S 
ATOM    100  O   UNL     1      -1.843  15.006  -1.821  1.00  0.00    -0.237 OA
ATOM    101  O   UNL     1      -2.487  15.264   0.552  1.00  0.00    -0.237 OA
ATOM    102  O   UNL     1      -0.106  15.175  -0.072  1.00  0.00    -0.744 OA
ENDBRANCH  98  99
ENDBRANCH  66  91
ENDBRANCH  40  41
ENDBRANCH  33  35
ENDBRANCH  32  33
ENDBRANCH  31  32
ENDBRANCH  30  31
ENDBRANCH  29  30
ENDBRANCH  28  29
ENDBRANCH   1  28
TORSDOF 26
