REMARK SMILES C[C@@](NC(=O)CCOC1CC[NH2+]CC1)(C(=O)OCCOCCOCCOCCOC(=O)c1ccc(-c2c3nc(c(-c4c(F)cc(S(=O)(=O)[O-])cc4F)c4ccc([nH]4)c(-c4c(F)cc(S(=O)(=O)[O-])cc4F)c4nc(c(-c5c(F)cc(S(=O)(=O)[O-])cc5F)c5ccc2[nH]5)C=C4)C=C3)cc1)C(F)(F)F
REMARK SMILES IDX 22 1 21 2 20 3 19 4 18 5 17 6 15 7 16 8 2 9 1 10 3 11 4 12
REMARK SMILES IDX 5 14 6 15 7 16 8 17 9 18 10 19 14 20 11 21 13 22 12 23 98 26
REMARK SMILES IDX 99 27 100 28 101 29 23 30 24 31 25 32 26 33 27 34 28 35
REMARK SMILES IDX 29 36 30 37 31 38 32 39 33 40 97 41 34 42 96 43 35 44 36 45
REMARK SMILES IDX 37 46 90 47 38 48 95 49 89 50 91 51 39 52 94 53 88 54 87 55
REMARK SMILES IDX 40 57 74 58 53 59 73 60 54 61 57 62 72 63 92 64 55 65 56 66
REMARK SMILES IDX 71 68 93 69 58 70 41 71 42 72 51 73 43 74 44 75 50 76 52 77
REMARK SMILES IDX 45 78 46 79 47 80 48 81 49 82 75 83 76 84 85 85 77 86 78 87
REMARK SMILES IDX 84 88 86 89 79 90 80 91 81 92 82 93 83 94 59 95 60 96 69 97
REMARK SMILES IDX 61 98 62 99 68 100 70 101 63 102 64 103 65 104 66 105 67 106
REMARK H PARENT 3 13 12 24 12 25 91 56 57 67
REMARK Flexibility Score: inf
ROOT
ATOM      1  C   UNL     1      -1.523  -1.353   1.263  1.00  0.00     0.188 C 
ENDROOT
BRANCH   1   2
ATOM      2  C   UNL     1      -2.170  -0.877   2.582  1.00  0.00     0.188 C 
BRANCH   2   3
ATOM      3  O   UNL     1      -3.555  -0.576   2.530  1.00  0.00    -0.376 OA
BRANCH   3   4
ATOM      4  C   UNL     1      -4.040   0.611   1.921  1.00  0.00     0.202 C 
BRANCH   4   5
ATOM      5  C   UNL     1      -3.220   1.447   0.946  1.00  0.00     0.261 C 
BRANCH   5   6
ATOM      6  O   UNL     1      -1.807   1.460   1.176  1.00  0.00    -0.461 OA
BRANCH   6   7
ATOM      7  C   UNL     1      -1.304   2.211   2.179  1.00  0.00     0.341 C 
ATOM      8  O   UNL     1      -1.993   2.832   2.975  1.00  0.00    -0.249 OA
BRANCH   7   9
ATOM      9  C   UNL     1       0.205   2.339   2.017  1.00  0.00     0.231 C 
ATOM     10  C   UNL     1       0.927   1.216   1.248  1.00  0.00     0.058 C 
BRANCH   9  11
ATOM     11  N   UNL     1       0.494   3.682   1.405  1.00  0.00    -0.333 N 
ATOM     12  C   UNL     1       0.025   4.333   0.298  1.00  0.00     0.223 C 
ATOM     13  H   UNL     1       1.162   4.202   1.907  1.00  0.00     0.164 HD
ATOM     14  O   UNL     1       0.732   5.255  -0.121  1.00  0.00    -0.275 OA
BRANCH  12  15
ATOM     15  C   UNL     1      -1.332   4.075  -0.342  1.00  0.00     0.128 C 
BRANCH  15  16
ATOM     16  C   UNL     1      -1.466   3.267  -1.643  1.00  0.00     0.170 C 
BRANCH  16  17
ATOM     17  O   UNL     1      -1.042   1.917  -1.577  1.00  0.00    -0.377 OA
BRANCH  17  18
ATOM     18  C   UNL     1       0.193   1.490  -2.162  1.00  0.00     0.129 C 
ATOM     19  C   UNL     1       1.412   2.333  -1.816  1.00  0.00     0.093 C 
ATOM     20  C   UNL     1       0.181   1.169  -3.655  1.00  0.00     0.093 C 
ATOM     21  C   UNL     1       1.592   3.540  -2.720  1.00  0.00     0.263 C 
ATOM     22  C   UNL     1       0.450   2.386  -4.531  1.00  0.00     0.263 C 
ATOM     23  N   UNL     1       1.640   3.137  -4.118  1.00  0.00    -0.346 N 
ATOM     24  H   UNL     1       2.462   2.549  -4.260  1.00  0.00     0.346 HD
ATOM     25  H   UNL     1       1.681   3.985  -4.682  1.00  0.00     0.346 HD
ENDBRANCH  17  18
ENDBRANCH  16  17
ENDBRANCH  15  16
ENDBRANCH  12  15
ENDBRANCH   9  11
BRANCH   9  26
ATOM     26  C   UNL     1       0.739   2.194   3.458  1.00  0.00     0.422 C 
ATOM     27  F   UNL     1       0.409   0.996   4.002  1.00  0.00    -0.168 F 
ATOM     28  F   UNL     1       2.101   2.243   3.454  1.00  0.00    -0.168 F 
ATOM     29  F   UNL     1       0.329   3.160   4.300  1.00  0.00    -0.168 F 
ENDBRANCH   9  26
ENDBRANCH   7   9
ENDBRANCH   6   7
ENDBRANCH   5   6
ENDBRANCH   4   5
ENDBRANCH   3   4
ENDBRANCH   2   3
ENDBRANCH   1   2
BRANCH   1  30
ATOM     30  O   UNL     1      -2.274  -1.030   0.103  1.00  0.00    -0.377 OA
BRANCH  30  31
ATOM     31  C   UNL     1      -3.090  -2.078  -0.409  1.00  0.00     0.188 C 
BRANCH  31  32
ATOM     32  C   UNL     1      -4.008  -2.776   0.612  1.00  0.00     0.188 C 
BRANCH  32  33
ATOM     33  O   UNL     1      -3.325  -3.232   1.769  1.00  0.00    -0.376 OA
BRANCH  33  34
ATOM     34  C   UNL     1      -2.829  -4.550   1.879  1.00  0.00     0.202 C 
BRANCH  34  35
ATOM     35  C   UNL     1      -1.891  -5.119   0.803  1.00  0.00     0.261 C 
BRANCH  35  36
ATOM     36  O   UNL     1      -2.308  -4.993  -0.560  1.00  0.00    -0.460 OA
BRANCH  36  37
ATOM     37  C   UNL     1      -3.494  -5.530  -0.904  1.00  0.00     0.338 C 
ATOM     38  O   UNL     1      -4.247  -6.172  -0.184  1.00  0.00    -0.246 OA
BRANCH  37  39
ATOM     39  C   UNL     1      -3.831  -5.028  -2.250  1.00  0.00     0.060 A 
ATOM     40  C   UNL     1      -5.033  -4.332  -2.439  1.00  0.00     0.016 A 
ATOM     41  C   UNL     1      -2.961  -5.248  -3.320  1.00  0.00     0.016 A 
ATOM     42  C   UNL     1      -5.394  -3.900  -3.711  1.00  0.00     0.010 A 
ATOM     43  C   UNL     1      -3.338  -4.843  -4.601  1.00  0.00     0.010 A 
ATOM     44  C   UNL     1      -4.577  -4.210  -4.804  1.00  0.00    -0.014 A 
BRANCH  44  45
ATOM     45  C   UNL     1      -5.133  -4.105  -6.171  1.00  0.00     0.031 A 
ATOM     46  C   UNL     1      -5.698  -5.353  -6.793  1.00  0.00     0.074 A 
ATOM     47  C   UNL     1      -5.168  -2.932  -6.824  1.00  0.00     0.049 A 
ATOM     48  N   UNL     1      -6.177  -5.539  -7.994  1.00  0.00    -0.248 NA
ATOM     49  C   UNL     1      -5.722  -6.556  -5.942  1.00  0.00     0.031 C 
ATOM     50  C   UNL     1      -4.707  -1.651  -6.290  1.00  0.00     0.029 A 
ATOM     51  N   UNL     1      -5.609  -2.634  -8.088  1.00  0.00    -0.354 N 
ATOM     52  C   UNL     1      -6.547  -6.878  -8.047  1.00  0.00     0.074 A 
ATOM     53  C   UNL     1      -6.210  -7.466  -6.770  1.00  0.00     0.031 C 
ATOM     54  C   UNL     1      -4.877  -0.704  -7.229  1.00  0.00     0.029 A 
ATOM     55  C   UNL     1      -5.419  -1.319  -8.440  1.00  0.00     0.049 A 
ATOM     56  H   UNL     1      -6.022  -3.298  -8.685  1.00  0.00     0.167 HD
ATOM     57  C   UNL     1      -7.123  -7.553  -9.068  1.00  0.00     0.037 A 
ATOM     58  C   UNL     1      -5.633  -0.698  -9.616  1.00  0.00     0.037 A 
ATOM     59  C   UNL     1      -7.452  -6.953 -10.334  1.00  0.00     0.049 A 
ATOM     60  C   UNL     1      -6.198  -1.490 -10.769  1.00  0.00     0.074 A 
ATOM     61  C   UNL     1      -8.042  -7.543 -11.437  1.00  0.00     0.029 A 
ATOM     62  N   UNL     1      -7.212  -5.628 -10.667  1.00  0.00    -0.354 N 
ATOM     63  N   UNL     1      -6.549  -2.755 -10.810  1.00  0.00    -0.248 NA
ATOM     64  C   UNL     1      -6.397  -0.772 -12.035  1.00  0.00     0.031 C 
ATOM     65  C   UNL     1      -8.104  -6.589 -12.457  1.00  0.00     0.029 A 
ATOM     66  C   UNL     1      -7.617  -5.387 -11.968  1.00  0.00     0.049 A 
ATOM     67  H   UNL     1      -6.813  -4.958 -10.066  1.00  0.00     0.167 HD
ATOM     68  C   UNL     1      -7.042  -2.973 -12.093  1.00  0.00     0.074 A 
ATOM     69  C   UNL     1      -6.952  -1.708 -12.793  1.00  0.00     0.031 C 
ATOM     70  C   UNL     1      -7.528  -4.115 -12.643  1.00  0.00     0.037 A 
BRANCH  57  71
ATOM     71  C   UNL     1      -7.399  -9.019  -8.870  1.00  0.00     0.058 A 
ATOM     72  C   UNL     1      -8.394  -9.477  -7.992  1.00  0.00     0.135 A 
ATOM     73  C   UNL     1      -6.673  -9.979  -9.594  1.00  0.00     0.135 A 
ATOM     74  F   UNL     1      -9.101  -8.605  -7.256  1.00  0.00    -0.206 F 
ATOM     75  C   UNL     1      -8.644 -10.835  -7.821  1.00  0.00     0.059 A 
ATOM     76  C   UNL     1      -6.928 -11.341  -9.463  1.00  0.00     0.059 A 
ATOM     77  F   UNL     1      -5.704  -9.598 -10.441  1.00  0.00    -0.206 F 
ATOM     78  C   UNL     1      -7.907 -11.759  -8.564  1.00  0.00     0.060 A 
BRANCH  78  79
ATOM     79  S   UNL     1      -8.254 -13.517  -8.341  1.00  0.00     0.124 S 
ATOM     80  O   UNL     1      -7.725 -13.751  -7.001  1.00  0.00    -0.237 OA
ATOM     81  O   UNL     1      -9.707 -13.564  -8.466  1.00  0.00    -0.237 OA
ATOM     82  O   UNL     1      -7.513 -14.151  -9.427  1.00  0.00    -0.744 OA
ENDBRANCH  78  79
ENDBRANCH  57  71
BRANCH  58  83
ATOM     83  C   UNL     1      -5.299   0.744  -9.770  1.00  0.00     0.058 A 
ATOM     84  C   UNL     1      -6.302   1.705  -9.963  1.00  0.00     0.135 A 
ATOM     85  C   UNL     1      -3.968   1.189  -9.730  1.00  0.00     0.135 A 
ATOM     86  F   UNL     1      -7.589   1.330 -10.021  1.00  0.00    -0.206 F 
ATOM     87  C   UNL     1      -5.998   3.054 -10.124  1.00  0.00     0.059 A 
ATOM     88  C   UNL     1      -3.641   2.535  -9.859  1.00  0.00     0.059 A 
ATOM     89  F   UNL     1      -2.970   0.312  -9.539  1.00  0.00    -0.206 F 
ATOM     90  C   UNL     1      -4.664   3.459 -10.065  1.00  0.00     0.060 A 
BRANCH  90  91
ATOM     91  S   UNL     1      -4.286   5.218 -10.222  1.00  0.00     0.124 S 
ATOM     92  O   UNL     1      -4.570   5.455 -11.633  1.00  0.00    -0.237 OA
ATOM     93  O   UNL     1      -5.220   5.815  -9.272  1.00  0.00    -0.237 OA
ATOM     94  O   UNL     1      -2.880   5.294  -9.838  1.00  0.00    -0.744 OA
ENDBRANCH  90  91
ENDBRANCH  58  83
BRANCH  70  95
ATOM     95  C   UNL     1      -8.045  -4.043 -14.055  1.00  0.00     0.058 A 
ATOM     96  C   UNL     1      -7.187  -3.891 -15.155  1.00  0.00     0.135 A 
ATOM     97  C   UNL     1      -9.419  -4.189 -14.312  1.00  0.00     0.135 A 
ATOM     98  F   UNL     1      -5.866  -3.743 -14.966  1.00  0.00    -0.206 F 
ATOM     99  C   UNL     1      -7.674  -3.861 -16.458  1.00  0.00     0.059 A 
ATOM    100  C   UNL     1      -9.924  -4.196 -15.608  1.00  0.00     0.059 A 
ATOM    101  F   UNL     1     -10.284  -4.351 -13.298  1.00  0.00    -0.206 F 
ATOM    102  C   UNL     1      -9.044  -4.019 -16.674  1.00  0.00     0.060 A 
BRANCH 102 103
ATOM    103  S   UNL     1      -9.657  -4.012 -18.372  1.00  0.00     0.124 S 
ATOM    104  O   UNL     1      -9.507  -2.606 -18.733  1.00  0.00    -0.237 OA
ATOM    105  O   UNL     1      -8.745  -4.939 -19.035  1.00  0.00    -0.237 OA
ATOM    106  O   UNL     1     -11.033  -4.482 -18.240  1.00  0.00    -0.744 OA
ENDBRANCH 102 103
ENDBRANCH  70  95
ENDBRANCH  44  45
ENDBRANCH  37  39
ENDBRANCH  36  37
ENDBRANCH  35  36
ENDBRANCH  34  35
ENDBRANCH  33  34
ENDBRANCH  32  33
ENDBRANCH  31  32
ENDBRANCH  30  31
ENDBRANCH   1  30
TORSDOF 29
