REMARK SMILES O=C(CN(CC(F)(F)F)S(=O)(=O)c1cccc(F)c1)OCCOCCOCCOCCOC(=O)c1ccc(-c2c3nc(c(-c4c(F)cc(S(=O)(=O)[O-])cc4F)c4ccc([nH]4)c(-c4c(F)cc(S(=O)(=O)[O-])cc4F)c4nc(c(-c5c(F)cc(S(=O)(=O)[O-])cc5F)c5ccc2[nH]5)C=C4)C=C3)cc1
REMARK SMILES IDX 26 1 25 2 24 3 23 4 22 5 21 6 20 7 2 8 1 9 3 10 4 11 5 12
REMARK SMILES IDX 6 13 7 14 8 15 9 16 10 17 11 18 12 19 13 20 14 21 19 22
REMARK SMILES IDX 15 23 17 24 16 25 18 26 27 27 28 28 29 29 30 30 31 31 32 32
REMARK SMILES IDX 33 33 34 34 35 35 36 36 100 37 37 38 99 39 38 40 39 41 40 42
REMARK SMILES IDX 93 43 41 44 98 45 92 46 94 47 42 48 97 49 91 50 90 51 43 53
REMARK SMILES IDX 77 54 56 55 76 56 57 57 60 58 75 59 95 60 58 61 59 62 74 64
REMARK SMILES IDX 96 65 61 66 44 67 45 68 54 69 46 70 47 71 53 72 55 73 48 74
REMARK SMILES IDX 49 75 50 76 51 77 52 78 78 79 79 80 88 81 80 82 81 83 87 84
REMARK SMILES IDX 89 85 82 86 83 87 84 88 85 89 86 90 62 91 63 92 72 93 64 94
REMARK SMILES IDX 65 95 71 96 73 97 66 98 67 99 68 100 69 101 70 102
REMARK H PARENT 94 52 60 63
REMARK Flexibility Score: inf
ROOT
ATOM      1  O   UNL     1       2.954  -2.152   3.120  1.00  0.00    -0.377 OA
ENDROOT
BRANCH   1   2
ATOM      2  C   UNL     1       2.252  -1.536   2.054  1.00  0.00     0.188 C 
BRANCH   2   3
ATOM      3  C   UNL     1       2.697  -1.801   0.610  1.00  0.00     0.188 C 
BRANCH   3   4
ATOM      4  O   UNL     1       3.933  -1.395   0.018  1.00  0.00    -0.376 OA
BRANCH   4   5
ATOM      5  C   UNL     1       4.703  -0.247   0.311  1.00  0.00     0.202 C 
BRANCH   5   6
ATOM      6  C   UNL     1       4.097   1.152   0.286  1.00  0.00     0.261 C 
BRANCH   6   7
ATOM      7  O   UNL     1       2.678   1.217   0.408  1.00  0.00    -0.462 OA
BRANCH   7   8
ATOM      8  C   UNL     1       1.808   0.962  -0.596  1.00  0.00     0.321 C 
ATOM      9  O   UNL     1       0.602   1.073  -0.377  1.00  0.00    -0.251 OA
BRANCH   8  10
ATOM     10  C   UNL     1       2.306   0.345  -1.889  1.00  0.00     0.225 C 
BRANCH  10  11
ATOM     11  N   UNL     1       3.366   1.062  -2.655  1.00  0.00    -0.178 NA
BRANCH  11  12
ATOM     12  C   UNL     1       4.327   0.079  -3.308  1.00  0.00     0.218 C 
BRANCH  12  13
ATOM     13  C   UNL     1       3.791  -0.886  -4.376  1.00  0.00     0.402 C 
ATOM     14  F   UNL     1       3.537  -0.277  -5.547  1.00  0.00    -0.170 F 
ATOM     15  F   UNL     1       4.726  -1.836  -4.632  1.00  0.00    -0.170 F 
ATOM     16  F   UNL     1       2.678  -1.530  -3.966  1.00  0.00    -0.170 F 
ENDBRANCH  12  13
ENDBRANCH  11  12
BRANCH  11  17
ATOM     17  S   UNL     1       2.648   2.288  -3.595  1.00  0.00     0.244 S 
ATOM     18  O   UNL     1       2.112   1.679  -4.785  1.00  0.00    -0.207 OA
ATOM     19  O   UNL     1       1.789   3.027  -2.692  1.00  0.00    -0.207 OA
BRANCH  17  20
ATOM     20  C   UNL     1       3.953   3.380  -4.066  1.00  0.00     0.085 A 
ATOM     21  C   UNL     1       3.922   4.708  -3.617  1.00  0.00     0.022 A 
ATOM     22  C   UNL     1       4.916   2.967  -4.984  1.00  0.00     0.061 A 
ATOM     23  C   UNL     1       4.866   5.622  -4.086  1.00  0.00     0.004 A 
ATOM     24  C   UNL     1       5.873   3.879  -5.407  1.00  0.00     0.124 A 
ATOM     25  C   UNL     1       5.851   5.202  -4.977  1.00  0.00     0.039 A 
ATOM     26  F   UNL     1       6.821   3.478  -6.264  1.00  0.00    -0.207 F 
ENDBRANCH  17  20
ENDBRANCH  11  17
ENDBRANCH  10  11
ENDBRANCH   8  10
ENDBRANCH   7   8
ENDBRANCH   6   7
ENDBRANCH   5   6
ENDBRANCH   4   5
ENDBRANCH   3   4
ENDBRANCH   2   3
ENDBRANCH   1   2
BRANCH   1  27
ATOM     27  C   UNL     1       4.335  -1.854   3.171  1.00  0.00     0.188 C 
BRANCH  27  28
ATOM     28  C   UNL     1       5.188  -2.940   2.490  1.00  0.00     0.188 C 
BRANCH  28  29
ATOM     29  O   UNL     1       4.451  -3.726   1.570  1.00  0.00    -0.376 OA
BRANCH  29  30
ATOM     30  C   UNL     1       3.841  -4.938   1.994  1.00  0.00     0.202 C 
BRANCH  30  31
ATOM     31  C   UNL     1       3.098  -5.131   3.336  1.00  0.00     0.261 C 
BRANCH  31  32
ATOM     32  O   UNL     1       3.541  -4.396   4.477  1.00  0.00    -0.460 OA
BRANCH  32  33
ATOM     33  C   UNL     1       4.696  -4.772   5.055  1.00  0.00     0.338 C 
ATOM     34  O   UNL     1       5.399  -5.713   4.735  1.00  0.00    -0.246 OA
BRANCH  33  35
ATOM     35  C   UNL     1       5.094  -3.687   5.982  1.00  0.00     0.060 A 
ATOM     36  C   UNL     1       6.381  -3.149   5.842  1.00  0.00     0.016 A 
ATOM     37  C   UNL     1       4.207  -3.165   6.932  1.00  0.00     0.016 A 
ATOM     38  C   UNL     1       6.809  -2.138   6.695  1.00  0.00     0.010 A 
ATOM     39  C   UNL     1       4.650  -2.176   7.814  1.00  0.00     0.010 A 
ATOM     40  C   UNL     1       5.973  -1.706   7.731  1.00  0.00    -0.014 A 
BRANCH  40  41
ATOM     41  C   UNL     1       6.605  -1.030   8.887  1.00  0.00     0.031 A 
ATOM     42  C   UNL     1       7.057  -1.903  10.028  1.00  0.00     0.074 A 
ATOM     43  C   UNL     1       6.871   0.287   8.881  1.00  0.00     0.049 A 
ATOM     44  N   UNL     1       7.683  -1.578  11.127  1.00  0.00    -0.248 NA
ATOM     45  C   UNL     1       6.769  -3.344   9.905  1.00  0.00     0.031 C 
ATOM     46  C   UNL     1       6.537   1.213   7.801  1.00  0.00     0.029 A 
ATOM     47  N   UNL     1       7.501   1.068   9.816  1.00  0.00    -0.354 N 
ATOM     48  C   UNL     1       7.870  -2.770  11.817  1.00  0.00     0.074 A 
ATOM     49  C   UNL     1       7.252  -3.819  11.040  1.00  0.00     0.031 C 
ATOM     50  C   UNL     1       6.969   2.442   8.135  1.00  0.00     0.029 A 
ATOM     51  C   UNL     1       7.587   2.392   9.461  1.00  0.00     0.049 A 
ATOM     52  H   UNL     1       7.858   0.713  10.662  1.00  0.00     0.167 HD
ATOM     53  C   UNL     1       8.518  -2.977  12.986  1.00  0.00     0.037 A 
ATOM     54  C   UNL     1       8.099   3.441  10.137  1.00  0.00     0.037 A 
ATOM     55  C   UNL     1       9.121  -1.925  13.757  1.00  0.00     0.049 A 
ATOM     56  C   UNL     1       8.738   3.205  11.481  1.00  0.00     0.074 A 
ATOM     57  C   UNL     1       9.783  -2.017  14.967  1.00  0.00     0.029 A 
ATOM     58  N   UNL     1       9.130  -0.585  13.394  1.00  0.00    -0.354 N 
ATOM     59  N   UNL     1       8.902   2.075  12.130  1.00  0.00    -0.248 NA
ATOM     60  C   UNL     1       9.270   4.381  12.182  1.00  0.00     0.031 C 
ATOM     61  C   UNL     1      10.146  -0.727  15.362  1.00  0.00     0.029 A 
ATOM     62  C   UNL     1       9.770   0.163  14.367  1.00  0.00     0.049 A 
ATOM     63  H   UNL     1       8.739  -0.221  12.568  1.00  0.00     0.167 HD
ATOM     64  C   UNL     1       9.579   2.400  13.302  1.00  0.00     0.074 A 
ATOM     65  C   UNL     1       9.802   3.832  13.266  1.00  0.00     0.031 C 
ATOM     66  C   UNL     1       9.984   1.589  14.312  1.00  0.00     0.037 A 
BRANCH  53  67
ATOM     67  C   UNL     1       8.581  -4.387  13.505  1.00  0.00     0.058 A 
ATOM     68  C   UNL     1       7.864  -4.754  14.654  1.00  0.00     0.135 A 
ATOM     69  C   UNL     1       9.362  -5.372  12.878  1.00  0.00     0.135 A 
ATOM     70  F   UNL     1       7.090  -3.858  15.284  1.00  0.00    -0.206 F 
ATOM     71  C   UNL     1       7.928  -6.044  15.170  1.00  0.00     0.059 A 
ATOM     72  C   UNL     1       9.417  -6.677  13.360  1.00  0.00     0.059 A 
ATOM     73  F   UNL     1      10.042  -5.083  11.757  1.00  0.00    -0.206 F 
ATOM     74  C   UNL     1       8.706  -6.999  14.515  1.00  0.00     0.060 A 
BRANCH  74  75
ATOM     75  S   UNL     1       8.741  -8.679  15.175  1.00  0.00     0.124 S 
ATOM     76  O   UNL     1       9.484  -8.498  16.416  1.00  0.00    -0.237 OA
ATOM     77  O   UNL     1       7.319  -8.979  15.321  1.00  0.00    -0.237 OA
ATOM     78  O   UNL     1       9.428  -9.438  14.133  1.00  0.00    -0.744 OA
ENDBRANCH  74  75
ENDBRANCH  53  67
BRANCH  54  79
ATOM     79  C   UNL     1       8.037   4.800   9.537  1.00  0.00     0.058 A 
ATOM     80  C   UNL     1       6.810   5.461   9.366  1.00  0.00     0.135 A 
ATOM     81  C   UNL     1       9.195   5.447   9.079  1.00  0.00     0.135 A 
ATOM     82  F   UNL     1       5.672   4.887   9.785  1.00  0.00    -0.206 F 
ATOM     83  C   UNL     1       6.728   6.694   8.727  1.00  0.00     0.059 A 
ATOM     84  C   UNL     1       9.141   6.693   8.460  1.00  0.00     0.059 A 
ATOM     85  F   UNL     1      10.393   4.864   9.235  1.00  0.00    -0.206 F 
ATOM     86  C   UNL     1       7.899   7.298   8.268  1.00  0.00     0.060 A 
BRANCH  86  87
ATOM     87  S   UNL     1       7.764   8.872   7.395  1.00  0.00     0.124 S 
ATOM     88  O   UNL     1       7.068   8.469   6.176  1.00  0.00    -0.237 OA
ATOM     89  O   UNL     1       6.989   9.676   8.334  1.00  0.00    -0.237 OA
ATOM     90  O   UNL     1       9.153   9.281   7.217  1.00  0.00    -0.744 OA
ENDBRANCH  86  87
ENDBRANCH  54  79
BRANCH  66  91
ATOM     91  C   UNL     1      10.740   2.214  15.454  1.00  0.00     0.058 A 
ATOM     92  C   UNL     1      12.099   1.917  15.649  1.00  0.00     0.135 A 
ATOM     93  C   UNL     1      10.108   3.039  16.398  1.00  0.00     0.135 A 
ATOM     94  F   UNL     1      12.751   1.124  14.784  1.00  0.00    -0.206 F 
ATOM     95  C   UNL     1      12.801   2.405  16.745  1.00  0.00     0.059 A 
ATOM     96  C   UNL     1      10.800   3.565  17.485  1.00  0.00     0.059 A 
ATOM     97  F   UNL     1       8.812   3.358  16.255  1.00  0.00    -0.206 F 
ATOM     98  C   UNL     1      12.143   3.230  17.658  1.00  0.00     0.060 A 
BRANCH  98  99
ATOM     99  S   UNL     1      13.081   3.879  19.057  1.00  0.00     0.124 S 
ATOM    100  O   UNL     1      13.284   2.681  19.864  1.00  0.00    -0.237 OA
ATOM    101  O   UNL     1      14.272   4.417  18.406  1.00  0.00    -0.237 OA
ATOM    102  O   UNL     1      12.184   4.878  19.631  1.00  0.00    -0.744 OA
ENDBRANCH  98  99
ENDBRANCH  66  91
ENDBRANCH  40  41
ENDBRANCH  33  35
ENDBRANCH  32  33
ENDBRANCH  31  32
ENDBRANCH  30  31
ENDBRANCH  29  30
ENDBRANCH  28  29
ENDBRANCH  27  28
ENDBRANCH   1  27
TORSDOF 28
