REMARK SMILES CCCNC(=O)[C@H](C)[NH2+][C@H](C)[C@@H](C)C(=O)OCCOCCOCCOCCOC(=O)c1ccc(-c2c3nc(c(-c4c(F)cc(S(=O)(=O)[O-])cc4F)c4ccc([nH]4)c(-c4c(F)cc(S(=O)(=O)[O-])cc4F)c4nc(c(-c5c(F)cc(S(=O)(=O)[O-])cc5F)c5ccc2[nH]5)C=C4)C=C3)cc1
REMARK SMILES IDX 20 1 19 2 18 3 17 4 16 5 14 6 15 7 12 8 13 9 10 10 11 11
REMARK SMILES IDX 9 12 7 15 8 16 5 17 4 18 6 20 3 21 2 22 1 23 21 24 22 25
REMARK SMILES IDX 23 26 24 27 25 28 26 29 27 30 28 31 29 32 30 33 31 34 32 35
REMARK SMILES IDX 96 36 33 37 95 38 34 39 35 40 36 41 89 42 37 43 94 44 88 45
REMARK SMILES IDX 90 46 38 47 93 48 87 49 86 50 39 52 73 53 52 54 72 55 53 56
REMARK SMILES IDX 56 57 71 58 91 59 54 60 55 61 70 63 92 64 57 65 40 66 41 67
REMARK SMILES IDX 50 68 42 69 43 70 49 71 51 72 44 73 45 74 46 75 47 76 48 77
REMARK SMILES IDX 74 78 75 79 84 80 76 81 77 82 83 83 85 84 78 85 79 86 80 87
REMARK SMILES IDX 81 88 82 89 58 90 59 91 68 92 60 93 61 94 67 95 69 96 62 97
REMARK SMILES IDX 63 98 64 99 65 100 66 101
REMARK H PARENT 9 13 9 14 4 19 90 51 56 62
REMARK Flexibility Score: inf
ROOT
ATOM      1  C   UNL     1      -0.250  -9.463   1.795  1.00  0.00     0.188 C 
ENDROOT
BRANCH   1   2
ATOM      2  O   UNL     1       0.266 -10.718   2.186  1.00  0.00    -0.376 OA
BRANCH   2   3
ATOM      3  C   UNL     1       0.436 -10.943   3.571  1.00  0.00     0.202 C 
BRANCH   3   4
ATOM      4  C   UNL     1       0.966  -9.852   4.533  1.00  0.00     0.261 C 
BRANCH   4   5
ATOM      5  O   UNL     1       1.026  -8.472   4.104  1.00  0.00    -0.463 OA
BRANCH   5   6
ATOM      6  C   UNL     1       2.253  -7.972   3.800  1.00  0.00     0.314 C 
ATOM      7  O   UNL     1       3.269  -8.660   3.755  1.00  0.00    -0.252 OA
BRANCH   6   8
ATOM      8  C   UNL     1       2.304  -6.430   3.794  1.00  0.00     0.154 C 
ATOM      9  C   UNL     1       2.688  -6.090   5.246  1.00  0.00     0.026 C 
BRANCH   8  10
ATOM     10  C   UNL     1       1.065  -5.612   3.278  1.00  0.00     0.193 C 
ATOM     11  C   UNL     1       0.909  -4.248   3.995  1.00  0.00     0.076 C 
BRANCH  10  12
ATOM     12  N   UNL     1       1.123  -5.225   1.829  1.00  0.00    -0.333 N 
ATOM     13  H   UNL     1       0.582  -4.370   1.702  1.00  0.00     0.347 HD
ATOM     14  H   UNL     1       2.108  -5.100   1.593  1.00  0.00     0.347 HD
BRANCH  12  15
ATOM     15  C   UNL     1       0.587  -6.257   0.919  1.00  0.00     0.269 C 
ATOM     16  C   UNL     1      -0.524  -5.729   0.020  1.00  0.00     0.086 C 
BRANCH  15  17
ATOM     17  C   UNL     1       1.737  -7.060   0.264  1.00  0.00     0.277 C 
ATOM     18  N   UNL     1       1.993  -7.101  -1.065  1.00  0.00    -0.351 N 
ATOM     19  H   UNL     1       2.387  -7.944  -1.384  1.00  0.00     0.163 HD
ATOM     20  O   UNL     1       2.500  -7.745   0.955  1.00  0.00    -0.268 OA
BRANCH  18  21
ATOM     21  C   UNL     1       1.782  -6.107  -2.089  1.00  0.00     0.116 C 
BRANCH  21  22
ATOM     22  C   UNL     1       2.643  -4.870  -1.851  1.00  0.00     0.018 C 
ATOM     23  C   UNL     1       4.130  -5.202  -1.810  1.00  0.00     0.006 C 
ENDBRANCH  21  22
ENDBRANCH  18  21
ENDBRANCH  15  17
ENDBRANCH  12  15
ENDBRANCH  10  12
ENDBRANCH   8  10
ENDBRANCH   6   8
ENDBRANCH   5   6
ENDBRANCH   4   5
ENDBRANCH   3   4
ENDBRANCH   2   3
ENDBRANCH   1   2
BRANCH   1  24
ATOM     24  C   UNL     1      -1.425  -8.861   2.587  1.00  0.00     0.188 C 
BRANCH  24  25
ATOM     25  O   UNL     1      -2.230  -9.868   3.176  1.00  0.00    -0.377 OA
BRANCH  25  26
ATOM     26  C   UNL     1      -3.458 -10.074   2.501  1.00  0.00     0.188 C 
BRANCH  26  27
ATOM     27  C   UNL     1      -3.318 -10.521   1.038  1.00  0.00     0.188 C 
BRANCH  27  28
ATOM     28  O   UNL     1      -2.732  -9.498   0.223  1.00  0.00    -0.376 OA
BRANCH  28  29
ATOM     29  C   UNL     1      -3.546  -8.939  -0.797  1.00  0.00     0.202 C 
BRANCH  29  30
ATOM     30  C   UNL     1      -4.317  -7.697  -0.332  1.00  0.00     0.261 C 
BRANCH  30  31
ATOM     31  O   UNL     1      -5.144  -7.911   0.817  1.00  0.00    -0.460 OA
BRANCH  31  32
ATOM     32  C   UNL     1      -6.168  -8.787   0.662  1.00  0.00     0.338 C 
ATOM     33  O   UNL     1      -6.511  -9.331  -0.362  1.00  0.00    -0.246 OA
BRANCH  32  34
ATOM     34  C   UNL     1      -6.624  -9.156   2.020  1.00  0.00     0.060 A 
ATOM     35  C   UNL     1      -6.710 -10.519   2.327  1.00  0.00     0.016 A 
ATOM     36  C   UNL     1      -6.860  -8.185   3.001  1.00  0.00     0.016 A 
ATOM     37  C   UNL     1      -7.043 -10.916   3.617  1.00  0.00     0.010 A 
ATOM     38  C   UNL     1      -7.236  -8.582   4.284  1.00  0.00     0.010 A 
ATOM     39  C   UNL     1      -7.361  -9.948   4.580  1.00  0.00    -0.014 A 
BRANCH  39  40
ATOM     40  C   UNL     1      -8.136 -10.387   5.760  1.00  0.00     0.031 A 
ATOM     41  C   UNL     1      -9.625 -10.495   5.576  1.00  0.00     0.074 A 
ATOM     42  C   UNL     1      -7.539 -10.749   6.907  1.00  0.00     0.049 A 
ATOM     43  N   UNL     1     -10.535 -10.942   6.397  1.00  0.00    -0.248 NA
ATOM     44  C   UNL     1     -10.157 -10.051   4.273  1.00  0.00     0.031 C 
ATOM     45  C   UNL     1      -6.099 -10.715   7.164  1.00  0.00     0.029 A 
ATOM     46  N   UNL     1      -8.078 -11.228   8.073  1.00  0.00    -0.354 N 
ATOM     47  C   UNL     1     -11.736 -10.856   5.703  1.00  0.00     0.074 A 
ATOM     48  C   UNL     1     -11.451 -10.283   4.410  1.00  0.00     0.031 C 
ATOM     49  C   UNL     1      -5.870 -11.151   8.417  1.00  0.00     0.029 A 
ATOM     50  C   UNL     1      -7.146 -11.481   9.051  1.00  0.00     0.049 A 
ATOM     51  H   UNL     1      -9.043 -11.376   8.198  1.00  0.00     0.167 HD
ATOM     52  C   UNL     1     -12.969 -11.232   6.108  1.00  0.00     0.037 A 
ATOM     53  C   UNL     1      -7.318 -11.924  10.312  1.00  0.00     0.037 A 
ATOM     54  C   UNL     1     -13.241 -11.761   7.415  1.00  0.00     0.049 A 
ATOM     55  C   UNL     1      -8.716 -12.262  10.771  1.00  0.00     0.074 A 
ATOM     56  C   UNL     1     -14.452 -12.146   7.956  1.00  0.00     0.029 A 
ATOM     57  N   UNL     1     -12.277 -11.961   8.394  1.00  0.00    -0.354 N 
ATOM     58  N   UNL     1      -9.844 -12.198  10.100  1.00  0.00    -0.248 NA
ATOM     59  C   UNL     1      -8.866 -12.742  12.151  1.00  0.00     0.031 C 
ATOM     60  C   UNL     1     -14.227 -12.536   9.280  1.00  0.00     0.029 A 
ATOM     61  C   UNL     1     -12.868 -12.447   9.545  1.00  0.00     0.049 A 
ATOM     62  H   UNL     1     -11.315 -11.784   8.284  1.00  0.00     0.167 HD
ATOM     63  C   UNL     1     -10.832 -12.657  10.965  1.00  0.00     0.074 A 
ATOM     64  C   UNL     1     -10.165 -13.004  12.204  1.00  0.00     0.031 C 
ATOM     65  C   UNL     1     -12.167 -12.787  10.758  1.00  0.00     0.037 A 
BRANCH  52  66
ATOM     66  C   UNL     1     -14.100 -11.037   5.139  1.00  0.00     0.058 A 
ATOM     67  C   UNL     1     -14.234 -11.835   3.990  1.00  0.00     0.135 A 
ATOM     68  C   UNL     1     -15.050 -10.027   5.349  1.00  0.00     0.135 A 
ATOM     69  F   UNL     1     -13.332 -12.793   3.722  1.00  0.00    -0.206 F 
ATOM     70  C   UNL     1     -15.260 -11.624   3.074  1.00  0.00     0.059 A 
ATOM     71  C   UNL     1     -16.098  -9.814   4.459  1.00  0.00     0.059 A 
ATOM     72  F   UNL     1     -14.956  -9.223   6.420  1.00  0.00    -0.206 F 
ATOM     73  C   UNL     1     -16.187 -10.610   3.317  1.00  0.00     0.060 A 
BRANCH  73  74
ATOM     74  S   UNL     1     -17.513 -10.347   2.121  1.00  0.00     0.124 S 
ATOM     75  O   UNL     1     -16.786  -9.739   1.010  1.00  0.00    -0.237 OA
ATOM     76  O   UNL     1     -18.000 -11.703   1.893  1.00  0.00    -0.237 OA
ATOM     77  O   UNL     1     -18.436  -9.462   2.825  1.00  0.00    -0.744 OA
ENDBRANCH  73  74
ENDBRANCH  52  66
BRANCH  53  78
ATOM     78  C   UNL     1      -6.151 -12.068  11.226  1.00  0.00     0.058 A 
ATOM     79  C   UNL     1      -5.710 -13.327  11.661  1.00  0.00     0.135 A 
ATOM     80  C   UNL     1      -5.455 -10.940  11.689  1.00  0.00     0.135 A 
ATOM     81  F   UNL     1      -6.346 -14.437  11.258  1.00  0.00    -0.206 F 
ATOM     82  C   UNL     1      -4.632 -13.463  12.534  1.00  0.00     0.059 A 
ATOM     83  C   UNL     1      -4.359 -11.051  12.541  1.00  0.00     0.059 A 
ATOM     84  F   UNL     1      -5.829  -9.712  11.300  1.00  0.00    -0.206 F 
ATOM     85  C   UNL     1      -3.962 -12.317  12.967  1.00  0.00     0.060 A 
BRANCH  85  86
ATOM     86  S   UNL     1      -2.539 -12.504  14.066  1.00  0.00     0.124 S 
ATOM     87  O   UNL     1      -3.183 -12.871  15.321  1.00  0.00    -0.237 OA
ATOM     88  O   UNL     1      -1.778 -13.560  13.405  1.00  0.00    -0.237 OA
ATOM     89  O   UNL     1      -1.918 -11.183  14.037  1.00  0.00    -0.744 OA
ENDBRANCH  85  86
ENDBRANCH  53  78
BRANCH  65  90
ATOM     90  C   UNL     1     -12.985 -13.361  11.880  1.00  0.00     0.058 A 
ATOM     91  C   UNL     1     -13.271 -12.623  13.038  1.00  0.00     0.135 A 
ATOM     92  C   UNL     1     -13.537 -14.647  11.764  1.00  0.00     0.135 A 
ATOM     93  F   UNL     1     -12.767 -11.389  13.196  1.00  0.00    -0.206 F 
ATOM     94  C   UNL     1     -14.054 -13.152  14.058  1.00  0.00     0.059 A 
ATOM     95  C   UNL     1     -14.347 -15.184  12.757  1.00  0.00     0.059 A 
ATOM     96  F   UNL     1     -13.307 -15.385  10.666  1.00  0.00    -0.206 F 
ATOM     97  C   UNL     1     -14.587 -14.435  13.908  1.00  0.00     0.060 A 
BRANCH  97  98
ATOM     98  S   UNL     1     -15.621 -15.103  15.227  1.00  0.00     0.124 S 
ATOM     99  O   UNL     1     -14.623 -15.439  16.238  1.00  0.00    -0.237 OA
ATOM    100  O   UNL     1     -16.491 -13.974  15.546  1.00  0.00    -0.237 OA
ATOM    101  O   UNL     1     -16.285 -16.239  14.596  1.00  0.00    -0.744 OA
ENDBRANCH  97  98
ENDBRANCH  65  90
ENDBRANCH  39  40
ENDBRANCH  32  34
ENDBRANCH  31  32
ENDBRANCH  30  31
ENDBRANCH  29  30
ENDBRANCH  28  29
ENDBRANCH  27  28
ENDBRANCH  26  27
ENDBRANCH  25  26
ENDBRANCH  24  25
ENDBRANCH   1  24
TORSDOF 29
