REMARK SMILES CC(C)CCOc1ccc(/C=C2\SC(=S)N(CC(=O)OCCOCCOCCOCCOC(=O)c3ccc(-c4c5nc(c(-c6c(F)cc(S(=O)(=O)[O-])cc6F)c6ccc([nH]6)c(-c6c(F)cc(S(=O)(=O)[O-])cc6F)c6nc(c(-c7c(F)cc(S(=O)(=O)[O-])cc7F)c7ccc4[nH]7)C=C6)C=C5)cc3)C2=O)cc1
REMARK SMILES IDX 24 1 23 2 22 3 21 4 20 5 18 6 19 7 17 8 16 9 11 10 12 11
REMARK SMILES IDX 13 12 101 13 14 14 102 15 15 16 10 17 7 18 8 19 104 20 9 21
REMARK SMILES IDX 103 22 6 23 5 24 4 25 2 26 1 27 3 28 25 29 26 30 27 31 28 32
REMARK SMILES IDX 29 33 30 34 31 35 32 36 33 37 34 38 35 39 36 40 100 41 37 42
REMARK SMILES IDX 99 43 38 44 39 45 40 46 93 47 41 48 98 49 92 50 94 51 42 52
REMARK SMILES IDX 97 53 91 54 90 55 43 57 77 58 56 59 76 60 57 61 60 62 75 63
REMARK SMILES IDX 95 64 58 65 59 66 74 68 96 69 61 70 44 71 45 72 54 73 46 74
REMARK SMILES IDX 47 75 53 76 55 77 48 78 49 79 50 80 51 81 52 82 78 83 79 84
REMARK SMILES IDX 88 85 80 86 81 87 87 88 89 89 82 90 83 91 84 92 85 93 86 94
REMARK SMILES IDX 62 95 63 96 72 97 64 98 65 99 71 100 73 101 66 102 67 103
REMARK SMILES IDX 68 104 69 105 70 106
REMARK H PARENT 94 56 60 67
REMARK Flexibility Score: inf
ROOT
ATOM      1  C   UNL     1       9.204   3.853  -5.022  1.00  0.00     0.188 C 
ENDROOT
BRANCH   1   2
ATOM      2  O   UNL     1      10.057   4.558  -5.911  1.00  0.00    -0.376 OA
BRANCH   2   3
ATOM      3  C   UNL     1       9.772   4.594  -7.301  1.00  0.00     0.202 C 
BRANCH   3   4
ATOM      4  C   UNL     1       9.395   3.317  -8.085  1.00  0.00     0.261 C 
BRANCH   4   5
ATOM      5  O   UNL     1       8.652   2.298  -7.383  1.00  0.00    -0.462 OA
BRANCH   5   6
ATOM      6  C   UNL     1       9.332   1.186  -7.008  1.00  0.00     0.326 C 
ATOM      7  O   UNL     1      10.519   0.988  -7.252  1.00  0.00    -0.250 OA
BRANCH   6   8
ATOM      8  C   UNL     1       8.514   0.198  -6.157  1.00  0.00     0.250 C 
BRANCH   8   9
ATOM      9  N   UNL     1       7.074   0.415  -5.941  1.00  0.00    -0.282 N 
ATOM     10  C   UNL     1       4.446   1.602  -3.718  1.00  0.00     0.029 C 
ATOM     11  C   UNL     1       5.130   1.062  -4.743  1.00  0.00     0.081 C 
ATOM     12  S   UNL     1       4.524   0.552  -6.268  1.00  0.00    -0.054 SA
ATOM     13  C   UNL     1       6.606   0.838  -4.704  1.00  0.00     0.266 C 
ATOM     14  C   UNL     1       6.113   0.140  -6.888  1.00  0.00     0.148 C 
ATOM     15  O   UNL     1       7.286   1.015  -3.700  1.00  0.00    -0.268 OA
ATOM     16  S   UNL     1       6.330  -0.524  -8.401  1.00  0.00    -0.052 S 
BRANCH  10  17
ATOM     17  C   UNL     1       2.981   1.747  -3.598  1.00  0.00    -0.024 A 
ATOM     18  C   UNL     1       0.234   1.815  -3.039  1.00  0.00     0.119 A 
ATOM     19  C   UNL     1       1.022   2.921  -2.736  1.00  0.00     0.047 A 
ATOM     20  C   UNL     1       0.773   0.735  -3.724  1.00  0.00     0.047 A 
ATOM     21  C   UNL     1       2.398   2.887  -3.018  1.00  0.00     0.012 A 
ATOM     22  C   UNL     1       2.146   0.675  -3.940  1.00  0.00     0.012 A 
BRANCH  18  23
ATOM     23  O   UNL     1      -1.076   1.741  -2.661  1.00  0.00    -0.494 OA
BRANCH  23  24
ATOM     24  C   UNL     1      -1.235   1.217  -1.325  1.00  0.00     0.230 C 
BRANCH  24  25
ATOM     25  C   UNL     1      -0.931  -0.290  -1.181  1.00  0.00     0.044 C 
BRANCH  25  26
ATOM     26  C   UNL     1       0.525  -0.628  -0.779  1.00  0.00    -0.014 C 
ATOM     27  C   UNL     1       0.827  -0.288   0.679  1.00  0.00     0.007 C 
ATOM     28  C   UNL     1       0.833  -2.103  -1.054  1.00  0.00     0.007 C 
ENDBRANCH  25  26
ENDBRANCH  24  25
ENDBRANCH  23  24
ENDBRANCH  18  23
ENDBRANCH  10  17
ENDBRANCH   8   9
ENDBRANCH   6   8
ENDBRANCH   5   6
ENDBRANCH   4   5
ENDBRANCH   3   4
ENDBRANCH   2   3
ENDBRANCH   1   2
BRANCH   1  29
ATOM     29  C   UNL     1       7.685   3.833  -5.262  1.00  0.00     0.188 C 
BRANCH  29  30
ATOM     30  O   UNL     1       7.217   4.589  -6.353  1.00  0.00    -0.377 OA
BRANCH  30  31
ATOM     31  C   UNL     1       6.802   5.920  -6.117  1.00  0.00     0.188 C 
BRANCH  31  32
ATOM     32  C   UNL     1       7.431   6.728  -4.967  1.00  0.00     0.188 C 
BRANCH  32  33
ATOM     33  O   UNL     1       7.708   5.977  -3.793  1.00  0.00    -0.376 OA
BRANCH  33  34
ATOM     34  C   UNL     1       6.868   6.132  -2.662  1.00  0.00     0.202 C 
BRANCH  34  35
ATOM     35  C   UNL     1       5.447   5.553  -2.749  1.00  0.00     0.261 C 
BRANCH  35  36
ATOM     36  O   UNL     1       4.691   5.918  -3.909  1.00  0.00    -0.460 OA
BRANCH  36  37
ATOM     37  C   UNL     1       4.258   7.196  -3.962  1.00  0.00     0.338 C 
ATOM     38  O   UNL     1       4.445   8.062  -3.121  1.00  0.00    -0.246 OA
BRANCH  37  39
ATOM     39  C   UNL     1       3.680   7.433  -5.300  1.00  0.00     0.060 A 
ATOM     40  C   UNL     1       4.300   8.373  -6.131  1.00  0.00     0.016 A 
ATOM     41  C   UNL     1       2.560   6.722  -5.743  1.00  0.00     0.016 A 
ATOM     42  C   UNL     1       3.785   8.627  -7.401  1.00  0.00     0.010 A 
ATOM     43  C   UNL     1       2.028   6.999  -7.008  1.00  0.00     0.010 A 
ATOM     44  C   UNL     1       2.621   7.975  -7.828  1.00  0.00    -0.014 A 
BRANCH  44  45
ATOM     45  C   UNL     1       1.935   8.469  -9.046  1.00  0.00     0.031 A 
ATOM     46  C   UNL     1       0.825   9.471  -8.883  1.00  0.00     0.074 A 
ATOM     47  C   UNL     1       2.336   8.095 -10.273  1.00  0.00     0.049 A 
ATOM     48  N   UNL     1       0.126  10.096  -9.794  1.00  0.00    -0.248 NA
ATOM     49  C   UNL     1       0.460   9.817  -7.500  1.00  0.00     0.031 C 
ATOM     50  C   UNL     1       3.428   7.167 -10.559  1.00  0.00     0.029 A 
ATOM     51  N   UNL     1       1.873   8.464 -11.511  1.00  0.00    -0.354 N 
ATOM     52  C   UNL     1      -0.757  10.912  -9.097  1.00  0.00     0.074 A 
ATOM     53  C   UNL     1      -0.535  10.669  -7.688  1.00  0.00     0.031 C 
ATOM     54  C   UNL     1       3.557   7.045 -11.891  1.00  0.00     0.029 A 
ATOM     55  C   UNL     1       2.541   7.864 -12.551  1.00  0.00     0.049 A 
ATOM     56  H   UNL     1       1.131   9.099 -11.642  1.00  0.00     0.167 HD
ATOM     57  C   UNL     1      -1.664  11.793  -9.585  1.00  0.00     0.037 A 
ATOM     58  C   UNL     1       2.348   7.963 -13.882  1.00  0.00     0.037 A 
ATOM     59  C   UNL     1      -1.898  12.008 -10.990  1.00  0.00     0.049 A 
ATOM     60  C   UNL     1       1.273   8.881 -14.404  1.00  0.00     0.074 A 
ATOM     61  C   UNL     1      -2.788  12.879 -11.593  1.00  0.00     0.029 A 
ATOM     62  N   UNL     1      -1.251  11.329 -12.014  1.00  0.00    -0.354 N 
ATOM     63  N   UNL     1       0.463   9.671 -13.738  1.00  0.00    -0.248 NA
ATOM     64  C   UNL     1       1.091   8.925 -15.861  1.00  0.00     0.031 C 
ATOM     65  C   UNL     1      -2.725  12.679 -12.977  1.00  0.00     0.029 A 
ATOM     66  C   UNL     1      -1.748  11.734 -13.243  1.00  0.00     0.049 A 
ATOM     67  H   UNL     1      -0.543  10.657 -11.886  1.00  0.00     0.167 HD
ATOM     68  C   UNL     1      -0.308  10.324 -14.695  1.00  0.00     0.074 A 
ATOM     69  C   UNL     1       0.147   9.848 -15.987  1.00  0.00     0.031 C 
ATOM     70  C   UNL     1      -1.298  11.238 -14.523  1.00  0.00     0.037 A 
BRANCH  57  71
ATOM     71  C   UNL     1      -2.497  12.546  -8.581  1.00  0.00     0.058 A 
ATOM     72  C   UNL     1      -1.938  13.506  -7.719  1.00  0.00     0.135 A 
ATOM     73  C   UNL     1      -3.870  12.282  -8.457  1.00  0.00     0.135 A 
ATOM     74  F   UNL     1      -0.626  13.787  -7.779  1.00  0.00    -0.206 F 
ATOM     75  C   UNL     1      -2.698  14.135  -6.738  1.00  0.00     0.059 A 
ATOM     76  C   UNL     1      -4.657  12.925  -7.506  1.00  0.00     0.059 A 
ATOM     77  F   UNL     1      -4.460  11.376  -9.253  1.00  0.00    -0.206 F 
ATOM     78  C   UNL     1      -4.056  13.831  -6.634  1.00  0.00     0.060 A 
BRANCH  78  79
ATOM     79  S   UNL     1      -5.020  14.621  -5.327  1.00  0.00     0.124 S 
ATOM     80  O   UNL     1      -4.515  13.937  -4.140  1.00  0.00    -0.237 OA
ATOM     81  O   UNL     1      -4.637  16.023  -5.462  1.00  0.00    -0.237 OA
ATOM     82  O   UNL     1      -6.400  14.313  -5.688  1.00  0.00    -0.744 OA
ENDBRANCH  78  79
ENDBRANCH  57  71
BRANCH  58  83
ATOM     83  C   UNL     1       3.210   7.185 -14.812  1.00  0.00     0.058 A 
ATOM     84  C   UNL     1       4.154   7.825 -15.629  1.00  0.00     0.135 A 
ATOM     85  C   UNL     1       3.128   5.785 -14.882  1.00  0.00     0.135 A 
ATOM     86  F   UNL     1       4.258   9.163 -15.612  1.00  0.00    -0.206 F 
ATOM     87  C   UNL     1       4.990   7.107 -16.477  1.00  0.00     0.059 A 
ATOM     88  C   UNL     1       3.972   5.043 -15.703  1.00  0.00     0.059 A 
ATOM     89  F   UNL     1       2.243   5.125 -14.119  1.00  0.00    -0.206 F 
ATOM     90  C   UNL     1       4.900   5.714 -16.497  1.00  0.00     0.060 A 
BRANCH  90  91
ATOM     91  S   UNL     1       6.055   4.790 -17.534  1.00  0.00     0.124 S 
ATOM     92  O   UNL     1       5.582   5.122 -18.873  1.00  0.00    -0.237 OA
ATOM     93  O   UNL     1       7.338   5.370 -17.148  1.00  0.00    -0.237 OA
ATOM     94  O   UNL     1       5.851   3.407 -17.116  1.00  0.00    -0.744 OA
ENDBRANCH  90  91
ENDBRANCH  58  83
BRANCH  70  95
ATOM     95  C   UNL     1      -1.944  11.798 -15.765  1.00  0.00     0.058 A 
ATOM     96  C   UNL     1      -2.765  11.015 -16.593  1.00  0.00     0.135 A 
ATOM     97  C   UNL     1      -1.754  13.143 -16.122  1.00  0.00     0.135 A 
ATOM     98  F   UNL     1      -2.980   9.722 -16.303  1.00  0.00    -0.206 F 
ATOM     99  C   UNL     1      -3.337  11.532 -17.752  1.00  0.00     0.059 A 
ATOM    100  C   UNL     1      -2.345  13.691 -17.257  1.00  0.00     0.059 A 
ATOM    101  F   UNL     1      -0.993  13.945 -15.361  1.00  0.00    -0.206 F 
ATOM    102  C   UNL     1      -3.118  12.872 -18.077  1.00  0.00     0.060 A 
BRANCH 102 103
ATOM    103  S   UNL     1      -3.863  13.530 -19.584  1.00  0.00     0.124 S 
ATOM    104  O   UNL     1      -3.043  12.903 -20.615  1.00  0.00    -0.237 OA
ATOM    105  O   UNL     1      -5.238  13.050 -19.488  1.00  0.00    -0.237 OA
ATOM    106  O   UNL     1      -3.698  14.973 -19.443  1.00  0.00    -0.744 OA
ENDBRANCH 102 103
ENDBRANCH  70  95
ENDBRANCH  44  45
ENDBRANCH  37  39
ENDBRANCH  36  37
ENDBRANCH  35  36
ENDBRANCH  34  35
ENDBRANCH  33  34
ENDBRANCH  32  33
ENDBRANCH  31  32
ENDBRANCH  30  31
ENDBRANCH  29  30
ENDBRANCH   1  29
TORSDOF 29
