REMARK SMILES O=C(OCCOCCOCCOCCOC(=O)c1ccc(-c2c3nc(c(-c4c(F)cc(S(=O)(=O)[O-])cc4F)c4ccc([nH]4)c(-c4c(F)cc(S(=O)(=O)[O-])cc4F)c4nc(c(-c5c(F)cc(S(=O)(=O)[O-])cc5F)c5ccc2[nH]5)C=C4)C=C3)cc1)C1=Cc2c(Cl)cc(Cl)cc2O[C@@H]1C(F)(F)F
REMARK SMILES IDX 10 1 9 2 8 3 7 4 6 5 5 6 4 7 3 8 2 9 1 10 84 11 85 12 95 13
REMARK SMILES IDX 86 14 94 15 87 16 93 17 88 18 89 19 92 20 90 21 91 22 96 23
REMARK SMILES IDX 97 24 98 25 99 26 11 27 12 28 13 29 14 30 15 31 16 32 17 33
REMARK SMILES IDX 18 34 19 35 83 36 20 37 82 38 21 39 22 40 23 41 76 42 24 43
REMARK SMILES IDX 81 44 75 45 77 46 25 47 80 48 74 49 73 50 26 52 60 53 39 54
REMARK SMILES IDX 59 55 40 56 43 57 58 58 78 59 41 60 42 61 57 63 79 64 44 65
REMARK SMILES IDX 27 66 28 67 37 68 29 69 30 70 36 71 38 72 31 73 32 74 33 75
REMARK SMILES IDX 34 76 35 77 61 78 62 79 71 80 63 81 64 82 70 83 72 84 65 85
REMARK SMILES IDX 66 86 67 87 68 88 69 89 45 90 46 91 55 92 47 93 48 94 54 95
REMARK SMILES IDX 56 96 49 97 50 98 51 99 52 100 53 101
REMARK H PARENT 77 51 43 62
REMARK Flexibility Score: inf
ROOT
ATOM      1  C   UNL     1       4.040   3.525  -1.290  1.00  0.00     0.188 C 
ENDROOT
BRANCH   1   2
ATOM      2  O   UNL     1       2.711   3.951  -1.117  1.00  0.00    -0.377 OA
BRANCH   2   3
ATOM      3  C   UNL     1       1.893   2.914  -0.634  1.00  0.00     0.188 C 
BRANCH   3   4
ATOM      4  C   UNL     1       2.275   2.349   0.745  1.00  0.00     0.188 C 
BRANCH   4   5
ATOM      5  O   UNL     1       3.611   1.852   1.126  1.00  0.00    -0.376 OA
BRANCH   5   6
ATOM      6  C   UNL     1       4.346   0.347   1.026  1.00  0.00     0.202 C 
BRANCH   6   7
ATOM      7  C   UNL     1       3.601  -1.375  -0.089  1.00  0.00     0.261 C 
BRANCH   7   8
ATOM      8  O   UNL     1       2.636  -2.418   0.414  1.00  0.00    -0.460 OA
BRANCH   8   9
ATOM      9  C   UNL     1       2.802  -2.668   1.718  1.00  0.00     0.338 C 
ATOM     10  O   UNL     1       2.094  -3.323   2.443  1.00  0.00    -0.246 OA
BRANCH   9  11
ATOM     11  C   UNL     1       3.701  -1.560   2.018  1.00  0.00     0.087 C 
ATOM     12  C   UNL     1       5.081  -1.763   1.567  1.00  0.00     0.029 C 
ATOM     13  C   UNL     1       2.492  -0.276   1.265  1.00  0.00     0.316 C 
ATOM     14  C   UNL     1       5.811  -1.021   0.088  1.00  0.00     0.036 A 
ATOM     15  O   UNL     1       3.177   0.441  -0.415  1.00  0.00    -0.475 OA
ATOM     16  C   UNL     1       7.089  -1.332  -0.313  1.00  0.00     0.053 A 
ATOM     17  C   UNL     1       4.881  -0.002  -0.961  1.00  0.00     0.130 A 
ATOM     18  Cl  UNL     1       8.119  -2.385   0.563  1.00  0.00    -0.083 Cl
ATOM     19  C   UNL     1       7.519  -0.760  -1.524  1.00  0.00     0.042 A 
ATOM     20  C   UNL     1       5.373   0.502  -2.138  1.00  0.00     0.067 A 
ATOM     21  C   UNL     1       6.713   0.105  -2.372  1.00  0.00     0.046 A 
ATOM     22  Cl  UNL     1       7.496   0.701  -3.803  1.00  0.00    -0.084 Cl
BRANCH  13  23
ATOM     23  C   UNL     1       2.202   0.437   2.761  1.00  0.00     0.430 C 
ATOM     24  F   UNL     1       1.331   1.461   2.827  1.00  0.00    -0.167 F 
ATOM     25  F   UNL     1       1.624  -0.529   3.542  1.00  0.00    -0.167 F 
ATOM     26  F   UNL     1       3.309   0.802   3.455  1.00  0.00    -0.167 F 
ENDBRANCH  13  23
ENDBRANCH   9  11
ENDBRANCH   8   9
ENDBRANCH   7   8
ENDBRANCH   6   7
ENDBRANCH   5   6
ENDBRANCH   4   5
ENDBRANCH   3   4
ENDBRANCH   2   3
ENDBRANCH   1   2
BRANCH   1  27
ATOM     27  C   UNL     1       5.057   4.039  -0.262  1.00  0.00     0.188 C 
BRANCH  27  28
ATOM     28  O   UNL     1       4.690   4.735   0.918  1.00  0.00    -0.376 OA
BRANCH  28  29
ATOM     29  C   UNL     1       3.518   5.522   0.993  1.00  0.00     0.202 C 
BRANCH  29  30
ATOM     30  C   UNL     1       3.250   6.695   0.040  1.00  0.00     0.261 C 
BRANCH  30  31
ATOM     31  O   UNL     1       3.547   6.476  -1.341  1.00  0.00    -0.460 OA
BRANCH  31  32
ATOM     32  C   UNL     1       4.810   6.783  -1.709  1.00  0.00     0.338 C 
ATOM     33  O   UNL     1       5.673   7.282  -1.009  1.00  0.00    -0.246 OA
BRANCH  32  34
ATOM     34  C   UNL     1       5.072   6.235  -3.058  1.00  0.00     0.060 A 
ATOM     35  C   UNL     1       6.248   5.492  -3.250  1.00  0.00     0.016 A 
ATOM     36  C   UNL     1       4.188   6.444  -4.119  1.00  0.00     0.016 A 
ATOM     37  C   UNL     1       6.571   4.998  -4.507  1.00  0.00     0.010 A 
ATOM     38  C   UNL     1       4.539   5.992  -5.393  1.00  0.00     0.010 A 
ATOM     39  C   UNL     1       5.755   5.314  -5.596  1.00  0.00    -0.014 A 
BRANCH  39  40
ATOM     40  C   UNL     1       6.308   5.174  -6.961  1.00  0.00     0.031 A 
ATOM     41  C   UNL     1       6.875   6.406  -7.614  1.00  0.00     0.074 A 
ATOM     42  C   UNL     1       6.353   3.983  -7.580  1.00  0.00     0.049 A 
ATOM     43  N   UNL     1       7.351   6.561  -8.820  1.00  0.00    -0.248 NA
ATOM     44  C   UNL     1       6.902   7.630  -6.794  1.00  0.00     0.031 C 
ATOM     45  C   UNL     1       5.903   2.715  -7.009  1.00  0.00     0.029 A 
ATOM     46  N   UNL     1       6.796   3.652  -8.835  1.00  0.00    -0.354 N 
ATOM     47  C   UNL     1       7.719   7.899  -8.909  1.00  0.00     0.074 A 
ATOM     48  C   UNL     1       7.378   8.521  -7.649  1.00  0.00     0.031 C 
ATOM     49  C   UNL     1       6.077   1.743  -7.922  1.00  0.00     0.029 A 
ATOM     50  C   UNL     1       6.609   2.329  -9.151  1.00  0.00     0.049 A 
ATOM     51  H   UNL     1       7.208   4.301  -9.450  1.00  0.00     0.167 HD
ATOM     52  C   UNL     1       8.296   8.547  -9.947  1.00  0.00     0.037 A 
ATOM     53  C   UNL     1       6.816   1.679 -10.313  1.00  0.00     0.037 A 
ATOM     54  C   UNL     1       8.626   7.912 -11.196  1.00  0.00     0.049 A 
ATOM     55  C   UNL     1       7.370   2.443 -11.490  1.00  0.00     0.074 A 
ATOM     56  C   UNL     1       9.217   8.471 -12.314  1.00  0.00     0.029 A 
ATOM     57  N   UNL     1       8.382   6.579 -11.496  1.00  0.00    -0.354 N 
ATOM     58  N   UNL     1       7.719   3.706 -11.566  1.00  0.00    -0.248 NA
ATOM     59  C   UNL     1       7.561   1.693 -12.739  1.00  0.00     0.031 C 
ATOM     60  C   UNL     1       9.263   7.497 -13.315  1.00  0.00     0.029 A 
ATOM     61  C   UNL     1       8.780   6.306 -12.794  1.00  0.00     0.049 A 
ATOM     62  H   UNL     1       7.985   5.924 -10.878  1.00  0.00     0.167 HD
ATOM     63  C   UNL     1       8.209   3.891 -12.856  1.00  0.00     0.074 A 
ATOM     64  C   UNL     1       8.119   2.607 -13.520  1.00  0.00     0.031 C 
ATOM     65  C   UNL     1       8.693   5.017 -13.438  1.00  0.00     0.037 A 
BRANCH  52  66
ATOM     66  C   UNL     1       8.572  10.019  -9.792  1.00  0.00     0.058 A 
ATOM     67  C   UNL     1       9.543  10.507  -8.903  1.00  0.00     0.135 A 
ATOM     68  C   UNL     1       7.877  10.955 -10.576  1.00  0.00     0.135 A 
ATOM     69  F   UNL     1      10.223   9.662  -8.111  1.00  0.00    -0.206 F 
ATOM     70  C   UNL     1       9.798  11.870  -8.780  1.00  0.00     0.059 A 
ATOM     71  C   UNL     1       8.142  12.318 -10.497  1.00  0.00     0.059 A 
ATOM     72  F   UNL     1       6.932  10.547 -11.438  1.00  0.00    -0.206 F 
ATOM     73  C   UNL     1       9.097  12.767  -9.588  1.00  0.00     0.060 A 
BRANCH  73  74
ATOM     74  S   UNL     1       9.461  14.528  -9.433  1.00  0.00     0.124 S 
ATOM     75  O   UNL     1       8.941  14.819  -8.100  1.00  0.00    -0.237 OA
ATOM     76  O   UNL     1      10.914  14.555  -9.566  1.00  0.00    -0.237 OA
ATOM     77  O   UNL     1       8.720  15.128 -10.538  1.00  0.00    -0.744 OA
ENDBRANCH  73  74
ENDBRANCH  52  66
BRANCH  53  78
ATOM     78  C   UNL     1       6.488   0.232 -10.428  1.00  0.00     0.058 A 
ATOM     79  C   UNL     1       7.492  -0.726 -10.633  1.00  0.00     0.135 A 
ATOM     80  C   UNL     1       5.162  -0.224 -10.340  1.00  0.00     0.135 A 
ATOM     81  F   UNL     1       8.774  -0.342 -10.736  1.00  0.00    -0.206 F 
ATOM     82  C   UNL     1       7.196  -2.078 -10.765  1.00  0.00     0.059 A 
ATOM     83  C   UNL     1       4.844  -1.575 -10.434  1.00  0.00     0.059 A 
ATOM     84  F   UNL     1       4.162   0.647 -10.136  1.00  0.00    -0.206 F 
ATOM     85  C   UNL     1       5.868  -2.494 -10.656  1.00  0.00     0.060 A 
BRANCH  85  86
ATOM     86  S   UNL     1       5.504  -4.258 -10.772  1.00  0.00     0.124 S 
ATOM     87  O   UNL     1       5.803  -4.530 -12.173  1.00  0.00    -0.237 OA
ATOM     88  O   UNL     1       6.433  -4.822  -9.798  1.00  0.00    -0.237 OA
ATOM     89  O   UNL     1       4.094  -4.336 -10.401  1.00  0.00    -0.744 OA
ENDBRANCH  85  86
ENDBRANCH  53  78
BRANCH  65  90
ATOM     90  C   UNL     1       9.216   4.908 -14.847  1.00  0.00     0.058 A 
ATOM     91  C   UNL     1       8.370   4.682 -15.943  1.00  0.00     0.135 A 
ATOM     92  C   UNL     1      10.585   5.092 -15.107  1.00  0.00     0.135 A 
ATOM     93  F   UNL     1       7.054   4.494 -15.755  1.00  0.00    -0.206 F 
ATOM     94  C   UNL     1       8.865   4.611 -17.241  1.00  0.00     0.059 A 
ATOM     95  C   UNL     1      11.096   5.067 -16.400  1.00  0.00     0.059 A 
ATOM     96  F   UNL     1      11.441   5.324 -14.098  1.00  0.00    -0.206 F 
ATOM     97  C   UNL     1      10.229   4.812 -17.460  1.00  0.00     0.060 A 
BRANCH  97  98
ATOM     98  S   UNL     1      10.849   4.754 -19.154  1.00  0.00     0.124 S 
ATOM     99  O   UNL     1      10.699   3.339 -19.475  1.00  0.00    -0.237 OA
ATOM    100  O   UNL     1       9.940   5.662 -19.847  1.00  0.00    -0.237 OA
ATOM    101  O   UNL     1      12.225   5.227 -19.031  1.00  0.00    -0.744 OA
ENDBRANCH  97  98
ENDBRANCH  65  90
ENDBRANCH  39  40
ENDBRANCH  32  34
ENDBRANCH  31  32
ENDBRANCH  30  31
ENDBRANCH  29  30
ENDBRANCH  28  29
ENDBRANCH  27  28
ENDBRANCH   1  27
TORSDOF 24
