REMARK SMILES CC1=Nc2c(c(C)nn2-c2ccc(F)cc2)[C@H](c2ccc(C(=O)OCCOCCOCCOCCOC(=O)c3ccc(-c4c5nc(c(-c6c(F)cc(S(=O)(=O)[O-])cc6F)c6ccc([nH]6)c(-c6c(F)cc(S(=O)(=O)[O-])cc6F)c6nc(c(-c7c(F)cc(S(=O)(=O)[O-])cc7F)c7ccc4[nH]7)C=C6)C=C5)cc3)cc2)S1
REMARK SMILES IDX 31 1 30 2 29 3 28 4 27 5 26 6 25 7 24 8 22 9 23 10 21 11
REMARK SMILES IDX 18 12 19 13 106 14 20 15 105 16 17 17 1 18 2 19 3 20 107 21
REMARK SMILES IDX 4 22 5 23 9 24 6 25 8 26 7 27 10 28 11 29 16 30 12 31 15 32
REMARK SMILES IDX 13 33 14 34 32 35 33 36 34 37 35 38 36 39 37 40 38 41 39 42
REMARK SMILES IDX 40 43 104 44 41 45 103 46 42 47 43 48 44 49 97 50 45 51
REMARK SMILES IDX 102 52 96 53 98 54 46 55 101 56 95 57 94 58 47 60 81 61
REMARK SMILES IDX 60 62 80 63 61 64 64 65 79 66 99 67 62 68 63 69 78 71 100 72
REMARK SMILES IDX 65 73 48 74 49 75 58 76 50 77 51 78 57 79 59 80 52 81 53 82
REMARK SMILES IDX 54 83 55 84 56 85 82 86 83 87 92 88 84 89 85 90 91 91 93 92
REMARK SMILES IDX 86 93 87 94 88 95 89 96 90 97 66 98 67 99 76 100 68 101
REMARK SMILES IDX 69 102 75 103 77 104 70 105 71 106 72 107 73 108 74 109
REMARK H PARENT 98 59 64 70
REMARK Flexibility Score: inf
ROOT
ATOM      1  C   UNL     1       0.455  -5.480   8.506  1.00  0.00     0.188 C 
ENDROOT
BRANCH   1   2
ATOM      2  O   UNL     1       1.251  -5.371   7.330  1.00  0.00    -0.377 OA
BRANCH   2   3
ATOM      3  C   UNL     1       0.636  -5.864   6.150  1.00  0.00     0.188 C 
BRANCH   3   4
ATOM      4  C   UNL     1       1.092  -7.286   5.774  1.00  0.00     0.188 C 
BRANCH   4   5
ATOM      5  O   UNL     1       1.920  -8.040   6.646  1.00  0.00    -0.376 OA
BRANCH   5   6
ATOM      6  C   UNL     1       3.055  -7.495   7.300  1.00  0.00     0.202 C 
BRANCH   6   7
ATOM      7  C   UNL     1       3.918  -6.340   6.755  1.00  0.00     0.261 C 
BRANCH   7   8
ATOM      8  O   UNL     1       3.471  -5.684   5.571  1.00  0.00    -0.460 OA
BRANCH   8   9
ATOM      9  C   UNL     1       3.813  -6.272   4.407  1.00  0.00     0.338 C 
ATOM     10  O   UNL     1       4.525  -7.249   4.263  1.00  0.00    -0.246 OA
BRANCH   9  11
ATOM     11  C   UNL     1       3.028  -5.646   3.311  1.00  0.00     0.060 A 
ATOM     12  C   UNL     1       1.591  -4.580   1.121  1.00  0.00    -0.030 A 
ATOM     13  C   UNL     1       1.872  -5.957   1.212  1.00  0.00     0.006 A 
ATOM     14  C   UNL     1       1.962  -3.765   2.208  1.00  0.00     0.006 A 
ATOM     15  C   UNL     1       2.581  -6.484   2.290  1.00  0.00     0.016 A 
ATOM     16  C   UNL     1       2.687  -4.290   3.291  1.00  0.00     0.016 A 
BRANCH  12  17
ATOM     17  C   UNL     1       1.020  -4.045  -0.187  1.00  0.00     0.119 C 
ATOM     18  C   UNL     1       1.104   0.099  -0.057  1.00  0.00     0.075 C 
ATOM     19  C   UNL     1       0.589  -1.305  -0.229  1.00  0.00     0.074 C 
ATOM     20  N   UNL     1      -0.676  -1.508  -0.043  1.00  0.00    -0.227 NA
ATOM     21  S   UNL     1       1.784  -2.486  -0.745  1.00  0.00    -0.098 SA
ATOM     22  C   UNL     1      -1.145  -2.775  -0.124  1.00  0.00     0.161 A 
ATOM     23  C   UNL     1      -0.455  -3.967  -0.106  1.00  0.00     0.038 A 
ATOM     24  N   UNL     1      -2.493  -3.097  -0.197  1.00  0.00    -0.215 N 
ATOM     25  C   UNL     1      -1.465  -4.965  -0.119  1.00  0.00     0.067 A 
ATOM     26  N   UNL     1      -2.693  -4.434  -0.058  1.00  0.00    -0.171 NA
ATOM     27  C   UNL     1      -1.319  -6.440  -0.202  1.00  0.00     0.069 C 
BRANCH  24  28
ATOM     28  C   UNL     1      -3.577  -2.224  -0.470  1.00  0.00     0.067 A 
ATOM     29  C   UNL     1      -3.411  -1.161  -1.373  1.00  0.00     0.031 A 
ATOM     30  C   UNL     1      -4.812  -2.434   0.156  1.00  0.00     0.031 A 
ATOM     31  C   UNL     1      -4.477  -0.300  -1.634  1.00  0.00     0.041 A 
ATOM     32  C   UNL     1      -5.857  -1.535  -0.072  1.00  0.00     0.041 A 
ATOM     33  C   UNL     1      -5.683  -0.483  -0.967  1.00  0.00     0.123 A 
ATOM     34  F   UNL     1      -6.692   0.366  -1.197  1.00  0.00    -0.207 F 
ENDBRANCH  24  28
ENDBRANCH  12  17
ENDBRANCH   9  11
ENDBRANCH   8   9
ENDBRANCH   7   8
ENDBRANCH   6   7
ENDBRANCH   5   6
ENDBRANCH   4   5
ENDBRANCH   3   4
ENDBRANCH   2   3
ENDBRANCH   1   2
BRANCH   1  35
ATOM     35  C   UNL     1      -0.139  -6.870   8.833  1.00  0.00     0.188 C 
BRANCH  35  36
ATOM     36  O   UNL     1      -0.831  -7.482   7.743  1.00  0.00    -0.376 OA
BRANCH  36  37
ATOM     37  C   UNL     1      -2.239  -7.654   7.829  1.00  0.00     0.202 C 
BRANCH  37  38
ATOM     38  C   UNL     1      -3.020  -6.412   7.411  1.00  0.00     0.261 C 
BRANCH  38  39
ATOM     39  O   UNL     1      -2.624  -5.252   8.123  1.00  0.00    -0.460 OA
BRANCH  39  40
ATOM     40  C   UNL     1      -2.781  -5.311   9.462  1.00  0.00     0.338 C 
ATOM     41  O   UNL     1      -3.159  -6.258  10.122  1.00  0.00    -0.246 OA
BRANCH  40  42
ATOM     42  C   UNL     1      -2.497  -3.984  10.013  1.00  0.00     0.060 A 
ATOM     43  C   UNL     1      -2.639  -3.865  11.396  1.00  0.00     0.016 A 
ATOM     44  C   UNL     1      -2.500  -2.881   9.147  1.00  0.00     0.016 A 
ATOM     45  C   UNL     1      -3.117  -2.675  11.878  1.00  0.00     0.010 A 
ATOM     46  C   UNL     1      -3.007  -1.706   9.623  1.00  0.00     0.010 A 
ATOM     47  C   UNL     1      -3.414  -1.671  10.953  1.00  0.00    -0.014 A 
BRANCH  47  48
ATOM     48  C   UNL     1      -4.278  -0.606  11.392  1.00  0.00     0.031 A 
ATOM     49  C   UNL     1      -3.571   0.513  12.033  1.00  0.00     0.074 A 
ATOM     50  C   UNL     1      -5.591  -0.638  11.103  1.00  0.00     0.049 A 
ATOM     51  N   UNL     1      -3.646   0.914  13.256  1.00  0.00    -0.248 NA
ATOM     52  C   UNL     1      -2.522   1.171  11.236  1.00  0.00     0.031 C 
ATOM     53  C   UNL     1      -6.295  -1.535  10.177  1.00  0.00     0.029 A 
ATOM     54  N   UNL     1      -6.561   0.223  11.494  1.00  0.00    -0.354 N 
ATOM     55  C   UNL     1      -2.797   2.011  13.327  1.00  0.00     0.074 A 
ATOM     56  C   UNL     1      -1.991   1.994  12.136  1.00  0.00     0.031 C 
ATOM     57  C   UNL     1      -7.519  -1.022   9.914  1.00  0.00     0.029 A 
ATOM     58  C   UNL     1      -7.719   0.159  10.738  1.00  0.00     0.049 A 
ATOM     59  H   UNL     1      -6.452   0.842  12.252  1.00  0.00     0.167 HD
ATOM     60  C   UNL     1      -2.980   3.005  14.233  1.00  0.00     0.037 A 
ATOM     61  C   UNL     1      -8.703   1.090  10.726  1.00  0.00     0.037 A 
ATOM     62  C   UNL     1      -3.838   2.598  15.312  1.00  0.00     0.049 A 
ATOM     63  C   UNL     1      -8.536   1.923  11.951  1.00  0.00     0.074 A 
ATOM     64  C   UNL     1      -3.756   1.625  16.288  1.00  0.00     0.029 A 
ATOM     65  N   UNL     1      -5.157   2.981  15.262  1.00  0.00    -0.354 N 
ATOM     66  N   UNL     1      -8.700   1.486  13.171  1.00  0.00    -0.248 NA
ATOM     67  C   UNL     1      -7.755   3.148  11.836  1.00  0.00     0.031 C 
ATOM     68  C   UNL     1      -5.091   1.166  16.474  1.00  0.00     0.029 A 
ATOM     69  C   UNL     1      -5.920   1.898  15.621  1.00  0.00     0.049 A 
ATOM     70  H   UNL     1      -5.493   3.872  15.014  1.00  0.00     0.167 HD
ATOM     71  C   UNL     1      -7.739   2.145  13.930  1.00  0.00     0.074 A 
ATOM     72  C   UNL     1      -7.258   3.224  13.074  1.00  0.00     0.031 C 
ATOM     73  C   UNL     1      -7.227   1.592  15.069  1.00  0.00     0.037 A 
BRANCH  60  74
ATOM     74  C   UNL     1      -2.628   4.438  13.949  1.00  0.00     0.058 A 
ATOM     75  C   UNL     1      -2.608   4.987  12.646  1.00  0.00     0.135 A 
ATOM     76  C   UNL     1      -2.535   5.361  15.004  1.00  0.00     0.135 A 
ATOM     77  F   UNL     1      -2.831   4.244  11.553  1.00  0.00    -0.206 F 
ATOM     78  C   UNL     1      -2.457   6.342  12.401  1.00  0.00     0.059 A 
ATOM     79  C   UNL     1      -2.454   6.737  14.782  1.00  0.00     0.059 A 
ATOM     80  F   UNL     1      -2.587   4.945  16.279  1.00  0.00    -0.206 F 
ATOM     81  C   UNL     1      -2.412   7.215  13.476  1.00  0.00     0.060 A 
BRANCH  81  82
ATOM     82  S   UNL     1      -2.437   8.978  13.113  1.00  0.00     0.124 S 
ATOM     83  O   UNL     1      -1.086   9.188  12.605  1.00  0.00    -0.237 OA
ATOM     84  O   UNL     1      -3.510   9.069  12.127  1.00  0.00    -0.237 OA
ATOM     85  O   UNL     1      -2.728   9.581  14.409  1.00  0.00    -0.744 OA
ENDBRANCH  81  82
ENDBRANCH  60  74
BRANCH  61  86
ATOM     86  C   UNL     1      -9.507   1.523   9.553  1.00  0.00     0.058 A 
ATOM     87  C   UNL     1      -9.009   1.425   8.236  1.00  0.00     0.135 A 
ATOM     88  C   UNL     1     -10.685   2.272   9.715  1.00  0.00     0.135 A 
ATOM     89  F   UNL     1      -7.851   0.800   7.974  1.00  0.00    -0.206 F 
ATOM     90  C   UNL     1      -9.627   2.041   7.152  1.00  0.00     0.059 A 
ATOM     91  C   UNL     1     -11.317   2.912   8.642  1.00  0.00     0.059 A 
ATOM     92  F   UNL     1     -11.209   2.444  10.938  1.00  0.00    -0.206 F 
ATOM     93  C   UNL     1     -10.768   2.804   7.367  1.00  0.00     0.060 A 
BRANCH  93  94
ATOM     94  S   UNL     1     -11.450   3.710   5.960  1.00  0.00     0.124 S 
ATOM     95  O   UNL     1     -10.332   4.572   5.590  1.00  0.00    -0.237 OA
ATOM     96  O   UNL     1     -11.753   2.631   5.025  1.00  0.00    -0.237 OA
ATOM     97  O   UNL     1     -12.609   4.393   6.524  1.00  0.00    -0.744 OA
ENDBRANCH  93  94
ENDBRANCH  61  86
BRANCH  73  98
ATOM     98  C   UNL     1      -7.925   0.392  15.659  1.00  0.00     0.058 A 
ATOM     99  C   UNL     1      -8.385   0.471  16.983  1.00  0.00     0.135 A 
ATOM    100  C   UNL     1      -7.955  -0.872  15.044  1.00  0.00     0.135 A 
ATOM    101  F   UNL     1      -8.332   1.639  17.645  1.00  0.00    -0.206 F 
ATOM    102  C   UNL     1      -8.828  -0.652  17.676  1.00  0.00     0.059 A 
ATOM    103  C   UNL     1      -8.426  -2.007  15.708  1.00  0.00     0.059 A 
ATOM    104  F   UNL     1      -7.448  -1.050  13.816  1.00  0.00    -0.206 F 
ATOM    105  C   UNL     1      -8.835  -1.891  17.035  1.00  0.00     0.060 A 
BRANCH 105 106
ATOM    106  S   UNL     1      -9.331  -3.344  17.983  1.00  0.00     0.124 S 
ATOM    107  O   UNL     1      -8.222  -3.483  18.923  1.00  0.00    -0.237 OA
ATOM    108  O   UNL     1     -10.600  -2.920  18.568  1.00  0.00    -0.237 OA
ATOM    109  O   UNL     1      -9.431  -4.399  16.979  1.00  0.00    -0.744 OA
ENDBRANCH 105 106
ENDBRANCH  73  98
ENDBRANCH  47  48
ENDBRANCH  40  42
ENDBRANCH  39  40
ENDBRANCH  38  39
ENDBRANCH  37  38
ENDBRANCH  36  37
ENDBRANCH  35  36
ENDBRANCH   1  35
TORSDOF 25
