REMARK SMILES O=C(OCCOCCOCCOCCOC(=O)[C@H](c1c[nH]c2cc(F)ccc12)[NH+]1CCN(c2ccccc2)CC1)c1ccc(-c2c3nc(c(-c4c(F)cc(S(=O)(=O)[O-])cc4F)c4ccc([nH]4)c(-c4c(F)cc(S(=O)(=O)[O-])cc4F)c4nc(c(-c5c(F)cc(S(=O)(=O)[O-])cc5F)c5ccc2[nH]5)C=C4)C=C3)cc1
REMARK SMILES IDX 8 1 7 2 6 3 5 4 4 5 3 6 2 7 1 8 41 9 42 10 106 11 43 12
REMARK SMILES IDX 105 13 44 14 45 15 46 16 99 17 47 18 104 19 98 20 100 21
REMARK SMILES IDX 48 22 103 23 97 24 96 25 49 27 83 28 62 29 82 30 63 31 66 32
REMARK SMILES IDX 81 33 101 34 64 35 65 36 80 38 102 39 67 40 50 41 51 42
REMARK SMILES IDX 60 43 52 44 53 45 59 46 61 47 54 48 55 49 56 50 57 51 58 52
REMARK SMILES IDX 84 53 85 54 94 55 86 56 87 57 93 58 95 59 88 60 89 61 90 62
REMARK SMILES IDX 91 63 92 64 68 65 69 66 78 67 70 68 71 69 77 70 79 71 72 72
REMARK SMILES IDX 73 73 74 74 75 75 76 76 9 77 10 78 11 79 12 80 13 81 14 82
REMARK SMILES IDX 15 83 16 84 17 85 18 86 29 87 30 88 40 89 31 91 39 92 32 93
REMARK SMILES IDX 33 94 34 95 38 96 35 97 37 98 36 99 19 100 20 101 28 102
REMARK SMILES IDX 21 103 22 104 27 105 23 107 26 108 24 109 25 110
REMARK H PARENT 100 26 66 37 29 90 21 106
REMARK Flexibility Score: inf
ROOT
ATOM      1  C   UNL     1       7.009   1.978  -2.743  1.00  0.00     0.188 C 
ENDROOT
BRANCH   1   2
ATOM      2  C   UNL     1       7.128   0.940  -1.630  1.00  0.00     0.188 C 
BRANCH   2   3
ATOM      3  O   UNL     1       5.870   0.787  -0.976  1.00  0.00    -0.376 OA
BRANCH   3   4
ATOM      4  C   UNL     1       5.892   0.553   0.429  1.00  0.00     0.202 C 
BRANCH   4   5
ATOM      5  C   UNL     1       6.195  -0.898   0.800  1.00  0.00     0.261 C 
BRANCH   5   6
ATOM      6  O   UNL     1       6.976  -1.582  -0.194  1.00  0.00    -0.460 OA
BRANCH   6   7
ATOM      7  C   UNL     1       6.554  -2.188  -1.335  1.00  0.00     0.338 C 
ATOM      8  O   UNL     1       7.406  -2.686  -2.072  1.00  0.00    -0.246 OA
BRANCH   7   9
ATOM      9  C   UNL     1       5.122  -2.306  -1.754  1.00  0.00     0.060 A 
ATOM     10  C   UNL     1       4.093  -1.450  -1.369  1.00  0.00     0.016 A 
ATOM     11  C   UNL     1       4.802  -3.343  -2.647  1.00  0.00     0.016 A 
ATOM     12  C   UNL     1       2.783  -1.658  -1.753  1.00  0.00     0.010 A 
ATOM     13  C   UNL     1       3.483  -3.551  -3.067  1.00  0.00     0.010 A 
ATOM     14  C   UNL     1       2.464  -2.731  -2.573  1.00  0.00    -0.014 A 
BRANCH  14  15
ATOM     15  C   UNL     1       1.038  -3.084  -2.655  1.00  0.00     0.031 A 
ATOM     16  C   UNL     1       0.583  -4.275  -1.864  1.00  0.00     0.074 A 
ATOM     17  C   UNL     1       0.168  -2.228  -3.223  1.00  0.00     0.049 A 
ATOM     18  N   UNL     1      -0.598  -4.822  -1.796  1.00  0.00    -0.248 NA
ATOM     19  C   UNL     1       1.597  -4.933  -1.017  1.00  0.00     0.031 C 
ATOM     20  C   UNL     1       0.529  -0.955  -3.857  1.00  0.00     0.029 A 
ATOM     21  N   UNL     1      -1.195  -2.269  -3.316  1.00  0.00    -0.354 N 
ATOM     22  C   UNL     1      -0.457  -5.905  -0.937  1.00  0.00     0.074 A 
ATOM     23  C   UNL     1       0.921  -5.951  -0.513  1.00  0.00     0.031 C 
ATOM     24  C   UNL     1      -0.590  -0.328  -4.253  1.00  0.00     0.029 A 
ATOM     25  C   UNL     1      -1.731  -1.193  -3.984  1.00  0.00     0.049 A 
ATOM     26  H   UNL     1      -1.740  -2.998  -2.942  1.00  0.00     0.167 HD
ATOM     27  C   UNL     1      -1.409  -6.779  -0.541  1.00  0.00     0.037 A 
ATOM     28  C   UNL     1      -2.999  -0.974  -4.378  1.00  0.00     0.037 A 
ATOM     29  C   UNL     1      -2.773  -6.682  -0.978  1.00  0.00     0.049 A 
ATOM     30  C   UNL     1      -4.020  -2.022  -4.023  1.00  0.00     0.074 A 
ATOM     31  C   UNL     1      -3.823  -7.549  -0.751  1.00  0.00     0.029 A 
ATOM     32  N   UNL     1      -3.273  -5.626  -1.732  1.00  0.00    -0.354 N 
ATOM     33  N   UNL     1      -3.860  -3.121  -3.317  1.00  0.00    -0.248 NA
ATOM     34  C   UNL     1      -5.382  -1.821  -4.524  1.00  0.00     0.031 C 
ATOM     35  C   UNL     1      -4.950  -7.035  -1.401  1.00  0.00     0.029 A 
ATOM     36  C   UNL     1      -4.617  -5.820  -1.986  1.00  0.00     0.049 A 
ATOM     37  H   UNL     1      -2.747  -4.854  -2.041  1.00  0.00     0.167 HD
ATOM     38  C   UNL     1      -5.103  -3.737  -3.281  1.00  0.00     0.074 A 
ATOM     39  C   UNL     1      -6.010  -2.869  -4.011  1.00  0.00     0.031 C 
ATOM     40  C   UNL     1      -5.471  -4.913  -2.713  1.00  0.00     0.037 A 
BRANCH  27  41
ATOM     41  C   UNL     1      -0.975  -7.921   0.334  1.00  0.00     0.058 A 
ATOM     42  C   UNL     1      -0.611  -7.736   1.677  1.00  0.00     0.135 A 
ATOM     43  C   UNL     1      -0.883  -9.218  -0.195  1.00  0.00     0.135 A 
ATOM     44  F   UNL     1      -0.636  -6.509   2.223  1.00  0.00    -0.206 F 
ATOM     45  C   UNL     1      -0.153  -8.793   2.459  1.00  0.00     0.059 A 
ATOM     46  C   UNL     1      -0.452 -10.294   0.575  1.00  0.00     0.059 A 
ATOM     47  F   UNL     1      -1.195  -9.448  -1.480  1.00  0.00    -0.206 F 
ATOM     48  C   UNL     1      -0.078 -10.070   1.898  1.00  0.00     0.060 A 
BRANCH  48  49
ATOM     49  S   UNL     1       0.513 -11.429   2.929  1.00  0.00     0.124 S 
ATOM     50  O   UNL     1       1.930 -11.110   3.051  1.00  0.00    -0.237 OA
ATOM     51  O   UNL     1      -0.281 -11.268   4.141  1.00  0.00    -0.237 OA
ATOM     52  O   UNL     1       0.204 -12.617   2.133  1.00  0.00    -0.744 OA
ENDBRANCH  48  49
ENDBRANCH  27  41
BRANCH  28  53
ATOM     53  C   UNL     1      -3.342   0.210  -5.216  1.00  0.00     0.058 A 
ATOM     54  C   UNL     1      -4.243   1.193  -4.779  1.00  0.00     0.135 A 
ATOM     55  C   UNL     1      -2.787   0.369  -6.498  1.00  0.00     0.135 A 
ATOM     56  F   UNL     1      -4.808   1.093  -3.566  1.00  0.00    -0.206 F 
ATOM     57  C   UNL     1      -4.604   2.267  -5.590  1.00  0.00     0.059 A 
ATOM     58  C   UNL     1      -3.103   1.451  -7.312  1.00  0.00     0.059 A 
ATOM     59  F   UNL     1      -1.910  -0.532  -6.969  1.00  0.00    -0.206 F 
ATOM     60  C   UNL     1      -4.031   2.385  -6.858  1.00  0.00     0.060 A 
BRANCH  60  61
ATOM     61  S   UNL     1      -4.504   3.777  -7.907  1.00  0.00     0.124 S 
ATOM     62  O   UNL     1      -5.855   3.397  -8.304  1.00  0.00    -0.237 OA
ATOM     63  O   UNL     1      -4.402   4.905  -6.987  1.00  0.00    -0.237 OA
ATOM     64  O   UNL     1      -3.504   3.752  -8.970  1.00  0.00    -0.744 OA
ENDBRANCH  60  61
ENDBRANCH  28  53
BRANCH  40  65
ATOM     65  C   UNL     1      -6.917  -5.292  -2.832  1.00  0.00     0.058 A 
ATOM     66  C   UNL     1      -7.465  -5.724  -4.048  1.00  0.00     0.135 A 
ATOM     67  C   UNL     1      -7.747  -5.261  -1.701  1.00  0.00     0.135 A 
ATOM     68  F   UNL     1      -6.708  -5.764  -5.157  1.00  0.00    -0.206 F 
ATOM     69  C   UNL     1      -8.803  -6.082  -4.147  1.00  0.00     0.059 A 
ATOM     70  C   UNL     1      -9.079  -5.647  -1.770  1.00  0.00     0.059 A 
ATOM     71  F   UNL     1      -7.260  -4.868  -0.513  1.00  0.00    -0.206 F 
ATOM     72  C   UNL     1      -9.601  -6.041  -3.002  1.00  0.00     0.060 A 
BRANCH  72  73
ATOM     73  S   UNL     1     -11.331  -6.529  -3.138  1.00  0.00     0.124 S 
ATOM     74  O   UNL     1     -11.906  -5.375  -3.821  1.00  0.00    -0.237 OA
ATOM     75  O   UNL     1     -11.248  -7.755  -3.924  1.00  0.00    -0.237 OA
ATOM     76  O   UNL     1     -11.743  -6.708  -1.749  1.00  0.00    -0.744 OA
ENDBRANCH  72  73
ENDBRANCH  40  65
ENDBRANCH  14  15
ENDBRANCH   7   9
ENDBRANCH   6   7
ENDBRANCH   5   6
ENDBRANCH   4   5
ENDBRANCH   3   4
ENDBRANCH   2   3
ENDBRANCH   1   2
BRANCH   1  77
ATOM     77  O   UNL     1       6.867   3.307  -2.260  1.00  0.00    -0.377 OA
BRANCH  77  78
ATOM     78  C   UNL     1       5.809   3.493  -1.327  1.00  0.00     0.188 C 
BRANCH  78  79
ATOM     79  C   UNL     1       4.381   3.081  -1.760  1.00  0.00     0.188 C 
BRANCH  79  80
ATOM     80  O   UNL     1       4.215   2.977  -3.165  1.00  0.00    -0.376 OA
BRANCH  80  81
ATOM     81  C   UNL     1       3.591   4.109  -3.763  1.00  0.00     0.202 C 
BRANCH  81  82
ATOM     82  C   UNL     1       4.455   5.380  -3.732  1.00  0.00     0.261 C 
BRANCH  82  83
ATOM     83  O   UNL     1       4.763   5.916  -2.422  1.00  0.00    -0.459 OA
BRANCH  83  84
ATOM     84  C   UNL     1       3.750   6.213  -1.555  1.00  0.00     0.370 C 
ATOM     85  O   UNL     1       2.568   6.226  -1.875  1.00  0.00    -0.245 OA
BRANCH  84  86
ATOM     86  C   UNL     1       4.315   6.445  -0.104  1.00  0.00     0.328 C 
BRANCH  86  87
ATOM     87  N   UNL     1       3.621   7.662   0.421  1.00  0.00    -0.316 N 
ATOM     88  C   UNL     1       2.581   7.421   1.411  1.00  0.00     0.284 C 
ATOM     89  C   UNL     1       4.457   8.803   0.836  1.00  0.00     0.284 C 
ATOM     90  H   UNL     1       3.170   7.953  -0.447  1.00  0.00     0.349 HD
ATOM     91  C   UNL     1       3.244   7.154   2.764  1.00  0.00     0.178 C 
ATOM     92  C   UNL     1       4.435   9.307   2.341  1.00  0.00     0.178 C 
ATOM     93  N   UNL     1       3.799   8.393   3.295  1.00  0.00    -0.360 N 
BRANCH  93  94
ATOM     94  C   UNL     1       3.068   8.706   4.438  1.00  0.00     0.037 A 
ATOM     95  C   UNL     1       3.363   7.952   5.590  1.00  0.00     0.026 A 
ATOM     96  C   UNL     1       1.802   9.291   4.321  1.00  0.00     0.026 A 
ATOM     97  C   UNL     1       2.372   7.657   6.523  1.00  0.00     0.002 A 
ATOM     98  C   UNL     1       0.807   8.989   5.254  1.00  0.00     0.002 A 
ATOM     99  C   UNL     1       1.085   8.150   6.335  1.00  0.00     0.000 A 
ENDBRANCH  93  94
ENDBRANCH  86  87
BRANCH  86 100
ATOM    100  C   UNL     1       4.149   5.179   0.807  1.00  0.00     0.046 A 
ATOM    101  C   UNL     1       2.991   4.423   0.972  1.00  0.00     0.094 A 
ATOM    102  C   UNL     1       5.100   4.605   1.758  1.00  0.00     0.009 A 
ATOM    103  N   UNL     1       3.122   3.613   2.066  1.00  0.00    -0.361 N 
ATOM    104  C   UNL     1       4.384   3.728   2.588  1.00  0.00     0.049 A 
ATOM    105  C   UNL     1       6.463   4.827   2.073  1.00  0.00     0.014 A 
ATOM    106  H   UNL     1       2.413   3.032   2.425  1.00  0.00     0.166 HD
ATOM    107  C   UNL     1       4.920   3.154   3.750  1.00  0.00     0.065 A 
ATOM    108  C   UNL     1       7.029   4.214   3.204  1.00  0.00     0.040 A 
ATOM    109  C   UNL     1       6.253   3.421   4.038  1.00  0.00     0.125 A 
ATOM    110  F   UNL     1       6.798   2.901   5.148  1.00  0.00    -0.207 F 
ENDBRANCH  86 100
ENDBRANCH  84  86
ENDBRANCH  83  84
ENDBRANCH  82  83
ENDBRANCH  81  82
ENDBRANCH  80  81
ENDBRANCH  79  80
ENDBRANCH  78  79
ENDBRANCH  77  78
ENDBRANCH   1  77
TORSDOF 26
