REMARK SMILES COc1ccc(NC(=O)N[C@@H]2C=C[C@H](C(=O)OCCOCCOCCOCCOC(=O)c3ccc(-c4c5nc(c(-c6c(F)cc(S(=O)(=O)[O-])cc6F)c6ccc([nH]6)c(-c6c(F)cc(S(=O)(=O)[O-])cc6F)c6nc(c(-c7c(F)cc(S(=O)(=O)[O-])cc7F)c7ccc4[nH]7)C=C6)C=C5)cc3)C2)c(C)c1
REMARK SMILES IDX 23 1 22 2 21 3 20 4 19 5 18 6 17 7 15 8 16 9 14 10 11 11
REMARK SMILES IDX 12 12 98 13 13 14 10 15 7 16 8 17 9 19 6 21 3 22 4 23 101 24
REMARK SMILES IDX 5 25 99 26 100 27 2 28 1 29 24 30 25 31 26 32 27 33 28 34
REMARK SMILES IDX 29 35 30 36 31 37 32 38 33 39 97 40 34 41 96 42 35 43 36 44
REMARK SMILES IDX 37 45 90 46 38 47 95 48 89 49 91 50 39 51 94 52 88 53 87 54
REMARK SMILES IDX 40 56 74 57 53 58 73 59 54 60 57 61 72 62 92 63 55 64 56 65
REMARK SMILES IDX 71 67 93 68 58 69 41 70 42 71 51 72 43 73 44 74 50 75 52 76
REMARK SMILES IDX 45 77 46 78 47 79 48 80 49 81 75 82 76 83 85 84 77 85 78 86
REMARK SMILES IDX 84 87 86 88 79 89 80 90 81 91 82 92 83 93 59 94 60 95 69 96
REMARK SMILES IDX 61 97 62 98 68 99 70 100 63 101 64 102 65 103 66 104 67 105
REMARK H PARENT 7 18 10 20 91 55 57 66
REMARK Flexibility Score: inf
ROOT
ATOM      1  O   UNL     1       2.262   2.679   0.520  1.00  0.00    -0.377 OA
ENDROOT
BRANCH   1   2
ATOM      2  C   UNL     1       3.509   2.165   0.910  1.00  0.00     0.188 C 
BRANCH   2   3
ATOM      3  C   UNL     1       4.005   0.794   0.376  1.00  0.00     0.188 C 
BRANCH   3   4
ATOM      4  O   UNL     1       3.032  -0.086  -0.096  1.00  0.00    -0.376 OA
BRANCH   4   5
ATOM      5  C   UNL     1       2.645  -1.336   0.457  1.00  0.00     0.202 C 
BRANCH   5   6
ATOM      6  C   UNL     1       1.816  -1.745   1.708  1.00  0.00     0.261 C 
BRANCH   6   7
ATOM      7  O   UNL     1       2.092  -1.040   2.868  1.00  0.00    -0.463 OA
BRANCH   7   8
ATOM      8  C   UNL     1       3.333  -1.383   3.239  1.00  0.00     0.312 C 
ATOM      9  O   UNL     1       4.053  -2.215   2.697  1.00  0.00    -0.252 OA
BRANCH   8  10
ATOM     10  C   UNL     1       3.688  -0.548   4.412  1.00  0.00     0.124 C 
ATOM     11  C   UNL     1       4.715   1.609   4.014  1.00  0.00     0.107 C 
ATOM     12  C   UNL     1       5.659   0.467   3.814  1.00  0.00    -0.006 C 
ATOM     13  C   UNL     1       3.343   0.942   4.140  1.00  0.00     0.048 C 
ATOM     14  C   UNL     1       5.166  -0.661   4.316  1.00  0.00    -0.014 C 
BRANCH  11  15
ATOM     15  N   UNL     1       5.299   2.695   3.321  1.00  0.00    -0.332 N 
ATOM     16  N   UNL     1       6.837   3.542   5.000  1.00  0.00    -0.308 N 
ATOM     17  C   UNL     1       6.298   3.505   3.744  1.00  0.00     0.319 C 
ATOM     18  H   UNL     1       7.517   4.250   5.079  1.00  0.00     0.171 HD
ATOM     19  O   UNL     1       6.757   4.289   2.904  1.00  0.00    -0.248 OA
ATOM     20  H   UNL     1       4.935   2.885   2.426  1.00  0.00     0.165 HD
BRANCH  16  21
ATOM     21  C   UNL     1       6.681   2.836   6.225  1.00  0.00     0.046 A 
ATOM     22  C   UNL     1       5.741   1.472   8.536  1.00  0.00     0.119 A 
ATOM     23  C   UNL     1       5.309   1.161   7.290  1.00  0.00     0.048 A 
ATOM     24  C   UNL     1       6.767   2.436   8.617  1.00  0.00     0.052 A 
ATOM     25  C   UNL     1       6.122   1.605   6.284  1.00  0.00     0.030 A 
ATOM     26  C   UNL     1       7.224   3.155   7.450  1.00  0.00    -0.024 A 
ATOM     27  C   UNL     1       8.477   3.973   7.503  1.00  0.00     0.047 C 
BRANCH  22  28
ATOM     28  O   UNL     1       5.334   0.748   9.626  1.00  0.00    -0.497 OA
ATOM     29  C   UNL     1       4.511  -0.400   9.311  1.00  0.00     0.278 C 
ENDBRANCH  22  28
ENDBRANCH  16  21
ENDBRANCH  11  15
ENDBRANCH   8  10
ENDBRANCH   7   8
ENDBRANCH   6   7
ENDBRANCH   5   6
ENDBRANCH   4   5
ENDBRANCH   3   4
ENDBRANCH   2   3
ENDBRANCH   1   2
BRANCH   1  30
ATOM     30  C   UNL     1       2.300   3.878  -0.223  1.00  0.00     0.188 C 
BRANCH  30  31
ATOM     31  C   UNL     1       2.681   5.154   0.643  1.00  0.00     0.188 C 
BRANCH  31  32
ATOM     32  O   UNL     1       1.643   5.551   1.587  1.00  0.00    -0.376 OA
BRANCH  32  33
ATOM     33  C   UNL     1       0.872   6.813   1.715  1.00  0.00     0.202 C 
BRANCH  33  34
ATOM     34  C   UNL     1      -0.988   7.074   1.418  1.00  0.00     0.261 C 
BRANCH  34  35
ATOM     35  O   UNL     1      -2.016   6.972  -0.094  1.00  0.00    -0.460 OA
BRANCH  35  36
ATOM     36  C   UNL     1      -2.422   6.400  -1.571  1.00  0.00     0.338 C 
ATOM     37  O   UNL     1      -3.497   6.844  -1.995  1.00  0.00    -0.246 OA
BRANCH  36  38
ATOM     38  C   UNL     1      -1.748   4.949  -2.493  1.00  0.00     0.060 A 
ATOM     39  C   UNL     1      -2.523   3.790  -2.635  1.00  0.00     0.016 A 
ATOM     40  C   UNL     1      -0.417   4.651  -2.970  1.00  0.00     0.016 A 
ATOM     41  C   UNL     1      -1.921   2.458  -2.752  1.00  0.00     0.010 A 
ATOM     42  C   UNL     1       0.201   3.356  -3.068  1.00  0.00     0.010 A 
ATOM     43  C   UNL     1      -0.515   2.209  -2.802  1.00  0.00    -0.014 A 
BRANCH  43  44
ATOM     44  C   UNL     1       0.207   1.040  -2.095  1.00  0.00     0.031 A 
ATOM     45  C   UNL     1       1.317   0.115  -2.554  1.00  0.00     0.074 A 
ATOM     46  C   UNL     1      -0.085   0.982  -0.778  1.00  0.00     0.049 A 
ATOM     47  N   UNL     1       1.297  -1.197  -2.441  1.00  0.00    -0.248 NA
ATOM     48  C   UNL     1       2.572   0.593  -3.120  1.00  0.00     0.031 C 
ATOM     49  C   UNL     1       0.600   0.626   0.435  1.00  0.00     0.029 A 
ATOM     50  N   UNL     1      -1.260   1.418  -0.254  1.00  0.00    -0.354 N 
ATOM     51  C   UNL     1       2.595  -1.700  -2.693  1.00  0.00     0.074 A 
ATOM     52  C   UNL     1       3.307  -0.531  -3.191  1.00  0.00     0.031 C 
ATOM     53  C   UNL     1      -0.129   0.659   1.538  1.00  0.00     0.029 A 
ATOM     54  C   UNL     1      -1.402   0.941   1.027  1.00  0.00     0.049 A 
ATOM     55  H   UNL     1      -1.911   1.988  -0.722  1.00  0.00     0.167 HD
ATOM     56  C   UNL     1       3.058  -2.955  -2.283  1.00  0.00     0.037 A 
ATOM     57  C   UNL     1      -2.425   0.949   1.868  1.00  0.00     0.037 A 
ATOM     58  C   UNL     1       2.143  -3.642  -1.286  1.00  0.00     0.049 A 
ATOM     59  C   UNL     1      -2.592  -0.635   1.300  1.00  0.00     0.074 A 
ATOM     60  C   UNL     1       2.362  -4.354  -0.104  1.00  0.00     0.029 A 
ATOM     61  N   UNL     1       0.758  -3.373  -1.242  1.00  0.00    -0.354 N 
ATOM     62  N   UNL     1      -1.592  -1.518   1.046  1.00  0.00    -0.248 NA
ATOM     63  C   UNL     1      -3.865  -1.337   1.129  1.00  0.00     0.031 C 
ATOM     64  C   UNL     1       1.136  -4.532   0.598  1.00  0.00     0.029 A 
ATOM     65  C   UNL     1       0.152  -3.806  -0.058  1.00  0.00     0.049 A 
ATOM     66  H   UNL     1       0.268  -2.927  -1.970  1.00  0.00     0.167 HD
ATOM     67  C   UNL     1      -2.051  -2.747   0.562  1.00  0.00     0.074 A 
ATOM     68  C   UNL     1      -3.495  -2.565   0.693  1.00  0.00     0.031 C 
ATOM     69  C   UNL     1      -1.311  -3.836   0.082  1.00  0.00     0.037 A 
BRANCH  56  70
ATOM     70  C   UNL     1       4.541  -3.513  -2.546  1.00  0.00     0.058 A 
ATOM     71  C   UNL     1       5.100  -4.641  -1.873  1.00  0.00     0.135 A 
ATOM     72  C   UNL     1       5.437  -3.019  -3.527  1.00  0.00     0.135 A 
ATOM     73  F   UNL     1       4.363  -5.460  -1.121  1.00  0.00    -0.206 F 
ATOM     74  C   UNL     1       6.423  -5.106  -2.017  1.00  0.00     0.059 A 
ATOM     75  C   UNL     1       6.770  -3.479  -3.710  1.00  0.00     0.059 A 
ATOM     76  F   UNL     1       5.032  -2.135  -4.447  1.00  0.00    -0.206 F 
ATOM     77  C   UNL     1       7.265  -4.517  -2.937  1.00  0.00     0.060 A 
BRANCH  77  78
ATOM     78  S   UNL     1       8.897  -5.253  -3.220  1.00  0.00     0.124 S 
ATOM     79  O   UNL     1       9.590  -4.972  -1.966  1.00  0.00    -0.237 OA
ATOM     80  O   UNL     1       8.573  -6.657  -3.457  1.00  0.00    -0.237 OA
ATOM     81  O   UNL     1       9.401  -4.531  -4.385  1.00  0.00    -0.744 OA
ENDBRANCH  77  78
ENDBRANCH  56  70
BRANCH  57  82
ATOM     82  C   UNL     1      -2.523   2.543   1.735  1.00  0.00     0.058 A 
ATOM     83  C   UNL     1      -1.408   3.290   2.243  1.00  0.00     0.135 A 
ATOM     84  C   UNL     1      -3.052   3.303   0.723  1.00  0.00     0.135 A 
ATOM     85  F   UNL     1      -0.923   2.945   3.455  1.00  0.00    -0.206 F 
ATOM     86  C   UNL     1      -0.601   4.317   1.497  1.00  0.00     0.059 A 
ATOM     87  C   UNL     1      -2.309   4.436   0.094  1.00  0.00     0.059 A 
ATOM     88  F   UNL     1      -4.193   2.921   0.124  1.00  0.00    -0.206 F 
ATOM     89  C   UNL     1      -0.908   4.901   0.226  1.00  0.00     0.060 A 
BRANCH  89  90
ATOM     90  S   UNL     1       0.245   6.556  -0.947  1.00  0.00     0.124 S 
ATOM     91  O   UNL     1       0.344   7.828  -0.207  1.00  0.00    -0.237 OA
ATOM     92  O   UNL     1       1.485   5.977  -1.301  1.00  0.00    -0.237 OA
ATOM     93  O   UNL     1      -0.445   6.992  -2.166  1.00  0.00    -0.744 OA
ENDBRANCH  89  90
ENDBRANCH  57  82
BRANCH  69  94
ATOM     94  C   UNL     1      -1.845  -5.231  -0.351  1.00  0.00     0.058 A 
ATOM     95  C   UNL     1      -2.954  -5.871   0.210  1.00  0.00     0.135 A 
ATOM     96  C   UNL     1      -1.109  -6.053  -1.272  1.00  0.00     0.135 A 
ATOM     97  F   UNL     1      -3.611  -5.328   1.244  1.00  0.00    -0.206 F 
ATOM     98  C   UNL     1      -3.402  -7.126  -0.240  1.00  0.00     0.059 A 
ATOM     99  C   UNL     1      -1.491  -7.325  -1.674  1.00  0.00     0.059 A 
ATOM    100  F   UNL     1       0.039  -5.665  -1.841  1.00  0.00    -0.206 F 
ATOM    101  C   UNL     1      -2.683  -7.826  -1.209  1.00  0.00     0.060 A 
BRANCH 101 102
ATOM    102  S   UNL     1      -3.312  -9.368  -1.890  1.00  0.00     0.124 S 
ATOM    103  O   UNL     1      -3.730 -10.092  -0.694  1.00  0.00    -0.237 OA
ATOM    104  O   UNL     1      -4.389  -8.883  -2.747  1.00  0.00    -0.237 OA
ATOM    105  O   UNL     1      -2.164  -9.936  -2.590  1.00  0.00    -0.744 OA
ENDBRANCH 101 102
ENDBRANCH  69  94
ENDBRANCH  43  44
ENDBRANCH  36  38
ENDBRANCH  35  36
ENDBRANCH  34  35
ENDBRANCH  33  34
ENDBRANCH  32  33
ENDBRANCH  31  32
ENDBRANCH  30  31
ENDBRANCH   1  30
TORSDOF 26
