REMARK SMILES CCc1ccnc(C(=O)c2[nH]c3ccc(OC(F)(F)F)cc3c2CC(=O)OCCOCCOCCOCCOC(=O)c2ccc(-c3c4nc(c(-c5c(F)cc(S(=O)(=O)[O-])cc5F)c5ccc([nH]5)c(-c5c(F)cc(S(=O)(=O)[O-])cc5F)c5nc(c(-c6c(F)cc(S(=O)(=O)[O-])cc6F)c6ccc3[nH]6)C=C5)C=C4)cc2)c1
REMARK SMILES IDX 32 1 31 2 30 3 29 4 28 5 27 6 25 7 26 8 24 9 23 10 10 11
REMARK SMILES IDX 11 12 12 13 22 15 13 16 21 17 14 18 15 19 8 20 9 21 7 22
REMARK SMILES IDX 3 23 4 24 108 25 5 26 6 27 2 28 1 29 16 30 17 31 18 32 19 33
REMARK SMILES IDX 20 34 33 35 34 36 35 37 36 38 37 39 38 40 39 41 40 42 41 43
REMARK SMILES IDX 42 44 43 45 107 46 44 47 106 48 45 49 46 50 47 51 100 52
REMARK SMILES IDX 48 53 105 54 99 55 101 56 49 57 104 58 98 59 97 60 50 62
REMARK SMILES IDX 84 63 63 64 83 65 64 66 67 67 82 68 102 69 65 70 66 71 81 73
REMARK SMILES IDX 103 74 68 75 51 76 52 77 61 78 53 79 54 80 60 81 62 82 55 83
REMARK SMILES IDX 56 84 57 85 58 86 59 87 85 88 86 89 95 90 87 91 88 92 94 93
REMARK SMILES IDX 96 94 89 95 90 96 91 97 92 98 93 99 69 100 70 101 79 102
REMARK SMILES IDX 71 103 72 104 78 105 80 106 73 107 74 108 75 109 76 110
REMARK SMILES IDX 77 111
REMARK H PARENT 11 14 101 61 67 72
REMARK Flexibility Score: inf
ROOT
ATOM      1  C   UNL     1       0.094   8.246   0.523  1.00  0.00     0.188 C 
ENDROOT
BRANCH   1   2
ATOM      2  C   UNL     1      -0.252   9.256  -0.568  1.00  0.00     0.188 C 
BRANCH   2   3
ATOM      3  O   UNL     1      -0.164  10.630  -0.252  1.00  0.00    -0.376 OA
BRANCH   3   4
ATOM      4  C   UNL     1      -0.981  11.104   0.817  1.00  0.00     0.202 C 
BRANCH   4   5
ATOM      5  C   UNL     1      -2.430  10.589   0.967  1.00  0.00     0.261 C 
BRANCH   5   6
ATOM      6  O   UNL     1      -2.573   9.172   1.273  1.00  0.00    -0.463 OA
BRANCH   6   7
ATOM      7  C   UNL     1      -3.464   8.480   0.522  1.00  0.00     0.310 C 
ATOM      8  O   UNL     1      -4.147   9.008  -0.358  1.00  0.00    -0.252 OA
BRANCH   7   9
ATOM      9  C   UNL     1      -3.607   6.987   0.768  1.00  0.00     0.161 C 
BRANCH   9  10
ATOM     10  C   UNL     1      -2.848   6.250   1.852  1.00  0.00     0.000 A 
ATOM     11  C   UNL     1      -1.694   5.457   1.718  1.00  0.00     0.093 A 
ATOM     12  N   UNL     1      -1.350   5.067   2.999  1.00  0.00    -0.352 N 
ATOM     13  C   UNL     1      -2.446   5.160   3.825  1.00  0.00     0.046 A 
ATOM     14  H   UNL     1      -0.455   4.768   3.278  1.00  0.00     0.167 HD
ATOM     15  C   UNL     1      -3.391   5.919   3.142  1.00  0.00     0.008 A 
ATOM     16  C   UNL     1      -2.680   4.622   5.096  1.00  0.00     0.030 A 
ATOM     17  C   UNL     1      -4.649   6.115   3.750  1.00  0.00     0.057 A 
ATOM     18  C   UNL     1      -3.960   4.786   5.649  1.00  0.00     0.049 A 
ATOM     19  C   UNL     1      -4.948   5.501   4.975  1.00  0.00     0.130 A 
BRANCH  11  20
ATOM     20  C   UNL     1      -0.987   5.098   0.488  1.00  0.00     0.227 C 
ATOM     21  O   UNL     1      -1.331   5.515  -0.620  1.00  0.00    -0.285 OA
BRANCH  20  22
ATOM     22  C   UNL     1       0.152   4.136   0.481  1.00  0.00     0.113 A 
ATOM     23  C   UNL     1       0.934   1.873   0.638  1.00  0.00    -0.044 A 
ATOM     24  C   UNL     1       2.060   2.265  -0.094  1.00  0.00     0.024 A 
ATOM     25  C   UNL     1      -0.023   2.845   0.962  1.00  0.00     0.036 A 
ATOM     26  C   UNL     1       2.167   3.585  -0.502  1.00  0.00     0.112 A 
ATOM     27  N   UNL     1       1.240   4.524  -0.233  1.00  0.00    -0.253 NA
BRANCH  23  28
ATOM     28  C   UNL     1       0.703   0.440   1.054  1.00  0.00     0.032 C 
ATOM     29  C   UNL     1       1.098  -0.592   0.004  1.00  0.00     0.009 C 
ENDBRANCH  23  28
ENDBRANCH  20  22
ENDBRANCH  11  20
BRANCH  19  30
ATOM     30  O   UNL     1      -6.245   5.669   5.372  1.00  0.00    -0.406 OA
BRANCH  30  31
ATOM     31  C   UNL     1      -6.717   4.883   6.451  1.00  0.00     0.573 C 
ATOM     32  F   UNL     1      -6.496   3.566   6.239  1.00  0.00    -0.132 F 
ATOM     33  F   UNL     1      -6.139   5.253   7.612  1.00  0.00    -0.132 F 
ATOM     34  F   UNL     1      -8.053   5.061   6.566  1.00  0.00    -0.132 F 
ENDBRANCH  30  31
ENDBRANCH  19  30
ENDBRANCH   9  10
ENDBRANCH   7   9
ENDBRANCH   6   7
ENDBRANCH   5   6
ENDBRANCH   4   5
ENDBRANCH   3   4
ENDBRANCH   2   3
ENDBRANCH   1   2
BRANCH   1  35
ATOM     35  O   UNL     1      -0.070   8.615   1.880  1.00  0.00    -0.377 OA
BRANCH  35  36
ATOM     36  C   UNL     1       1.052   9.008   2.656  1.00  0.00     0.188 C 
BRANCH  36  37
ATOM     37  C   UNL     1       2.399   9.144   1.949  1.00  0.00     0.188 C 
BRANCH  37  38
ATOM     38  O   UNL     1       3.031   7.961   1.451  1.00  0.00    -0.376 OA
BRANCH  38  39
ATOM     39  C   UNL     1       2.671   6.690   1.984  1.00  0.00     0.202 C 
BRANCH  39  40
ATOM     40  C   UNL     1       3.504   6.232   3.175  1.00  0.00     0.261 C 
BRANCH  40  41
ATOM     41  O   UNL     1       3.158   6.975   4.348  1.00  0.00    -0.460 OA
BRANCH  41  42
ATOM     42  C   UNL     1       3.964   8.031   4.594  1.00  0.00     0.338 C 
ATOM     43  O   UNL     1       4.988   8.335   4.000  1.00  0.00    -0.246 OA
BRANCH  42  44
ATOM     44  C   UNL     1       3.338   8.889   5.610  1.00  0.00     0.060 A 
ATOM     45  C   UNL     1       3.393  10.274   5.411  1.00  0.00     0.016 A 
ATOM     46  C   UNL     1       2.767   8.351   6.767  1.00  0.00     0.016 A 
ATOM     47  C   UNL     1       2.945  11.132   6.404  1.00  0.00     0.010 A 
ATOM     48  C   UNL     1       2.330   9.212   7.770  1.00  0.00     0.010 A 
ATOM     49  C   UNL     1       2.474  10.601   7.610  1.00  0.00    -0.014 A 
BRANCH  49  50
ATOM     50  C   UNL     1       2.376  11.492   8.781  1.00  0.00     0.031 A 
ATOM     51  C   UNL     1       3.528  11.511   9.748  1.00  0.00     0.074 A 
ATOM     52  C   UNL     1       1.315  12.299   8.939  1.00  0.00     0.049 A 
ATOM     53  N   UNL     1       3.668  12.184  10.857  1.00  0.00    -0.248 NA
ATOM     54  C   UNL     1       4.678  10.649   9.417  1.00  0.00     0.031 C 
ATOM     55  C   UNL     1       0.180  12.389   8.021  1.00  0.00     0.029 A 
ATOM     56  N   UNL     1       1.024  13.197   9.930  1.00  0.00    -0.354 N 
ATOM     57  C   UNL     1       4.913  11.823  11.360  1.00  0.00     0.074 A 
ATOM     58  C   UNL     1       5.474  10.845  10.457  1.00  0.00     0.031 C 
ATOM     59  C   UNL     1      -0.695  13.289   8.501  1.00  0.00     0.029 A 
ATOM     60  C   UNL     1      -0.196  13.808   9.773  1.00  0.00     0.049 A 
ATOM     61  H   UNL     1       1.629  13.385  10.683  1.00  0.00     0.167 HD
ATOM     62  C   UNL     1       5.534  12.278  12.473  1.00  0.00     0.037 A 
ATOM     63  C   UNL     1      -0.839  14.669  10.584  1.00  0.00     0.037 A 
ATOM     64  C   UNL     1       4.953  13.254  13.357  1.00  0.00     0.049 A 
ATOM     65  C   UNL     1      -0.161  15.106  11.857  1.00  0.00     0.074 A 
ATOM     66  C   UNL     1       5.488  13.795  14.511  1.00  0.00     0.029 A 
ATOM     67  N   UNL     1       3.700  13.828  13.186  1.00  0.00    -0.354 N 
ATOM     68  N   UNL     1       1.020  14.768  12.322  1.00  0.00    -0.248 NA
ATOM     69  C   UNL     1      -0.896  16.045  12.712  1.00  0.00     0.031 C 
ATOM     70  C   UNL     1       4.533  14.651  15.071  1.00  0.00     0.029 A 
ATOM     71  C   UNL     1       3.432  14.697  14.228  1.00  0.00     0.049 A 
ATOM     72  H   UNL     1       3.093  13.643  12.434  1.00  0.00     0.167 HD
ATOM     73  C   UNL     1       1.183  15.479  13.506  1.00  0.00     0.074 A 
ATOM     74  C   UNL     1      -0.018  16.271  13.680  1.00  0.00     0.031 C 
ATOM     75  C   UNL     1       2.229  15.482  14.370  1.00  0.00     0.037 A 
BRANCH  62  76
ATOM     76  C   UNL     1       6.882  11.701  12.810  1.00  0.00     0.058 A 
ATOM     77  C   UNL     1       8.023  11.971  12.037  1.00  0.00     0.135 A 
ATOM     78  C   UNL     1       7.038  10.878  13.937  1.00  0.00     0.135 A 
ATOM     79  F   UNL     1       7.930  12.731  10.934  1.00  0.00    -0.206 F 
ATOM     80  C   UNL     1       9.264  11.426  12.355  1.00  0.00     0.059 A 
ATOM     81  C   UNL     1       8.275  10.348  14.292  1.00  0.00     0.059 A 
ATOM     82  F   UNL     1       5.980  10.578  14.707  1.00  0.00    -0.206 F 
ATOM     83  C   UNL     1       9.380  10.617  13.486  1.00  0.00     0.060 A 
BRANCH  83  84
ATOM     84  S   UNL     1      10.997   9.924  13.889  1.00  0.00     0.124 S 
ATOM     85  O   UNL     1      11.167   8.940  12.825  1.00  0.00    -0.237 OA
ATOM     86  O   UNL     1      11.864  11.096  13.814  1.00  0.00    -0.237 OA
ATOM     87  O   UNL     1      10.808   9.373  15.227  1.00  0.00    -0.744 OA
ENDBRANCH  83  84
ENDBRANCH  62  76
BRANCH  63  88
ATOM     88  C   UNL     1      -2.193  15.162  10.219  1.00  0.00     0.058 A 
ATOM     89  C   UNL     1      -2.412  16.506   9.883  1.00  0.00     0.135 A 
ATOM     90  C   UNL     1      -3.296  14.294  10.187  1.00  0.00     0.135 A 
ATOM     91  F   UNL     1      -1.391  17.377   9.904  1.00  0.00    -0.206 F 
ATOM     92  C   UNL     1      -3.676  16.976   9.544  1.00  0.00     0.059 A 
ATOM     93  C   UNL     1      -4.565  14.733   9.823  1.00  0.00     0.059 A 
ATOM     94  F   UNL     1      -3.140  12.995  10.488  1.00  0.00    -0.206 F 
ATOM     95  C   UNL     1      -4.747  16.080   9.513  1.00  0.00     0.060 A 
BRANCH  95  96
ATOM     96  S   UNL     1      -6.374  16.693   9.029  1.00  0.00     0.124 S 
ATOM     97  O   UNL     1      -6.736  17.510  10.182  1.00  0.00    -0.237 OA
ATOM     98  O   UNL     1      -6.072  17.420   7.800  1.00  0.00    -0.237 OA
ATOM     99  O   UNL     1      -7.154  15.472   8.851  1.00  0.00    -0.744 OA
ENDBRANCH  95  96
ENDBRANCH  63  88
BRANCH  75 100
ATOM    100  C   UNL     1       2.145  16.404  15.556  1.00  0.00     0.058 A 
ATOM    101  C   UNL     1       1.272  16.158  16.627  1.00  0.00     0.135 A 
ATOM    102  C   UNL     1       2.997  17.517  15.646  1.00  0.00     0.135 A 
ATOM    103  F   UNL     1       0.433  15.111  16.590  1.00  0.00    -0.206 F 
ATOM    104  C   UNL     1       1.228  17.000  17.734  1.00  0.00     0.059 A 
ATOM    105  C   UNL     1       2.994  18.352  16.758  1.00  0.00     0.059 A 
ATOM    106  F   UNL     1       3.861  17.790  14.655  1.00  0.00    -0.206 F 
ATOM    107  C   UNL     1       2.096  18.092  17.791  1.00  0.00     0.060 A 
BRANCH 107 108
ATOM    108  S   UNL     1       2.053  19.154  19.249  1.00  0.00     0.124 S 
ATOM    109  O   UNL     1       0.786  19.854  19.065  1.00  0.00    -0.237 OA
ATOM    110  O   UNL     1       2.090  18.186  20.341  1.00  0.00    -0.237 OA
ATOM    111  O   UNL     1       3.250  19.977  19.108  1.00  0.00    -0.744 OA
ENDBRANCH 107 108
ENDBRANCH  75 100
ENDBRANCH  49  50
ENDBRANCH  42  44
ENDBRANCH  41  42
ENDBRANCH  40  41
ENDBRANCH  39  40
ENDBRANCH  38  39
ENDBRANCH  37  38
ENDBRANCH  36  37
ENDBRANCH  35  36
ENDBRANCH   1  35
TORSDOF 29
