REMARK SMILES CCn1cc(CNC(=O)[C@H]2CC=CC[C@H]2C(=O)OCCOCCOCCOCCOC(=O)c2ccc(-c3c4nc(c(-c5c(F)cc(S(=O)(=O)[O-])cc5F)c5ccc([nH]5)c(-c5c(F)cc(S(=O)(=O)[O-])cc5F)c5nc(c(-c6c(F)cc(S(=O)(=O)[O-])cc6F)c6ccc3[nH]6)C=C5)C=C4)cc2)cn1
REMARK SMILES IDX 23 1 22 2 21 3 20 4 19 5 18 6 16 7 17 8 15 9 10 10 11 11
REMARK SMILES IDX 12 12 14 13 13 14 8 15 7 16 9 18 6 19 5 20 3 21 4 22 100 23
REMARK SMILES IDX 99 24 2 25 1 26 24 27 25 28 26 29 27 30 28 31 29 32 30 33
REMARK SMILES IDX 31 34 32 35 33 36 34 37 98 38 35 39 97 40 36 41 37 42 38 43
REMARK SMILES IDX 91 44 39 45 96 46 90 47 92 48 40 49 95 50 89 51 88 52 41 54
REMARK SMILES IDX 75 55 54 56 74 57 55 58 58 59 73 60 93 61 56 62 57 63 72 65
REMARK SMILES IDX 94 66 59 67 42 68 43 69 52 70 44 71 45 72 51 73 53 74 46 75
REMARK SMILES IDX 47 76 48 77 49 78 50 79 76 80 77 81 86 82 78 83 79 84 85 85
REMARK SMILES IDX 87 86 80 87 81 88 82 89 83 90 84 91 60 92 61 93 70 94 62 95
REMARK SMILES IDX 63 96 69 97 71 98 64 99 65 100 66 101 67 102 68 103
REMARK H PARENT 7 17 92 53 58 64
REMARK Flexibility Score: inf
ROOT
ATOM      1  C   UNL     1       3.196  -1.484   8.208  1.00  0.00     0.188 C 
ENDROOT
BRANCH   1   2
ATOM      2  C   UNL     1       4.080  -0.339   7.668  1.00  0.00     0.188 C 
BRANCH   2   3
ATOM      3  O   UNL     1       3.487   0.896   7.279  1.00  0.00    -0.376 OA
BRANCH   3   4
ATOM      4  C   UNL     1       2.351   0.870   6.425  1.00  0.00     0.202 C 
BRANCH   4   5
ATOM      5  C   UNL     1       2.413  -0.042   5.200  1.00  0.00     0.261 C 
BRANCH   5   6
ATOM      6  O   UNL     1       2.520  -1.444   5.531  1.00  0.00    -0.463 OA
BRANCH   6   7
ATOM      7  C   UNL     1       3.486  -2.173   4.922  1.00  0.00     0.310 C 
ATOM      8  O   UNL     1       4.359  -1.688   4.211  1.00  0.00    -0.252 OA
BRANCH   7   9
ATOM      9  C   UNL     1       3.364  -3.681   5.161  1.00  0.00     0.115 C 
ATOM     10  C   UNL     1       2.255  -4.290   6.057  1.00  0.00     0.096 C 
ATOM     11  C   UNL     1       2.699  -5.760   6.353  1.00  0.00     0.041 C 
ATOM     12  C   UNL     1       3.030  -6.519   5.097  1.00  0.00    -0.030 C 
ATOM     13  C   UNL     1       3.501  -4.424   3.823  1.00  0.00     0.043 C 
ATOM     14  C   UNL     1       3.363  -5.911   3.950  1.00  0.00    -0.030 C 
BRANCH  10  15
ATOM     15  C   UNL     1       0.750  -4.384   5.723  1.00  0.00     0.224 C 
ATOM     16  N   UNL     1       0.124  -3.880   4.635  1.00  0.00    -0.352 N 
ATOM     17  H   UNL     1      -0.622  -4.413   4.276  1.00  0.00     0.163 HD
ATOM     18  O   UNL     1       0.001  -4.989   6.504  1.00  0.00    -0.275 OA
BRANCH  16  19
ATOM     19  C   UNL     1       0.419  -2.670   3.949  1.00  0.00     0.155 C 
BRANCH  19  20
ATOM     20  C   UNL     1       0.213  -2.695   2.497  1.00  0.00     0.009 A 
ATOM     21  N   UNL     1       0.216  -2.021   0.407  1.00  0.00    -0.273 N 
ATOM     22  C   UNL     1       0.390  -1.595   1.685  1.00  0.00     0.114 A 
ATOM     23  N   UNL     1      -0.032  -3.344   0.327  1.00  0.00    -0.181 NA
ATOM     24  C   UNL     1      -0.019  -3.753   1.600  1.00  0.00     0.140 A 
BRANCH  21  25
ATOM     25  C   UNL     1       0.212  -1.217  -0.799  1.00  0.00     0.141 C 
ATOM     26  C   UNL     1       0.841   0.164  -0.665  1.00  0.00     0.029 C 
ENDBRANCH  21  25
ENDBRANCH  19  20
ENDBRANCH  16  19
ENDBRANCH  10  15
ENDBRANCH   7   9
ENDBRANCH   6   7
ENDBRANCH   5   6
ENDBRANCH   4   5
ENDBRANCH   3   4
ENDBRANCH   2   3
ENDBRANCH   1   2
BRANCH   1  27
ATOM     27  O   UNL     1       1.796  -1.315   8.044  1.00  0.00    -0.377 OA
BRANCH  27  28
ATOM     28  C   UNL     1       1.085  -0.817   9.178  1.00  0.00     0.188 C 
BRANCH  28  29
ATOM     29  C   UNL     1       1.733   0.349   9.960  1.00  0.00     0.188 C 
BRANCH  29  30
ATOM     30  O   UNL     1       3.128   0.207  10.213  1.00  0.00    -0.376 OA
BRANCH  30  31
ATOM     31  C   UNL     1       3.642  -0.353  11.413  1.00  0.00     0.202 C 
BRANCH  31  32
ATOM     32  C   UNL     1       3.261  -1.785  11.792  1.00  0.00     0.261 C 
BRANCH  32  33
ATOM     33  O   UNL     1       1.873  -2.049  11.747  1.00  0.00    -0.460 OA
BRANCH  33  34
ATOM     34  C   UNL     1       1.111  -1.268  12.512  1.00  0.00     0.338 C 
ATOM     35  O   UNL     1       1.455  -0.237  13.117  1.00  0.00    -0.246 OA
BRANCH  34  36
ATOM     36  C   UNL     1      -0.192  -1.877  12.663  1.00  0.00     0.060 A 
ATOM     37  C   UNL     1      -1.128  -1.116  13.365  1.00  0.00     0.016 A 
ATOM     38  C   UNL     1      -0.257  -3.274  12.556  1.00  0.00     0.016 A 
ATOM     39  C   UNL     1      -1.954  -1.784  14.224  1.00  0.00     0.010 A 
ATOM     40  C   UNL     1      -1.058  -3.936  13.441  1.00  0.00     0.010 A 
ATOM     41  C   UNL     1      -1.823  -3.174  14.321  1.00  0.00    -0.014 A 
BRANCH  41  42
ATOM     42  C   UNL     1      -2.642  -3.851  15.292  1.00  0.00     0.031 A 
ATOM     43  C   UNL     1      -4.047  -3.912  14.839  1.00  0.00     0.074 A 
ATOM     44  C   UNL     1      -2.108  -4.429  16.382  1.00  0.00     0.049 A 
ATOM     45  N   UNL     1      -5.074  -3.334  15.364  1.00  0.00    -0.248 NA
ATOM     46  C   UNL     1      -4.301  -4.490  13.504  1.00  0.00     0.031 C 
ATOM     47  C   UNL     1      -0.687  -4.618  16.690  1.00  0.00     0.029 A 
ATOM     48  N   UNL     1      -2.727  -5.089  17.393  1.00  0.00    -0.354 N 
ATOM     49  C   UNL     1      -6.144  -3.724  14.566  1.00  0.00     0.074 A 
ATOM     50  C   UNL     1      -5.587  -4.195  13.331  1.00  0.00     0.031 C 
ATOM     51  C   UNL     1      -0.566  -5.544  17.669  1.00  0.00     0.029 A 
ATOM     52  C   UNL     1      -1.892  -5.927  18.125  1.00  0.00     0.049 A 
ATOM     53  H   UNL     1      -3.685  -4.984  17.592  1.00  0.00     0.167 HD
ATOM     54  C   UNL     1      -7.359  -3.960  15.124  1.00  0.00     0.037 A 
ATOM     55  C   UNL     1      -2.291  -6.921  18.960  1.00  0.00     0.037 A 
ATOM     56  C   UNL     1      -7.484  -3.277  16.388  1.00  0.00     0.049 A 
ATOM     57  C   UNL     1      -3.725  -6.673  19.277  1.00  0.00     0.074 A 
ATOM     58  C   UNL     1      -7.383  -1.959  16.789  1.00  0.00     0.029 A 
ATOM     59  N   UNL     1      -7.360  -4.034  17.527  1.00  0.00    -0.354 N 
ATOM     60  N   UNL     1      -4.156  -5.668  19.988  1.00  0.00    -0.248 NA
ATOM     61  C   UNL     1      -4.728  -7.305  18.430  1.00  0.00     0.031 C 
ATOM     62  C   UNL     1      -6.778  -2.002  18.078  1.00  0.00     0.029 A 
ATOM     63  C   UNL     1      -6.595  -3.341  18.429  1.00  0.00     0.049 A 
ATOM     64  H   UNL     1      -7.754  -4.925  17.672  1.00  0.00     0.167 HD
ATOM     65  C   UNL     1      -5.335  -5.273  19.371  1.00  0.00     0.074 A 
ATOM     66  C   UNL     1      -5.691  -6.382  18.491  1.00  0.00     0.031 C 
ATOM     67  C   UNL     1      -5.745  -3.970  19.417  1.00  0.00     0.037 A 
BRANCH  54  68
ATOM     68  C   UNL     1      -8.214  -5.149  14.742  1.00  0.00     0.058 A 
ATOM     69  C   UNL     1      -9.500  -5.263  15.304  1.00  0.00     0.135 A 
ATOM     70  C   UNL     1      -7.733  -6.311  14.090  1.00  0.00     0.135 A 
ATOM     71  F   UNL     1     -10.054  -4.227  15.954  1.00  0.00    -0.206 F 
ATOM     72  C   UNL     1     -10.215  -6.460  15.293  1.00  0.00     0.059 A 
ATOM     73  C   UNL     1      -8.453  -7.494  14.017  1.00  0.00     0.059 A 
ATOM     74  F   UNL     1      -6.504  -6.402  13.572  1.00  0.00    -0.206 F 
ATOM     75  C   UNL     1      -9.673  -7.574  14.659  1.00  0.00     0.060 A 
BRANCH  75  76
ATOM     76  S   UNL     1     -10.545  -9.145  14.722  1.00  0.00     0.124 S 
ATOM     77  O   UNL     1     -10.395  -9.501  16.128  1.00  0.00    -0.237 OA
ATOM     78  O   UNL     1     -11.886  -8.760  14.295  1.00  0.00    -0.237 OA
ATOM     79  O   UNL     1      -9.806  -9.976  13.775  1.00  0.00    -0.744 OA
ENDBRANCH  75  76
ENDBRANCH  54  68
BRANCH  55  80
ATOM     80  C   UNL     1      -1.644  -8.235  19.230  1.00  0.00     0.058 A 
ATOM     81  C   UNL     1      -2.114  -9.066  20.265  1.00  0.00     0.135 A 
ATOM     82  C   UNL     1      -0.752  -8.833  18.317  1.00  0.00     0.135 A 
ATOM     83  F   UNL     1      -2.976  -8.588  21.176  1.00  0.00    -0.206 F 
ATOM     84  C   UNL     1      -1.779 -10.422  20.348  1.00  0.00     0.059 A 
ATOM     85  C   UNL     1      -0.390 -10.178  18.390  1.00  0.00     0.059 A 
ATOM     86  F   UNL     1      -0.275  -8.156  17.263  1.00  0.00    -0.206 F 
ATOM     87  C   UNL     1      -0.933 -10.976  19.389  1.00  0.00     0.060 A 
BRANCH  87  88
ATOM     88  S   UNL     1      -0.654 -12.762  19.374  1.00  0.00     0.124 S 
ATOM     89  O   UNL     1       0.160 -12.951  20.569  1.00  0.00    -0.237 OA
ATOM     90  O   UNL     1      -2.013 -13.287  19.438  1.00  0.00    -0.237 OA
ATOM     91  O   UNL     1       0.038 -12.986  18.107  1.00  0.00    -0.744 OA
ENDBRANCH  87  88
ENDBRANCH  55  80
BRANCH  67  92
ATOM     92  C   UNL     1      -5.123  -3.072  20.456  1.00  0.00     0.058 A 
ATOM     93  C   UNL     1      -3.758  -2.743  20.532  1.00  0.00     0.135 A 
ATOM     94  C   UNL     1      -5.986  -2.427  21.356  1.00  0.00     0.135 A 
ATOM     95  F   UNL     1      -2.879  -3.225  19.641  1.00  0.00    -0.206 F 
ATOM     96  C   UNL     1      -3.268  -1.861  21.499  1.00  0.00     0.059 A 
ATOM     97  C   UNL     1      -5.527  -1.517  22.301  1.00  0.00     0.059 A 
ATOM     98  F   UNL     1      -7.310  -2.649  21.295  1.00  0.00    -0.206 F 
ATOM     99  C   UNL     1      -4.162  -1.254  22.382  1.00  0.00     0.060 A 
BRANCH  99 100
ATOM    100  S   UNL     1      -3.540  -0.080  23.604  1.00  0.00     0.124 S 
ATOM    101  O   UNL     1      -2.832  -0.951  24.535  1.00  0.00    -0.237 OA
ATOM    102  O   UNL     1      -2.702   0.803  22.798  1.00  0.00    -0.237 OA
ATOM    103  O   UNL     1      -4.754   0.540  24.131  1.00  0.00    -0.744 OA
ENDBRANCH  99 100
ENDBRANCH  67  92
ENDBRANCH  41  42
ENDBRANCH  34  36
ENDBRANCH  33  34
ENDBRANCH  32  33
ENDBRANCH  31  32
ENDBRANCH  30  31
ENDBRANCH  29  30
ENDBRANCH  28  29
ENDBRANCH  27  28
ENDBRANCH   1  27
TORSDOF 27
