REMARK SMILES C=C(C)COc1ccc2nc(C)n(-c3cccc(C(=O)OCCOCCOCCOCCOC(=O)c4ccc(-c5c6nc(c(-c7c(F)cc(S(=O)(=O)[O-])cc7F)c7ccc([nH]7)c(-c7c(F)cc(S(=O)(=O)[O-])cc7F)c7nc(c(-c8c(F)cc(S(=O)(=O)[O-])cc8F)c8ccc5[nH]8)C=C7)C=C6)cc4)c3)c(=O)c2c1
REMARK SMILES IDX 26 1 25 2 24 3 23 4 22 5 21 6 19 7 20 8 18 9 14 10 15 11
REMARK SMILES IDX 102 12 16 13 17 14 13 15 6 16 7 17 106 18 8 19 105 20 9 21
REMARK SMILES IDX 103 22 10 23 104 24 11 25 12 26 5 27 4 28 2 29 1 30 3 31
REMARK SMILES IDX 27 32 28 33 29 34 30 35 31 36 32 37 33 38 34 39 35 40 36 41
REMARK SMILES IDX 37 42 101 43 38 44 100 45 39 46 40 47 41 48 94 49 42 50
REMARK SMILES IDX 99 51 93 52 95 53 43 54 98 55 92 56 91 57 44 59 78 60 57 61
REMARK SMILES IDX 77 62 58 63 61 64 76 65 96 66 59 67 60 68 75 70 97 71 62 72
REMARK SMILES IDX 45 73 46 74 55 75 47 76 48 77 54 78 56 79 49 80 50 81 51 82
REMARK SMILES IDX 52 83 53 84 79 85 80 86 89 87 81 88 82 89 88 90 90 91 83 92
REMARK SMILES IDX 84 93 85 94 86 95 87 96 63 97 64 98 73 99 65 100 66 101
REMARK SMILES IDX 72 102 74 103 67 104 68 105 69 106 70 107 71 108
REMARK H PARENT 95 58 61 69
REMARK Flexibility Score: inf
ROOT
ATOM      1  C   UNL     1      -3.106 -11.418   1.604  1.00  0.00     0.188 C 
ENDROOT
BRANCH   1   2
ATOM      2  C   UNL     1      -2.724 -12.676   2.410  1.00  0.00     0.188 C 
BRANCH   2   3
ATOM      3  O   UNL     1      -3.263 -12.703   3.720  1.00  0.00    -0.376 OA
BRANCH   3   4
ATOM      4  C   UNL     1      -2.401 -12.503   4.826  1.00  0.00     0.202 C 
BRANCH   4   5
ATOM      5  C   UNL     1      -1.568 -11.215   4.916  1.00  0.00     0.261 C 
BRANCH   5   6
ATOM      6  O   UNL     1      -0.949 -10.781   3.701  1.00  0.00    -0.460 OA
BRANCH   6   7
ATOM      7  C   UNL     1       0.155 -11.440   3.282  1.00  0.00     0.338 C 
ATOM      8  O   UNL     1       0.694 -12.384   3.831  1.00  0.00    -0.246 OA
BRANCH   7   9
ATOM      9  C   UNL     1       0.432 -10.996   1.891  1.00  0.00     0.062 A 
ATOM     10  C   UNL     1       0.365  -9.288   0.153  1.00  0.00     0.051 A 
ATOM     11  C   UNL     1       0.688 -10.272  -0.793  1.00  0.00     0.027 A 
ATOM     12  C   UNL     1       0.249  -9.663   1.502  1.00  0.00     0.042 A 
ATOM     13  C   UNL     1       0.873 -11.603  -0.406  1.00  0.00     0.003 A 
ATOM     14  C   UNL     1       0.750 -11.965   0.935  1.00  0.00     0.016 A 
BRANCH  10  15
ATOM     15  N   UNL     1       0.193  -7.915  -0.224  1.00  0.00    -0.264 N 
ATOM     16  C   UNL     1       1.224  -3.212   0.409  1.00  0.00     0.120 A 
ATOM     17  C   UNL     1       0.516  -2.943  -0.762  1.00  0.00     0.049 A 
ATOM     18  C   UNL     1       1.370  -4.522   0.850  1.00  0.00     0.062 A 
ATOM     19  C   UNL     1      -0.110  -3.976  -1.457  1.00  0.00     0.033 A 
ATOM     20  C   UNL     1       0.750  -5.554   0.132  1.00  0.00     0.070 A 
ATOM     21  C   UNL     1       0.004  -5.291  -1.012  1.00  0.00     0.078 A 
ATOM     22  C   UNL     1       0.897  -6.961   0.533  1.00  0.00     0.266 A 
ATOM     23  N   UNL     1      -0.654  -6.291  -1.724  1.00  0.00    -0.234 NA
ATOM     24  O   UNL     1       1.673  -7.215   1.455  1.00  0.00    -0.268 OA
ATOM     25  C   UNL     1      -0.573  -7.517  -1.310  1.00  0.00     0.113 A 
ATOM     26  C   UNL     1      -1.435  -8.498  -2.079  1.00  0.00     0.088 C 
BRANCH  16  27
ATOM     27  O   UNL     1       1.863  -2.207   1.083  1.00  0.00    -0.489 OA
BRANCH  27  28
ATOM     28  C   UNL     1       0.951  -1.412   1.867  1.00  0.00     0.260 C 
BRANCH  28  29
ATOM     29  C   UNL     1       0.270  -0.345   1.033  1.00  0.00    -0.043 C 
ATOM     30  C   UNL     1       0.953   0.478   0.218  1.00  0.00     0.011 C 
ATOM     31  C   UNL     1      -1.230  -0.310   1.119  1.00  0.00     0.042 C 
ENDBRANCH  28  29
ENDBRANCH  27  28
ENDBRANCH  16  27
ENDBRANCH  10  15
ENDBRANCH   7   9
ENDBRANCH   6   7
ENDBRANCH   5   6
ENDBRANCH   4   5
ENDBRANCH   3   4
ENDBRANCH   2   3
ENDBRANCH   1   2
BRANCH   1  32
ATOM     32  O   UNL     1      -3.700 -10.323   2.283  1.00  0.00    -0.377 OA
BRANCH  32  33
ATOM     33  C   UNL     1      -4.819 -10.540   3.141  1.00  0.00     0.188 C 
BRANCH  33  34
ATOM     34  C   UNL     1      -5.743 -11.773   2.985  1.00  0.00     0.188 C 
BRANCH  34  35
ATOM     35  O   UNL     1      -5.529 -12.534   1.807  1.00  0.00    -0.376 OA
BRANCH  35  36
ATOM     36  C   UNL     1      -6.511 -12.460   0.790  1.00  0.00     0.202 C 
BRANCH  36  37
ATOM     37  C   UNL     1      -6.696 -11.098   0.109  1.00  0.00     0.261 C 
BRANCH  37  38
ATOM     38  O   UNL     1      -6.951  -9.987   0.980  1.00  0.00    -0.460 OA
BRANCH  38  39
ATOM     39  C   UNL     1      -8.114  -9.994   1.679  1.00  0.00     0.338 C 
ATOM     40  O   UNL     1      -8.980 -10.836   1.645  1.00  0.00    -0.246 OA
BRANCH  39  41
ATOM     41  C   UNL     1      -8.032  -8.878   2.655  1.00  0.00     0.060 A 
ATOM     42  C   UNL     1      -7.739  -7.584   2.221  1.00  0.00     0.016 A 
ATOM     43  C   UNL     1      -8.197  -9.146   4.020  1.00  0.00     0.016 A 
ATOM     44  C   UNL     1      -7.644  -6.550   3.155  1.00  0.00     0.010 A 
ATOM     45  C   UNL     1      -8.095  -8.110   4.954  1.00  0.00     0.010 A 
ATOM     46  C   UNL     1      -7.846  -6.798   4.526  1.00  0.00    -0.014 A 
BRANCH  46  47
ATOM     47  C   UNL     1      -7.999  -5.652   5.458  1.00  0.00     0.031 A 
ATOM     48  C   UNL     1      -6.934  -5.258   6.437  1.00  0.00     0.074 A 
ATOM     49  C   UNL     1      -9.151  -4.956   5.399  1.00  0.00     0.049 A 
ATOM     50  N   UNL     1      -6.893  -4.208   7.219  1.00  0.00    -0.248 NA
ATOM     51  C   UNL     1      -5.775  -6.151   6.568  1.00  0.00     0.031 C 
ATOM     52  C   UNL     1     -10.278  -5.284   4.522  1.00  0.00     0.029 A 
ATOM     53  N   UNL     1      -9.564  -3.831   6.064  1.00  0.00    -0.354 N 
ATOM     54  C   UNL     1      -5.695  -4.295   7.917  1.00  0.00     0.074 A 
ATOM     55  C   UNL     1      -5.064  -5.533   7.505  1.00  0.00     0.031 C 
ATOM     56  C   UNL     1     -11.235  -4.357   4.670  1.00  0.00     0.029 A 
ATOM     57  C   UNL     1     -10.804  -3.385   5.671  1.00  0.00     0.049 A 
ATOM     58  H   UNL     1      -9.025  -3.385   6.757  1.00  0.00     0.167 HD
ATOM     59  C   UNL     1      -5.168  -3.411   8.800  1.00  0.00     0.037 A 
ATOM     60  C   UNL     1     -11.515  -2.309   6.059  1.00  0.00     0.037 A 
ATOM     61  C   UNL     1      -5.820  -2.191   9.214  1.00  0.00     0.049 A 
ATOM     62  C   UNL     1     -10.921  -1.363   7.065  1.00  0.00     0.074 A 
ATOM     63  C   UNL     1      -5.342  -1.210  10.068  1.00  0.00     0.029 A 
ATOM     64  N   UNL     1      -7.090  -1.790   8.824  1.00  0.00    -0.354 N 
ATOM     65  N   UNL     1      -9.743  -1.408   7.639  1.00  0.00    -0.248 NA
ATOM     66  C   UNL     1     -11.748  -0.219   7.473  1.00  0.00     0.031 C 
ATOM     67  C   UNL     1      -6.343  -0.249  10.239  1.00  0.00     0.029 A 
ATOM     68  C   UNL     1      -7.424  -0.597   9.445  1.00  0.00     0.049 A 
ATOM     69  H   UNL     1      -7.669  -2.282   8.197  1.00  0.00     0.167 HD
ATOM     70  C   UNL     1      -9.679  -0.288   8.461  1.00  0.00     0.074 A 
ATOM     71  C   UNL     1     -10.930   0.423   8.297  1.00  0.00     0.031 C 
ATOM     72  C   UNL     1      -8.672   0.109   9.277  1.00  0.00     0.037 A 
BRANCH  59  73
ATOM     73  C   UNL     1      -3.807  -3.704   9.374  1.00  0.00     0.058 A 
ATOM     74  C   UNL     1      -2.649  -3.616   8.584  1.00  0.00     0.135 A 
ATOM     75  C   UNL     1      -3.643  -3.976  10.743  1.00  0.00     0.135 A 
ATOM     76  F   UNL     1      -2.745  -3.360   7.269  1.00  0.00    -0.206 F 
ATOM     77  C   UNL     1      -1.381  -3.805   9.125  1.00  0.00     0.059 A 
ATOM     78  C   UNL     1      -2.382  -4.142  11.311  1.00  0.00     0.059 A 
ATOM     79  F   UNL     1      -4.713  -4.063  11.548  1.00  0.00    -0.206 F 
ATOM     80  C   UNL     1      -1.257  -4.063  10.491  1.00  0.00     0.060 A 
BRANCH  80  81
ATOM     81  S   UNL     1       0.399  -4.287  11.174  1.00  0.00     0.124 S 
ATOM     82  O   UNL     1       0.799  -5.548  10.556  1.00  0.00    -0.237 OA
ATOM     83  O   UNL     1       1.095  -3.098  10.693  1.00  0.00    -0.237 OA
ATOM     84  O   UNL     1       0.172  -4.341  12.614  1.00  0.00    -0.744 OA
ENDBRANCH  80  81
ENDBRANCH  59  73
BRANCH  60  85
ATOM     85  C   UNL     1     -12.848  -2.054   5.454  1.00  0.00     0.058 A 
ATOM     86  C   UNL     1     -13.046  -0.981   4.574  1.00  0.00     0.135 A 
ATOM     87  C   UNL     1     -13.938  -2.902   5.708  1.00  0.00     0.135 A 
ATOM     88  F   UNL     1     -12.035  -0.141   4.301  1.00  0.00    -0.206 F 
ATOM     89  C   UNL     1     -14.279  -0.749   3.974  1.00  0.00     0.059 A 
ATOM     90  C   UNL     1     -15.172  -2.709   5.098  1.00  0.00     0.059 A 
ATOM     91  F   UNL     1     -13.794  -3.956   6.527  1.00  0.00    -0.206 F 
ATOM     92  C   UNL     1     -15.335  -1.624   4.238  1.00  0.00     0.060 A 
BRANCH  92  93
ATOM     93  S   UNL     1     -16.915  -1.340   3.412  1.00  0.00     0.124 S 
ATOM     94  O   UNL     1     -17.362  -0.106   4.048  1.00  0.00    -0.237 OA
ATOM     95  O   UNL     1     -16.510  -1.228   2.014  1.00  0.00    -0.237 OA
ATOM     96  O   UNL     1     -17.687  -2.535   3.741  1.00  0.00    -0.744 OA
ENDBRANCH  92  93
ENDBRANCH  60  85
BRANCH  72  97
ATOM     97  C   UNL     1      -8.863   1.379  10.063  1.00  0.00     0.058 A 
ATOM     98  C   UNL     1      -9.732   1.437  11.163  1.00  0.00     0.135 A 
ATOM     99  C   UNL     1      -8.095   2.520   9.774  1.00  0.00     0.135 A 
ATOM    100  F   UNL     1     -10.498   0.381  11.477  1.00  0.00    -0.206 F 
ATOM    101  C   UNL     1      -9.832   2.580  11.951  1.00  0.00     0.059 A 
ATOM    102  C   UNL     1      -8.158   3.664  10.564  1.00  0.00     0.059 A 
ATOM    103  F   UNL     1      -7.245   2.517   8.734  1.00  0.00    -0.206 F 
ATOM    104  C   UNL     1      -9.030   3.684  11.651  1.00  0.00     0.060 A 
BRANCH 104 105
ATOM    105  S   UNL     1      -9.118   5.129  12.731  1.00  0.00     0.124 S 
ATOM    106  O   UNL     1     -10.460   5.629  12.448  1.00  0.00    -0.237 OA
ATOM    107  O   UNL     1      -8.928   4.539  14.052  1.00  0.00    -0.237 OA
ATOM    108  O   UNL     1      -8.023   5.973  12.262  1.00  0.00    -0.744 OA
ENDBRANCH 104 105
ENDBRANCH  72  97
ENDBRANCH  46  47
ENDBRANCH  39  41
ENDBRANCH  38  39
ENDBRANCH  37  38
ENDBRANCH  36  37
ENDBRANCH  35  36
ENDBRANCH  34  35
ENDBRANCH  33  34
ENDBRANCH  32  33
ENDBRANCH   1  32
TORSDOF 27
