REMARK SMILES C=C1C=C[C@H](C(=O)OCCOCCOCCOCCOC(=O)c2ccc(-c3c4nc(c(-c5c(F)cc(S(=O)(=O)[O-])cc5F)c5ccc([nH]5)c(-c5c(F)cc(S(=O)(=O)[O-])cc5F)c5nc(c(-c6c(F)cc(S(=O)(=O)[O-])cc6F)c6ccc3[nH]6)C=C5)C=C4)cc2)C(=S)N1
REMARK SMILES IDX 15 1 14 2 13 3 12 4 11 5 10 6 9 7 8 8 6 9 7 10 5 11 1 12
REMARK SMILES IDX 2 13 3 14 91 15 4 16 89 17 90 19 16 20 17 21 18 22 19 23
REMARK SMILES IDX 20 24 21 25 22 26 23 27 24 28 88 29 25 30 87 31 26 32 27 33
REMARK SMILES IDX 28 34 81 35 29 36 86 37 80 38 82 39 30 40 85 41 79 42 78 43
REMARK SMILES IDX 31 45 65 46 44 47 64 48 45 49 48 50 63 51 83 52 46 53 47 54
REMARK SMILES IDX 62 56 84 57 49 58 32 59 33 60 42 61 34 62 35 63 41 64 43 65
REMARK SMILES IDX 36 66 37 67 38 68 39 69 40 70 66 71 67 72 76 73 68 74 69 75
REMARK SMILES IDX 75 76 77 77 70 78 71 79 72 80 73 81 74 82 50 83 51 84 60 85
REMARK SMILES IDX 52 86 53 87 59 88 61 89 54 90 55 91 56 92 57 93 58 94
REMARK H PARENT 91 18 82 44 48 55
REMARK Flexibility Score: inf
ROOT
ATOM      1  C   UNL     1      -1.865   4.466  -3.031  1.00  0.00     0.188 C 
ENDROOT
BRANCH   1   2
ATOM      2  O   UNL     1      -1.974   3.085  -3.338  1.00  0.00    -0.377 OA
BRANCH   2   3
ATOM      3  C   UNL     1      -0.781   2.331  -3.265  1.00  0.00     0.188 C 
BRANCH   3   4
ATOM      4  C   UNL     1      -0.062   2.119  -4.615  1.00  0.00     0.188 C 
BRANCH   4   5
ATOM      5  O   UNL     1      -0.616   2.612  -5.829  1.00  0.00    -0.376 OA
BRANCH   5   6
ATOM      6  C   UNL     1      -2.024   2.634  -6.011  1.00  0.00     0.202 C 
BRANCH   6   7
ATOM      7  C   UNL     1      -2.868   1.371  -5.752  1.00  0.00     0.261 C 
BRANCH   7   8
ATOM      8  O   UNL     1      -2.484   0.561  -4.623  1.00  0.00    -0.462 OA
BRANCH   8   9
ATOM      9  C   UNL     1      -1.884  -0.627  -4.880  1.00  0.00     0.319 C 
ATOM     10  O   UNL     1      -1.644  -1.042  -6.012  1.00  0.00    -0.251 OA
BRANCH   9  11
ATOM     11  C   UNL     1      -1.403  -1.377  -3.631  1.00  0.00     0.180 C 
ATOM     12  C   UNL     1       0.855  -0.250  -0.176  1.00  0.00     0.037 C 
ATOM     13  C   UNL     1       0.161  -0.605  -1.265  1.00  0.00     0.031 C 
ATOM     14  C   UNL     1       0.810  -0.934  -2.510  1.00  0.00     0.022 C 
ATOM     15  N   UNL     1      -1.209  -0.666  -1.227  1.00  0.00    -0.350 N 
ATOM     16  C   UNL     1       0.112  -1.303  -3.593  1.00  0.00    -0.003 C 
ATOM     17  C   UNL     1      -2.030  -1.015  -2.278  1.00  0.00     0.098 C 
ATOM     18  H   UNL     1      -1.645  -0.441  -0.374  1.00  0.00     0.167 HD
ATOM     19  S   UNL     1      -3.676  -1.151  -1.980  1.00  0.00    -0.064 S 
ENDBRANCH   9  11
ENDBRANCH   8   9
ENDBRANCH   7   8
ENDBRANCH   6   7
ENDBRANCH   5   6
ENDBRANCH   4   5
ENDBRANCH   3   4
ENDBRANCH   2   3
ENDBRANCH   1   2
BRANCH   1  20
ATOM     20  C   UNL     1      -0.655   5.218  -3.614  1.00  0.00     0.188 C 
BRANCH  20  21
ATOM     21  O   UNL     1       0.599   4.614  -3.306  1.00  0.00    -0.376 OA
BRANCH  21  22
ATOM     22  C   UNL     1       1.371   5.154  -2.244  1.00  0.00     0.202 C 
BRANCH  22  23
ATOM     23  C   UNL     1       0.862   4.893  -0.816  1.00  0.00     0.261 C 
BRANCH  23  24
ATOM     24  O   UNL     1      -0.447   5.395  -0.511  1.00  0.00    -0.460 OA
BRANCH  24  25
ATOM     25  C   UNL     1      -0.635   6.728  -0.645  1.00  0.00     0.338 C 
ATOM     26  O   UNL     1       0.209   7.556  -0.920  1.00  0.00    -0.246 OA
BRANCH  25  27
ATOM     27  C   UNL     1      -2.090   6.995  -0.611  1.00  0.00     0.060 A 
ATOM     28  C   UNL     1      -2.663   7.662  -1.699  1.00  0.00     0.016 A 
ATOM     29  C   UNL     1      -2.878   6.602   0.475  1.00  0.00     0.016 A 
ATOM     30  C   UNL     1      -4.016   7.990  -1.679  1.00  0.00     0.010 A 
ATOM     31  C   UNL     1      -4.234   6.949   0.502  1.00  0.00     0.010 A 
ATOM     32  C   UNL     1      -4.797   7.684  -0.556  1.00  0.00    -0.014 A 
BRANCH  32  33
ATOM     33  C   UNL     1      -6.132   8.319  -0.431  1.00  0.00     0.031 A 
ATOM     34  C   UNL     1      -6.256   9.572   0.397  1.00  0.00     0.074 A 
ATOM     35  C   UNL     1      -7.190   7.851  -1.117  1.00  0.00     0.049 A 
ATOM     36  N   UNL     1      -7.291  10.351   0.575  1.00  0.00    -0.248 NA
ATOM     37  C   UNL     1      -5.048  10.006   1.118  1.00  0.00     0.031 C 
ATOM     38  C   UNL     1      -7.184   6.667  -1.974  1.00  0.00     0.029 A 
ATOM     39  N   UNL     1      -8.473   8.329  -1.210  1.00  0.00    -0.354 N 
ATOM     40  C   UNL     1      -6.859  11.368   1.419  1.00  0.00     0.074 A 
ATOM     41  C   UNL     1      -5.481  11.084   1.753  1.00  0.00     0.031 C 
ATOM     42  C   UNL     1      -8.406   6.513  -2.512  1.00  0.00     0.029 A 
ATOM     43  C   UNL     1      -9.285   7.574  -2.023  1.00  0.00     0.049 A 
ATOM     44  H   UNL     1      -8.783   9.135  -0.739  1.00  0.00     0.167 HD
ATOM     45  C   UNL     1      -7.542  12.450   1.862  1.00  0.00     0.037 A 
ATOM     46  C   UNL     1     -10.589   7.723  -2.333  1.00  0.00     0.037 A 
ATOM     47  C   UNL     1      -8.917  12.724   1.531  1.00  0.00     0.049 A 
ATOM     48  C   UNL     1     -11.344   8.907  -1.783  1.00  0.00     0.074 A 
ATOM     49  C   UNL     1      -9.699  13.797   1.921  1.00  0.00     0.029 A 
ATOM     50  N   UNL     1      -9.719  11.914   0.739  1.00  0.00    -0.354 N 
ATOM     51  N   UNL     1     -10.915   9.877  -1.010  1.00  0.00    -0.248 NA
ATOM     52  C   UNL     1     -12.759   9.024  -2.161  1.00  0.00     0.031 C 
ATOM     53  C   UNL     1     -10.989  13.606   1.414  1.00  0.00     0.029 A 
ATOM     54  C   UNL     1     -10.993  12.450   0.650  1.00  0.00     0.049 A 
ATOM     55  H   UNL     1      -9.425  11.081   0.305  1.00  0.00     0.167 HD
ATOM     56  C   UNL     1     -11.998  10.735  -0.835  1.00  0.00     0.074 A 
ATOM     57  C   UNL     1     -13.094  10.177  -1.600  1.00  0.00     0.031 C 
ATOM     58  C   UNL     1     -12.079  11.881  -0.112  1.00  0.00     0.037 A 
BRANCH  45  59
ATOM     59  C   UNL     1      -6.821  13.403   2.778  1.00  0.00     0.058 A 
ATOM     60  C   UNL     1      -5.779  14.227   2.322  1.00  0.00     0.135 A 
ATOM     61  C   UNL     1      -7.196  13.512   4.127  1.00  0.00     0.135 A 
ATOM     62  F   UNL     1      -5.362  14.150   1.048  1.00  0.00    -0.206 F 
ATOM     63  C   UNL     1      -5.119  15.107   3.176  1.00  0.00     0.059 A 
ATOM     64  C   UNL     1      -6.572  14.407   4.991  1.00  0.00     0.059 A 
ATOM     65  F   UNL     1      -8.181  12.745   4.619  1.00  0.00    -0.206 F 
ATOM     66  C   UNL     1      -5.525  15.191   4.509  1.00  0.00     0.060 A 
BRANCH  66  67
ATOM     67  S   UNL     1      -4.666  16.343   5.601  1.00  0.00     0.124 S 
ATOM     68  O   UNL     1      -3.369  15.690   5.752  1.00  0.00    -0.237 OA
ATOM     69  O   UNL     1      -4.667  17.574   4.817  1.00  0.00    -0.237 OA
ATOM     70  O   UNL     1      -5.499  16.364   6.799  1.00  0.00    -0.744 OA
ENDBRANCH  66  67
ENDBRANCH  45  59
BRANCH  46  71
ATOM     71  C   UNL     1     -11.265   6.729  -3.210  1.00  0.00     0.058 A 
ATOM     72  C   UNL     1     -11.716   7.072  -4.494  1.00  0.00     0.135 A 
ATOM     73  C   UNL     1     -11.483   5.412  -2.775  1.00  0.00     0.135 A 
ATOM     74  F   UNL     1     -11.543   8.321  -4.954  1.00  0.00    -0.206 F 
ATOM     75  C   UNL     1     -12.373   6.153  -5.307  1.00  0.00     0.059 A 
ATOM     76  C   UNL     1     -12.110   4.467  -3.581  1.00  0.00     0.059 A 
ATOM     77  F   UNL     1     -11.066   5.029  -1.558  1.00  0.00    -0.206 F 
ATOM     78  C   UNL     1     -12.561   4.851  -4.842  1.00  0.00     0.060 A 
BRANCH  78  79
ATOM     79  S   UNL     1     -13.372   3.654  -5.924  1.00  0.00     0.124 S 
ATOM     80  O   UNL     1     -14.751   4.129  -5.908  1.00  0.00    -0.237 OA
ATOM     81  O   UNL     1     -12.648   3.836  -7.178  1.00  0.00    -0.237 OA
ATOM     82  O   UNL     1     -13.136   2.379  -5.252  1.00  0.00    -0.744 OA
ENDBRANCH  78  79
ENDBRANCH  46  71
BRANCH  58  83
ATOM     83  C   UNL     1     -13.387  12.628  -0.148  1.00  0.00     0.058 A 
ATOM     84  C   UNL     1     -14.552  12.121   0.450  1.00  0.00     0.135 A 
ATOM     85  C   UNL     1     -13.473  13.877  -0.787  1.00  0.00     0.135 A 
ATOM     86  F   UNL     1     -14.528  10.934   1.077  1.00  0.00    -0.206 F 
ATOM     87  C   UNL     1     -15.766  12.796   0.367  1.00  0.00     0.059 A 
ATOM     88  C   UNL     1     -14.668  14.586  -0.851  1.00  0.00     0.059 A 
ATOM     89  F   UNL     1     -12.388  14.421  -1.359  1.00  0.00    -0.206 F 
ATOM     90  C   UNL     1     -15.816  14.025  -0.293  1.00  0.00     0.060 A 
BRANCH  90  91
ATOM     91  S   UNL     1     -17.400  14.882  -0.414  1.00  0.00     0.124 S 
ATOM     92  O   UNL     1     -18.095  14.073  -1.410  1.00  0.00    -0.237 OA
ATOM     93  O   UNL     1     -17.913  14.786   0.950  1.00  0.00    -0.237 OA
ATOM     94  O   UNL     1     -17.029  16.226  -0.845  1.00  0.00    -0.744 OA
ENDBRANCH  90  91
ENDBRANCH  58  83
ENDBRANCH  32  33
ENDBRANCH  25  27
ENDBRANCH  24  25
ENDBRANCH  23  24
ENDBRANCH  22  23
ENDBRANCH  21  22
ENDBRANCH  20  21
ENDBRANCH   1  20
TORSDOF 23
