REMARK SMILES O=C(CSc1nc2ncccc2[nH]1)OCCOCCOCCOCCOC(=O)c1ccc(-c2c3nc(c(-c4c(F)cc(S(=O)(=O)[O-])cc4F)c4ccc([nH]4)c(-c4c(F)cc(S(=O)(=O)[O-])cc4F)c4nc(c(-c5c(F)cc(S(=O)(=O)[O-])cc5F)c5ccc2[nH]5)C=C4)C=C3)cc1
REMARK SMILES IDX 21 1 20 2 19 3 18 4 17 5 16 6 15 7 14 8 2 9 1 10 3 11 4 12
REMARK SMILES IDX 5 13 6 14 13 15 7 16 12 17 8 19 11 20 9 21 10 22 22 23 23 24
REMARK SMILES IDX 24 25 25 26 26 27 27 28 28 29 29 30 30 31 94 32 31 33 93 34
REMARK SMILES IDX 32 35 33 36 34 37 87 38 35 39 92 40 86 41 88 42 36 43 91 44
REMARK SMILES IDX 85 45 84 46 37 48 71 49 50 50 70 51 51 52 54 53 69 54 89 55
REMARK SMILES IDX 52 56 53 57 68 59 90 60 55 61 38 62 39 63 48 64 40 65 41 66
REMARK SMILES IDX 47 67 49 68 42 69 43 70 44 71 45 72 46 73 72 74 73 75 82 76
REMARK SMILES IDX 74 77 75 78 81 79 83 80 76 81 77 82 78 83 79 84 80 85 56 86
REMARK SMILES IDX 57 87 66 88 58 89 59 90 65 91 67 92 60 93 61 94 62 95 63 96
REMARK SMILES IDX 64 97
REMARK H PARENT 13 18 88 47 54 58
REMARK Flexibility Score: inf
ROOT
ATOM      1  C   UNL     1       4.461   0.726   3.404  1.00  0.00     0.188 C 
ENDROOT
BRANCH   1   2
ATOM      2  O   UNL     1       3.077   0.664   3.641  1.00  0.00    -0.377 OA
BRANCH   2   3
ATOM      3  C   UNL     1       2.239   0.011   2.713  1.00  0.00     0.188 C 
BRANCH   3   4
ATOM      4  C   UNL     1       2.751  -0.614   1.405  1.00  0.00     0.188 C 
BRANCH   4   5
ATOM      5  O   UNL     1       4.139  -0.794   1.244  1.00  0.00    -0.376 OA
BRANCH   5   6
ATOM      6  C   UNL     1       4.931  -0.166   0.248  1.00  0.00     0.202 C 
BRANCH   6   7
ATOM      7  C   UNL     1       4.407   1.008  -0.575  1.00  0.00     0.261 C 
BRANCH   7   8
ATOM      8  O   UNL     1       3.102   0.927  -1.186  1.00  0.00    -0.463 OA
BRANCH   8   9
ATOM      9  C   UNL     1       2.453  -0.138  -1.696  1.00  0.00     0.316 C 
ATOM     10  O   UNL     1       1.254  -0.049  -1.965  1.00  0.00    -0.251 OA
BRANCH   9  11
ATOM     11  C   UNL     1       3.155  -1.465  -1.845  1.00  0.00     0.200 C 
BRANCH  11  12
ATOM     12  S   UNL     1       4.452  -1.425  -3.109  1.00  0.00    -0.076 SA
BRANCH  12  13
ATOM     13  C   UNL     1       3.467  -0.854  -4.394  1.00  0.00     0.168 A 
ATOM     14  N   UNL     1       3.305   0.392  -4.752  1.00  0.00    -0.203 NA
ATOM     15  N   UNL     1       2.577  -1.702  -4.979  1.00  0.00    -0.332 N 
ATOM     16  C   UNL     1       2.229   0.354  -5.596  1.00  0.00     0.178 A 
ATOM     17  C   UNL     1       1.750  -0.944  -5.755  1.00  0.00     0.086 A 
ATOM     18  H   UNL     1       2.537  -2.679  -4.864  1.00  0.00     0.169 HD
ATOM     19  N   UNL     1       1.672   1.423  -6.204  1.00  0.00    -0.235 NA
ATOM     20  C   UNL     1       0.652  -1.246  -6.549  1.00  0.00     0.032 A 
ATOM     21  C   UNL     1       0.606   1.124  -6.975  1.00  0.00     0.114 A 
ATOM     22  C   UNL     1       0.076  -0.148  -7.181  1.00  0.00     0.022 A 
ENDBRANCH  12  13
ENDBRANCH  11  12
ENDBRANCH   9  11
ENDBRANCH   8   9
ENDBRANCH   7   8
ENDBRANCH   6   7
ENDBRANCH   5   6
ENDBRANCH   4   5
ENDBRANCH   3   4
ENDBRANCH   2   3
ENDBRANCH   1   2
BRANCH   1  23
ATOM     23  C   UNL     1       5.341  -0.513   3.717  1.00  0.00     0.188 C 
BRANCH  23  24
ATOM     24  O   UNL     1       4.958  -1.876   3.603  1.00  0.00    -0.376 OA
BRANCH  24  25
ATOM     25  C   UNL     1       3.782  -2.505   4.085  1.00  0.00     0.202 C 
BRANCH  25  26
ATOM     26  C   UNL     1       3.069  -2.195   5.401  1.00  0.00     0.261 C 
BRANCH  26  27
ATOM     27  O   UNL     1       3.226  -0.867   5.817  1.00  0.00    -0.460 OA
BRANCH  27  28
ATOM     28  C   UNL     1       4.394  -0.683   6.447  1.00  0.00     0.338 C 
ATOM     29  O   UNL     1       5.234  -1.538   6.723  1.00  0.00    -0.246 OA
BRANCH  28  30
ATOM     30  C   UNL     1       4.533   0.737   6.767  1.00  0.00     0.060 A 
ATOM     31  C   UNL     1       5.789   1.076   7.272  1.00  0.00     0.016 A 
ATOM     32  C   UNL     1       3.348   1.368   7.148  1.00  0.00     0.016 A 
ATOM     33  C   UNL     1       5.803   1.706   8.481  1.00  0.00     0.010 A 
ATOM     34  C   UNL     1       3.353   1.928   8.387  1.00  0.00     0.010 A 
ATOM     35  C   UNL     1       4.568   1.985   9.069  1.00  0.00    -0.014 A 
BRANCH  35  36
ATOM     36  C   UNL     1       4.571   2.425  10.434  1.00  0.00     0.031 A 
ATOM     37  C   UNL     1       4.776   3.880  10.506  1.00  0.00     0.074 A 
ATOM     38  C   UNL     1       4.308   1.576  11.442  1.00  0.00     0.049 A 
ATOM     39  N   UNL     1       5.855   4.507  10.835  1.00  0.00    -0.248 NA
ATOM     40  C   UNL     1       3.753   4.731   9.866  1.00  0.00     0.031 C 
ATOM     41  C   UNL     1       3.821   0.195  11.371  1.00  0.00     0.029 A 
ATOM     42  N   UNL     1       4.320   1.825  12.773  1.00  0.00    -0.354 N 
ATOM     43  C   UNL     1       5.516   5.846  10.716  1.00  0.00     0.074 A 
ATOM     44  C   UNL     1       4.370   5.911   9.851  1.00  0.00     0.031 C 
ATOM     45  C   UNL     1       3.365  -0.176  12.591  1.00  0.00     0.029 A 
ATOM     46  C   UNL     1       3.636   0.890  13.540  1.00  0.00     0.049 A 
ATOM     47  H   UNL     1       4.776   2.604  13.165  1.00  0.00     0.167 HD
ATOM     48  C   UNL     1       5.938   6.749  11.639  1.00  0.00     0.037 A 
ATOM     49  C   UNL     1       3.237   1.086  14.825  1.00  0.00     0.037 A 
ATOM     50  C   UNL     1       7.077   6.266  12.374  1.00  0.00     0.049 A 
ATOM     51  C   UNL     1       4.058   2.216  15.356  1.00  0.00     0.074 A 
ATOM     52  C   UNL     1       8.327   5.802  12.009  1.00  0.00     0.029 A 
ATOM     53  N   UNL     1       6.865   5.813  13.654  1.00  0.00    -0.354 N 
ATOM     54  N   UNL     1       5.351   2.155  15.539  1.00  0.00    -0.248 NA
ATOM     55  C   UNL     1       3.516   3.562  15.222  1.00  0.00     0.031 C 
ATOM     56  C   UNL     1       8.600   4.722  12.897  1.00  0.00     0.029 A 
ATOM     57  C   UNL     1       7.537   4.624  13.797  1.00  0.00     0.049 A 
ATOM     58  H   UNL     1       6.326   6.261  14.345  1.00  0.00     0.167 HD
ATOM     59  C   UNL     1       5.833   3.396  15.137  1.00  0.00     0.074 A 
ATOM     60  C   UNL     1       4.648   4.242  15.018  1.00  0.00     0.031 C 
ATOM     61  C   UNL     1       7.104   3.543  14.658  1.00  0.00     0.037 A 
BRANCH  48  62
ATOM     62  C   UNL     1       5.044   7.860  12.115  1.00  0.00     0.058 A 
ATOM     63  C   UNL     1       5.599   8.957  12.789  1.00  0.00     0.135 A 
ATOM     64  C   UNL     1       3.629   7.779  12.131  1.00  0.00     0.135 A 
ATOM     65  F   UNL     1       6.931   9.093  12.883  1.00  0.00    -0.206 F 
ATOM     66  C   UNL     1       4.805   9.903  13.437  1.00  0.00     0.059 A 
ATOM     67  C   UNL     1       2.819   8.747  12.700  1.00  0.00     0.059 A 
ATOM     68  F   UNL     1       2.964   6.707  11.682  1.00  0.00    -0.206 F 
ATOM     69  C   UNL     1       3.416   9.790  13.381  1.00  0.00     0.060 A 
BRANCH  69  70
ATOM     70  S   UNL     1       2.388  10.974  14.260  1.00  0.00     0.124 S 
ATOM     71  O   UNL     1       2.664  10.622  15.647  1.00  0.00    -0.237 OA
ATOM     72  O   UNL     1       2.934  12.246  13.798  1.00  0.00    -0.237 OA
ATOM     73  O   UNL     1       1.042  10.668  13.784  1.00  0.00    -0.744 OA
ENDBRANCH  69  70
ENDBRANCH  48  62
BRANCH  49  74
ATOM     74  C   UNL     1       1.947   0.678  15.450  1.00  0.00     0.058 A 
ATOM     75  C   UNL     1       1.738   0.834  16.833  1.00  0.00     0.135 A 
ATOM     76  C   UNL     1       0.796   0.403  14.681  1.00  0.00     0.135 A 
ATOM     77  F   UNL     1       2.771   1.114  17.642  1.00  0.00    -0.206 F 
ATOM     78  C   UNL     1       0.463   0.781  17.410  1.00  0.00     0.059 A 
ATOM     79  C   UNL     1      -0.482   0.333  15.235  1.00  0.00     0.059 A 
ATOM     80  F   UNL     1       0.860   0.286  13.348  1.00  0.00    -0.206 F 
ATOM     81  C   UNL     1      -0.645   0.553  16.596  1.00  0.00     0.060 A 
BRANCH  81  82
ATOM     82  S   UNL     1      -2.307   0.663  17.303  1.00  0.00     0.124 S 
ATOM     83  O   UNL     1      -2.330  -0.487  18.201  1.00  0.00    -0.237 OA
ATOM     84  O   UNL     1      -2.281   1.973  17.944  1.00  0.00    -0.237 OA
ATOM     85  O   UNL     1      -3.180   0.559  16.136  1.00  0.00    -0.744 OA
ENDBRANCH  81  82
ENDBRANCH  49  74
BRANCH  61  86
ATOM     86  C   UNL     1       8.076   2.405  14.847  1.00  0.00     0.058 A 
ATOM     87  C   UNL     1       7.955   1.139  14.243  1.00  0.00     0.135 A 
ATOM     88  C   UNL     1       9.269   2.672  15.535  1.00  0.00     0.135 A 
ATOM     89  F   UNL     1       6.891   0.838  13.486  1.00  0.00    -0.206 F 
ATOM     90  C   UNL     1       8.963   0.176  14.345  1.00  0.00     0.059 A 
ATOM     91  C   UNL     1      10.298   1.739  15.623  1.00  0.00     0.059 A 
ATOM     92  F   UNL     1       9.471   3.881  16.084  1.00  0.00    -0.206 F 
ATOM     93  C   UNL     1      10.136   0.488  15.033  1.00  0.00     0.060 A 
BRANCH  93  94
ATOM     94  S   UNL     1      11.475  -0.723  15.096  1.00  0.00     0.124 S 
ATOM     95  O   UNL     1      10.906  -1.770  15.938  1.00  0.00    -0.237 OA
ATOM     96  O   UNL     1      11.655  -1.069  13.688  1.00  0.00    -0.237 OA
ATOM     97  O   UNL     1      12.583   0.021  15.691  1.00  0.00    -0.744 OA
ENDBRANCH  93  94
ENDBRANCH  61  86
ENDBRANCH  35  36
ENDBRANCH  28  30
ENDBRANCH  27  28
ENDBRANCH  26  27
ENDBRANCH  25  26
ENDBRANCH  24  25
ENDBRANCH  23  24
ENDBRANCH   1  23
TORSDOF 25
