REMARK SMILES N#CCSc1nnnn1-c1ccc(C(=O)OCCOCCOCCOCCOC(=O)c2ccc(-c3c4nc(c(-c5c(F)cc(S(=O)(=O)[O-])cc5F)c5ccc([nH]5)c(-c5c(F)cc(S(=O)(=O)[O-])cc5F)c5nc(c(-c6c(F)cc(S(=O)(=O)[O-])cc6F)c6ccc3[nH]6)C=C5)C=C4)cc2)cc1
REMARK SMILES IDX 21 1 20 2 19 3 18 4 17 5 16 6 14 7 15 8 13 9 10 10 11 11
REMARK SMILES IDX 98 12 12 13 97 14 9 15 5 16 6 17 7 18 8 19 4 20 3 21 2 22
REMARK SMILES IDX 1 23 22 24 23 25 24 26 25 27 26 28 27 29 28 30 29 31 30 32
REMARK SMILES IDX 31 33 32 34 96 35 33 36 95 37 34 38 35 39 36 40 89 41 37 42
REMARK SMILES IDX 94 43 88 44 90 45 38 46 93 47 87 48 86 49 39 51 73 52 52 53
REMARK SMILES IDX 72 54 53 55 56 56 71 57 91 58 54 59 55 60 70 62 92 63 57 64
REMARK SMILES IDX 40 65 41 66 50 67 42 68 43 69 49 70 51 71 44 72 45 73 46 74
REMARK SMILES IDX 47 75 48 76 74 77 75 78 84 79 76 80 77 81 83 82 85 83 78 84
REMARK SMILES IDX 79 85 80 86 81 87 82 88 58 89 59 90 68 91 60 92 61 93 67 94
REMARK SMILES IDX 69 95 62 96 63 97 64 98 65 99 66 100
REMARK H PARENT 90 50 56 61
REMARK Flexibility Score: inf
ROOT
ATOM      1  C   UNL     1       5.437   6.357  -1.442  1.00  0.00     0.188 C 
ENDROOT
BRANCH   1   2
ATOM      2  C   UNL     1       6.974   6.233  -1.318  1.00  0.00     0.188 C 
BRANCH   2   3
ATOM      3  O   UNL     1       7.843   6.221  -2.446  1.00  0.00    -0.376 OA
BRANCH   3   4
ATOM      4  C   UNL     1       7.501   5.607  -3.678  1.00  0.00     0.202 C 
BRANCH   4   5
ATOM      5  C   UNL     1       6.983   4.165  -3.757  1.00  0.00     0.261 C 
BRANCH   5   6
ATOM      6  O   UNL     1       6.179   3.752  -2.656  1.00  0.00    -0.460 OA
BRANCH   6   7
ATOM      7  C   UNL     1       6.843   3.129  -1.665  1.00  0.00     0.338 C 
ATOM      8  O   UNL     1       7.995   2.724  -1.683  1.00  0.00    -0.246 OA
BRANCH   7   9
ATOM      9  C   UNL     1       5.994   3.116  -0.451  1.00  0.00     0.060 A 
ATOM     10  C   UNL     1       4.518   2.766   1.846  1.00  0.00     0.069 A 
ATOM     11  C   UNL     1       5.902   2.918   1.956  1.00  0.00     0.029 A 
ATOM     12  C   UNL     1       3.842   2.978   0.640  1.00  0.00     0.029 A 
ATOM     13  C   UNL     1       6.641   3.085   0.793  1.00  0.00     0.018 A 
ATOM     14  C   UNL     1       4.592   3.152  -0.520  1.00  0.00     0.018 A 
BRANCH  10  15
ATOM     15  N   UNL     1       3.884   1.966   2.804  1.00  0.00    -0.187 N 
ATOM     16  C   UNL     1       3.768   0.584   2.776  1.00  0.00     0.215 A 
ATOM     17  N   UNL     1       3.304   0.191   3.942  1.00  0.00    -0.101 NA
ATOM     18  N   UNL     1       3.199   1.325   4.712  1.00  0.00    -0.022 NA
ATOM     19  N   UNL     1       3.630   2.394   4.055  1.00  0.00    -0.039 NA
BRANCH  16  20
ATOM     20  S   UNL     1       4.519  -0.486   1.621  1.00  0.00    -0.069 SA
BRANCH  20  21
ATOM     21  C   UNL     1       3.808  -0.096  -0.008  1.00  0.00     0.198 C 
BRANCH  21  22
ATOM     22  C   UNL     1       2.288  -0.096  -0.008  1.00  0.00     0.074 C 
ATOM     23  N   UNL     1       1.027  -0.096  -0.008  1.00  0.00    -0.197 NA
ENDBRANCH  21  22
ENDBRANCH  20  21
ENDBRANCH  16  20
ENDBRANCH  10  15
ENDBRANCH   7   9
ENDBRANCH   6   7
ENDBRANCH   5   6
ENDBRANCH   4   5
ENDBRANCH   3   4
ENDBRANCH   2   3
ENDBRANCH   1   2
BRANCH   1  24
ATOM     24  O   UNL     1       4.936   6.215  -2.757  1.00  0.00    -0.377 OA
BRANCH  24  25
ATOM     25  C   UNL     1       4.658   7.441  -3.434  1.00  0.00     0.188 C 
BRANCH  25  26
ATOM     26  C   UNL     1       5.703   8.585  -3.332  1.00  0.00     0.188 C 
BRANCH  26  27
ATOM     27  O   UNL     1       6.292   8.750  -2.046  1.00  0.00    -0.376 OA
BRANCH  27  28
ATOM     28  C   UNL     1       5.934   9.812  -1.177  1.00  0.00     0.202 C 
BRANCH  28  29
ATOM     29  C   UNL     1       4.517   9.824  -0.614  1.00  0.00     0.261 C 
BRANCH  29  30
ATOM     30  O   UNL     1       3.526   9.524  -1.574  1.00  0.00    -0.460 OA
BRANCH  30  31
ATOM     31  C   UNL     1       3.384  10.442  -2.541  1.00  0.00     0.338 C 
ATOM     32  O   UNL     1       4.146  11.373  -2.802  1.00  0.00    -0.246 OA
BRANCH  31  33
ATOM     33  C   UNL     1       2.086  10.244  -3.167  1.00  0.00     0.060 A 
ATOM     34  C   UNL     1       1.796  11.075  -4.248  1.00  0.00     0.016 A 
ATOM     35  C   UNL     1       1.098   9.583  -2.420  1.00  0.00     0.016 A 
ATOM     36  C   UNL     1       0.497  11.483  -4.392  1.00  0.00     0.010 A 
ATOM     37  C   UNL     1      -0.189  10.021  -2.542  1.00  0.00     0.010 A 
ATOM     38  C   UNL     1      -0.444  11.035  -3.459  1.00  0.00    -0.014 A 
BRANCH  38  39
ATOM     39  C   UNL     1      -1.774  11.582  -3.529  1.00  0.00     0.031 A 
ATOM     40  C   UNL     1      -2.537  10.970  -4.632  1.00  0.00     0.074 A 
ATOM     41  C   UNL     1      -2.229  12.455  -2.614  1.00  0.00     0.049 A 
ATOM     42  N   UNL     1      -2.835  11.506  -5.766  1.00  0.00    -0.248 NA
ATOM     43  C   UNL     1      -2.753   9.512  -4.580  1.00  0.00     0.031 C 
ATOM     44  C   UNL     1      -1.592  12.862  -1.357  1.00  0.00     0.029 A 
ATOM     45  N   UNL     1      -3.425  13.094  -2.567  1.00  0.00    -0.354 N 
ATOM     46  C   UNL     1      -3.538  10.520  -6.446  1.00  0.00     0.074 A 
ATOM     47  C   UNL     1      -3.204   9.277  -5.811  1.00  0.00     0.031 C 
ATOM     48  C   UNL     1      -2.505  13.486  -0.578  1.00  0.00     0.029 A 
ATOM     49  C   UNL     1      -3.742  13.632  -1.326  1.00  0.00     0.049 A 
ATOM     50  H   UNL     1      -4.020  13.169  -3.348  1.00  0.00     0.167 HD
ATOM     51  C   UNL     1      -4.596  10.852  -7.232  1.00  0.00     0.037 A 
ATOM     52  C   UNL     1      -4.967  14.076  -0.941  1.00  0.00     0.037 A 
ATOM     53  C   UNL     1      -4.557  12.256  -7.567  1.00  0.00     0.049 A 
ATOM     54  C   UNL     1      -5.746  14.325  -2.186  1.00  0.00     0.074 A 
ATOM     55  C   UNL     1      -3.662  13.072  -8.229  1.00  0.00     0.029 A 
ATOM     56  N   UNL     1      -5.377  13.086  -6.840  1.00  0.00    -0.354 N 
ATOM     57  N   UNL     1      -5.450  15.256  -3.054  1.00  0.00    -0.248 NA
ATOM     58  C   UNL     1      -6.570  13.241  -2.703  1.00  0.00     0.031 C 
ATOM     59  C   UNL     1      -3.724  14.325  -7.553  1.00  0.00     0.029 A 
ATOM     60  C   UNL     1      -4.698  14.242  -6.556  1.00  0.00     0.049 A 
ATOM     61  H   UNL     1      -6.301  12.883  -6.568  1.00  0.00     0.167 HD
ATOM     62  C   UNL     1      -5.673  14.675  -4.295  1.00  0.00     0.074 A 
ATOM     63  C   UNL     1      -6.459  13.476  -4.014  1.00  0.00     0.031 C 
ATOM     64  C   UNL     1      -4.951  15.063  -5.388  1.00  0.00     0.037 A 
BRANCH  51  65
ATOM     65  C   UNL     1      -5.867  10.034  -7.311  1.00  0.00     0.058 A 
ATOM     66  C   UNL     1      -6.866  10.430  -8.222  1.00  0.00     0.135 A 
ATOM     67  C   UNL     1      -6.267   9.066  -6.358  1.00  0.00     0.135 A 
ATOM     68  F   UNL     1      -6.603  11.344  -9.169  1.00  0.00    -0.206 F 
ATOM     69  C   UNL     1      -8.178   9.964  -8.140  1.00  0.00     0.059 A 
ATOM     70  C   UNL     1      -7.553   8.549  -6.296  1.00  0.00     0.059 A 
ATOM     71  F   UNL     1      -5.472   8.635  -5.374  1.00  0.00    -0.206 F 
ATOM     72  C   UNL     1      -8.513   9.034  -7.163  1.00  0.00     0.060 A 
BRANCH  72  73
ATOM     73  S   UNL     1     -10.220   8.495  -6.993  1.00  0.00     0.124 S 
ATOM     74  O   UNL     1     -10.858   9.711  -6.503  1.00  0.00    -0.237 OA
ATOM     75  O   UNL     1     -10.546   8.103  -8.359  1.00  0.00    -0.237 OA
ATOM     76  O   UNL     1     -10.131   7.397  -6.035  1.00  0.00    -0.744 OA
ENDBRANCH  72  73
ENDBRANCH  51  65
BRANCH  52  77
ATOM     77  C   UNL     1      -5.606  13.943   0.397  1.00  0.00     0.058 A 
ATOM     78  C   UNL     1      -6.771  14.659   0.729  1.00  0.00     0.135 A 
ATOM     79  C   UNL     1      -5.245  12.908   1.284  1.00  0.00     0.135 A 
ATOM     80  F   UNL     1      -7.210  15.640  -0.073  1.00  0.00    -0.206 F 
ATOM     81  C   UNL     1      -7.547  14.345   1.853  1.00  0.00     0.059 A 
ATOM     82  C   UNL     1      -5.995  12.584   2.413  1.00  0.00     0.059 A 
ATOM     83  F   UNL     1      -4.194  12.114   1.030  1.00  0.00    -0.206 F 
ATOM     84  C   UNL     1      -7.158  13.294   2.682  1.00  0.00     0.060 A 
BRANCH  84  85
ATOM     85  S   UNL     1      -8.230  12.786   4.048  1.00  0.00     0.124 S 
ATOM     86  O   UNL     1      -8.116  13.919   4.959  1.00  0.00    -0.237 OA
ATOM     87  O   UNL     1      -9.520  12.627   3.386  1.00  0.00    -0.237 OA
ATOM     88  O   UNL     1      -7.617  11.545   4.517  1.00  0.00    -0.744 OA
ENDBRANCH  84  85
ENDBRANCH  52  77
BRANCH  64  89
ATOM     89  C   UNL     1      -4.198  16.368  -5.313  1.00  0.00     0.058 A 
ATOM     90  C   UNL     1      -3.110  16.625  -4.460  1.00  0.00     0.135 A 
ATOM     91  C   UNL     1      -4.509  17.349  -6.267  1.00  0.00     0.135 A 
ATOM     92  F   UNL     1      -2.685  15.701  -3.586  1.00  0.00    -0.206 F 
ATOM     93  C   UNL     1      -2.387  17.819  -4.533  1.00  0.00     0.059 A 
ATOM     94  C   UNL     1      -3.782  18.529  -6.380  1.00  0.00     0.059 A 
ATOM     95  F   UNL     1      -5.500  17.138  -7.149  1.00  0.00    -0.206 F 
ATOM     96  C   UNL     1      -2.729  18.764  -5.501  1.00  0.00     0.060 A 
BRANCH  96  97
ATOM     97  S   UNL     1      -1.748  20.273  -5.652  1.00  0.00     0.124 S 
ATOM     98  O   UNL     1      -2.132  21.011  -4.454  1.00  0.00    -0.237 OA
ATOM     99  O   UNL     1      -0.381  19.762  -5.674  1.00  0.00    -0.237 OA
ATOM    100  O   UNL     1      -2.206  20.853  -6.914  1.00  0.00    -0.744 OA
ENDBRANCH  96  97
ENDBRANCH  64  89
ENDBRANCH  38  39
ENDBRANCH  31  33
ENDBRANCH  30  31
ENDBRANCH  29  30
ENDBRANCH  28  29
ENDBRANCH  27  28
ENDBRANCH  26  27
ENDBRANCH  25  26
ENDBRANCH  24  25
ENDBRANCH   1  24
TORSDOF 27
