REMARK SMILES CNC(=O)NC1=[NH+]N=CN[C@@H]1C(=O)OCCOCCOCCOCCOC(=O)c1ccc(-c2c3nc(c(-c4c(F)cc(S(=O)(=O)[O-])cc4F)c4ccc([nH]4)c(-c4c(F)cc(S(=O)(=O)[O-])cc4F)c4nc(c(-c5c(F)cc(S(=O)(=O)[O-])cc5F)c5ccc2[nH]5)C=C4)C=C3)cc1
REMARK SMILES IDX 21 1 20 2 19 3 18 4 17 5 16 6 15 7 14 8 12 9 13 10 11 11
REMARK SMILES IDX 1 12 2 13 3 14 4 16 5 17 6 18 7 20 8 21 10 23 9 24 22 26
REMARK SMILES IDX 23 27 24 28 25 29 26 30 27 31 28 32 29 33 30 34 94 35 31 36
REMARK SMILES IDX 93 37 32 38 33 39 34 40 87 41 35 42 92 43 86 44 88 45 36 46
REMARK SMILES IDX 91 47 85 48 84 49 37 51 71 52 50 53 70 54 51 55 54 56 69 57
REMARK SMILES IDX 89 58 52 59 53 60 68 62 90 63 55 64 38 65 39 66 48 67 40 68
REMARK SMILES IDX 41 69 47 70 49 71 42 72 43 73 44 74 45 75 46 76 72 77 73 78
REMARK SMILES IDX 82 79 74 80 75 81 81 82 83 83 76 84 77 85 78 86 79 87 80 88
REMARK SMILES IDX 56 89 57 90 66 91 58 92 59 93 65 94 67 95 60 96 61 97 62 98
REMARK SMILES IDX 63 99 64 100
REMARK H PARENT 2 15 5 19 7 22 10 25 88 50 54 61
REMARK Flexibility Score: inf
ROOT
ATOM      1  C   UNL     1      -2.891   4.544   1.943  1.00  0.00     0.188 C 
ENDROOT
BRANCH   1   2
ATOM      2  O   UNL     1      -1.832   3.591   1.796  1.00  0.00    -0.377 OA
BRANCH   2   3
ATOM      3  C   UNL     1      -1.462   3.165   0.499  1.00  0.00     0.188 C 
BRANCH   3   4
ATOM      4  C   UNL     1      -2.406   2.196  -0.230  1.00  0.00     0.188 C 
BRANCH   4   5
ATOM      5  O   UNL     1      -3.791   2.374  -0.049  1.00  0.00    -0.376 OA
BRANCH   5   6
ATOM      6  C   UNL     1      -4.505   1.824   1.050  1.00  0.00     0.202 C 
BRANCH   6   7
ATOM      7  C   UNL     1      -3.905   1.042   2.233  1.00  0.00     0.261 C 
BRANCH   7   8
ATOM      8  O   UNL     1      -2.488   1.102   2.389  1.00  0.00    -0.461 OA
BRANCH   8   9
ATOM      9  C   UNL     1      -1.815  -0.047   2.116  1.00  0.00     0.341 C 
ATOM     10  O   UNL     1      -2.362  -1.086   1.760  1.00  0.00    -0.249 OA
BRANCH   9  11
ATOM     11  C   UNL     1      -0.298   0.147   2.084  1.00  0.00     0.308 C 
ATOM     12  C   UNL     1       1.840  -0.695  -0.277  1.00  0.00     0.147 C 
ATOM     13  N   UNL     1       0.722  -1.609  -0.381  1.00  0.00    -0.321 N 
ATOM     14  C   UNL     1       0.229  -2.462   0.554  1.00  0.00     0.406 C 
ATOM     15  H   UNL     1       0.255  -1.613  -1.248  1.00  0.00     0.167 HD
ATOM     16  O   UNL     1      -0.420  -3.439   0.190  1.00  0.00    -0.221 OA
ATOM     17  N   UNL     1       0.503  -2.232   1.870  1.00  0.00    -0.191 N 
ATOM     18  C   UNL     1       0.377  -1.097   2.638  1.00  0.00     0.311 C 
ATOM     19  H   UNL     1       0.853  -3.014   2.355  1.00  0.00     0.317 HD
ATOM     20  N   UNL     1       0.843  -1.185   3.846  1.00  0.00    -0.148 N 
ATOM     21  N   UNL     1       0.862  -0.026   4.653  1.00  0.00    -0.077 NA
ATOM     22  H   UNL     1       1.178  -2.043   4.194  1.00  0.00     0.342 HD
ATOM     23  N   UNL     1       0.188   1.309   2.820  1.00  0.00    -0.350 N 
ATOM     24  C   UNL     1       0.602   1.110   4.096  1.00  0.00     0.241 C 
ATOM     25  H   UNL     1       0.214   2.203   2.406  1.00  0.00     0.163 HD
ENDBRANCH   9  11
ENDBRANCH   8   9
ENDBRANCH   7   8
ENDBRANCH   6   7
ENDBRANCH   5   6
ENDBRANCH   4   5
ENDBRANCH   3   4
ENDBRANCH   2   3
ENDBRANCH   1   2
BRANCH   1  26
ATOM     26  C   UNL     1      -3.583   5.201   0.724  1.00  0.00     0.188 C 
BRANCH  26  27
ATOM     27  O   UNL     1      -2.788   5.294  -0.446  1.00  0.00    -0.376 OA
BRANCH  27  28
ATOM     28  C   UNL     1      -2.133   6.525  -0.714  1.00  0.00     0.202 C 
BRANCH  28  29
ATOM     29  C   UNL     1      -1.101   7.016   0.314  1.00  0.00     0.261 C 
BRANCH  29  30
ATOM     30  O   UNL     1      -1.593   7.245   1.644  1.00  0.00    -0.460 OA
BRANCH  30  31
ATOM     31  C   UNL     1      -2.584   8.149   1.791  1.00  0.00     0.338 C 
ATOM     32  O   UNL     1      -3.077   8.843   0.914  1.00  0.00    -0.246 OA
BRANCH  31  33
ATOM     33  C   UNL     1      -3.128   8.018   3.157  1.00  0.00     0.060 A 
ATOM     34  C   UNL     1      -4.478   7.678   3.314  1.00  0.00     0.016 A 
ATOM     35  C   UNL     1      -2.319   8.239   4.275  1.00  0.00     0.016 A 
ATOM     36  C   UNL     1      -5.036   7.607   4.590  1.00  0.00     0.010 A 
ATOM     37  C   UNL     1      -2.886   8.189   5.552  1.00  0.00     0.010 A 
ATOM     38  C   UNL     1      -4.256   7.915   5.712  1.00  0.00    -0.014 A 
BRANCH  38  39
ATOM     39  C   UNL     1      -4.929   8.161   7.012  1.00  0.00     0.031 A 
ATOM     40  C   UNL     1      -5.213   9.587   7.409  1.00  0.00     0.074 A 
ATOM     41  C   UNL     1      -5.328   7.146   7.799  1.00  0.00     0.049 A 
ATOM     42  N   UNL     1      -5.787  10.051   8.487  1.00  0.00    -0.248 NA
ATOM     43  C   UNL     1      -4.791  10.629   6.457  1.00  0.00     0.031 C 
ATOM     44  C   UNL     1      -5.151   5.725   7.504  1.00  0.00     0.029 A 
ATOM     45  N   UNL     1      -5.968   7.159   9.014  1.00  0.00    -0.354 N 
ATOM     46  C   UNL     1      -5.787  11.435   8.349  1.00  0.00     0.074 A 
ATOM     47  C   UNL     1      -5.128  11.737   7.098  1.00  0.00     0.031 C 
ATOM     48  C   UNL     1      -5.667   5.002   8.514  1.00  0.00     0.029 A 
ATOM     49  C   UNL     1      -6.181   5.907   9.540  1.00  0.00     0.049 A 
ATOM     50  H   UNL     1      -6.248   7.988   9.465  1.00  0.00     0.167 HD
ATOM     51  C   UNL     1      -6.297  12.370   9.186  1.00  0.00     0.037 A 
ATOM     52  C   UNL     1      -6.715   5.539  10.723  1.00  0.00     0.037 A 
ATOM     53  C   UNL     1      -6.956  12.062  10.429  1.00  0.00     0.049 A 
ATOM     54  C   UNL     1      -7.214   6.603  11.670  1.00  0.00     0.074 A 
ATOM     55  C   UNL     1      -7.530  12.935  11.336  1.00  0.00     0.029 A 
ATOM     56  N   UNL     1      -7.118  10.785  10.946  1.00  0.00    -0.354 N 
ATOM     57  N   UNL     1      -7.237   7.906  11.513  1.00  0.00    -0.248 NA
ATOM     58  C   UNL     1      -7.767   6.145  12.952  1.00  0.00     0.031 C 
ATOM     59  C   UNL     1      -7.981  12.192  12.431  1.00  0.00     0.029 A 
ATOM     60  C   UNL     1      -7.753  10.849  12.175  1.00  0.00     0.049 A 
ATOM     61  H   UNL     1      -6.825   9.955  10.505  1.00  0.00     0.167 HD
ATOM     62  C   UNL     1      -7.838   8.418  12.660  1.00  0.00     0.074 A 
ATOM     63  C   UNL     1      -8.175   7.284  13.494  1.00  0.00     0.031 C 
ATOM     64  C   UNL     1      -8.091   9.710  12.993  1.00  0.00     0.037 A 
BRANCH  51  65
ATOM     65  C   UNL     1      -6.133  13.816   8.804  1.00  0.00     0.058 A 
ATOM     66  C   UNL     1      -6.833  14.389   7.730  1.00  0.00     0.135 A 
ATOM     67  C   UNL     1      -5.289  14.653   9.553  1.00  0.00     0.135 A 
ATOM     68  F   UNL     1      -7.638  13.632   6.966  1.00  0.00    -0.206 F 
ATOM     69  C   UNL     1      -6.684  15.732   7.398  1.00  0.00     0.059 A 
ATOM     70  C   UNL     1      -5.149  16.005   9.259  1.00  0.00     0.059 A 
ATOM     71  F   UNL     1      -4.591  14.157  10.587  1.00  0.00    -0.206 F 
ATOM     72  C   UNL     1      -5.842  16.533   8.171  1.00  0.00     0.060 A 
BRANCH  72  73
ATOM     73  S   UNL     1      -5.672  18.277   7.736  1.00  0.00     0.124 S 
ATOM     74  O   UNL     1      -4.914  18.194   6.491  1.00  0.00    -0.237 OA
ATOM     75  O   UNL     1      -7.062  18.700   7.604  1.00  0.00    -0.237 OA
ATOM     76  O   UNL     1      -4.951  18.843   8.871  1.00  0.00    -0.744 OA
ENDBRANCH  72  73
ENDBRANCH  51  65
BRANCH  52  77
ATOM     77  C   UNL     1      -6.801   4.098  11.092  1.00  0.00     0.058 A 
ATOM     78  C   UNL     1      -8.040   3.455  11.228  1.00  0.00     0.135 A 
ATOM     79  C   UNL     1      -5.644   3.341  11.339  1.00  0.00     0.135 A 
ATOM     80  F   UNL     1      -9.176   4.138  11.017  1.00  0.00    -0.206 F 
ATOM     81  C   UNL     1      -8.133   2.123  11.617  1.00  0.00     0.059 A 
ATOM     82  C   UNL     1      -5.710   1.998  11.698  1.00  0.00     0.059 A 
ATOM     83  F   UNL     1      -4.432   3.904  11.216  1.00  0.00    -0.206 F 
ATOM     84  C   UNL     1      -6.960   1.401  11.848  1.00  0.00     0.060 A 
BRANCH  84  85
ATOM     85  S   UNL     1      -7.094  -0.337  12.316  1.00  0.00     0.124 S 
ATOM     86  O   UNL     1      -7.616  -0.236  13.674  1.00  0.00    -0.237 OA
ATOM     87  O   UNL     1      -8.020  -0.852  11.312  1.00  0.00    -0.237 OA
ATOM     88  O   UNL     1      -5.722  -0.822  12.202  1.00  0.00    -0.744 OA
ENDBRANCH  84  85
ENDBRANCH  52  77
BRANCH  64  89
ATOM     89  C   UNL     1      -8.808   9.967  14.293  1.00  0.00     0.058 A 
ATOM     90  C   UNL     1      -8.196   9.752  15.538  1.00  0.00     0.135 A 
ATOM     91  C   UNL     1     -10.118  10.475  14.290  1.00  0.00     0.135 A 
ATOM     92  F   UNL     1      -6.946   9.266  15.601  1.00  0.00    -0.206 F 
ATOM     93  C   UNL     1      -8.869   9.994  16.732  1.00  0.00     0.059 A 
ATOM     94  C   UNL     1     -10.797  10.758  15.471  1.00  0.00     0.059 A 
ATOM     95  F   UNL     1     -10.749  10.716  13.130  1.00  0.00    -0.206 F 
ATOM     96  C   UNL     1     -10.170  10.497  16.688  1.00  0.00     0.060 A 
BRANCH  96  97
ATOM     97  S   UNL     1     -11.027  10.820  18.244  1.00  0.00     0.124 S 
ATOM     98  O   UNL     1     -11.308   9.466  18.711  1.00  0.00    -0.237 OA
ATOM     99  O   UNL     1     -10.024  11.558  19.005  1.00  0.00    -0.237 OA
ATOM    100  O   UNL     1     -12.193  11.597  17.836  1.00  0.00    -0.744 OA
ENDBRANCH  96  97
ENDBRANCH  64  89
ENDBRANCH  38  39
ENDBRANCH  31  33
ENDBRANCH  30  31
ENDBRANCH  29  30
ENDBRANCH  28  29
ENDBRANCH  27  28
ENDBRANCH  26  27
ENDBRANCH   1  26
TORSDOF 23
