REMARK SMILES Cc1nn(C)c(OCC(C)(C)[NH+](C)C)c1C(=O)OCCOCCOCCOCCOC(=O)c1ccc(-c2c3nc(c(-c4c(F)cc(S(=O)(=O)[O-])cc4F)c4ccc([nH]4)c(-c4c(F)cc(S(=O)(=O)[O-])cc4F)c4nc(c(-c5c(F)cc(S(=O)(=O)[O-])cc5F)c5ccc2[nH]5)C=C4)C=C3)cc1
REMARK SMILES IDX 23 1 22 2 21 3 20 4 19 5 18 6 16 7 17 8 15 9 1 10 2 11 3 12
REMARK SMILES IDX 4 13 6 14 5 15 7 16 8 17 9 18 10 19 11 20 12 21 13 22 14 23
REMARK SMILES IDX 24 25 25 26 26 27 27 28 28 29 29 30 30 31 31 32 32 33 33 34
REMARK SMILES IDX 34 35 98 36 35 37 97 38 36 39 37 40 38 41 91 42 39 43 96 44
REMARK SMILES IDX 90 45 92 46 40 47 95 48 89 49 88 50 41 52 75 53 54 54 74 55
REMARK SMILES IDX 55 56 58 57 73 58 93 59 56 60 57 61 72 63 94 64 59 65 42 66
REMARK SMILES IDX 43 67 52 68 44 69 45 70 51 71 53 72 46 73 47 74 48 75 49 76
REMARK SMILES IDX 50 77 76 78 77 79 86 80 78 81 79 82 85 83 87 84 80 85 81 86
REMARK SMILES IDX 82 87 83 88 84 89 60 90 61 91 70 92 62 93 63 94 69 95 71 96
REMARK SMILES IDX 64 97 65 98 66 99 67 100 68 101
REMARK H PARENT 12 24 92 51 58 62
REMARK Flexibility Score: inf
ROOT
ATOM      1  C   UNL     1      -1.835  -2.696  -2.704  1.00  0.00     0.188 C 
ENDROOT
BRANCH   1   2
ATOM      2  C   UNL     1      -1.694  -3.963  -1.839  1.00  0.00     0.188 C 
BRANCH   2   3
ATOM      3  O   UNL     1      -2.905  -4.607  -1.477  1.00  0.00    -0.376 OA
BRANCH   3   4
ATOM      4  C   UNL     1      -3.439  -4.412  -0.181  1.00  0.00     0.202 C 
BRANCH   4   5
ATOM      5  C   UNL     1      -4.036  -3.016   0.141  1.00  0.00     0.261 C 
BRANCH   5   6
ATOM      6  O   UNL     1      -3.203  -1.851  -0.050  1.00  0.00    -0.459 OA
BRANCH   6   7
ATOM      7  C   UNL     1      -1.996  -1.948   0.564  1.00  0.00     0.345 C 
ATOM      8  O   UNL     1      -1.677  -2.966   1.126  1.00  0.00    -0.246 OA
BRANCH   7   9
ATOM      9  C   UNL     1      -1.070  -0.856   0.383  1.00  0.00     0.144 A 
ATOM     10  C   UNL     1      -2.629   1.193  -0.182  1.00  0.00     0.070 C 
ATOM     11  C   UNL     1      -1.331   0.491   0.001  1.00  0.00     0.078 A 
ATOM     12  N   UNL     1      -0.202   1.196  -0.130  1.00  0.00    -0.174 NA
ATOM     13  N   UNL     1       0.764   0.327   0.199  1.00  0.00    -0.236 N 
ATOM     14  C   UNL     1       0.305  -0.895   0.634  1.00  0.00     0.227 A 
ATOM     15  C   UNL     1       2.141   0.744   0.075  1.00  0.00     0.178 C 
BRANCH  14  16
ATOM     16  O   UNL     1       1.193  -1.730   1.199  1.00  0.00    -0.471 OA
BRANCH  16  17
ATOM     17  C   UNL     1       1.034  -3.151   1.178  1.00  0.00     0.299 C 
BRANCH  17  18
ATOM     18  C   UNL     1       0.706  -3.859   2.574  1.00  0.00     0.126 C 
ATOM     19  C   UNL     1      -0.541  -3.305   3.316  1.00  0.00     0.082 C 
ATOM     20  C   UNL     1       0.422  -5.342   2.192  1.00  0.00     0.082 C 
BRANCH  18  21
ATOM     21  N   UNL     1       1.902  -3.830   3.487  1.00  0.00    -0.333 N 
ATOM     22  C   UNL     1       2.466  -2.483   3.619  1.00  0.00     0.333 C 
ATOM     23  C   UNL     1       1.649  -4.373   4.827  1.00  0.00     0.333 C 
ATOM     24  H   UNL     1       2.576  -4.444   3.028  1.00  0.00     0.348 HD
ENDBRANCH  18  21
ENDBRANCH  17  18
ENDBRANCH  16  17
ENDBRANCH  14  16
ENDBRANCH   7   9
ENDBRANCH   6   7
ENDBRANCH   5   6
ENDBRANCH   4   5
ENDBRANCH   3   4
ENDBRANCH   2   3
ENDBRANCH   1   2
BRANCH   1  25
ATOM     25  O   UNL     1      -3.098  -2.339  -3.241  1.00  0.00    -0.377 OA
BRANCH  25  26
ATOM     26  C   UNL     1      -4.046  -3.360  -3.515  1.00  0.00     0.188 C 
BRANCH  26  27
ATOM     27  C   UNL     1      -3.576  -4.662  -4.200  1.00  0.00     0.188 C 
BRANCH  27  28
ATOM     28  O   UNL     1      -2.195  -4.687  -4.541  1.00  0.00    -0.376 OA
BRANCH  28  29
ATOM     29  C   UNL     1      -1.877  -4.497  -5.911  1.00  0.00     0.202 C 
BRANCH  29  30
ATOM     30  C   UNL     1      -2.137  -3.090  -6.467  1.00  0.00     0.261 C 
BRANCH  30  31
ATOM     31  O   UNL     1      -3.494  -2.626  -6.383  1.00  0.00    -0.460 OA
BRANCH  31  32
ATOM     32  C   UNL     1      -4.450  -3.351  -7.008  1.00  0.00     0.338 C 
ATOM     33  O   UNL     1      -4.284  -4.330  -7.711  1.00  0.00    -0.246 OA
BRANCH  32  34
ATOM     34  C   UNL     1      -5.758  -2.895  -6.483  1.00  0.00     0.060 A 
ATOM     35  C   UNL     1      -6.619  -3.842  -5.907  1.00  0.00     0.016 A 
ATOM     36  C   UNL     1      -6.090  -1.537  -6.470  1.00  0.00     0.016 A 
ATOM     37  C   UNL     1      -7.827  -3.434  -5.341  1.00  0.00     0.010 A 
ATOM     38  C   UNL     1      -7.319  -1.135  -5.943  1.00  0.00     0.010 A 
ATOM     39  C   UNL     1      -8.206  -2.087  -5.412  1.00  0.00    -0.014 A 
BRANCH  39  40
ATOM     40  C   UNL     1      -9.634  -1.734  -5.230  1.00  0.00     0.031 A 
ATOM     41  C   UNL     1     -10.506  -1.788  -6.457  1.00  0.00     0.074 A 
ATOM     42  C   UNL     1     -10.150  -1.399  -4.035  1.00  0.00     0.049 A 
ATOM     43  N   UNL     1     -11.770  -1.490  -6.593  1.00  0.00    -0.248 NA
ATOM     44  C   UNL     1      -9.857  -2.240  -7.702  1.00  0.00     0.031 C 
ATOM     45  C   UNL     1      -9.416  -1.357  -2.771  1.00  0.00     0.029 A 
ATOM     46  N   UNL     1     -11.425  -1.019  -3.696  1.00  0.00    -0.354 N 
ATOM     47  C   UNL     1     -12.064  -1.716  -7.933  1.00  0.00     0.074 A 
ATOM     48  C   UNL     1     -10.846  -2.152  -8.575  1.00  0.00     0.031 C 
ATOM     49  C   UNL     1     -10.252  -0.955  -1.796  1.00  0.00     0.029 A 
ATOM     50  C   UNL     1     -11.570  -0.683  -2.370  1.00  0.00     0.049 A 
ATOM     51  H   UNL     1     -12.167  -0.990  -4.342  1.00  0.00     0.167 HD
ATOM     52  C   UNL     1     -13.246  -1.575  -8.572  1.00  0.00     0.037 A 
ATOM     53  C   UNL     1     -12.639  -0.191  -1.712  1.00  0.00     0.037 A 
ATOM     54  C   UNL     1     -14.453  -1.130  -7.933  1.00  0.00     0.049 A 
ATOM     55  C   UNL     1     -13.930   0.031  -2.466  1.00  0.00     0.074 A 
ATOM     56  C   UNL     1     -15.707  -0.961  -8.489  1.00  0.00     0.029 A 
ATOM     57  N   UNL     1     -14.552  -0.774  -6.597  1.00  0.00    -0.354 N 
ATOM     58  N   UNL     1     -14.204  -0.211  -3.727  1.00  0.00    -0.248 NA
ATOM     59  C   UNL     1     -15.058   0.592  -1.707  1.00  0.00     0.031 C 
ATOM     60  C   UNL     1     -16.554  -0.452  -7.500  1.00  0.00     0.029 A 
ATOM     61  C   UNL     1     -15.841  -0.361  -6.314  1.00  0.00     0.049 A 
ATOM     62  H   UNL     1     -13.814  -0.809  -5.946  1.00  0.00     0.167 HD
ATOM     63  C   UNL     1     -15.541   0.136  -3.901  1.00  0.00     0.074 A 
ATOM     64  C   UNL     1     -16.023   0.597  -2.616  1.00  0.00     0.031 C 
ATOM     65  C   UNL     1     -16.304   0.077  -5.022  1.00  0.00     0.037 A 
BRANCH  52  66
ATOM     66  C   UNL     1     -13.281  -1.876 -10.043  1.00  0.00     0.058 A 
ATOM     67  C   UNL     1     -13.203  -3.189 -10.531  1.00  0.00     0.135 A 
ATOM     68  C   UNL     1     -13.425  -0.836 -10.974  1.00  0.00     0.135 A 
ATOM     69  F   UNL     1     -13.033  -4.217  -9.684  1.00  0.00    -0.206 F 
ATOM     70  C   UNL     1     -13.258  -3.461 -11.894  1.00  0.00     0.059 A 
ATOM     71  C   UNL     1     -13.509  -1.086 -12.340  1.00  0.00     0.059 A 
ATOM     72  F   UNL     1     -13.488   0.439 -10.559  1.00  0.00    -0.206 F 
ATOM     73  C   UNL     1     -13.417  -2.402 -12.790  1.00  0.00     0.060 A 
BRANCH  73  74
ATOM     74  S   UNL     1     -13.520  -2.774 -14.553  1.00  0.00     0.124 S 
ATOM     75  O   UNL     1     -12.142  -3.148 -14.854  1.00  0.00    -0.237 OA
ATOM     76  O   UNL     1     -14.493  -3.862 -14.584  1.00  0.00    -0.237 OA
ATOM     77  O   UNL     1     -13.972  -1.517 -15.140  1.00  0.00    -0.744 OA
ENDBRANCH  73  74
ENDBRANCH  52  66
BRANCH  53  78
ATOM     78  C   UNL     1     -12.545   0.152  -0.265  1.00  0.00     0.058 A 
ATOM     79  C   UNL     1     -13.267  -0.564   0.702  1.00  0.00     0.135 A 
ATOM     80  C   UNL     1     -11.759   1.229   0.176  1.00  0.00     0.135 A 
ATOM     81  F   UNL     1     -14.045  -1.593   0.333  1.00  0.00    -0.206 F 
ATOM     82  C   UNL     1     -13.232  -0.213   2.049  1.00  0.00     0.059 A 
ATOM     83  C   UNL     1     -11.687   1.582   1.520  1.00  0.00     0.059 A 
ATOM     84  F   UNL     1     -11.044   1.945  -0.706  1.00  0.00    -0.206 F 
ATOM     85  C   UNL     1     -12.438   0.863   2.448  1.00  0.00     0.060 A 
BRANCH  85  86
ATOM     86  S   UNL     1     -12.374   1.292   4.202  1.00  0.00     0.124 S 
ATOM     87  O   UNL     1     -13.683   1.902   4.404  1.00  0.00    -0.237 OA
ATOM     88  O   UNL     1     -12.173  -0.012   4.828  1.00  0.00    -0.237 OA
ATOM     89  O   UNL     1     -11.233   2.199   4.283  1.00  0.00    -0.744 OA
ENDBRANCH  85  86
ENDBRANCH  53  78
BRANCH  65  90
ATOM     90  C   UNL     1     -17.751   0.472  -4.906  1.00  0.00     0.058 A 
ATOM     91  C   UNL     1     -18.145   1.810  -4.758  1.00  0.00     0.135 A 
ATOM     92  C   UNL     1     -18.760  -0.500  -5.016  1.00  0.00     0.135 A 
ATOM     93  F   UNL     1     -17.221   2.778  -4.646  1.00  0.00    -0.206 F 
ATOM     94  C   UNL     1     -19.488   2.170  -4.701  1.00  0.00     0.059 A 
ATOM     95  C   UNL     1     -20.108  -0.161  -4.992  1.00  0.00     0.059 A 
ATOM     96  F   UNL     1     -18.438  -1.794  -5.175  1.00  0.00    -0.206 F 
ATOM     97  C   UNL     1     -20.462   1.177  -4.821  1.00  0.00     0.060 A 
BRANCH  97  98
ATOM     98  S   UNL     1     -22.201   1.660  -4.782  1.00  0.00     0.124 S 
ATOM     99  O   UNL     1     -22.390   1.963  -3.367  1.00  0.00    -0.237 OA
ATOM    100  O   UNL     1     -22.228   2.807  -5.684  1.00  0.00    -0.237 OA
ATOM    101  O   UNL     1     -22.896   0.472  -5.267  1.00  0.00    -0.744 OA
ENDBRANCH  97  98
ENDBRANCH  65  90
ENDBRANCH  39  40
ENDBRANCH  32  34
ENDBRANCH  31  32
ENDBRANCH  30  31
ENDBRANCH  29  30
ENDBRANCH  28  29
ENDBRANCH  27  28
ENDBRANCH  26  27
ENDBRANCH  25  26
ENDBRANCH   1  25
TORSDOF 27
