REMARK SMILES CC(C)C[C@H](NC(=O)[C@@H](NC(=O)[C@H](C)NC(=O)CNC(=O)OCc1ccccc1)C(C)C)C(=O)OCCOCCOCCOCCOC(=O)c1ccc(-c2c3nc(c(-c4c(F)cc(S(=O)(=O)[O-])cc4F)c4ccc([nH]4)c(-c4c(F)cc(S(=O)(=O)[O-])cc4F)c4nc(c(-c5c(F)cc(S(=O)(=O)[O-])cc5F)c5ccc2[nH]5)C=C4)C=C3)cc1
REMARK SMILES IDX 37 1 36 2 35 3 33 4 34 5 5 6 4 7 2 8 1 9 3 10 6 11 7 12 8 14
REMARK SMILES IDX 9 15 10 16 11 17 12 19 13 20 14 21 15 22 16 23 17 25 18 26
REMARK SMILES IDX 19 27 20 28 21 30 22 31 23 32 24 33 25 34 29 35 26 36 28 37
REMARK SMILES IDX 27 38 30 39 31 40 32 41 38 42 39 43 40 44 41 45 42 46 43 47
REMARK SMILES IDX 44 48 45 49 46 50 47 51 48 52 49 53 50 54 51 55 115 56 52 57
REMARK SMILES IDX 114 58 53 59 54 60 55 61 108 62 56 63 113 64 107 65 109 66
REMARK SMILES IDX 57 67 112 68 106 69 105 70 58 72 92 73 71 74 91 75 72 76
REMARK SMILES IDX 75 77 90 78 110 79 73 80 74 81 89 83 111 84 76 85 59 86
REMARK SMILES IDX 60 87 69 88 61 89 62 90 68 91 70 92 63 93 64 94 65 95 66 96
REMARK SMILES IDX 67 97 93 98 94 99 103 100 95 101 96 102 102 103 104 104
REMARK SMILES IDX 97 105 98 106 99 107 100 108 101 109 77 110 78 111 87 112
REMARK SMILES IDX 79 113 80 114 86 115 88 116 81 117 82 118 83 119 84 120
REMARK SMILES IDX 85 121
REMARK H PARENT 6 13 10 18 15 24 19 29 109 71 75 82
REMARK Flexibility Score: inf
ROOT
ATOM      1  C   UNL     1      -2.673   0.309   0.243  1.00  0.00     0.202 C 
ENDROOT
BRANCH   1   2
ATOM      2  C   UNL     1      -2.131  -0.512   1.425  1.00  0.00     0.261 C 
BRANCH   2   3
ATOM      3  O   UNL     1      -2.594  -1.879   1.415  1.00  0.00    -0.462 OA
BRANCH   3   4
ATOM      4  C   UNL     1      -3.001  -2.360   2.616  1.00  0.00     0.328 C 
ATOM      5  O   UNL     1      -2.807  -1.796   3.687  1.00  0.00    -0.250 OA
BRANCH   4   6
ATOM      6  C   UNL     1      -3.800  -3.686   2.526  1.00  0.00     0.192 C 
BRANCH   6   7
ATOM      7  C   UNL     1      -3.129  -4.655   3.522  1.00  0.00     0.040 C 
BRANCH   7   8
ATOM      8  C   UNL     1      -4.134  -5.240   4.527  1.00  0.00    -0.015 C 
ATOM      9  C   UNL     1      -4.734  -6.537   3.991  1.00  0.00     0.007 C 
ATOM     10  C   UNL     1      -3.447  -5.476   5.871  1.00  0.00     0.007 C 
ENDBRANCH   7   8
ENDBRANCH   6   7
BRANCH   6  11
ATOM     11  N   UNL     1      -3.921  -4.330   1.218  1.00  0.00    -0.341 N 
ATOM     12  C   UNL     1      -4.937  -4.913   0.537  1.00  0.00     0.243 C 
ATOM     13  H   UNL     1      -3.071  -4.343   0.720  1.00  0.00     0.164 HD
ATOM     14  O   UNL     1      -4.563  -5.667  -0.374  1.00  0.00    -0.273 OA
BRANCH  12  15
ATOM     15  C   UNL     1      -6.473  -4.630   0.689  1.00  0.00     0.174 C 
BRANCH  15  16
ATOM     16  N   UNL     1      -7.030  -4.270   2.010  1.00  0.00    -0.342 N 
ATOM     17  C   UNL     1      -7.636  -3.251   2.658  1.00  0.00     0.242 C 
ATOM     18  H   UNL     1      -6.922  -5.030   2.626  1.00  0.00     0.164 HD
ATOM     19  O   UNL     1      -8.168  -3.615   3.723  1.00  0.00    -0.273 OA
BRANCH  17  20
ATOM     20  C   UNL     1      -7.630  -1.727   2.351  1.00  0.00     0.168 C 
ATOM     21  C   UNL     1      -8.028  -1.200   0.990  1.00  0.00     0.041 C 
BRANCH  20  22
ATOM     22  N   UNL     1      -6.390  -1.123   2.814  1.00  0.00    -0.343 N 
ATOM     23  C   UNL     1      -6.166  -0.021   3.580  1.00  0.00     0.240 C 
ATOM     24  H   UNL     1      -5.574  -1.592   2.525  1.00  0.00     0.164 HD
ATOM     25  O   UNL     1      -5.007   0.189   3.944  1.00  0.00    -0.273 OA
BRANCH  23  26
ATOM     26  C   UNL     1      -7.291   0.903   4.042  1.00  0.00     0.219 C 
BRANCH  26  27
ATOM     27  N   UNL     1      -7.981   1.550   2.945  1.00  0.00    -0.312 N 
ATOM     28  C   UNL     1      -9.264   1.324   2.557  1.00  0.00     0.407 C 
ATOM     29  H   UNL     1      -7.472   2.217   2.431  1.00  0.00     0.167 HD
ATOM     30  O   UNL     1      -9.726   1.836   1.547  1.00  0.00    -0.225 OA
BRANCH  28  31
ATOM     31  O   UNL     1      -9.891   0.420   3.349  1.00  0.00    -0.445 OA
BRANCH  31  32
ATOM     32  C   UNL     1     -11.195   0.001   2.919  1.00  0.00     0.270 C 
BRANCH  32  33
ATOM     33  C   UNL     1     -12.181   1.131   3.027  1.00  0.00    -0.011 A 
ATOM     34  C   UNL     1     -13.139   1.325   2.026  1.00  0.00     0.007 A 
ATOM     35  C   UNL     1     -12.082   2.055   4.078  1.00  0.00     0.007 A 
ATOM     36  C   UNL     1     -13.933   2.469   2.037  1.00  0.00     0.000 A 
ATOM     37  C   UNL     1     -12.863   3.205   4.076  1.00  0.00     0.000 A 
ATOM     38  C   UNL     1     -13.780   3.416   3.049  1.00  0.00     0.000 A 
ENDBRANCH  32  33
ENDBRANCH  31  32
ENDBRANCH  28  31
ENDBRANCH  26  27
ENDBRANCH  23  26
ENDBRANCH  20  22
ENDBRANCH  17  20
ENDBRANCH  15  16
BRANCH  15  39
ATOM     39  C   UNL     1      -7.101  -3.880  -0.504  1.00  0.00     0.015 C 
ATOM     40  C   UNL     1      -6.550  -4.233  -1.878  1.00  0.00     0.010 C 
ATOM     41  C   UNL     1      -8.629  -4.032  -0.580  1.00  0.00     0.010 C 
ENDBRANCH  15  39
ENDBRANCH  12  15
ENDBRANCH   6  11
ENDBRANCH   4   6
ENDBRANCH   3   4
ENDBRANCH   2   3
ENDBRANCH   1   2
BRANCH   1  42
ATOM     42  O   UNL     1      -4.036   0.101  -0.124  1.00  0.00    -0.376 OA
BRANCH  42  43
ATOM     43  C   UNL     1      -4.426  -1.221  -0.507  1.00  0.00     0.188 C 
BRANCH  43  44
ATOM     44  C   UNL     1      -3.404  -2.070  -1.285  1.00  0.00     0.188 C 
BRANCH  44  45
ATOM     45  O   UNL     1      -3.700  -2.160  -2.667  1.00  0.00    -0.377 OA
BRANCH  45  46
ATOM     46  C   UNL     1      -3.653  -0.913  -3.334  1.00  0.00     0.188 C 
BRANCH  46  47
ATOM     47  C   UNL     1      -5.003  -0.556  -3.962  1.00  0.00     0.188 C 
BRANCH  47  48
ATOM     48  O   UNL     1      -6.011  -1.557  -3.786  1.00  0.00    -0.376 OA
BRANCH  48  49
ATOM     49  C   UNL     1      -6.367  -2.268  -4.975  1.00  0.00     0.202 C 
BRANCH  49  50
ATOM     50  C   UNL     1      -5.579  -3.570  -5.188  1.00  0.00     0.261 C 
BRANCH  50  51
ATOM     51  O   UNL     1      -4.181  -3.367  -5.396  1.00  0.00    -0.460 OA
BRANCH  51  52
ATOM     52  C   UNL     1      -3.861  -2.734  -6.538  1.00  0.00     0.338 C 
ATOM     53  O   UNL     1      -4.611  -2.394  -7.437  1.00  0.00    -0.246 OA
BRANCH  52  54
ATOM     54  C   UNL     1      -2.462  -2.312  -6.413  1.00  0.00     0.060 A 
ATOM     55  C   UNL     1      -2.195  -0.947  -6.555  1.00  0.00     0.016 A 
ATOM     56  C   UNL     1      -1.449  -3.231  -6.118  1.00  0.00     0.016 A 
ATOM     57  C   UNL     1      -0.892  -0.496  -6.434  1.00  0.00     0.010 A 
ATOM     58  C   UNL     1      -0.133  -2.785  -6.047  1.00  0.00     0.010 A 
ATOM     59  C   UNL     1       0.143  -1.424  -6.254  1.00  0.00    -0.014 A 
BRANCH  59  60
ATOM     60  C   UNL     1       1.498  -0.986  -6.629  1.00  0.00     0.031 A 
ATOM     61  C   UNL     1       1.845  -1.063  -8.090  1.00  0.00     0.074 A 
ATOM     62  C   UNL     1       2.325  -0.443  -5.724  1.00  0.00     0.049 A 
ATOM     63  N   UNL     1       2.902  -0.627  -8.716  1.00  0.00    -0.248 NA
ATOM     64  C   UNL     1       0.847  -1.704  -8.970  1.00  0.00     0.031 C 
ATOM     65  C   UNL     1       2.047  -0.305  -4.295  1.00  0.00     0.029 A 
ATOM     66  N   UNL     1       3.567   0.106  -5.883  1.00  0.00    -0.354 N 
ATOM     67  C   UNL     1       2.680  -0.905 -10.059  1.00  0.00     0.074 A 
ATOM     68  C   UNL     1       1.413  -1.587 -10.159  1.00  0.00     0.031 C 
ATOM     69  C   UNL     1       3.102   0.283  -3.702  1.00  0.00     0.029 A 
ATOM     70  C   UNL     1       4.124   0.554  -4.711  1.00  0.00     0.049 A 
ATOM     71  H   UNL     1       4.020   0.174  -6.755  1.00  0.00     0.167 HD
ATOM     72  C   UNL     1       3.462  -0.600 -11.118  1.00  0.00     0.037 A 
ATOM     73  C   UNL     1       5.329   1.113  -4.494  1.00  0.00     0.037 A 
ATOM     74  C   UNL     1       4.743   0.035 -10.988  1.00  0.00     0.049 A 
ATOM     75  C   UNL     1       6.218   1.377  -5.682  1.00  0.00     0.074 A 
ATOM     76  C   UNL     1       5.656   0.352 -11.975  1.00  0.00     0.029 A 
ATOM     77  N   UNL     1       5.295   0.440  -9.780  1.00  0.00    -0.354 N 
ATOM     78  N   UNL     1       5.995   1.122  -6.952  1.00  0.00    -0.248 NA
ATOM     79  C   UNL     1       7.511   2.018  -5.415  1.00  0.00     0.031 C 
ATOM     80  C   UNL     1       6.779   0.915 -11.357  1.00  0.00     0.029 A 
ATOM     81  C   UNL     1       6.543   0.993  -9.992  1.00  0.00     0.049 A 
ATOM     82  H   UNL     1       4.860   0.347  -8.901  1.00  0.00     0.167 HD
ATOM     83  C   UNL     1       7.113   1.583  -7.637  1.00  0.00     0.074 A 
ATOM     84  C   UNL     1       7.998   2.156  -6.640  1.00  0.00     0.031 C 
ATOM     85  C   UNL     1       7.394   1.540  -8.965  1.00  0.00     0.037 A 
BRANCH  72  86
ATOM     86  C   UNL     1       2.955  -0.979 -12.480  1.00  0.00     0.058 A 
ATOM     87  C   UNL     1       1.887  -0.292 -13.082  1.00  0.00     0.135 A 
ATOM     88  C   UNL     1       3.532  -2.043 -13.189  1.00  0.00     0.135 A 
ATOM     89  F   UNL     1       1.274   0.710 -12.431  1.00  0.00    -0.206 F 
ATOM     90  C   UNL     1       1.401  -0.657 -14.333  1.00  0.00     0.059 A 
ATOM     91  C   UNL     1       3.076  -2.410 -14.452  1.00  0.00     0.059 A 
ATOM     92  F   UNL     1       4.541  -2.745 -12.650  1.00  0.00    -0.206 F 
ATOM     93  C   UNL     1       2.004  -1.717 -15.011  1.00  0.00     0.060 A 
BRANCH  93  94
ATOM     94  S   UNL     1       1.373  -2.168 -16.642  1.00  0.00     0.124 S 
ATOM     95  O   UNL     1       0.104  -2.802 -16.300  1.00  0.00    -0.237 OA
ATOM     96  O   UNL     1       1.276  -0.873 -17.308  1.00  0.00    -0.237 OA
ATOM     97  O   UNL     1       2.400  -3.063 -17.168  1.00  0.00    -0.744 OA
ENDBRANCH  93  94
ENDBRANCH  72  86
BRANCH  73  98
ATOM     98  C   UNL     1       5.761   1.442  -3.110  1.00  0.00     0.058 A 
ATOM     99  C   UNL     1       5.914   2.767  -2.679  1.00  0.00     0.135 A 
ATOM    100  C   UNL     1       6.028   0.421  -2.183  1.00  0.00     0.135 A 
ATOM    101  F   UNL     1       5.676   3.780  -3.526  1.00  0.00    -0.206 F 
ATOM    102  C   UNL     1       6.333   3.071  -1.386  1.00  0.00     0.059 A 
ATOM    103  C   UNL     1       6.424   0.698  -0.878  1.00  0.00     0.059 A 
ATOM    104  F   UNL     1       5.883  -0.865  -2.538  1.00  0.00    -0.206 F 
ATOM    105  C   UNL     1       6.585   2.027  -0.492  1.00  0.00     0.060 A 
BRANCH 105 106
ATOM    106  S   UNL     1       7.083   2.428   1.197  1.00  0.00     0.124 S 
ATOM    107  O   UNL     1       8.468   2.841   1.005  1.00  0.00    -0.237 OA
ATOM    108  O   UNL     1       6.143   3.486   1.552  1.00  0.00    -0.237 OA
ATOM    109  O   UNL     1       6.891   1.167   1.909  1.00  0.00    -0.744 OA
ENDBRANCH 105 106
ENDBRANCH  73  98
BRANCH  85 110
ATOM    110  C   UNL     1       8.701   2.139  -9.398  1.00  0.00     0.058 A 
ATOM    111  C   UNL     1       9.923   1.505  -9.128  1.00  0.00     0.135 A 
ATOM    112  C   UNL     1       8.726   3.347 -10.112  1.00  0.00     0.135 A 
ATOM    113  F   UNL     1       9.949   0.347  -8.449  1.00  0.00    -0.206 F 
ATOM    114  C   UNL     1      11.132   2.073  -9.512  1.00  0.00     0.059 A 
ATOM    115  C   UNL     1       9.921   3.918 -10.532  1.00  0.00     0.059 A 
ATOM    116  F   UNL     1       7.581   3.981 -10.411  1.00  0.00    -0.206 F 
ATOM    117  C   UNL     1      11.120   3.283 -10.208  1.00  0.00     0.060 A 
BRANCH 117 118
ATOM    118  S   UNL     1      12.695   4.017 -10.694  1.00  0.00     0.124 S 
ATOM    119  O   UNL     1      13.160   4.573  -9.427  1.00  0.00    -0.237 OA
ATOM    120  O   UNL     1      13.439   2.865 -11.192  1.00  0.00    -0.237 OA
ATOM    121  O   UNL     1      12.313   4.995 -11.708  1.00  0.00    -0.744 OA
ENDBRANCH 117 118
ENDBRANCH  85 110
ENDBRANCH  59  60
ENDBRANCH  52  54
ENDBRANCH  51  52
ENDBRANCH  50  51
ENDBRANCH  49  50
ENDBRANCH  48  49
ENDBRANCH  47  48
ENDBRANCH  46  47
ENDBRANCH  45  46
ENDBRANCH  44  45
ENDBRANCH  43  44
ENDBRANCH  42  43
ENDBRANCH   1  42
TORSDOF 36
