REMARK SMILES Cc1cc(C)c2c(c1)C=C(C(=O)OCCOCCOCCOCCOC(=O)c1ccc(-c3c4nc(c(-c5c(F)cc(S(=O)(=O)[O-])cc5F)c5ccc([nH]5)c(-c5c(F)cc(S(=O)(=O)[O-])cc5F)c5nc(c(-c6c(F)cc(S(=O)(=O)[O-])cc6F)c6ccc3[nH]6)C=C5)C=C4)cc1)[C@@H](C(F)(F)F)O2
REMARK SMILES IDX 20 1 19 2 18 3 17 4 16 5 15 6 14 7 13 8 11 9 12 10 10 11
REMARK SMILES IDX 1 12 2 13 3 14 8 15 4 16 7 17 5 18 6 19 9 20 99 21 94 22
REMARK SMILES IDX 95 23 96 24 97 25 98 26 21 27 22 28 23 29 24 30 25 31 26 32
REMARK SMILES IDX 27 33 28 34 29 35 93 36 30 37 92 38 31 39 32 40 33 41 86 42
REMARK SMILES IDX 34 43 91 44 85 45 87 46 35 47 90 48 84 49 83 50 36 52 70 53
REMARK SMILES IDX 49 54 69 55 50 56 53 57 68 58 88 59 51 60 52 61 67 63 89 64
REMARK SMILES IDX 54 65 37 66 38 67 47 68 39 69 40 70 46 71 48 72 41 73 42 74
REMARK SMILES IDX 43 75 44 76 45 77 71 78 72 79 81 80 73 81 74 82 80 83 82 84
REMARK SMILES IDX 75 85 76 86 77 87 78 88 79 89 55 90 56 91 65 92 57 93 58 94
REMARK SMILES IDX 64 95 66 96 59 97 60 98 61 99 62 100 63 101
REMARK H PARENT 87 51 53 62
REMARK Flexibility Score: inf
ROOT
ATOM      1  C   UNL     1      -2.517   8.014  -5.035  1.00  0.00     0.188 C 
ENDROOT
BRANCH   1   2
ATOM      2  O   UNL     1      -1.679   6.861  -4.967  1.00  0.00    -0.377 OA
BRANCH   2   3
ATOM      3  C   UNL     1      -1.402   6.321  -3.686  1.00  0.00     0.188 C 
BRANCH   3   4
ATOM      4  C   UNL     1      -0.218   7.012  -2.981  1.00  0.00     0.188 C 
BRANCH   4   5
ATOM      5  O   UNL     1       0.121   8.290  -3.480  1.00  0.00    -0.376 OA
BRANCH   5   6
ATOM      6  C   UNL     1       0.909   8.479  -4.645  1.00  0.00     0.202 C 
BRANCH   6   7
ATOM      7  C   UNL     1       1.170   7.448  -5.762  1.00  0.00     0.261 C 
BRANCH   7   8
ATOM      8  O   UNL     1       0.865   6.082  -5.497  1.00  0.00    -0.460 OA
BRANCH   8   9
ATOM      9  C   UNL     1       1.792   5.361  -4.845  1.00  0.00     0.338 C 
ATOM     10  O   UNL     1       2.884   5.742  -4.460  1.00  0.00    -0.246 OA
BRANCH   9  11
ATOM     11  C   UNL     1       1.180   4.061  -4.500  1.00  0.00     0.087 C 
ATOM     12  C   UNL     1       0.979  -0.036   0.062  1.00  0.00     0.044 C 
ATOM     13  C   UNL     1       0.637   0.529  -1.284  1.00  0.00    -0.050 A 
ATOM     14  C   UNL     1       0.007  -0.251  -2.262  1.00  0.00     0.010 A 
ATOM     15  C   UNL     1       1.019   1.836  -1.600  1.00  0.00     0.015 A 
ATOM     16  C   UNL     1      -0.262   0.270  -3.538  1.00  0.00    -0.008 A 
ATOM     17  C   UNL     1       0.794   2.351  -2.880  1.00  0.00     0.018 A 
ATOM     18  C   UNL     1      -0.910  -0.593  -4.584  1.00  0.00     0.048 C 
ATOM     19  C   UNL     1       0.122   1.586  -3.835  1.00  0.00     0.130 A 
ATOM     20  C   UNL     1       1.348   3.642  -3.241  1.00  0.00     0.027 C 
ATOM     21  O   UNL     1      -0.177   2.049  -5.086  1.00  0.00    -0.475 OA
ATOM     22  C   UNL     1       0.362   3.325  -5.529  1.00  0.00     0.316 C 
BRANCH  22  23
ATOM     23  C   UNL     1       1.146   3.085  -6.825  1.00  0.00     0.430 C 
ATOM     24  F   UNL     1       0.429   2.349  -7.706  1.00  0.00    -0.167 F 
ATOM     25  F   UNL     1       1.464   4.244  -7.446  1.00  0.00    -0.167 F 
ATOM     26  F   UNL     1       2.303   2.422  -6.589  1.00  0.00    -0.167 F 
ENDBRANCH  22  23
ENDBRANCH   9  11
ENDBRANCH   8   9
ENDBRANCH   7   8
ENDBRANCH   6   7
ENDBRANCH   5   6
ENDBRANCH   4   5
ENDBRANCH   3   4
ENDBRANCH   2   3
ENDBRANCH   1   2
BRANCH   1  27
ATOM     27  C   UNL     1      -2.633   8.993  -3.841  1.00  0.00     0.188 C 
BRANCH  27  28
ATOM     28  O   UNL     1      -2.726   8.361  -2.570  1.00  0.00    -0.376 OA
BRANCH  28  29
ATOM     29  C   UNL     1      -3.986   8.323  -1.924  1.00  0.00     0.202 C 
BRANCH  29  30
ATOM     30  C   UNL     1      -5.056   7.432  -2.569  1.00  0.00     0.261 C 
BRANCH  30  31
ATOM     31  O   UNL     1      -5.377   7.730  -3.934  1.00  0.00    -0.460 OA
BRANCH  31  32
ATOM     32  C   UNL     1      -5.896   8.948  -4.197  1.00  0.00     0.338 C 
ATOM     33  O   UNL     1      -6.159   9.824  -3.390  1.00  0.00    -0.246 OA
BRANCH  32  34
ATOM     34  C   UNL     1      -5.914   9.116  -5.663  1.00  0.00     0.060 A 
ATOM     35  C   UNL     1      -5.183  10.164  -6.240  1.00  0.00     0.016 A 
ATOM     36  C   UNL     1      -6.642   8.233  -6.464  1.00  0.00     0.016 A 
ATOM     37  C   UNL     1      -5.208  10.352  -7.621  1.00  0.00     0.010 A 
ATOM     38  C   UNL     1      -6.687   8.439  -7.844  1.00  0.00     0.010 A 
ATOM     39  C   UNL     1      -5.999   9.519  -8.423  1.00  0.00    -0.014 A 
BRANCH  39  40
ATOM     40  C   UNL     1      -6.289   9.902  -9.825  1.00  0.00     0.031 A 
ATOM     41  C   UNL     1      -7.563  10.654 -10.100  1.00  0.00     0.074 A 
ATOM     42  C   UNL     1      -5.445   9.600 -10.827  1.00  0.00     0.049 A 
ATOM     43  N   UNL     1      -8.084  11.017 -11.241  1.00  0.00    -0.248 NA
ATOM     44  C   UNL     1      -8.356  11.050  -8.922  1.00  0.00     0.031 C 
ATOM     45  C   UNL     1      -4.155   8.930 -10.675  1.00  0.00     0.029 A 
ATOM     46  N   UNL     1      -5.557   9.815 -12.178  1.00  0.00    -0.354 N 
ATOM     47  C   UNL     1      -9.264  11.678 -10.923  1.00  0.00     0.074 A 
ATOM     48  C   UNL     1      -9.399  11.642  -9.484  1.00  0.00     0.031 C 
ATOM     49  C   UNL     1      -3.600   8.775 -11.891  1.00  0.00     0.029 A 
ATOM     50  C   UNL     1      -4.512   9.299 -12.907  1.00  0.00     0.049 A 
ATOM     51  H   UNL     1      -6.314  10.294 -12.587  1.00  0.00     0.167 HD
ATOM     52  C   UNL     1     -10.151  12.268 -11.757  1.00  0.00     0.037 A 
ATOM     53  C   UNL     1      -4.331   9.233 -14.242  1.00  0.00     0.037 A 
ATOM     54  C   UNL     1     -10.011  12.293 -13.188  1.00  0.00     0.049 A 
ATOM     55  C   UNL     1      -5.380   9.815 -15.157  1.00  0.00     0.074 A 
ATOM     56  C   UNL     1     -10.857  12.862 -14.123  1.00  0.00     0.029 A 
ATOM     57  N   UNL     1      -8.962  11.721 -13.893  1.00  0.00    -0.354 N 
ATOM     58  N   UNL     1      -6.497  10.432 -14.847  1.00  0.00    -0.248 NA
ATOM     59  C   UNL     1      -5.147   9.691 -16.603  1.00  0.00     0.031 C 
ATOM     60  C   UNL     1     -10.349  12.586 -15.396  1.00  0.00     0.029 A 
ATOM     61  C   UNL     1      -9.152  11.902 -15.252  1.00  0.00     0.049 A 
ATOM     62  H   UNL     1      -8.196  11.256 -13.486  1.00  0.00     0.167 HD
ATOM     63  C   UNL     1      -7.083  10.793 -16.057  1.00  0.00     0.074 A 
ATOM     64  C   UNL     1      -6.192  10.337 -17.103  1.00  0.00     0.031 C 
ATOM     65  C   UNL     1      -8.252  11.444 -16.282  1.00  0.00     0.037 A 
BRANCH  52  66
ATOM     66  C   UNL     1     -11.363  12.916 -11.147  1.00  0.00     0.058 A 
ATOM     67  C   UNL     1     -11.273  14.113 -10.420  1.00  0.00     0.135 A 
ATOM     68  C   UNL     1     -12.639  12.361 -11.341  1.00  0.00     0.135 A 
ATOM     69  F   UNL     1     -10.076  14.673 -10.183  1.00  0.00    -0.206 F 
ATOM     70  C   UNL     1     -12.404  14.734  -9.900  1.00  0.00     0.059 A 
ATOM     71  C   UNL     1     -13.786  12.979 -10.855  1.00  0.00     0.059 A 
ATOM     72  F   UNL     1     -12.779  11.211 -12.020  1.00  0.00    -0.206 F 
ATOM     73  C   UNL     1     -13.658  14.163 -10.130  1.00  0.00     0.060 A 
BRANCH  73  74
ATOM     74  S   UNL     1     -15.116  15.002  -9.477  1.00  0.00     0.124 S 
ATOM     75  O   UNL     1     -14.934  14.828  -8.039  1.00  0.00    -0.237 OA
ATOM     76  O   UNL     1     -14.940  16.361  -9.978  1.00  0.00    -0.237 OA
ATOM     77  O   UNL     1     -16.228  14.259 -10.061  1.00  0.00    -0.744 OA
ENDBRANCH  73  74
ENDBRANCH  52  66
BRANCH  53  78
ATOM     78  C   UNL     1      -3.112   8.582 -14.798  1.00  0.00     0.058 A 
ATOM     79  C   UNL     1      -2.133   9.331 -15.466  1.00  0.00     0.135 A 
ATOM     80  C   UNL     1      -2.900   7.200 -14.668  1.00  0.00     0.135 A 
ATOM     81  F   UNL     1      -2.296  10.653 -15.631  1.00  0.00    -0.206 F 
ATOM     82  C   UNL     1      -0.990   8.735 -15.992  1.00  0.00     0.059 A 
ATOM     83  C   UNL     1      -1.752   6.585 -15.161  1.00  0.00     0.059 A 
ATOM     84  F   UNL     1      -3.804   6.437 -14.035  1.00  0.00    -0.206 F 
ATOM     85  C   UNL     1      -0.805   7.362 -15.826  1.00  0.00     0.060 A 
BRANCH  85  86
ATOM     86  S   UNL     1       0.710   6.613 -16.464  1.00  0.00     0.124 S 
ATOM     87  O   UNL     1       0.515   6.732 -17.904  1.00  0.00    -0.237 OA
ATOM     88  O   UNL     1       1.737   7.472 -15.884  1.00  0.00    -0.237 OA
ATOM     89  O   UNL     1       0.663   5.254 -15.932  1.00  0.00    -0.744 OA
ENDBRANCH  85  86
ENDBRANCH  53  78
BRANCH  65  90
ATOM     90  C   UNL     1      -8.629  11.735 -17.711  1.00  0.00     0.058 A 
ATOM     91  C   UNL     1      -9.041  10.721 -18.589  1.00  0.00     0.135 A 
ATOM     92  C   UNL     1      -8.643  13.057 -18.188  1.00  0.00     0.135 A 
ATOM     93  F   UNL     1      -9.047   9.440 -18.186  1.00  0.00    -0.206 F 
ATOM     94  C   UNL     1      -9.428  11.002 -19.895  1.00  0.00     0.059 A 
ATOM     95  C   UNL     1      -9.057  13.366 -19.480  1.00  0.00     0.059 A 
ATOM     96  F   UNL     1      -8.273  14.069 -17.386  1.00  0.00    -0.206 F 
ATOM     97  C   UNL     1      -9.436  12.329 -20.331  1.00  0.00     0.060 A 
BRANCH  97  98
ATOM     98  S   UNL     1      -9.964  12.680 -22.020  1.00  0.00     0.124 S 
ATOM     99  O   UNL     1      -8.859  12.125 -22.796  1.00  0.00    -0.237 OA
ATOM    100  O   UNL     1     -11.227  11.953 -22.107  1.00  0.00    -0.237 OA
ATOM    101  O   UNL     1     -10.081  14.134 -22.048  1.00  0.00    -0.744 OA
ENDBRANCH  97  98
ENDBRANCH  65  90
ENDBRANCH  39  40
ENDBRANCH  32  34
ENDBRANCH  31  32
ENDBRANCH  30  31
ENDBRANCH  29  30
ENDBRANCH  28  29
ENDBRANCH  27  28
ENDBRANCH   1  27
TORSDOF 24
