REMARK SMILES Cc1ccc(C(C)(C)C)c(OCC(=O)c2nc(C)c(C(=O)OCCOCCOCCOCCOC(=O)c3ccc(-c4c5nc(c(-c6c(F)cc(S(=O)(=O)[O-])cc6F)c6ccc([nH]6)c(-c6c(F)cc(S(=O)(=O)[O-])cc6F)c6nc(c(-c7c(F)cc(S(=O)(=O)[O-])cc7F)c7ccc4[nH]7)C=C6)C=C5)cc3)s2)c1
REMARK SMILES IDX 27 1 26 2 25 3 24 4 23 5 22 6 20 7 21 8 19 9 15 10 16 11
REMARK SMILES IDX 103 12 17 13 18 14 13 15 14 16 12 17 11 18 10 19 1 20 2 21
REMARK SMILES IDX 3 22 104 23 4 24 5 25 6 26 7 27 8 28 9 29 28 30 29 31 30 32
REMARK SMILES IDX 31 33 32 34 33 35 34 36 35 37 36 38 37 39 38 40 102 41 39 42
REMARK SMILES IDX 101 43 40 44 41 45 42 46 95 47 43 48 100 49 94 50 96 51
REMARK SMILES IDX 44 52 99 53 93 54 92 55 45 57 79 58 58 59 78 60 59 61 62 62
REMARK SMILES IDX 77 63 97 64 60 65 61 66 76 68 98 69 63 70 46 71 47 72 56 73
REMARK SMILES IDX 48 74 49 75 55 76 57 77 50 78 51 79 52 80 53 81 54 82 80 83
REMARK SMILES IDX 81 84 90 85 82 86 83 87 89 88 91 89 84 90 85 91 86 92 87 93
REMARK SMILES IDX 88 94 64 95 65 96 74 97 66 98 67 99 73 100 75 101 68 102
REMARK SMILES IDX 69 103 70 104 71 105 72 106
REMARK H PARENT 96 56 62 67
REMARK Flexibility Score: inf
ROOT
ATOM      1  C   UNL     1      -5.998   2.964   3.918  1.00  0.00     0.188 C 
ENDROOT
BRANCH   1   2
ATOM      2  C   UNL     1      -6.437   1.722   4.779  1.00  0.00     0.188 C 
BRANCH   2   3
ATOM      3  O   UNL     1      -6.585   1.375   6.460  1.00  0.00    -0.376 OA
BRANCH   3   4
ATOM      4  C   UNL     1      -5.514   1.208   7.867  1.00  0.00     0.202 C 
BRANCH   4   5
ATOM      5  C   UNL     1      -3.695   1.721   8.124  1.00  0.00     0.261 C 
BRANCH   5   6
ATOM      6  O   UNL     1      -2.416   1.974   6.889  1.00  0.00    -0.459 OA
BRANCH   6   7
ATOM      7  C   UNL     1      -1.817   1.436   5.665  1.00  0.00     0.350 C 
ATOM      8  O   UNL     1      -2.079   0.365   5.104  1.00  0.00    -0.245 OA
BRANCH   7   9
ATOM      9  C   UNL     1      -1.016   2.292   4.763  1.00  0.00     0.136 A 
ATOM     10  C   UNL     1      -0.296   3.292   2.586  1.00  0.00     0.164 A 
ATOM     11  N   UNL     1       0.477   3.681   3.580  1.00  0.00    -0.237 NA
ATOM     12  S   UNL     1      -1.530   2.225   3.048  1.00  0.00    -0.103 S 
ATOM     13  C   UNL     1       0.121   3.083   4.801  1.00  0.00     0.064 A 
ATOM     14  C   UNL     1       1.015   3.396   5.938  1.00  0.00     0.068 C 
BRANCH  10  15
ATOM     15  C   UNL     1      -0.048   3.743   1.210  1.00  0.00     0.228 C 
ATOM     16  O   UNL     1       0.968   4.388   0.903  1.00  0.00    -0.288 OA
BRANCH  15  17
ATOM     17  C   UNL     1      -1.077   3.523   0.072  1.00  0.00     0.313 C 
BRANCH  17  18
ATOM     18  O   UNL     1      -1.753   2.329  -0.239  1.00  0.00    -0.485 OA
BRANCH  18  19
ATOM     19  C   UNL     1      -1.082   1.143  -0.248  1.00  0.00     0.123 A 
ATOM     20  C   UNL     1       2.498  -0.176  -0.119  1.00  0.00     0.044 C 
ATOM     21  C   UNL     1       1.000  -0.129  -0.145  1.00  0.00    -0.047 A 
ATOM     22  C   UNL     1       0.258  -1.292   0.030  1.00  0.00     0.004 A 
ATOM     23  C   UNL     1       0.319   1.077  -0.332  1.00  0.00     0.050 A 
ATOM     24  C   UNL     1      -1.138  -1.246   0.017  1.00  0.00     0.008 A 
ATOM     25  C   UNL     1      -1.853  -0.034  -0.121  1.00  0.00    -0.000 A 
BRANCH  25  26
ATOM     26  C   UNL     1      -3.403  -0.101  -0.114  1.00  0.00    -0.010 C 
ATOM     27  C   UNL     1      -3.865  -0.883  -1.367  1.00  0.00     0.016 C 
ATOM     28  C   UNL     1      -3.897  -0.836   1.156  1.00  0.00     0.016 C 
ATOM     29  C   UNL     1      -4.167   1.245  -0.146  1.00  0.00     0.016 C 
ENDBRANCH  25  26
ENDBRANCH  18  19
ENDBRANCH  17  18
ENDBRANCH  15  17
ENDBRANCH  10  15
ENDBRANCH   7   9
ENDBRANCH   6   7
ENDBRANCH   5   6
ENDBRANCH   4   5
ENDBRANCH   3   4
ENDBRANCH   2   3
ENDBRANCH   1   2
BRANCH   1  30
ATOM     30  O   UNL     1      -7.131   3.354   3.128  1.00  0.00    -0.377 OA
BRANCH  30  31
ATOM     31  C   UNL     1      -8.062   3.840   4.074  1.00  0.00     0.188 C 
BRANCH  31  32
ATOM     32  C   UNL     1      -9.352   4.385   3.546  1.00  0.00     0.188 C 
BRANCH  32  33
ATOM     33  O   UNL     1      -9.261   5.432   2.598  1.00  0.00    -0.376 OA
BRANCH  33  34
ATOM     34  C   UNL     1      -8.054   6.185   2.615  1.00  0.00     0.202 C 
BRANCH  34  35
ATOM     35  C   UNL     1      -7.770   7.083   3.850  1.00  0.00     0.261 C 
BRANCH  35  36
ATOM     36  O   UNL     1      -8.248   6.600   5.137  1.00  0.00    -0.460 OA
BRANCH  36  37
ATOM     37  C   UNL     1      -7.355   6.617   6.186  1.00  0.00     0.338 C 
ATOM     38  O   UNL     1      -6.209   7.043   6.105  1.00  0.00    -0.246 OA
BRANCH  37  39
ATOM     39  C   UNL     1      -7.881   5.824   7.397  1.00  0.00     0.060 A 
ATOM     40  C   UNL     1      -6.929   5.577   8.365  1.00  0.00     0.016 A 
ATOM     41  C   UNL     1      -8.452   4.629   7.066  1.00  0.00     0.016 A 
ATOM     42  C   UNL     1      -6.077   4.452   8.262  1.00  0.00     0.010 A 
ATOM     43  C   UNL     1      -7.589   3.521   6.924  1.00  0.00     0.010 A 
ATOM     44  C   UNL     1      -6.197   3.584   7.173  1.00  0.00    -0.014 A 
BRANCH  44  45
ATOM     45  C   UNL     1      -4.795   2.821   6.311  1.00  0.00     0.031 A 
ATOM     46  C   UNL     1      -4.493   0.886   5.956  1.00  0.00     0.074 A 
ATOM     47  C   UNL     1      -3.974   3.965   6.233  1.00  0.00     0.049 A 
ATOM     48  N   UNL     1      -3.663   0.063   6.664  1.00  0.00    -0.248 NA
ATOM     49  C   UNL     1      -5.460  -0.377   5.480  1.00  0.00     0.031 C 
ATOM     50  C   UNL     1      -2.714   4.279   5.609  1.00  0.00     0.029 A 
ATOM     51  N   UNL     1      -3.952   5.029   7.188  1.00  0.00    -0.354 N 
ATOM     52  C   UNL     1      -3.734  -1.312   6.471  1.00  0.00     0.074 A 
ATOM     53  C   UNL     1      -4.931  -1.544   5.782  1.00  0.00     0.031 C 
ATOM     54  C   UNL     1      -1.884   4.881   6.490  1.00  0.00     0.029 A 
ATOM     55  C   UNL     1      -2.651   5.220   7.649  1.00  0.00     0.049 A 
ATOM     56  H   UNL     1      -4.737   5.548   7.476  1.00  0.00     0.167 HD
ATOM     57  C   UNL     1      -2.783  -2.209   6.862  1.00  0.00     0.037 A 
ATOM     58  C   UNL     1      -2.263   5.388   8.938  1.00  0.00     0.037 A 
ATOM     59  C   UNL     1      -1.583  -1.546   7.359  1.00  0.00     0.049 A 
ATOM     60  C   UNL     1      -1.351   4.264   9.470  1.00  0.00     0.074 A 
ATOM     61  C   UNL     1      -0.410  -1.181   6.718  1.00  0.00     0.029 A 
ATOM     62  N   UNL     1      -1.595  -0.832   8.555  1.00  0.00    -0.354 N 
ATOM     63  N   UNL     1      -1.218   3.050   8.968  1.00  0.00    -0.248 NA
ATOM     64  C   UNL     1      -0.504   4.449  10.649  1.00  0.00     0.031 C 
ATOM     65  C   UNL     1       0.173  -0.101   7.438  1.00  0.00     0.029 A 
ATOM     66  C   UNL     1      -0.579   0.128   8.581  1.00  0.00     0.049 A 
ATOM     67  H   UNL     1      -2.236  -0.983   9.287  1.00  0.00     0.167 HD
ATOM     68  C   UNL     1      -0.447   2.265   9.822  1.00  0.00     0.074 A 
ATOM     69  C   UNL     1       0.059   3.236  10.782  1.00  0.00     0.031 C 
ATOM     70  C   UNL     1      -0.273   0.892   9.791  1.00  0.00     0.037 A 
BRANCH  57  71
ATOM     71  C   UNL     1      -2.917  -3.648   6.354  1.00  0.00     0.058 A 
ATOM     72  C   UNL     1      -1.886  -4.283   5.642  1.00  0.00     0.135 A 
ATOM     73  C   UNL     1      -4.130  -4.380   6.412  1.00  0.00     0.135 A 
ATOM     74  F   UNL     1      -0.655  -3.759   5.592  1.00  0.00    -0.206 F 
ATOM     75  C   UNL     1      -2.082  -5.471   4.923  1.00  0.00     0.059 A 
ATOM     76  C   UNL     1      -4.374  -5.529   5.643  1.00  0.00     0.059 A 
ATOM     77  F   UNL     1      -5.147  -3.953   7.182  1.00  0.00    -0.206 F 
ATOM     78  C   UNL     1      -3.341  -6.063   4.886  1.00  0.00     0.060 A 
BRANCH  78  79
ATOM     79  S   UNL     1      -3.599  -7.512   3.834  1.00  0.00     0.124 S 
ATOM     80  O   UNL     1      -3.066  -7.069   2.550  1.00  0.00    -0.237 OA
ATOM     81  O   UNL     1      -2.818  -8.531   4.526  1.00  0.00    -0.237 OA
ATOM     82  O   UNL     1      -5.047  -7.706   3.865  1.00  0.00    -0.744 OA
ENDBRANCH  78  79
ENDBRANCH  57  71
BRANCH  58  83
ATOM     83  C   UNL     1      -3.161   6.355   9.684  1.00  0.00     0.058 A 
ATOM     84  C   UNL     1      -3.356   7.624   9.070  1.00  0.00     0.135 A 
ATOM     85  C   UNL     1      -4.048   6.049  10.723  1.00  0.00     0.135 A 
ATOM     86  F   UNL     1      -2.496   8.041   8.125  1.00  0.00    -0.206 F 
ATOM     87  C   UNL     1      -4.475   8.428   9.303  1.00  0.00     0.059 A 
ATOM     88  C   UNL     1      -5.163   6.873  11.015  1.00  0.00     0.059 A 
ATOM     89  F   UNL     1      -3.942   4.885  11.379  1.00  0.00    -0.206 F 
ATOM     90  C   UNL     1      -5.405   8.024  10.250  1.00  0.00     0.060 A 
BRANCH  90  91
ATOM     91  S   UNL     1      -7.049   8.833  10.230  1.00  0.00     0.124 S 
ATOM     92  O   UNL     1      -6.780  10.102  10.893  1.00  0.00    -0.237 OA
ATOM     93  O   UNL     1      -7.346   8.914   8.802  1.00  0.00    -0.237 OA
ATOM     94  O   UNL     1      -7.888   7.893  10.966  1.00  0.00    -0.744 OA
ENDBRANCH  90  91
ENDBRANCH  58  83
BRANCH  70  95
ATOM     95  C   UNL     1       0.334   0.061  10.932  1.00  0.00     0.058 A 
ATOM     96  C   UNL     1       0.257   0.415  12.289  1.00  0.00     0.135 A 
ATOM     97  C   UNL     1       0.884  -1.231  10.689  1.00  0.00     0.135 A 
ATOM     98  F   UNL     1      -0.381   1.524  12.687  1.00  0.00    -0.206 F 
ATOM     99  C   UNL     1       0.791  -0.380  13.307  1.00  0.00     0.059 A 
ATOM    100  C   UNL     1       1.345  -2.074  11.695  1.00  0.00     0.059 A 
ATOM    101  F   UNL     1       0.989  -1.744   9.456  1.00  0.00    -0.206 F 
ATOM    102  C   UNL     1       1.339  -1.620  13.000  1.00  0.00     0.060 A 
BRANCH 102 103
ATOM    103  S   UNL     1       2.011  -2.660  14.305  1.00  0.00     0.124 S 
ATOM    104  O   UNL     1       3.397  -2.202  14.350  1.00  0.00    -0.237 OA
ATOM    105  O   UNL     1       1.190  -2.301  15.457  1.00  0.00    -0.237 OA
ATOM    106  O   UNL     1       1.807  -4.012  13.795  1.00  0.00    -0.744 OA
ENDBRANCH 102 103
ENDBRANCH  70  95
ENDBRANCH  44  45
ENDBRANCH  37  39
ENDBRANCH  36  37
ENDBRANCH  35  36
ENDBRANCH  34  35
ENDBRANCH  33  34
ENDBRANCH  32  33
ENDBRANCH  31  32
ENDBRANCH  30  31
ENDBRANCH   1  30
TORSDOF 28
