REMARK SMILES Cc1ccc(S(C)(=O)=O)cc1C(=O)NCCOCC(=O)OCCOCCOCCOCCOC(=O)c1ccc(-c2c3nc(c(-c4c(F)cc(S(=O)(=O)[O-])cc4F)c4ccc([nH]4)c(-c4c(F)cc(S(=O)(=O)[O-])cc4F)c4nc(c(-c5c(F)cc(S(=O)(=O)[O-])cc5F)c5ccc2[nH]5)C=C4)C=C3)cc1
REMARK SMILES IDX 25 1 24 2 23 3 22 4 21 5 19 6 20 7 18 8 17 9 16 10 15 11
REMARK SMILES IDX 14 12 12 13 13 14 11 16 1 17 2 18 3 19 4 20 10 21 5 22 6 23
REMARK SMILES IDX 7 24 8 25 9 26 26 27 27 28 28 29 29 30 30 31 31 32 32 33
REMARK SMILES IDX 33 34 34 35 35 36 36 37 37 38 101 39 38 40 100 41 39 42
REMARK SMILES IDX 40 43 41 44 94 45 42 46 99 47 93 48 95 49 43 50 98 51 92 52
REMARK SMILES IDX 91 53 44 55 78 56 57 57 77 58 58 59 61 60 76 61 96 62 59 63
REMARK SMILES IDX 60 64 75 66 97 67 62 68 45 69 46 70 55 71 47 72 48 73 54 74
REMARK SMILES IDX 56 75 49 76 50 77 51 78 52 79 53 80 79 81 80 82 89 83 81 84
REMARK SMILES IDX 82 85 88 86 90 87 83 88 84 89 85 90 86 91 87 92 63 93 64 94
REMARK SMILES IDX 73 95 65 96 66 97 72 98 74 99 67 100 68 101 69 102 70 103
REMARK SMILES IDX 71 104
REMARK H PARENT 14 15 95 54 61 65
REMARK Flexibility Score: inf
ROOT
ATOM      1  C   UNL     1       1.683   1.875  -1.287  1.00  0.00     0.188 C 
ENDROOT
BRANCH   1   2
ATOM      2  O   UNL     1       1.025   3.020  -1.757  1.00  0.00    -0.376 OA
BRANCH   2   3
ATOM      3  C   UNL     1       1.899   3.782  -2.519  1.00  0.00     0.202 C 
BRANCH   3   4
ATOM      4  C   UNL     1       2.774   4.835  -1.862  1.00  0.00     0.261 C 
BRANCH   4   5
ATOM      5  O   UNL     1       3.976   4.312  -1.299  1.00  0.00    -0.462 OA
BRANCH   5   6
ATOM      6  C   UNL     1       4.139   4.574   0.014  1.00  0.00     0.332 C 
ATOM      7  O   UNL     1       3.300   5.041   0.772  1.00  0.00    -0.250 OA
BRANCH   6   8
ATOM      8  C   UNL     1       5.513   4.124   0.482  1.00  0.00     0.282 C 
BRANCH   8   9
ATOM      9  O   UNL     1       5.838   2.752   0.626  1.00  0.00    -0.368 OA
BRANCH   9  10
ATOM     10  C   UNL     1       4.737   1.839   0.524  1.00  0.00     0.182 C 
BRANCH  10  11
ATOM     11  C   UNL     1       3.807   1.811   1.772  1.00  0.00     0.144 C 
BRANCH  11  12
ATOM     12  N   UNL     1       2.453   2.384   1.670  1.00  0.00    -0.350 N 
ATOM     13  C   UNL     1       1.114   2.044   1.635  1.00  0.00     0.251 C 
ATOM     14  O   UNL     1       0.376   3.014   1.856  1.00  0.00    -0.269 OA
ATOM     15  H   UNL     1       2.531   3.363   1.603  1.00  0.00     0.163 HD
BRANCH  13  16
ATOM     16  C   UNL     1       0.393   0.747   1.255  1.00  0.00     0.044 A 
ATOM     17  C   UNL     1       2.361  -0.911   1.058  1.00  0.00     0.045 C 
ATOM     18  C   UNL     1       0.917  -0.536   0.986  1.00  0.00    -0.038 A 
ATOM     19  C   UNL     1       0.052  -1.578   0.552  1.00  0.00     0.005 A 
ATOM     20  C   UNL     1      -1.301  -1.375   0.304  1.00  0.00     0.020 A 
ATOM     21  C   UNL     1      -1.002   0.932   0.945  1.00  0.00     0.034 A 
ATOM     22  C   UNL     1      -1.827  -0.106   0.471  1.00  0.00     0.067 A 
BRANCH  22  23
ATOM     23  S   UNL     1      -3.566   0.140   0.159  1.00  0.00     0.175 S 
ATOM     24  C   UNL     1      -3.913  -0.584  -1.426  1.00  0.00     0.163 C 
ATOM     25  O   UNL     1      -4.265  -0.648   1.150  1.00  0.00    -0.224 OA
ATOM     26  O   UNL     1      -3.809   1.568   0.021  1.00  0.00    -0.224 OA
ENDBRANCH  22  23
ENDBRANCH  13  16
ENDBRANCH  11  12
ENDBRANCH  10  11
ENDBRANCH   9  10
ENDBRANCH   8   9
ENDBRANCH   6   8
ENDBRANCH   5   6
ENDBRANCH   4   5
ENDBRANCH   3   4
ENDBRANCH   2   3
ENDBRANCH   1   2
BRANCH   1  27
ATOM     27  C   UNL     1       2.345   0.862  -2.205  1.00  0.00     0.188 C 
BRANCH  27  28
ATOM     28  O   UNL     1       3.747   0.975  -2.473  1.00  0.00    -0.377 OA
BRANCH  28  29
ATOM     29  C   UNL     1       4.108   0.350  -3.731  1.00  0.00     0.188 C 
BRANCH  29  30
ATOM     30  C   UNL     1       3.789  -1.145  -3.879  1.00  0.00     0.188 C 
BRANCH  30  31
ATOM     31  O   UNL     1       2.436  -1.338  -3.507  1.00  0.00    -0.376 OA
BRANCH  31  32
ATOM     32  C   UNL     1       2.122  -2.478  -2.739  1.00  0.00     0.202 C 
BRANCH  32  33
ATOM     33  C   UNL     1       1.556  -3.525  -3.679  1.00  0.00     0.261 C 
BRANCH  33  34
ATOM     34  O   UNL     1       0.421  -2.924  -4.350  1.00  0.00    -0.460 OA
BRANCH  34  35
ATOM     35  C   UNL     1       0.642  -2.645  -5.670  1.00  0.00     0.338 C 
ATOM     36  O   UNL     1       0.891  -3.504  -6.498  1.00  0.00    -0.246 OA
BRANCH  35  37
ATOM     37  C   UNL     1       0.628  -1.166  -5.931  1.00  0.00     0.060 A 
ATOM     38  C   UNL     1       1.255  -0.642  -7.071  1.00  0.00     0.016 A 
ATOM     39  C   UNL     1       0.169  -0.276  -4.971  1.00  0.00     0.016 A 
ATOM     40  C   UNL     1       1.591   0.733  -7.166  1.00  0.00     0.010 A 
ATOM     41  C   UNL     1       0.514   1.074  -5.069  1.00  0.00     0.010 A 
ATOM     42  C   UNL     1       1.295   1.603  -6.121  1.00  0.00    -0.014 A 
BRANCH  42  43
ATOM     43  C   UNL     1       1.828   3.003  -5.911  1.00  0.00     0.031 A 
ATOM     44  C   UNL     1       0.786   4.055  -5.470  1.00  0.00     0.074 A 
ATOM     45  C   UNL     1       3.183   3.107  -5.699  1.00  0.00     0.049 A 
ATOM     46  N   UNL     1       1.000   5.271  -5.067  1.00  0.00    -0.248 NA
ATOM     47  C   UNL     1      -0.664   3.766  -5.439  1.00  0.00     0.031 C 
ATOM     48  C   UNL     1       3.973   3.776  -4.657  1.00  0.00     0.029 A 
ATOM     49  N   UNL     1       4.228   2.539  -6.436  1.00  0.00    -0.354 N 
ATOM     50  C   UNL     1      -0.136   5.698  -4.329  1.00  0.00     0.074 A 
ATOM     51  C   UNL     1      -1.168   4.767  -4.704  1.00  0.00     0.031 C 
ATOM     52  C   UNL     1       5.286   3.759  -4.879  1.00  0.00     0.029 A 
ATOM     53  C   UNL     1       5.425   3.273  -6.193  1.00  0.00     0.049 A 
ATOM     54  H   UNL     1       4.149   1.757  -7.029  1.00  0.00     0.167 HD
ATOM     55  C   UNL     1      -0.028   6.652  -3.332  1.00  0.00     0.037 A 
ATOM     56  C   UNL     1       5.952   4.070  -7.158  1.00  0.00     0.037 A 
ATOM     57  C   UNL     1       1.314   7.288  -3.313  1.00  0.00     0.049 A 
ATOM     58  C   UNL     1       5.583   5.564  -7.019  1.00  0.00     0.074 A 
ATOM     59  C   UNL     1       2.173   7.817  -2.357  1.00  0.00     0.029 A 
ATOM     60  N   UNL     1       2.022   7.387  -4.502  1.00  0.00    -0.354 N 
ATOM     61  N   UNL     1       4.889   6.123  -6.043  1.00  0.00    -0.248 NA
ATOM     62  C   UNL     1       5.988   6.551  -8.015  1.00  0.00     0.031 C 
ATOM     63  C   UNL     1       3.403   8.180  -2.996  1.00  0.00     0.029 A 
ATOM     64  C   UNL     1       3.274   7.919  -4.347  1.00  0.00     0.049 A 
ATOM     65  H   UNL     1       1.659   7.103  -5.372  1.00  0.00     0.167 HD
ATOM     66  C   UNL     1       4.685   7.466  -6.309  1.00  0.00     0.074 A 
ATOM     67  C   UNL     1       5.394   7.668  -7.564  1.00  0.00     0.031 C 
ATOM     68  C   UNL     1       3.950   8.351  -5.553  1.00  0.00     0.037 A 
BRANCH  55  69
ATOM     69  C   UNL     1      -1.056   6.976  -2.193  1.00  0.00     0.058 A 
ATOM     70  C   UNL     1      -0.909   8.167  -1.431  1.00  0.00     0.135 A 
ATOM     71  C   UNL     1      -2.104   6.149  -1.715  1.00  0.00     0.135 A 
ATOM     72  F   UNL     1      -0.049   9.124  -1.806  1.00  0.00    -0.206 F 
ATOM     73  C   UNL     1      -1.641   8.467  -0.270  1.00  0.00     0.059 A 
ATOM     74  C   UNL     1      -2.909   6.469  -0.589  1.00  0.00     0.059 A 
ATOM     75  F   UNL     1      -2.397   4.984  -2.308  1.00  0.00    -0.206 F 
ATOM     76  C   UNL     1      -2.649   7.617   0.150  1.00  0.00     0.060 A 
BRANCH  76  77
ATOM     77  S   UNL     1      -3.646   8.104   1.587  1.00  0.00     0.124 S 
ATOM     78  O   UNL     1      -2.741   7.850   2.703  1.00  0.00    -0.237 OA
ATOM     79  O   UNL     1      -3.921   9.514   1.318  1.00  0.00    -0.237 OA
ATOM     80  O   UNL     1      -4.814   7.231   1.512  1.00  0.00    -0.744 OA
ENDBRANCH  76  77
ENDBRANCH  55  69
BRANCH  56  81
ATOM     81  C   UNL     1       6.246   3.156  -8.317  1.00  0.00     0.058 A 
ATOM     82  C   UNL     1       7.204   2.151  -7.990  1.00  0.00     0.135 A 
ATOM     83  C   UNL     1       5.158   2.754  -9.113  1.00  0.00     0.135 A 
ATOM     84  F   UNL     1       8.268   2.470  -7.231  1.00  0.00    -0.206 F 
ATOM     85  C   UNL     1       6.918   0.794  -8.140  1.00  0.00     0.059 A 
ATOM     86  C   UNL     1       4.866   1.392  -9.289  1.00  0.00     0.059 A 
ATOM     87  F   UNL     1       4.216   3.649  -9.444  1.00  0.00    -0.206 F 
ATOM     88  C   UNL     1       5.707   0.427  -8.723  1.00  0.00     0.060 A 
BRANCH  88  89
ATOM     89  S   UNL     1       5.128  -1.272  -8.451  1.00  0.00     0.124 S 
ATOM     90  O   UNL     1       6.063  -2.048  -9.254  1.00  0.00    -0.237 OA
ATOM     91  O   UNL     1       5.269  -1.399  -7.001  1.00  0.00    -0.237 OA
ATOM     92  O   UNL     1       3.755  -1.234  -8.937  1.00  0.00    -0.744 OA
ENDBRANCH  88  89
ENDBRANCH  56  81
BRANCH  68  93
ATOM     93  C   UNL     1       3.657   9.786  -5.953  1.00  0.00     0.058 A 
ATOM     94  C   UNL     1       4.628  10.643  -6.474  1.00  0.00     0.135 A 
ATOM     95  C   UNL     1       2.376  10.369  -5.737  1.00  0.00     0.135 A 
ATOM     96  F   UNL     1       5.909  10.255  -6.562  1.00  0.00    -0.206 F 
ATOM     97  C   UNL     1       4.315  11.931  -6.910  1.00  0.00     0.059 A 
ATOM     98  C   UNL     1       2.060  11.672  -6.098  1.00  0.00     0.059 A 
ATOM     99  F   UNL     1       1.361   9.688  -5.188  1.00  0.00    -0.206 F 
ATOM    100  C   UNL     1       3.023  12.426  -6.741  1.00  0.00     0.060 A 
BRANCH 100 101
ATOM    101  S   UNL     1       2.609  14.058  -7.372  1.00  0.00     0.124 S 
ATOM    102  O   UNL     1       3.779  14.844  -6.994  1.00  0.00    -0.237 OA
ATOM    103  O   UNL     1       2.466  13.784  -8.799  1.00  0.00    -0.237 OA
ATOM    104  O   UNL     1       1.376  14.399  -6.671  1.00  0.00    -0.744 OA
ENDBRANCH 100 101
ENDBRANCH  68  93
ENDBRANCH  42  43
ENDBRANCH  35  37
ENDBRANCH  34  35
ENDBRANCH  33  34
ENDBRANCH  32  33
ENDBRANCH  31  32
ENDBRANCH  30  31
ENDBRANCH  29  30
ENDBRANCH  28  29
ENDBRANCH  27  28
ENDBRANCH   1  27
TORSDOF 29
