REMARK SMILES O=C(OCCOCCOCCOCCOC(=O)c1cccc2cccc(C(=O)NC3COC3)c12)c1ccc(-c2c3nc(c(-c4c(F)cc(S(=O)(=O)[O-])cc4F)c4ccc([nH]4)c(-c4c(F)cc(S(=O)(=O)[O-])cc4F)c4nc(c(-c5c(F)cc(S(=O)(=O)[O-])cc5F)c5ccc2[nH]5)C=C4)C=C3)cc1
REMARK SMILES IDX 8 1 7 2 6 3 5 4 4 5 3 6 2 7 1 8 35 9 36 10 100 11 37 12
REMARK SMILES IDX 99 13 38 14 39 15 40 16 93 17 41 18 98 19 92 20 94 21 42 22
REMARK SMILES IDX 97 23 91 24 90 25 43 27 77 28 56 29 76 30 57 31 60 32 75 33
REMARK SMILES IDX 95 34 58 35 59 36 74 38 96 39 61 40 44 41 45 42 54 43 46 44
REMARK SMILES IDX 47 45 53 46 55 47 48 48 49 49 50 50 51 51 52 52 78 53 79 54
REMARK SMILES IDX 88 55 80 56 81 57 87 58 89 59 82 60 83 61 84 62 85 63 86 64
REMARK SMILES IDX 62 65 63 66 72 67 64 68 65 69 71 70 73 71 66 72 67 73 68 74
REMARK SMILES IDX 69 75 70 76 9 77 10 78 11 79 12 80 13 81 14 82 15 83 16 84
REMARK SMILES IDX 17 85 18 86 19 87 34 88 20 89 22 90 26 91 21 92 23 93 25 94
REMARK SMILES IDX 24 95 27 96 28 97 29 98 30 100 31 101 33 102 32 103
REMARK H PARENT 94 26 60 37 29 99
REMARK Flexibility Score: inf
ROOT
ATOM      1  C   UNL     1       2.396  -1.080  -1.707  1.00  0.00     0.188 C 
ENDROOT
BRANCH   1   2
ATOM      2  C   UNL     1       2.024  -0.331  -0.457  1.00  0.00     0.188 C 
BRANCH   2   3
ATOM      3  O   UNL     1       3.182  -0.059   0.292  1.00  0.00    -0.376 OA
BRANCH   3   4
ATOM      4  C   UNL     1       3.735  -1.096   1.077  1.00  0.00     0.202 C 
BRANCH   4   5
ATOM      5  C   UNL     1       3.974  -0.513   2.469  1.00  0.00     0.261 C 
BRANCH   5   6
ATOM      6  O   UNL     1       2.867   0.294   2.935  1.00  0.00    -0.460 OA
BRANCH   6   7
ATOM      7  C   UNL     1       2.309   1.372   2.318  1.00  0.00     0.338 C 
ATOM      8  O   UNL     1       1.099   1.556   2.469  1.00  0.00    -0.246 OA
BRANCH   7   9
ATOM      9  C   UNL     1       3.073   2.396   1.504  1.00  0.00     0.060 A 
ATOM     10  C   UNL     1       4.328   2.217   0.901  1.00  0.00     0.016 A 
ATOM     11  C   UNL     1       2.409   3.613   1.260  1.00  0.00     0.016 A 
ATOM     12  C   UNL     1       4.877   3.167   0.044  1.00  0.00     0.010 A 
ATOM     13  C   UNL     1       2.994   4.616   0.479  1.00  0.00     0.010 A 
ATOM     14  C   UNL     1       4.244   4.396  -0.108  1.00  0.00    -0.014 A 
BRANCH  14  15
ATOM     15  C   UNL     1       5.087   5.531  -0.520  1.00  0.00     0.031 A 
ATOM     16  C   UNL     1       5.832   6.220   0.590  1.00  0.00     0.074 A 
ATOM     17  C   UNL     1       5.265   5.851  -1.811  1.00  0.00     0.049 A 
ATOM     18  N   UNL     1       6.581   7.284   0.558  1.00  0.00    -0.248 NA
ATOM     19  C   UNL     1       5.723   5.604   1.929  1.00  0.00     0.031 C 
ATOM     20  C   UNL     1       4.696   5.130  -2.950  1.00  0.00     0.029 A 
ATOM     21  N   UNL     1       5.990   6.863  -2.381  1.00  0.00    -0.354 N 
ATOM     22  C   UNL     1       7.010   7.473   1.867  1.00  0.00     0.074 A 
ATOM     23  C   UNL     1       6.447   6.420   2.672  1.00  0.00     0.031 C 
ATOM     24  C   UNL     1       5.085   5.736  -4.088  1.00  0.00     0.029 A 
ATOM     25  C   UNL     1       5.878   6.916  -3.751  1.00  0.00     0.049 A 
ATOM     26  H   UNL     1       6.538   7.492  -1.860  1.00  0.00     0.167 HD
ATOM     27  C   UNL     1       7.795   8.459   2.353  1.00  0.00     0.037 A 
ATOM     28  C   UNL     1       6.335   7.848  -4.610  1.00  0.00     0.037 A 
ATOM     29  C   UNL     1       8.309   9.508   1.521  1.00  0.00     0.049 A 
ATOM     30  C   UNL     1       7.110   9.010  -4.033  1.00  0.00     0.074 A 
ATOM     31  C   UNL     1       9.047  10.616   1.882  1.00  0.00     0.029 A 
ATOM     32  N   UNL     1       8.119   9.572   0.145  1.00  0.00    -0.354 N 
ATOM     33  N   UNL     1       7.452   9.232  -2.782  1.00  0.00    -0.248 NA
ATOM     34  C   UNL     1       7.547  10.052  -4.969  1.00  0.00     0.031 C 
ATOM     35  C   UNL     1       9.258  11.380   0.729  1.00  0.00     0.029 A 
ATOM     36  C   UNL     1       8.709  10.713  -0.359  1.00  0.00     0.049 A 
ATOM     37  H   UNL     1       7.635   8.902  -0.390  1.00  0.00     0.167 HD
ATOM     38  C   UNL     1       8.166  10.425  -2.784  1.00  0.00     0.074 A 
ATOM     39  C   UNL     1       8.214  10.870  -4.165  1.00  0.00     0.031 C 
ATOM     40  C   UNL     1       8.733  11.098  -1.750  1.00  0.00     0.037 A 
BRANCH  27  41
ATOM     41  C   UNL     1       8.038   8.474   3.836  1.00  0.00     0.058 A 
ATOM     42  C   UNL     1       8.835   7.509   4.475  1.00  0.00     0.135 A 
ATOM     43  C   UNL     1       7.408   9.437   4.640  1.00  0.00     0.135 A 
ATOM     44  F   UNL     1       9.423   6.536   3.761  1.00  0.00    -0.206 F 
ATOM     45  C   UNL     1       8.976   7.483   5.860  1.00  0.00     0.059 A 
ATOM     46  C   UNL     1       7.558   9.447   6.024  1.00  0.00     0.059 A 
ATOM     47  F   UNL     1       6.613  10.365   4.086  1.00  0.00    -0.206 F 
ATOM     48  C   UNL     1       8.332   8.457   6.626  1.00  0.00     0.060 A 
BRANCH  48  49
ATOM     49  S   UNL     1       8.517   8.406   8.421  1.00  0.00     0.124 S 
ATOM     50  O   UNL     1       7.721   7.231   8.764  1.00  0.00    -0.237 OA
ATOM     51  O   UNL     1       9.960   8.261   8.580  1.00  0.00    -0.237 OA
ATOM     52  O   UNL     1       7.966   9.685   8.857  1.00  0.00    -0.744 OA
ENDBRANCH  48  49
ENDBRANCH  27  41
BRANCH  28  53
ATOM     53  C   UNL     1       6.025   7.759  -6.066  1.00  0.00     0.058 A 
ATOM     54  C   UNL     1       7.034   7.585  -7.026  1.00  0.00     0.135 A 
ATOM     55  C   UNL     1       4.702   7.851  -6.532  1.00  0.00     0.135 A 
ATOM     56  F   UNL     1       8.317   7.506  -6.643  1.00  0.00    -0.206 F 
ATOM     57  C   UNL     1       6.747   7.518  -8.389  1.00  0.00     0.059 A 
ATOM     58  C   UNL     1       4.387   7.758  -7.885  1.00  0.00     0.059 A 
ATOM     59  F   UNL     1       3.692   8.015  -5.663  1.00  0.00    -0.206 F 
ATOM     60  C   UNL     1       5.418   7.602  -8.809  1.00  0.00     0.060 A 
BRANCH  60  61
ATOM     61  S   UNL     1       5.049   7.478 -10.573  1.00  0.00     0.124 S 
ATOM     62  O   UNL     1       5.566   8.746 -11.073  1.00  0.00    -0.237 OA
ATOM     63  O   UNL     1       5.795   6.285 -10.960  1.00  0.00    -0.237 OA
ATOM     64  O   UNL     1       3.596   7.335 -10.604  1.00  0.00    -0.744 OA
ENDBRANCH  60  61
ENDBRANCH  28  53
BRANCH  40  65
ATOM     65  C   UNL     1       9.487  12.352  -2.082  1.00  0.00     0.058 A 
ATOM     66  C   UNL     1       8.828  13.538  -2.435  1.00  0.00     0.135 A 
ATOM     67  C   UNL     1      10.886  12.382  -1.955  1.00  0.00     0.135 A 
ATOM     68  F   UNL     1       7.492  13.556  -2.570  1.00  0.00    -0.206 F 
ATOM     69  C   UNL     1       9.534  14.711  -2.672  1.00  0.00     0.059 A 
ATOM     70  C   UNL     1      11.607  13.551  -2.154  1.00  0.00     0.059 A 
ATOM     71  F   UNL     1      11.557  11.275  -1.601  1.00  0.00    -0.206 F 
ATOM     72  C   UNL     1      10.923  14.708  -2.523  1.00  0.00     0.060 A 
BRANCH  72  73
ATOM     73  S   UNL     1      11.820  16.250  -2.785  1.00  0.00     0.124 S 
ATOM     74  O   UNL     1      11.752  16.385  -4.236  1.00  0.00    -0.237 OA
ATOM     75  O   UNL     1      11.027  17.206  -2.020  1.00  0.00    -0.237 OA
ATOM     76  O   UNL     1      13.146  15.968  -2.242  1.00  0.00    -0.744 OA
ENDBRANCH  72  73
ENDBRANCH  40  65
ENDBRANCH  14  15
ENDBRANCH   7   9
ENDBRANCH   6   7
ENDBRANCH   5   6
ENDBRANCH   4   5
ENDBRANCH   3   4
ENDBRANCH   2   3
ENDBRANCH   1   2
BRANCH   1  77
ATOM     77  O   UNL     1       3.806  -1.235  -1.866  1.00  0.00    -0.377 OA
BRANCH  77  78
ATOM     78  C   UNL     1       4.602  -0.102  -2.231  1.00  0.00     0.188 C 
BRANCH  78  79
ATOM     79  C   UNL     1       4.186   0.680  -3.502  1.00  0.00     0.188 C 
BRANCH  79  80
ATOM     80  O   UNL     1       4.500  -0.024  -4.721  1.00  0.00    -0.376 OA
BRANCH  80  81
ATOM     81  C   UNL     1       3.438  -0.232  -5.662  1.00  0.00     0.202 C 
BRANCH  81  82
ATOM     82  C   UNL     1       3.887  -1.134  -6.874  1.00  0.00     0.261 C 
BRANCH  82  83
ATOM     83  O   UNL     1       4.233  -2.527  -6.538  1.00  0.00    -0.460 OA
BRANCH  83  84
ATOM     84  C   UNL     1       5.501  -3.022  -6.781  1.00  0.00     0.338 C 
ATOM     85  O   UNL     1       6.370  -2.453  -7.401  1.00  0.00    -0.246 OA
BRANCH  84  86
ATOM     86  C   UNL     1       5.723  -4.410  -6.154  1.00  0.00     0.068 A 
ATOM     87  C   UNL     1       5.049  -5.483  -6.738  1.00  0.00     0.016 A 
ATOM     88  C   UNL     1       6.541  -4.660  -4.974  1.00  0.00     0.009 A 
ATOM     89  C   UNL     1       5.149  -6.757  -6.171  1.00  0.00     0.002 A 
ATOM     90  C   UNL     1       6.730  -5.975  -4.493  1.00  0.00    -0.017 A 
ATOM     91  C   UNL     1       7.077  -3.690  -4.104  1.00  0.00     0.048 A 
ATOM     92  C   UNL     1       6.000  -7.003  -5.089  1.00  0.00     0.009 A 
ATOM     93  C   UNL     1       7.544  -6.239  -3.356  1.00  0.00     0.009 A 
ATOM     94  C   UNL     1       7.918  -3.919  -3.003  1.00  0.00     0.014 A 
ATOM     95  C   UNL     1       8.169  -5.220  -2.636  1.00  0.00     0.001 A 
BRANCH  91  96
ATOM     96  C   UNL     1       6.451  -2.403  -4.125  1.00  0.00     0.252 C 
ATOM     97  O   UNL     1       7.143  -1.398  -4.194  1.00  0.00    -0.269 OA
ATOM     98  N   UNL     1       5.085  -2.378  -4.120  1.00  0.00    -0.345 N 
ATOM     99  H   UNL     1       4.770  -1.543  -4.536  1.00  0.00     0.164 HD
BRANCH  98 100
ATOM    100  C   UNL     1       3.921  -3.189  -3.698  1.00  0.00     0.134 C 
ATOM    101  C   UNL     1       4.015  -4.337  -2.720  1.00  0.00     0.187 C 
ATOM    102  C   UNL     1       2.989  -4.079  -4.496  1.00  0.00     0.187 C 
ATOM    103  O   UNL     1       3.084  -5.133  -3.505  1.00  0.00    -0.377 OA
ENDBRANCH  98 100
ENDBRANCH  91  96
ENDBRANCH  84  86
ENDBRANCH  83  84
ENDBRANCH  82  83
ENDBRANCH  81  82
ENDBRANCH  80  81
ENDBRANCH  79  80
ENDBRANCH  78  79
ENDBRANCH  77  78
ENDBRANCH   1  77
TORSDOF 25
