REMARK SMILES CC(C)N1C[C@@H](C(=O)N2CCC(C(=O)OCCOCCOCCOCCOC(=O)c3ccc(-c4c5nc(c(-c6c(F)cc(S(=O)(=O)[O-])cc6F)c6ccc([nH]6)c(-c6c(F)cc(S(=O)(=O)[O-])cc6F)c6nc(c(-c7c(F)cc(S(=O)(=O)[O-])cc7F)c7ccc4[nH]7)C=C6)C=C5)cc3)CC2)CC1=O
REMARK SMILES IDX 22 1 21 2 20 3 19 4 18 5 17 6 16 7 15 8 13 9 14 10 12 11
REMARK SMILES IDX 7 12 8 13 9 14 10 15 97 16 11 17 96 18 6 19 4 20 5 21 99 22
REMARK SMILES IDX 98 23 100 24 2 25 1 26 3 27 23 28 24 29 25 30 26 31 27 32
REMARK SMILES IDX 28 33 29 34 30 35 31 36 95 37 32 38 94 39 33 40 34 41 35 42
REMARK SMILES IDX 88 43 36 44 93 45 87 46 89 47 37 48 92 49 86 50 85 51 38 53
REMARK SMILES IDX 72 54 51 55 71 56 52 57 55 58 70 59 90 60 53 61 54 62 69 64
REMARK SMILES IDX 91 65 56 66 39 67 40 68 49 69 41 70 42 71 48 72 50 73 43 74
REMARK SMILES IDX 44 75 45 76 46 77 47 78 73 79 74 80 83 81 75 82 76 83 82 84
REMARK SMILES IDX 84 85 77 86 78 87 79 88 80 89 81 90 57 91 58 92 67 93 59 94
REMARK SMILES IDX 60 95 66 96 68 97 61 98 62 99 63 100 64 101 65 102
REMARK H PARENT 89 52 55 63
REMARK Flexibility Score: inf
ROOT
ATOM      1  C   UNL     1      -9.391  -4.067   3.481  1.00  0.00     0.188 C 
ENDROOT
BRANCH   1   2
ATOM      2  O   UNL     1      -8.440  -3.027   3.692  1.00  0.00    -0.377 OA
BRANCH   2   3
ATOM      3  C   UNL     1      -7.565  -3.137   4.794  1.00  0.00     0.188 C 
BRANCH   3   4
ATOM      4  C   UNL     1      -8.019  -2.436   6.079  1.00  0.00     0.188 C 
BRANCH   4   5
ATOM      5  O   UNL     1      -9.364  -2.043   6.284  1.00  0.00    -0.376 OA
BRANCH   5   6
ATOM      6  C   UNL     1     -10.126  -1.382   5.284  1.00  0.00     0.202 C 
BRANCH   6   7
ATOM      7  C   UNL     1      -9.590  -0.217   4.437  1.00  0.00     0.261 C 
BRANCH   7   8
ATOM      8  O   UNL     1      -8.355  -0.437   3.741  1.00  0.00    -0.463 OA
BRANCH   8   9
ATOM      9  C   UNL     1      -7.269   0.131   4.300  1.00  0.00     0.309 C 
ATOM     10  O   UNL     1      -7.280   0.787   5.339  1.00  0.00    -0.252 OA
BRANCH   9  11
ATOM     11  C   UNL     1      -5.988  -0.058   3.520  1.00  0.00     0.103 C 
ATOM     12  C   UNL     1      -4.160   0.277  -0.068  1.00  0.00     0.227 C 
ATOM     13  O   UNL     1      -4.835  -0.494  -0.758  1.00  0.00    -0.274 OA
ATOM     14  N   UNL     1      -4.157   0.169   1.311  1.00  0.00    -0.342 N 
ATOM     15  C   UNL     1      -4.467  -1.137   1.873  1.00  0.00     0.120 C 
ATOM     16  C   UNL     1      -4.287   1.278   2.248  1.00  0.00     0.120 C 
ATOM     17  C   UNL     1      -5.877  -1.157   2.452  1.00  0.00     0.037 C 
ATOM     18  C   UNL     1      -5.677   1.290   2.872  1.00  0.00     0.037 C 
BRANCH  12  19
ATOM     19  C   UNL     1      -3.094   1.110  -0.760  1.00  0.00     0.107 C 
ATOM     20  N   UNL     1      -0.824   1.621  -0.406  1.00  0.00    -0.339 N 
ATOM     21  C   UNL     1      -1.736   0.509  -0.425  1.00  0.00     0.133 C 
ATOM     22  C   UNL     1      -1.475   2.841  -0.435  1.00  0.00     0.223 C 
ATOM     23  C   UNL     1      -2.957   2.607  -0.540  1.00  0.00     0.115 C 
ATOM     24  O   UNL     1      -0.948   3.942  -0.374  1.00  0.00    -0.275 OA
BRANCH  20  25
ATOM     25  C   UNL     1       0.632   1.488  -0.356  1.00  0.00     0.078 C 
ATOM     26  C   UNL     1       1.115   0.104   0.084  1.00  0.00     0.031 C 
ATOM     27  C   UNL     1       1.236   1.848  -1.714  1.00  0.00     0.031 C 
ENDBRANCH  20  25
ENDBRANCH  12  19
ENDBRANCH   9  11
ENDBRANCH   8   9
ENDBRANCH   7   8
ENDBRANCH   6   7
ENDBRANCH   5   6
ENDBRANCH   4   5
ENDBRANCH   3   4
ENDBRANCH   2   3
ENDBRANCH   1   2
BRANCH   1  28
ATOM     28  C   UNL     1      -9.850  -4.903   4.692  1.00  0.00     0.188 C 
BRANCH  28  29
ATOM     29  O   UNL     1      -8.790  -5.388   5.504  1.00  0.00    -0.376 OA
BRANCH  29  30
ATOM     30  C   UNL     1      -8.249  -6.674   5.239  1.00  0.00     0.202 C 
BRANCH  30  31
ATOM     31  C   UNL     1      -7.630  -6.947   3.857  1.00  0.00     0.261 C 
BRANCH  31  32
ATOM     32  O   UNL     1      -8.497  -6.822   2.718  1.00  0.00    -0.460 OA
BRANCH  32  33
ATOM     33  C   UNL     1      -9.649  -7.522   2.709  1.00  0.00     0.338 C 
ATOM     34  O   UNL     1     -10.019  -8.335   3.541  1.00  0.00    -0.246 OA
BRANCH  33  35
ATOM     35  C   UNL     1     -10.495  -6.983   1.625  1.00  0.00     0.060 A 
ATOM     36  C   UNL     1     -11.751  -6.450   1.946  1.00  0.00     0.016 A 
ATOM     37  C   UNL     1     -10.058  -7.011   0.299  1.00  0.00     0.016 A 
ATOM     38  C   UNL     1     -12.591  -5.984   0.937  1.00  0.00     0.010 A 
ATOM     39  C   UNL     1     -10.911  -6.565  -0.715  1.00  0.00     0.010 A 
ATOM     40  C   UNL     1     -12.196  -6.086  -0.403  1.00  0.00    -0.014 A 
BRANCH  40  41
ATOM     41  C   UNL     1     -13.199  -5.896  -1.479  1.00  0.00     0.031 A 
ATOM     42  C   UNL     1     -13.845  -7.120  -2.071  1.00  0.00     0.074 A 
ATOM     43  C   UNL     1     -13.555  -4.670  -1.900  1.00  0.00     0.049 A 
ATOM     44  N   UNL     1     -14.701  -7.216  -3.054  1.00  0.00    -0.248 NA
ATOM     45  C   UNL     1     -13.473  -8.412  -1.469  1.00  0.00     0.031 C 
ATOM     46  C   UNL     1     -13.044  -3.410  -1.365  1.00  0.00     0.029 A 
ATOM     47  N   UNL     1     -14.433  -4.287  -2.884  1.00  0.00    -0.354 N 
ATOM     48  C   UNL     1     -14.966  -8.573  -3.192  1.00  0.00     0.074 A 
ATOM     49  C   UNL     1     -14.155  -9.267  -2.217  1.00  0.00     0.031 C 
ATOM     50  C   UNL     1     -13.611  -2.391  -2.034  1.00  0.00     0.029 A 
ATOM     51  C   UNL     1     -14.495  -2.926  -3.069  1.00  0.00     0.049 A 
ATOM     52  H   UNL     1     -14.967  -4.927  -3.408  1.00  0.00     0.167 HD
ATOM     53  C   UNL     1     -15.819  -9.186  -4.048  1.00  0.00     0.037 A 
ATOM     54  C   UNL     1     -15.169  -2.201  -3.985  1.00  0.00     0.037 A 
ATOM     55  C   UNL     1     -16.618  -8.489  -5.021  1.00  0.00     0.049 A 
ATOM     56  C   UNL     1     -16.043  -2.911  -4.989  1.00  0.00     0.074 A 
ATOM     57  C   UNL     1     -17.508  -9.017  -5.939  1.00  0.00     0.029 A 
ATOM     58  N   UNL     1     -16.620  -7.114  -5.207  1.00  0.00    -0.354 N 
ATOM     59  N   UNL     1     -16.284  -4.195  -5.114  1.00  0.00    -0.248 NA
ATOM     60  C   UNL     1     -16.738  -2.073  -5.977  1.00  0.00     0.031 C 
ATOM     61  C   UNL     1     -18.007  -7.967  -6.717  1.00  0.00     0.029 A 
ATOM     62  C   UNL     1     -17.479  -6.777  -6.240  1.00  0.00     0.049 A 
ATOM     63  H   UNL     1     -16.090  -6.472  -4.682  1.00  0.00     0.167 HD
ATOM     64  C   UNL     1     -17.183  -4.315  -6.170  1.00  0.00     0.074 A 
ATOM     65  C   UNL     1     -17.449  -2.972  -6.644  1.00  0.00     0.031 C 
ATOM     66  C   UNL     1     -17.742  -5.434  -6.696  1.00  0.00     0.037 A 
BRANCH  53  67
ATOM     67  C   UNL     1     -15.912 -10.686  -3.985  1.00  0.00     0.058 A 
ATOM     68  C   UNL     1     -16.510 -11.346  -2.900  1.00  0.00     0.135 A 
ATOM     69  C   UNL     1     -15.429 -11.474  -5.043  1.00  0.00     0.135 A 
ATOM     70  F   UNL     1     -16.968 -10.645  -1.851  1.00  0.00    -0.206 F 
ATOM     71  C   UNL     1     -16.608 -12.733  -2.856  1.00  0.00     0.059 A 
ATOM     72  C   UNL     1     -15.544 -12.860  -5.035  1.00  0.00     0.059 A 
ATOM     73  F   UNL     1     -14.841 -10.896  -6.103  1.00  0.00    -0.206 F 
ATOM     74  C   UNL     1     -16.125 -13.482  -3.931  1.00  0.00     0.060 A 
BRANCH  74  75
ATOM     75  S   UNL     1     -16.277 -15.279  -3.865  1.00  0.00     0.124 S 
ATOM     76  O   UNL     1     -15.311 -15.616  -2.824  1.00  0.00    -0.237 OA
ATOM     77  O   UNL     1     -17.681 -15.459  -3.508  1.00  0.00    -0.237 OA
ATOM     78  O   UNL     1     -15.917 -15.702  -5.215  1.00  0.00    -0.744 OA
ENDBRANCH  74  75
ENDBRANCH  53  67
BRANCH  54  79
ATOM     79  C   UNL     1     -15.044  -0.718  -3.999  1.00  0.00     0.058 A 
ATOM     80  C   UNL     1     -16.128   0.103  -3.657  1.00  0.00     0.135 A 
ATOM     81  C   UNL     1     -13.837  -0.092  -4.349  1.00  0.00     0.135 A 
ATOM     82  F   UNL     1     -17.309  -0.445  -3.332  1.00  0.00    -0.206 F 
ATOM     83  C   UNL     1     -16.025   1.491  -3.668  1.00  0.00     0.059 A 
ATOM     84  C   UNL     1     -13.700   1.293  -4.339  1.00  0.00     0.059 A 
ATOM     85  F   UNL     1     -12.767  -0.832  -4.680  1.00  0.00    -0.206 F 
ATOM     86  C   UNL     1     -14.802   2.076  -4.002  1.00  0.00     0.060 A 
BRANCH  86  87
ATOM     87  S   UNL     1     -14.663   3.876  -3.946  1.00  0.00     0.124 S 
ATOM     88  O   UNL     1     -15.480   4.271  -5.088  1.00  0.00    -0.237 OA
ATOM     89  O   UNL     1     -15.214   4.182  -2.630  1.00  0.00    -0.237 OA
ATOM     90  O   UNL     1     -13.228   4.107  -4.086  1.00  0.00    -0.744 OA
ENDBRANCH  86  87
ENDBRANCH  54  79
BRANCH  66  91
ATOM     91  C   UNL     1     -18.734  -5.262  -7.816  1.00  0.00     0.058 A 
ATOM     92  C   UNL     1     -18.341  -4.867  -9.104  1.00  0.00     0.135 A 
ATOM     93  C   UNL     1     -20.093  -5.559  -7.610  1.00  0.00     0.135 A 
ATOM     94  F   UNL     1     -17.058  -4.567  -9.358  1.00  0.00    -0.206 F 
ATOM     95  C   UNL     1     -19.262  -4.749 -10.141  1.00  0.00     0.059 A 
ATOM     96  C   UNL     1     -21.025  -5.479  -8.640  1.00  0.00     0.059 A 
ATOM     97  F   UNL     1     -20.523  -5.954  -6.401  1.00  0.00    -0.206 F 
ATOM     98  C   UNL     1     -20.602  -5.061  -9.900  1.00  0.00     0.060 A 
BRANCH  98  99
ATOM     99  S   UNL     1     -21.778  -4.937 -11.264  1.00  0.00     0.124 S 
ATOM    100  O   UNL     1     -21.881  -3.491 -11.434  1.00  0.00    -0.237 OA
ATOM    101  O   UNL     1     -21.091  -5.654 -12.334  1.00  0.00    -0.237 OA
ATOM    102  O   UNL     1     -22.974  -5.594 -10.745  1.00  0.00    -0.744 OA
ENDBRANCH  98  99
ENDBRANCH  66  91
ENDBRANCH  40  41
ENDBRANCH  33  35
ENDBRANCH  32  33
ENDBRANCH  31  32
ENDBRANCH  30  31
ENDBRANCH  29  30
ENDBRANCH  28  29
ENDBRANCH   1  28
TORSDOF 25
