REMARK SMILES CC(=O)Nc1cnc(N2CC=C(c3ccccc3C)CC2)c(C(=O)OCCOCCOCCOCCOC(=O)c2ccc(-c3c4nc(c(-c5c(F)cc(S(=O)(=O)[O-])cc5F)c5ccc([nH]5)c(-c5c(F)cc(S(=O)(=O)[O-])cc5F)c5nc(c(-c6c(F)cc(S(=O)(=O)[O-])cc6F)c6ccc3[nH]6)C=C5)C=C4)cc2)c1
REMARK SMILES IDX 32 1 31 2 30 3 29 4 28 5 27 6 26 7 25 8 23 9 24 10 22 11
REMARK SMILES IDX 5 12 6 13 106 14 7 15 8 16 4 17 1 18 2 19 3 20 9 22 10 23
REMARK SMILES IDX 21 24 11 25 20 26 12 27 13 28 14 29 18 30 15 31 17 32 19 33
REMARK SMILES IDX 16 34 33 35 34 36 35 37 36 38 37 39 38 40 39 41 40 42 41 43
REMARK SMILES IDX 105 44 42 45 104 46 43 47 44 48 45 49 98 50 46 51 103 52
REMARK SMILES IDX 97 53 99 54 47 55 102 56 96 57 95 58 48 60 82 61 61 62 81 63
REMARK SMILES IDX 62 64 65 65 80 66 100 67 63 68 64 69 79 71 101 72 66 73
REMARK SMILES IDX 49 74 50 75 59 76 51 77 52 78 58 79 60 80 53 81 54 82 55 83
REMARK SMILES IDX 56 84 57 85 83 86 84 87 93 88 85 89 86 90 92 91 94 92 87 93
REMARK SMILES IDX 88 94 89 95 90 96 91 97 67 98 68 99 77 100 69 101 70 102
REMARK SMILES IDX 76 103 78 104 71 105 72 106 73 107 74 108 75 109
REMARK H PARENT 4 21 99 59 65 70
REMARK Flexibility Score: inf
ROOT
ATOM      1  C   UNL     1       6.906   2.440   0.014  1.00  0.00     0.188 C 
ENDROOT
BRANCH   1   2
ATOM      2  O   UNL     1       5.579   2.504   0.526  1.00  0.00    -0.377 OA
BRANCH   2   3
ATOM      3  C   UNL     1       5.271   3.622   1.307  1.00  0.00     0.188 C 
BRANCH   3   4
ATOM      4  C   UNL     1       5.388   3.543   2.825  1.00  0.00     0.188 C 
BRANCH   4   5
ATOM      5  O   UNL     1       6.395   3.005   3.663  1.00  0.00    -0.376 OA
BRANCH   5   6
ATOM      6  C   UNL     1       6.373   1.612   3.941  1.00  0.00     0.202 C 
BRANCH   6   7
ATOM      7  C   UNL     1       5.159   0.903   4.578  1.00  0.00     0.261 C 
BRANCH   7   8
ATOM      8  O   UNL     1       3.945   1.260   3.933  1.00  0.00    -0.460 OA
BRANCH   8   9
ATOM      9  C   UNL     1       2.867   1.329   4.719  1.00  0.00     0.342 C 
ATOM     10  O   UNL     1       2.698   0.872   5.843  1.00  0.00    -0.246 OA
BRANCH   9  11
ATOM     11  C   UNL     1       2.011   2.307   4.082  1.00  0.00     0.104 A 
ATOM     12  C   UNL     1       0.911   2.971   2.046  1.00  0.00     0.060 A 
ATOM     13  C   UNL     1       0.781   4.213   2.663  1.00  0.00     0.139 A 
ATOM     14  C   UNL     1       1.564   2.006   2.780  1.00  0.00     0.047 A 
ATOM     15  N   UNL     1       1.240   4.538   3.908  1.00  0.00    -0.236 NA
ATOM     16  C   UNL     1       1.879   3.592   4.638  1.00  0.00     0.143 A 
BRANCH  12  17
ATOM     17  N   UNL     1       0.454   2.799   0.726  1.00  0.00    -0.325 N 
ATOM     18  C   UNL     1       0.033   0.333   0.669  1.00  0.00     0.114 C 
ATOM     19  C   UNL     1       0.133   1.680   0.006  1.00  0.00     0.221 C 
ATOM     20  O   UNL     1      -0.173   1.819  -1.181  1.00  0.00    -0.275 OA
ATOM     21  H   UNL     1       0.344   3.641   0.228  1.00  0.00     0.169 HD
ENDBRANCH  12  17
BRANCH  16  22
ATOM     22  N   UNL     1       2.631   4.063   5.728  1.00  0.00    -0.352 N 
ATOM     23  C   UNL     1       2.356   3.578   7.079  1.00  0.00     0.146 C 
ATOM     24  C   UNL     1       4.032   4.212   5.362  1.00  0.00     0.123 C 
ATOM     25  C   UNL     1       3.409   4.046   8.057  1.00  0.00    -0.002 C 
ATOM     26  C   UNL     1       4.922   4.956   6.316  1.00  0.00     0.057 C 
ATOM     27  C   UNL     1       4.541   4.694   7.730  1.00  0.00    -0.041 C 
BRANCH  27  28
ATOM     28  C   UNL     1       5.415   5.291   8.743  1.00  0.00    -0.020 A 
ATOM     29  C   UNL     1       6.181   4.467   9.580  1.00  0.00     0.008 A 
ATOM     30  C   UNL     1       5.482   6.695   8.880  1.00  0.00    -0.044 A 
ATOM     31  C   UNL     1       7.002   5.031  10.556  1.00  0.00     0.001 A 
ATOM     32  C   UNL     1       6.326   7.242   9.854  1.00  0.00     0.004 A 
ATOM     33  C   UNL     1       4.712   7.633   7.986  1.00  0.00     0.045 C 
ATOM     34  C   UNL     1       7.070   6.415  10.694  1.00  0.00     0.000 A 
ENDBRANCH  27  28
ENDBRANCH  16  22
ENDBRANCH   9  11
ENDBRANCH   8   9
ENDBRANCH   7   8
ENDBRANCH   6   7
ENDBRANCH   5   6
ENDBRANCH   4   5
ENDBRANCH   3   4
ENDBRANCH   2   3
ENDBRANCH   1   2
BRANCH   1  35
ATOM     35  C   UNL     1       7.777   3.687   0.029  1.00  0.00     0.188 C 
BRANCH  35  36
ATOM     36  O   UNL     1       8.076   3.956   1.402  1.00  0.00    -0.376 OA
BRANCH  36  37
ATOM     37  C   UNL     1       8.636   5.224   1.687  1.00  0.00     0.202 C 
BRANCH  37  38
ATOM     38  C   UNL     1       9.945   5.487   0.939  1.00  0.00     0.261 C 
BRANCH  38  39
ATOM     39  O   UNL     1      10.978   4.605   1.431  1.00  0.00    -0.460 OA
BRANCH  39  40
ATOM     40  C   UNL     1      11.358   3.602   0.584  1.00  0.00     0.338 C 
ATOM     41  O   UNL     1      12.025   3.781  -0.419  1.00  0.00    -0.246 OA
BRANCH  40  42
ATOM     42  C   UNL     1      10.835   2.285   1.063  1.00  0.00     0.060 A 
ATOM     43  C   UNL     1      10.746   1.159   0.226  1.00  0.00     0.016 A 
ATOM     44  C   UNL     1      10.243   2.225   2.308  1.00  0.00     0.016 A 
ATOM     45  C   UNL     1       9.910   0.058   0.554  1.00  0.00     0.010 A 
ATOM     46  C   UNL     1       9.405   1.167   2.600  1.00  0.00     0.010 A 
ATOM     47  C   UNL     1       9.165   0.083   1.729  1.00  0.00    -0.014 A 
BRANCH  47  48
ATOM     48  C   UNL     1       8.020  -0.808   2.127  1.00  0.00     0.031 A 
ATOM     49  C   UNL     1       7.965  -1.218   3.598  1.00  0.00     0.074 A 
ATOM     50  C   UNL     1       6.891  -0.784   1.352  1.00  0.00     0.049 A 
ATOM     51  N   UNL     1       6.949  -1.695   4.237  1.00  0.00    -0.248 NA
ATOM     52  C   UNL     1       9.121  -1.082   4.496  1.00  0.00     0.031 C 
ATOM     53  C   UNL     1       5.511  -0.517   1.762  1.00  0.00     0.029 A 
ATOM     54  N   UNL     1       6.732  -0.783  -0.025  1.00  0.00    -0.354 N 
ATOM     55  C   UNL     1       7.196  -1.649   5.617  1.00  0.00     0.074 A 
ATOM     56  C   UNL     1       8.591  -1.306   5.706  1.00  0.00     0.031 C 
ATOM     57  C   UNL     1       4.641  -0.527   0.755  1.00  0.00     0.029 A 
ATOM     58  C   UNL     1       5.370  -0.987  -0.364  1.00  0.00     0.049 A 
ATOM     59  H   UNL     1       7.460  -0.659  -0.676  1.00  0.00     0.167 HD
ATOM     60  C   UNL     1       6.159  -1.803   6.515  1.00  0.00     0.037 A 
ATOM     61  C   UNL     1       4.987  -2.088  -1.054  1.00  0.00     0.037 A 
ATOM     62  C   UNL     1       4.916  -2.224   5.812  1.00  0.00     0.049 A 
ATOM     63  C   UNL     1       4.456  -3.188  -0.108  1.00  0.00     0.074 A 
ATOM     64  C   UNL     1       3.579  -1.877   5.857  1.00  0.00     0.029 A 
ATOM     65  N   UNL     1       4.998  -3.114   4.741  1.00  0.00    -0.354 N 
ATOM     66  N   UNL     1       4.329  -3.048   1.202  1.00  0.00    -0.248 NA
ATOM     67  C   UNL     1       3.994  -4.509  -0.527  1.00  0.00     0.031 C 
ATOM     68  C   UNL     1       2.901  -2.476   4.752  1.00  0.00     0.029 A 
ATOM     69  C   UNL     1       3.802  -3.284   4.083  1.00  0.00     0.049 A 
ATOM     70  H   UNL     1       5.829  -3.575   4.482  1.00  0.00     0.167 HD
ATOM     71  C   UNL     1       3.874  -4.201   1.788  1.00  0.00     0.074 A 
ATOM     72  C   UNL     1       3.697  -5.095   0.651  1.00  0.00     0.031 C 
ATOM     73  C   UNL     1       3.669  -4.381   3.137  1.00  0.00     0.037 A 
BRANCH  60  74
ATOM     74  C   UNL     1       6.150  -1.436   8.043  1.00  0.00     0.058 A 
ATOM     75  C   UNL     1       5.002  -1.689   8.845  1.00  0.00     0.135 A 
ATOM     76  C   UNL     1       7.169  -0.769   8.770  1.00  0.00     0.135 A 
ATOM     77  F   UNL     1       3.969  -2.403   8.380  1.00  0.00    -0.206 F 
ATOM     78  C   UNL     1       4.845  -1.263  10.178  1.00  0.00     0.059 A 
ATOM     79  C   UNL     1       7.061  -0.389  10.131  1.00  0.00     0.059 A 
ATOM     80  F   UNL     1       8.330  -0.426   8.206  1.00  0.00    -0.206 F 
ATOM     81  C   UNL     1       5.883  -0.617  10.824  1.00  0.00     0.060 A 
BRANCH  81  82
ATOM     82  S   UNL     1       5.690  -0.160  12.566  1.00  0.00     0.124 S 
ATOM     83  O   UNL     1       4.706   0.915  12.497  1.00  0.00    -0.237 OA
ATOM     84  O   UNL     1       5.225  -1.405  13.169  1.00  0.00    -0.237 OA
ATOM     85  O   UNL     1       7.034   0.254  12.962  1.00  0.00    -0.744 OA
ENDBRANCH  81  82
ENDBRANCH  60  74
BRANCH  61  86
ATOM     86  C   UNL     1       5.703  -1.972  -2.383  1.00  0.00     0.058 A 
ATOM     87  C   UNL     1       5.266  -0.833  -3.132  1.00  0.00     0.135 A 
ATOM     88  C   UNL     1       7.090  -2.218  -2.412  1.00  0.00     0.135 A 
ATOM     89  F   UNL     1       3.955  -0.531  -3.164  1.00  0.00    -0.206 F 
ATOM     90  C   UNL     1       6.153   0.155  -3.587  1.00  0.00     0.059 A 
ATOM     91  C   UNL     1       7.995  -1.235  -2.866  1.00  0.00     0.059 A 
ATOM     92  F   UNL     1       7.590  -3.257  -1.726  1.00  0.00    -0.206 F 
ATOM     93  C   UNL     1       7.518  -0.026  -3.391  1.00  0.00     0.060 A 
BRANCH  93  94
ATOM     94  S   UNL     1       8.636   1.404  -3.576  1.00  0.00     0.124 S 
ATOM     95  O   UNL     1       8.972   1.349  -4.991  1.00  0.00    -0.237 OA
ATOM     96  O   UNL     1       7.810   2.536  -3.162  1.00  0.00    -0.237 OA
ATOM     97  O   UNL     1       9.714   1.078  -2.651  1.00  0.00    -0.744 OA
ENDBRANCH  93  94
ENDBRANCH  61  86
BRANCH  73  98
ATOM     98  C   UNL     1       3.342  -5.718   3.754  1.00  0.00     0.058 A 
ATOM     99  C   UNL     1       2.355  -6.566   3.248  1.00  0.00     0.135 A 
ATOM    100  C   UNL     1       3.999  -6.160   4.933  1.00  0.00     0.135 A 
ATOM    101  F   UNL     1       1.561  -6.168   2.242  1.00  0.00    -0.206 F 
ATOM    102  C   UNL     1       2.166  -7.850   3.755  1.00  0.00     0.059 A 
ATOM    103  C   UNL     1       3.770  -7.403   5.503  1.00  0.00     0.059 A 
ATOM    104  F   UNL     1       4.931  -5.422   5.552  1.00  0.00    -0.206 F 
ATOM    105  C   UNL     1       2.906  -8.270   4.859  1.00  0.00     0.060 A 
BRANCH 105 106
ATOM    106  S   UNL     1       2.781  -9.974   5.417  1.00  0.00     0.124 S 
ATOM    107  O   UNL     1       1.352 -10.244   5.290  1.00  0.00    -0.237 OA
ATOM    108  O   UNL     1       3.641 -10.652   4.452  1.00  0.00    -0.237 OA
ATOM    109  O   UNL     1       3.287  -9.926   6.785  1.00  0.00    -0.744 OA
ENDBRANCH 105 106
ENDBRANCH  73  98
ENDBRANCH  47  48
ENDBRANCH  40  42
ENDBRANCH  39  40
ENDBRANCH  38  39
ENDBRANCH  37  38
ENDBRANCH  36  37
ENDBRANCH  35  36
ENDBRANCH   1  35
TORSDOF 26
