REMARK SMILES CCc1ccc(S(=O)(=O)N2CCC3(CC2)NC(=O)C[C@H]3C(=O)OCCOCCOCCOCCOC(=O)c2ccc(-c3c4nc(c(-c5c(F)cc(S(=O)(=O)[O-])cc5F)c5ccc([nH]5)c(-c5c(F)cc(S(=O)(=O)[O-])cc5F)c5nc(c(-c6c(F)cc(S(=O)(=O)[O-])cc6F)c6ccc3[nH]6)C=C5)C=C4)cc2)s1
REMARK SMILES IDX 29 1 28 2 27 3 26 4 25 5 24 6 23 7 21 8 22 9 20 10 10 11
REMARK SMILES IDX 11 12 15 13 12 14 14 15 13 16 16 17 17 18 19 20 18 21 7 22
REMARK SMILES IDX 8 23 9 24 6 25 3 26 4 27 104 28 5 29 2 30 1 31 30 32 31 33
REMARK SMILES IDX 32 34 33 35 34 36 35 37 36 38 37 39 38 40 39 41 103 42 40 43
REMARK SMILES IDX 102 44 41 45 42 46 43 47 96 48 44 49 101 50 95 51 97 52
REMARK SMILES IDX 45 53 100 54 94 55 93 56 46 58 80 59 59 60 79 61 60 62 63 63
REMARK SMILES IDX 78 64 98 65 61 66 62 67 77 69 99 70 64 71 47 72 48 73 57 74
REMARK SMILES IDX 49 75 50 76 56 77 58 78 51 79 52 80 53 81 54 82 55 83 81 84
REMARK SMILES IDX 82 85 91 86 83 87 84 88 90 89 92 90 85 91 86 92 87 93 88 94
REMARK SMILES IDX 89 95 65 96 66 97 75 98 67 99 68 100 74 101 76 102 69 103
REMARK SMILES IDX 70 104 71 105 72 106 73 107
REMARK H PARENT 16 19 97 57 63 68
REMARK Flexibility Score: inf
ROOT
ATOM      1  O   UNL     1       5.951  -3.076  -6.356  1.00  0.00    -0.377 OA
ENDROOT
BRANCH   1   2
ATOM      2  C   UNL     1       5.636  -3.884  -7.472  1.00  0.00     0.188 C 
BRANCH   2   3
ATOM      3  C   UNL     1       6.282  -3.439  -8.786  1.00  0.00     0.188 C 
BRANCH   3   4
ATOM      4  O   UNL     1       7.587  -2.898  -8.752  1.00  0.00    -0.376 OA
BRANCH   4   5
ATOM      5  C   UNL     1       7.850  -1.796  -7.886  1.00  0.00     0.202 C 
BRANCH   5   6
ATOM      6  C   UNL     1       6.949  -0.541  -7.920  1.00  0.00     0.261 C 
BRANCH   6   7
ATOM      7  O   UNL     1       5.552  -0.702  -7.548  1.00  0.00    -0.463 OA
BRANCH   7   8
ATOM      8  C   UNL     1       4.670  -0.585  -8.560  1.00  0.00     0.311 C 
ATOM      9  O   UNL     1       5.004  -0.469  -9.741  1.00  0.00    -0.252 OA
BRANCH   8  10
ATOM     10  C   UNL     1       3.187  -0.541  -8.222  1.00  0.00     0.134 C 
ATOM     11  N   UNL     1       0.998  -3.194  -5.862  1.00  0.00    -0.197 NA
ATOM     12  C   UNL     1       0.466  -2.578  -7.068  1.00  0.00     0.105 C 
ATOM     13  C   UNL     1       2.452  -3.218  -5.805  1.00  0.00     0.105 C 
ATOM     14  C   UNL     1       0.944  -1.137  -7.227  1.00  0.00     0.046 C 
ATOM     15  C   UNL     1       3.037  -1.818  -5.853  1.00  0.00     0.046 C 
ATOM     16  C   UNL     1       2.459  -0.829  -6.876  1.00  0.00     0.056 C 
ATOM     17  N   UNL     1       2.537   0.495  -6.258  1.00  0.00    -0.350 N 
ATOM     18  C   UNL     1       2.689   1.525  -7.144  1.00  0.00     0.221 C 
ATOM     19  H   UNL     1       2.484   0.633  -5.285  1.00  0.00     0.164 HD
ATOM     20  C   UNL     1       2.787   0.935  -8.516  1.00  0.00     0.117 C 
ATOM     21  O   UNL     1       2.691   2.707  -6.845  1.00  0.00    -0.275 OA
BRANCH  11  22
ATOM     22  S   UNL     1       0.072  -3.489  -4.475  1.00  0.00     0.252 S 
ATOM     23  O   UNL     1       0.729  -4.547  -3.735  1.00  0.00    -0.206 OA
ATOM     24  O   UNL     1      -1.317  -3.572  -4.866  1.00  0.00    -0.206 OA
BRANCH  22  25
ATOM     25  C   UNL     1       0.183  -2.033  -3.454  1.00  0.00     0.135 A 
ATOM     26  C   UNL     1       0.153  -0.484  -1.524  1.00  0.00     0.006 A 
ATOM     27  C   UNL     1       0.580   0.134  -2.675  1.00  0.00     0.017 A 
ATOM     28  S   UNL     1      -0.171  -2.155  -1.782  1.00  0.00    -0.127 S 
ATOM     29  C   UNL     1       0.490  -0.732  -3.779  1.00  0.00     0.034 A 
BRANCH  26  30
ATOM     30  C   UNL     1      -0.082   0.203  -0.216  1.00  0.00     0.043 C 
ATOM     31  C   UNL     1       0.927  -0.158   0.853  1.00  0.00     0.010 C 
ENDBRANCH  26  30
ENDBRANCH  22  25
ENDBRANCH  11  22
ENDBRANCH   8  10
ENDBRANCH   7   8
ENDBRANCH   6   7
ENDBRANCH   5   6
ENDBRANCH   4   5
ENDBRANCH   3   4
ENDBRANCH   2   3
ENDBRANCH   1   2
BRANCH   1  32
ATOM     32  C   UNL     1       6.538  -3.633  -5.182  1.00  0.00     0.188 C 
BRANCH  32  33
ATOM     33  C   UNL     1       7.023  -5.084  -5.234  1.00  0.00     0.188 C 
BRANCH  33  34
ATOM     34  O   UNL     1       6.041  -6.122  -5.346  1.00  0.00    -0.376 OA
BRANCH  34  35
ATOM     35  C   UNL     1       4.718  -5.873  -4.883  1.00  0.00     0.202 C 
BRANCH  35  36
ATOM     36  C   UNL     1       4.457  -6.151  -3.405  1.00  0.00     0.261 C 
BRANCH  36  37
ATOM     37  O   UNL     1       5.075  -5.154  -2.580  1.00  0.00    -0.460 OA
BRANCH  37  38
ATOM     38  C   UNL     1       6.280  -5.514  -2.086  1.00  0.00     0.338 C 
ATOM     39  O   UNL     1       6.849  -6.582  -2.232  1.00  0.00    -0.246 OA
BRANCH  38  40
ATOM     40  C   UNL     1       6.924  -4.346  -1.468  1.00  0.00     0.060 A 
ATOM     41  C   UNL     1       8.271  -4.124  -1.776  1.00  0.00     0.016 A 
ATOM     42  C   UNL     1       6.259  -3.553  -0.529  1.00  0.00     0.016 A 
ATOM     43  C   UNL     1       8.989  -3.168  -1.075  1.00  0.00     0.010 A 
ATOM     44  C   UNL     1       6.985  -2.599   0.185  1.00  0.00     0.010 A 
ATOM     45  C   UNL     1       8.364  -2.459  -0.043  1.00  0.00    -0.014 A 
BRANCH  45  46
ATOM     46  C   UNL     1       9.231  -1.794   0.951  1.00  0.00     0.031 A 
ATOM     47  C   UNL     1       9.541  -2.535   2.224  1.00  0.00     0.074 A 
ATOM     48  C   UNL     1       9.805  -0.614   0.673  1.00  0.00     0.049 A 
ATOM     49  N   UNL     1      10.298  -2.180   3.227  1.00  0.00    -0.248 NA
ATOM     50  C   UNL     1       8.911  -3.857   2.384  1.00  0.00     0.031 C 
ATOM     51  C   UNL     1       9.605   0.150  -0.557  1.00  0.00     0.029 A 
ATOM     52  N   UNL     1      10.676   0.144   1.408  1.00  0.00    -0.354 N 
ATOM     53  C   UNL     1      10.235  -3.232   4.135  1.00  0.00     0.074 A 
ATOM     54  C   UNL     1       9.328  -4.215   3.587  1.00  0.00     0.031 C 
ATOM     55  C   UNL     1      10.326   1.282  -0.486  1.00  0.00     0.029 A 
ATOM     56  C   UNL     1      11.010   1.330   0.805  1.00  0.00     0.049 A 
ATOM     57  H   UNL     1      11.028  -0.135   2.284  1.00  0.00     0.167 HD
ATOM     58  C   UNL     1      10.889  -3.371   5.312  1.00  0.00     0.037 A 
ATOM     59  C   UNL     1      11.765   2.347   1.261  1.00  0.00     0.037 A 
ATOM     60  C   UNL     1      11.778  -2.372   5.843  1.00  0.00     0.049 A 
ATOM     61  C   UNL     1      12.434   2.206   2.601  1.00  0.00     0.074 A 
ATOM     62  C   UNL     1      12.487  -2.388   7.030  1.00  0.00     0.029 A 
ATOM     63  N   UNL     1      12.072  -1.166   5.218  1.00  0.00    -0.354 N 
ATOM     64  N   UNL     1      12.371   1.209   3.454  1.00  0.00    -0.248 NA
ATOM     65  C   UNL     1      13.289   3.317   3.036  1.00  0.00     0.031 C 
ATOM     66  C   UNL     1      13.165  -1.170   7.148  1.00  0.00     0.029 A 
ATOM     67  C   UNL     1      12.935  -0.421   6.003  1.00  0.00     0.049 A 
ATOM     68  H   UNL     1      11.718  -0.883   4.344  1.00  0.00     0.167 HD
ATOM     69  C   UNL     1      13.197   1.560   4.516  1.00  0.00     0.074 A 
ATOM     70  C   UNL     1      13.758   2.857   4.188  1.00  0.00     0.031 C 
ATOM     71  C   UNL     1      13.474   0.873   5.654  1.00  0.00     0.037 A 
BRANCH  58  72
ATOM     72  C   UNL     1      10.625  -4.623   6.106  1.00  0.00     0.058 A 
ATOM     73  C   UNL     1      11.039  -5.891   5.661  1.00  0.00     0.135 A 
ATOM     74  C   UNL     1       9.924  -4.559   7.322  1.00  0.00     0.135 A 
ATOM     75  F   UNL     1      11.694  -6.017   4.495  1.00  0.00    -0.206 F 
ATOM     76  C   UNL     1      10.727  -7.050   6.365  1.00  0.00     0.059 A 
ATOM     77  C   UNL     1       9.632  -5.702   8.061  1.00  0.00     0.059 A 
ATOM     78  F   UNL     1       9.500  -3.378   7.796  1.00  0.00    -0.206 F 
ATOM     79  C   UNL     1      10.018  -6.946   7.563  1.00  0.00     0.060 A 
BRANCH  79  80
ATOM     80  S   UNL     1       9.597  -8.459   8.452  1.00  0.00     0.124 S 
ATOM     81  O   UNL     1       8.565  -9.026   7.589  1.00  0.00    -0.237 OA
ATOM     82  O   UNL     1      10.869  -9.174   8.472  1.00  0.00    -0.237 OA
ATOM     83  O   UNL     1       9.133  -7.975   9.748  1.00  0.00    -0.744 OA
ENDBRANCH  79  80
ENDBRANCH  58  72
BRANCH  59  84
ATOM     84  C   UNL     1      11.904   3.577   0.437  1.00  0.00     0.058 A 
ATOM     85  C   UNL     1      13.113   3.912  -0.187  1.00  0.00     0.135 A 
ATOM     86  C   UNL     1      10.799   4.416   0.216  1.00  0.00     0.135 A 
ATOM     87  F   UNL     1      14.199   3.146  -0.001  1.00  0.00    -0.206 F 
ATOM     88  C   UNL     1      13.224   5.034  -1.002  1.00  0.00     0.059 A 
ATOM     89  C   UNL     1      10.877   5.527  -0.617  1.00  0.00     0.059 A 
ATOM     90  F   UNL     1       9.614   4.131   0.779  1.00  0.00    -0.206 F 
ATOM     91  C   UNL     1      12.096   5.830  -1.219  1.00  0.00     0.060 A 
BRANCH  91  92
ATOM     92  S   UNL     1      12.231   7.234  -2.346  1.00  0.00     0.124 S 
ATOM     93  O   UNL     1      13.057   8.154  -1.573  1.00  0.00    -0.237 OA
ATOM     94  O   UNL     1      12.867   6.628  -3.512  1.00  0.00    -0.237 OA
ATOM     95  O   UNL     1      10.843   7.643  -2.540  1.00  0.00    -0.744 OA
ENDBRANCH  91  92
ENDBRANCH  59  84
BRANCH  71  96
ATOM     96  C   UNL     1      14.455   1.495   6.611  1.00  0.00     0.058 A 
ATOM     97  C   UNL     1      14.137   2.635   7.365  1.00  0.00     0.135 A 
ATOM     98  C   UNL     1      15.719   0.913   6.803  1.00  0.00     0.135 A 
ATOM     99  F   UNL     1      12.944   3.232   7.219  1.00  0.00    -0.206 F 
ATOM    100  C   UNL     1      15.052   3.199   8.248  1.00  0.00     0.059 A 
ATOM    101  C   UNL     1      16.636   1.439   7.705  1.00  0.00     0.059 A 
ATOM    102  F   UNL     1      16.069  -0.187   6.118  1.00  0.00    -0.206 F 
ATOM    103  C   UNL     1      16.300   2.593   8.411  1.00  0.00     0.060 A 
BRANCH 103 104
ATOM    104  S   UNL     1      17.474   3.328   9.568  1.00  0.00     0.124 S 
ATOM    105  O   UNL     1      17.885   4.528   8.846  1.00  0.00    -0.237 OA
ATOM    106  O   UNL     1      16.647   3.551  10.750  1.00  0.00    -0.237 OA
ATOM    107  O   UNL     1      18.499   2.299   9.712  1.00  0.00    -0.744 OA
ENDBRANCH 103 104
ENDBRANCH  71  96
ENDBRANCH  45  46
ENDBRANCH  38  40
ENDBRANCH  37  38
ENDBRANCH  36  37
ENDBRANCH  35  36
ENDBRANCH  34  35
ENDBRANCH  33  34
ENDBRANCH  32  33
ENDBRANCH   1  32
TORSDOF 26
