REMARK SMILES CC(=O)N[C@@H](C(=O)N(CC(=O)OCCOCCOCCOCCOC(=O)c1ccc(-c2c3nc(c(-c4c(F)cc(S(=O)(=O)[O-])cc4F)c4ccc([nH]4)c(-c4c(F)cc(S(=O)(=O)[O-])cc4F)c4nc(c(-c5c(F)cc(S(=O)(=O)[O-])cc5F)c5ccc2[nH]5)C=C4)C=C3)cc1)C(C)(C)C)C(C)C
REMARK SMILES IDX 17 1 16 2 15 3 14 4 13 5 12 6 10 7 11 8 9 9 8 10 6 11 7 12
REMARK SMILES IDX 5 13 4 14 1 15 2 16 3 17 97 19 98 20 99 21 93 22 94 23 95 24
REMARK SMILES IDX 96 25 18 26 19 27 20 28 21 29 22 30 23 31 24 32 25 33 26 34
REMARK SMILES IDX 27 35 28 36 92 37 29 38 91 39 30 40 31 41 32 42 85 43 33 44
REMARK SMILES IDX 90 45 84 46 86 47 34 48 89 49 83 50 82 51 35 53 69 54 48 55
REMARK SMILES IDX 68 56 49 57 52 58 67 59 87 60 50 61 51 62 66 64 88 65 53 66
REMARK SMILES IDX 36 67 37 68 46 69 38 70 39 71 45 72 47 73 40 74 41 75 42 76
REMARK SMILES IDX 43 77 44 78 70 79 71 80 80 81 72 82 73 83 79 84 81 85 74 86
REMARK SMILES IDX 75 87 76 88 77 89 78 90 54 91 55 92 64 93 56 94 57 95 63 96
REMARK SMILES IDX 65 97 58 98 59 99 60 100 61 101 62 102
REMARK H PARENT 4 18 86 52 52 63
REMARK Flexibility Score: inf
ROOT
ATOM      1  C   UNL     1       4.511   1.179  -5.006  1.00  0.00     0.188 C 
ENDROOT
BRANCH   1   2
ATOM      2  C   UNL     1       4.873  -0.313  -4.914  1.00  0.00     0.188 C 
BRANCH   2   3
ATOM      3  O   UNL     1       3.994  -1.306  -5.433  1.00  0.00    -0.376 OA
BRANCH   3   4
ATOM      4  C   UNL     1       2.632  -0.974  -5.663  1.00  0.00     0.202 C 
BRANCH   4   5
ATOM      5  C   UNL     1       1.769  -0.615  -4.436  1.00  0.00     0.261 C 
BRANCH   5   6
ATOM      6  O   UNL     1       2.350   0.315  -3.484  1.00  0.00    -0.462 OA
BRANCH   6   7
ATOM      7  C   UNL     1       2.870  -0.205  -2.345  1.00  0.00     0.325 C 
ATOM      8  O   UNL     1       2.824  -1.397  -2.049  1.00  0.00    -0.250 OA
BRANCH   7   9
ATOM      9  C   UNL     1       3.607   0.800  -1.405  1.00  0.00     0.242 C 
BRANCH   9  10
ATOM     10  N   UNL     1       3.756   2.275  -1.581  1.00  0.00    -0.325 N 
BRANCH  10  11
ATOM     11  C   UNL     1       2.707   3.165  -1.274  1.00  0.00     0.246 C 
ATOM     12  O   UNL     1       2.769   4.354  -1.599  1.00  0.00    -0.272 OA
BRANCH  11  13
ATOM     13  C   UNL     1       1.480   2.666  -0.453  1.00  0.00     0.174 C 
BRANCH  13  14
ATOM     14  N   UNL     1       0.652   1.864  -1.350  1.00  0.00    -0.344 N 
ATOM     15  C   UNL     1       0.282  -0.042   0.178  1.00  0.00     0.114 C 
ATOM     16  C   UNL     1       0.072   0.649  -1.141  1.00  0.00     0.217 C 
ATOM     17  O   UNL     1      -0.569   0.122  -2.047  1.00  0.00    -0.275 OA
ATOM     18  H   UNL     1       0.488   2.260  -2.237  1.00  0.00     0.164 HD
ENDBRANCH  13  14
BRANCH  13  19
ATOM     19  C   UNL     1       0.687   3.875   0.134  1.00  0.00     0.015 C 
ATOM     20  C   UNL     1      -0.638   3.463   0.782  1.00  0.00     0.010 C 
ATOM     21  C   UNL     1       1.514   4.639   1.183  1.00  0.00     0.010 C 
ENDBRANCH  13  19
ENDBRANCH  11  13
ENDBRANCH  10  11
BRANCH  10  22
ATOM     22  C   UNL     1       5.115   2.904  -1.872  1.00  0.00     0.035 C 
ATOM     23  C   UNL     1       5.046   3.898  -3.062  1.00  0.00     0.034 C 
ATOM     24  C   UNL     1       5.602   3.700  -0.630  1.00  0.00     0.034 C 
ATOM     25  C   UNL     1       6.257   1.891  -2.138  1.00  0.00     0.034 C 
ENDBRANCH  10  22
ENDBRANCH   9  10
ENDBRANCH   7   9
ENDBRANCH   6   7
ENDBRANCH   5   6
ENDBRANCH   4   5
ENDBRANCH   3   4
ENDBRANCH   2   3
ENDBRANCH   1   2
BRANCH   1  26
ATOM     26  O   UNL     1       3.669   1.491  -6.093  1.00  0.00    -0.377 OA
BRANCH  26  27
ATOM     27  C   UNL     1       4.249   2.297  -7.096  1.00  0.00     0.188 C 
BRANCH  27  28
ATOM     28  C   UNL     1       5.530   1.710  -7.713  1.00  0.00     0.188 C 
BRANCH  28  29
ATOM     29  O   UNL     1       6.525   1.438  -6.738  1.00  0.00    -0.376 OA
BRANCH  29  30
ATOM     30  C   UNL     1       7.593   2.328  -6.489  1.00  0.00     0.202 C 
BRANCH  30  31
ATOM     31  C   UNL     1       7.429   3.848  -6.291  1.00  0.00     0.261 C 
BRANCH  31  32
ATOM     32  O   UNL     1       6.242   4.468  -6.780  1.00  0.00    -0.460 OA
BRANCH  32  33
ATOM     33  C   UNL     1       6.268   4.892  -8.063  1.00  0.00     0.338 C 
ATOM     34  O   UNL     1       7.197   4.773  -8.847  1.00  0.00    -0.246 OA
BRANCH  33  35
ATOM     35  C   UNL     1       4.910   5.335  -8.441  1.00  0.00     0.060 A 
ATOM     36  C   UNL     1       4.231   4.606  -9.425  1.00  0.00     0.016 A 
ATOM     37  C   UNL     1       4.302   6.437  -7.833  1.00  0.00     0.016 A 
ATOM     38  C   UNL     1       2.945   4.975  -9.811  1.00  0.00     0.010 A 
ATOM     39  C   UNL     1       3.028   6.836  -8.256  1.00  0.00     0.010 A 
ATOM     40  C   UNL     1       2.355   6.119  -9.263  1.00  0.00    -0.014 A 
BRANCH  40  41
ATOM     41  C   UNL     1       1.132   6.667  -9.895  1.00  0.00     0.031 A 
ATOM     42  C   UNL     1       1.295   7.714 -10.962  1.00  0.00     0.074 A 
ATOM     43  C   UNL     1      -0.091   6.218  -9.560  1.00  0.00     0.049 A 
ATOM     44  N   UNL     1       0.383   8.364 -11.634  1.00  0.00    -0.248 NA
ATOM     45  C   UNL     1       2.678   8.073 -11.322  1.00  0.00     0.031 C 
ATOM     46  C   UNL     1      -0.369   5.171  -8.577  1.00  0.00     0.029 A 
ATOM     47  N   UNL     1      -1.333   6.598 -10.005  1.00  0.00    -0.354 N 
ATOM     48  C   UNL     1       1.077   9.216 -12.485  1.00  0.00     0.074 A 
ATOM     49  C   UNL     1       2.486   9.012 -12.237  1.00  0.00     0.031 C 
ATOM     50  C   UNL     1      -1.700   5.014  -8.473  1.00  0.00     0.029 A 
ATOM     51  C   UNL     1      -2.369   5.969  -9.356  1.00  0.00     0.049 A 
ATOM     52  H   UNL     1      -1.469   7.260 -10.722  1.00  0.00     0.167 HD
ATOM     53  C   UNL     1       0.579  10.090 -13.389  1.00  0.00     0.037 A 
ATOM     54  C   UNL     1      -3.700   6.168  -9.442  1.00  0.00     0.037 A 
ATOM     55  C   UNL     1      -0.826  10.284 -13.629  1.00  0.00     0.049 A 
ATOM     56  C   UNL     1      -4.228   7.199 -10.412  1.00  0.00     0.074 A 
ATOM     57  C   UNL     1      -1.430  11.123 -14.549  1.00  0.00     0.029 A 
ATOM     58  N   UNL     1      -1.845   9.647 -12.937  1.00  0.00    -0.354 N 
ATOM     59  N   UNL     1      -3.563   7.970 -11.241  1.00  0.00    -0.248 NA
ATOM     60  C   UNL     1      -5.685   7.388 -10.459  1.00  0.00     0.031 C 
ATOM     61  C   UNL     1      -2.814  11.042 -14.368  1.00  0.00     0.029 A 
ATOM     62  C   UNL     1      -3.074  10.103 -13.382  1.00  0.00     0.049 A 
ATOM     63  H   UNL     1      -1.713   8.971 -12.233  1.00  0.00     0.167 HD
ATOM     64  C   UNL     1      -4.522   8.713 -11.925  1.00  0.00     0.074 A 
ATOM     65  C   UNL     1      -5.812   8.288 -11.425  1.00  0.00     0.031 C 
ATOM     66  C   UNL     1      -4.352   9.662 -12.880  1.00  0.00     0.037 A 
BRANCH  53  67
ATOM     67  C   UNL     1       1.552  10.934 -14.164  1.00  0.00     0.058 A 
ATOM     68  C   UNL     1       2.356  10.399 -15.182  1.00  0.00     0.135 A 
ATOM     69  C   UNL     1       1.630  12.315 -13.924  1.00  0.00     0.135 A 
ATOM     70  F   UNL     1       2.339   9.081 -15.436  1.00  0.00    -0.206 F 
ATOM     71  C   UNL     1       3.206  11.204 -15.933  1.00  0.00     0.059 A 
ATOM     72  C   UNL     1       2.453  13.143 -14.680  1.00  0.00     0.059 A 
ATOM     73  F   UNL     1       0.890  12.875 -12.954  1.00  0.00    -0.206 F 
ATOM     74  C   UNL     1       3.241  12.577 -15.680  1.00  0.00     0.060 A 
BRANCH  74  75
ATOM     75  S   UNL     1       4.316  13.613 -16.694  1.00  0.00     0.124 S 
ATOM     76  O   UNL     1       5.638  13.210 -16.224  1.00  0.00    -0.237 OA
ATOM     77  O   UNL     1       3.968  13.191 -18.047  1.00  0.00    -0.237 OA
ATOM     78  O   UNL     1       3.914  14.971 -16.341  1.00  0.00    -0.744 OA
ENDBRANCH  74  75
ENDBRANCH  53  67
BRANCH  54  79
ATOM     79  C   UNL     1      -4.632   5.415  -8.557  1.00  0.00     0.058 A 
ATOM     80  C   UNL     1      -5.555   4.495  -9.076  1.00  0.00     0.135 A 
ATOM     81  C   UNL     1      -4.640   5.631  -7.169  1.00  0.00     0.135 A 
ATOM     82  F   UNL     1      -5.599   4.262 -10.397  1.00  0.00    -0.206 F 
ATOM     83  C   UNL     1      -6.470   3.839  -8.258  1.00  0.00     0.059 A 
ATOM     84  C   UNL     1      -5.523   4.963  -6.327  1.00  0.00     0.059 A 
ATOM     85  F   UNL     1      -3.774   6.496  -6.617  1.00  0.00    -0.206 F 
ATOM     86  C   UNL     1      -6.447   4.081  -6.883  1.00  0.00     0.060 A 
BRANCH  86  87
ATOM     87  S   UNL     1      -7.630   3.215  -5.829  1.00  0.00     0.124 S 
ATOM     88  O   UNL     1      -8.878   3.883  -6.178  1.00  0.00    -0.237 OA
ATOM     89  O   UNL     1      -7.495   1.835  -6.287  1.00  0.00    -0.237 OA
ATOM     90  O   UNL     1      -7.132   3.474  -4.481  1.00  0.00    -0.744 OA
ENDBRANCH  86  87
ENDBRANCH  54  79
BRANCH  66  91
ATOM     91  C   UNL     1      -5.585  10.285 -13.477  1.00  0.00     0.058 A 
ATOM     92  C   UNL     1      -6.387  11.181 -12.754  1.00  0.00     0.135 A 
ATOM     93  C   UNL     1      -5.929  10.034 -14.817  1.00  0.00     0.135 A 
ATOM     94  F   UNL     1      -6.106  11.454 -11.470  1.00  0.00    -0.206 F 
ATOM     95  C   UNL     1      -7.498  11.789 -13.329  1.00  0.00     0.059 A 
ATOM     96  C   UNL     1      -7.017  10.656 -15.422  1.00  0.00     0.059 A 
ATOM     97  F   UNL     1      -5.189   9.195 -15.559  1.00  0.00    -0.206 F 
ATOM     98  C   UNL     1      -7.802  11.524 -14.666  1.00  0.00     0.060 A 
BRANCH  98  99
ATOM     99  S   UNL     1      -9.223  12.352 -15.410  1.00  0.00     0.124 S 
ATOM    100  O   UNL     1     -10.337  11.663 -14.765  1.00  0.00    -0.237 OA
ATOM    101  O   UNL     1      -9.020  13.741 -15.011  1.00  0.00    -0.237 OA
ATOM    102  O   UNL     1      -9.064  12.086 -16.837  1.00  0.00    -0.744 OA
ENDBRANCH  98  99
ENDBRANCH  66  91
ENDBRANCH  40  41
ENDBRANCH  33  35
ENDBRANCH  32  33
ENDBRANCH  31  32
ENDBRANCH  30  31
ENDBRANCH  29  30
ENDBRANCH  28  29
ENDBRANCH  27  28
ENDBRANCH  26  27
ENDBRANCH   1  26
TORSDOF 29
