REMARK SMILES CC[N@@H+]([C@@H]1CSCC(C)(C)C1)[C@@H]1COC[C@@H]1C(=O)OCCOCCOCCOCCOC(=O)c1ccc(-c2c3nc(c(-c4c(F)cc(S(=O)(=O)[O-])cc4F)c4ccc([nH]4)c(-c4c(F)cc(S(=O)(=O)[O-])cc4F)c4nc(c(-c5c(F)cc(S(=O)(=O)[O-])cc5F)c5ccc2[nH]5)C=C4)C=C3)cc1
REMARK SMILES IDX 26 1 25 2 24 3 23 4 22 5 21 6 20 7 19 8 17 9 18 10 16 11
REMARK SMILES IDX 12 12 13 13 14 14 15 15 3 16 2 18 1 19 4 20 5 21 11 22 6 23
REMARK SMILES IDX 8 24 7 25 9 26 10 27 27 28 28 29 29 30 30 31 31 32 32 33
REMARK SMILES IDX 33 34 34 35 35 36 99 37 36 38 98 39 37 40 38 41 39 42 92 43
REMARK SMILES IDX 40 44 97 45 91 46 93 47 41 48 96 49 90 50 89 51 42 53 76 54
REMARK SMILES IDX 55 55 75 56 56 57 59 58 74 59 94 60 57 61 58 62 73 64 95 65
REMARK SMILES IDX 60 66 43 67 44 68 53 69 45 70 46 71 52 72 54 73 47 74 48 75
REMARK SMILES IDX 49 76 50 77 51 78 77 79 78 80 87 81 79 82 80 83 86 84 88 85
REMARK SMILES IDX 81 86 82 87 83 88 84 89 85 90 61 91 62 92 71 93 63 94 64 95
REMARK SMILES IDX 70 96 72 97 65 98 66 99 67 100 68 101 69 102
REMARK H PARENT 3 17 93 52 59 63
REMARK Flexibility Score: inf
ROOT
ATOM      1  C   UNL     1      -1.059   2.022   3.435  1.00  0.00     0.188 C 
ENDROOT
BRANCH   1   2
ATOM      2  O   UNL     1       0.294   1.948   3.022  1.00  0.00    -0.377 OA
BRANCH   2   3
ATOM      3  C   UNL     1       1.319   1.693   3.962  1.00  0.00     0.188 C 
BRANCH   3   4
ATOM      4  C   UNL     1       1.393   2.526   5.237  1.00  0.00     0.188 C 
BRANCH   4   5
ATOM      5  O   UNL     1       0.431   3.568   5.317  1.00  0.00    -0.376 OA
BRANCH   5   6
ATOM      6  C   UNL     1       0.982   4.871   5.162  1.00  0.00     0.202 C 
BRANCH   6   7
ATOM      7  C   UNL     1       1.106   5.335   3.711  1.00  0.00     0.261 C 
BRANCH   7   8
ATOM      8  O   UNL     1       1.731   4.402   2.808  1.00  0.00    -0.463 OA
BRANCH   8   9
ATOM      9  C   UNL     1       3.064   4.451   2.654  1.00  0.00     0.317 C 
ATOM     10  O   UNL     1       3.796   5.046   3.440  1.00  0.00    -0.252 OA
BRANCH   9  11
ATOM     11  C   UNL     1       3.559   3.874   1.325  1.00  0.00     0.185 C 
ATOM     12  C   UNL     1       2.845   2.780   0.474  1.00  0.00     0.227 C 
ATOM     13  C   UNL     1       3.508   1.476   1.007  1.00  0.00     0.226 C 
ATOM     14  O   UNL     1       4.616   1.827   1.847  1.00  0.00    -0.374 OA
ATOM     15  C   UNL     1       4.901   3.204   1.615  1.00  0.00     0.182 C 
BRANCH  12  16
ATOM     16  N   UNL     1       1.448   2.729  -0.087  1.00  0.00    -0.327 N 
ATOM     17  H   UNL     1       1.664   2.971  -1.055  1.00  0.00     0.348 HD
BRANCH  16  18
ATOM     18  C   UNL     1       0.842   1.383  -0.086  1.00  0.00     0.259 C 
ATOM     19  C   UNL     1       1.363   0.447  -1.175  1.00  0.00     0.071 C 
ENDBRANCH  16  18
BRANCH  16  20
ATOM     20  C   UNL     1       0.484   3.821   0.227  1.00  0.00     0.194 C 
ATOM     21  C   UNL     1      -0.957   3.770  -0.386  1.00  0.00     0.134 C 
ATOM     22  C   UNL     1       1.000   5.258  -0.036  1.00  0.00     0.073 C 
ATOM     23  S   UNL     1      -1.049   4.098  -2.172  1.00  0.00    -0.155 SA
ATOM     24  C   UNL     1       1.136   5.723  -1.506  1.00  0.00    -0.021 C 
ATOM     25  C   UNL     1      -0.252   5.738  -2.174  1.00  0.00     0.076 C 
ATOM     26  C   UNL     1       2.129   4.877  -2.324  1.00  0.00     0.012 C 
ATOM     27  C   UNL     1       1.698   7.163  -1.470  1.00  0.00     0.012 C 
ENDBRANCH  16  20
ENDBRANCH  12  16
ENDBRANCH   9  11
ENDBRANCH   8   9
ENDBRANCH   7   8
ENDBRANCH   6   7
ENDBRANCH   5   6
ENDBRANCH   4   5
ENDBRANCH   3   4
ENDBRANCH   2   3
ENDBRANCH   1   2
BRANCH   1  28
ATOM     28  C   UNL     1      -1.550   1.046   4.507  1.00  0.00     0.188 C 
BRANCH  28  29
ATOM     29  O   UNL     1      -1.140  -0.319   4.478  1.00  0.00    -0.376 OA
BRANCH  29  30
ATOM     30  C   UNL     1      -0.763  -0.930   3.254  1.00  0.00     0.202 C 
BRANCH  30  31
ATOM     31  C   UNL     1      -1.875  -1.345   2.294  1.00  0.00     0.261 C 
BRANCH  31  32
ATOM     32  O   UNL     1      -2.618  -0.235   1.774  1.00  0.00    -0.460 OA
BRANCH  32  33
ATOM     33  C   UNL     1      -3.833  -0.066   2.339  1.00  0.00     0.338 C 
ATOM     34  O   UNL     1      -4.328  -0.729   3.243  1.00  0.00    -0.246 OA
BRANCH  33  35
ATOM     35  C   UNL     1      -4.489   1.128   1.790  1.00  0.00     0.060 A 
ATOM     36  C   UNL     1      -4.979   2.075   2.696  1.00  0.00     0.016 A 
ATOM     37  C   UNL     1      -4.745   1.245   0.421  1.00  0.00     0.016 A 
ATOM     38  C   UNL     1      -5.795   3.106   2.243  1.00  0.00     0.010 A 
ATOM     39  C   UNL     1      -5.573   2.277  -0.030  1.00  0.00     0.010 A 
ATOM     40  C   UNL     1      -6.140   3.177   0.887  1.00  0.00    -0.014 A 
BRANCH  40  41
ATOM     41  C   UNL     1      -7.242   4.076   0.474  1.00  0.00     0.031 A 
ATOM     42  C   UNL     1      -8.625   3.501   0.323  1.00  0.00     0.074 A 
ATOM     43  C   UNL     1      -7.020   5.388   0.288  1.00  0.00     0.049 A 
ATOM     44  N   UNL     1      -9.733   4.091  -0.039  1.00  0.00    -0.248 NA
ATOM     45  C   UNL     1      -8.778   2.068   0.626  1.00  0.00     0.031 C 
ATOM     46  C   UNL     1      -5.730   6.056   0.454  1.00  0.00     0.029 A 
ATOM     47  N   UNL     1      -7.876   6.393  -0.084  1.00  0.00    -0.354 N 
ATOM     48  C   UNL     1     -10.713   3.105  -0.014  1.00  0.00     0.074 A 
ATOM     49  C   UNL     1     -10.064   1.872   0.374  1.00  0.00     0.031 C 
ATOM     50  C   UNL     1      -5.878   7.362   0.174  1.00  0.00     0.029 A 
ATOM     51  C   UNL     1      -7.262   7.614  -0.222  1.00  0.00     0.049 A 
ATOM     52  H   UNL     1      -8.838   6.252  -0.236  1.00  0.00     0.167 HD
ATOM     53  C   UNL     1     -12.035   3.221  -0.284  1.00  0.00     0.037 A 
ATOM     54  C   UNL     1      -7.760   8.792  -0.645  1.00  0.00     0.037 A 
ATOM     55  C   UNL     1     -12.667   4.454  -0.673  1.00  0.00     0.049 A 
ATOM     56  C   UNL     1      -9.220   8.882  -1.008  1.00  0.00     0.074 A 
ATOM     57  C   UNL     1     -14.000   4.685  -0.961  1.00  0.00     0.029 A 
ATOM     58  N   UNL     1     -12.007   5.663  -0.837  1.00  0.00    -0.354 N 
ATOM     59  N   UNL     1     -10.139   7.946  -0.965  1.00  0.00    -0.248 NA
ATOM     60  C   UNL     1      -9.710  10.185  -1.476  1.00  0.00     0.031 C 
ATOM     61  C   UNL     1     -14.137   6.023  -1.347  1.00  0.00     0.029 A 
ATOM     62  C   UNL     1     -12.899   6.639  -1.246  1.00  0.00     0.049 A 
ATOM     63  H   UNL     1     -11.045   5.807  -0.684  1.00  0.00     0.167 HD
ATOM     64  C   UNL     1     -11.322   8.554  -1.375  1.00  0.00     0.074 A 
ATOM     65  C   UNL     1     -11.002   9.940  -1.652  1.00  0.00     0.031 C 
ATOM     66  C   UNL     1     -12.560   8.016  -1.510  1.00  0.00     0.037 A 
BRANCH  53  67
ATOM     67  C   UNL     1     -12.877   1.977  -0.200  1.00  0.00     0.058 A 
ATOM     68  C   UNL     1     -13.198   1.381   1.030  1.00  0.00     0.135 A 
ATOM     69  C   UNL     1     -13.393   1.388  -1.366  1.00  0.00     0.135 A 
ATOM     70  F   UNL     1     -12.716   1.890   2.175  1.00  0.00    -0.206 F 
ATOM     71  C   UNL     1     -13.980   0.232   1.100  1.00  0.00     0.059 A 
ATOM     72  C   UNL     1     -14.199   0.254  -1.318  1.00  0.00     0.059 A 
ATOM     73  F   UNL     1     -13.114   1.914  -2.569  1.00  0.00    -0.206 F 
ATOM     74  C   UNL     1     -14.476  -0.325  -0.081  1.00  0.00     0.060 A 
BRANCH  74  75
ATOM     75  S   UNL     1     -15.494  -1.812   0.026  1.00  0.00     0.124 S 
ATOM     76  O   UNL     1     -14.497  -2.824   0.364  1.00  0.00    -0.237 OA
ATOM     77  O   UNL     1     -16.436  -1.471   1.087  1.00  0.00    -0.237 OA
ATOM     78  O   UNL     1     -16.073  -1.925  -1.309  1.00  0.00    -0.744 OA
ENDBRANCH  74  75
ENDBRANCH  53  67
BRANCH  54  79
ATOM     79  C   UNL     1      -6.866   9.974  -0.763  1.00  0.00     0.058 A 
ATOM     80  C   UNL     1      -6.996  11.075   0.096  1.00  0.00     0.135 A 
ATOM     81  C   UNL     1      -5.853  10.020  -1.735  1.00  0.00     0.135 A 
ATOM     82  F   UNL     1      -7.955  11.084   1.034  1.00  0.00    -0.206 F 
ATOM     83  C   UNL     1      -6.161  12.183  -0.009  1.00  0.00     0.059 A 
ATOM     84  C   UNL     1      -4.990  11.105  -1.843  1.00  0.00     0.059 A 
ATOM     85  F   UNL     1      -5.679   8.988  -2.575  1.00  0.00    -0.206 F 
ATOM     86  C   UNL     1      -5.157  12.187  -0.979  1.00  0.00     0.060 A 
BRANCH  86  87
ATOM     87  S   UNL     1      -4.039  13.602  -1.067  1.00  0.00     0.124 S 
ATOM     88  O   UNL     1      -4.900  14.621  -1.655  1.00  0.00    -0.237 OA
ATOM     89  O   UNL     1      -3.681  13.797   0.335  1.00  0.00    -0.237 OA
ATOM     90  O   UNL     1      -2.956  13.120  -1.920  1.00  0.00    -0.744 OA
ENDBRANCH  86  87
ENDBRANCH  54  79
BRANCH  66  91
ATOM     91  C   UNL     1     -13.670   8.933  -1.945  1.00  0.00     0.058 A 
ATOM     92  C   UNL     1     -13.771   9.396  -3.266  1.00  0.00     0.135 A 
ATOM     93  C   UNL     1     -14.680   9.302  -1.041  1.00  0.00     0.135 A 
ATOM     94  F   UNL     1     -12.829   9.077  -4.167  1.00  0.00    -0.206 F 
ATOM     95  C   UNL     1     -14.823  10.210  -3.671  1.00  0.00     0.059 A 
ATOM     96  C   UNL     1     -15.756  10.092  -1.431  1.00  0.00     0.059 A 
ATOM     97  F   UNL     1     -14.637   8.876   0.232  1.00  0.00    -0.206 F 
ATOM     98  C   UNL     1     -15.813  10.551  -2.746  1.00  0.00     0.060 A 
BRANCH  98  99
ATOM     99  S   UNL     1     -17.193  11.578  -3.294  1.00  0.00     0.124 S 
ATOM    100  O   UNL     1     -16.559  12.887  -3.404  1.00  0.00    -0.237 OA
ATOM    101  O   UNL     1     -17.570  10.948  -4.555  1.00  0.00    -0.237 OA
ATOM    102  O   UNL     1     -18.168  11.440  -2.216  1.00  0.00    -0.744 OA
ENDBRANCH  98  99
ENDBRANCH  66  91
ENDBRANCH  40  41
ENDBRANCH  33  35
ENDBRANCH  32  33
ENDBRANCH  31  32
ENDBRANCH  30  31
ENDBRANCH  29  30
ENDBRANCH  28  29
ENDBRANCH   1  28
TORSDOF 26
