REMARK SMILES CC(C)CCc1cc2c(cc1Cl)C=C(C(=O)OCCOCCOCCOCCOC(=O)c1ccc(-c3c4nc(c(-c5c(F)cc(S(=O)(=O)[O-])cc5F)c5ccc([nH]5)c(-c5c(F)cc(S(=O)(=O)[O-])cc5F)c5nc(c(-c6c(F)cc(S(=O)(=O)[O-])cc6F)c6ccc3[nH]6)C=C5)C=C4)cc1)[C@@H](C(F)(F)F)O2
REMARK SMILES IDX 23 1 22 2 21 3 20 4 19 5 18 6 17 7 15 8 16 9 14 10 6 11 7 12
REMARK SMILES IDX 11 13 8 14 10 15 12 16 9 17 103 18 13 19 98 20 5 21 4 22
REMARK SMILES IDX 2 23 1 24 3 25 99 26 100 27 101 28 102 29 24 30 25 31 26 32
REMARK SMILES IDX 27 33 28 34 29 35 30 36 31 37 32 38 33 39 97 40 34 41 96 42
REMARK SMILES IDX 35 43 36 44 37 45 90 46 38 47 95 48 89 49 91 50 39 51 94 52
REMARK SMILES IDX 88 53 87 54 40 56 74 57 53 58 73 59 54 60 57 61 72 62 92 63
REMARK SMILES IDX 55 64 56 65 71 67 93 68 58 69 41 70 42 71 51 72 43 73 44 74
REMARK SMILES IDX 50 75 52 76 45 77 46 78 47 79 48 80 49 81 75 82 76 83 85 84
REMARK SMILES IDX 77 85 78 86 84 87 86 88 79 89 80 90 81 91 82 92 83 93 59 94
REMARK SMILES IDX 60 95 69 96 61 97 62 98 68 99 70 100 63 101 64 102 65 103
REMARK SMILES IDX 66 104 67 105
REMARK H PARENT 91 55 57 66
REMARK Flexibility Score: inf
ROOT
ATOM      1  O   UNL     1       0.650  -7.853   6.621  1.00  0.00    -0.377 OA
ENDROOT
BRANCH   1   2
ATOM      2  C   UNL     1      -0.308  -7.856   5.577  1.00  0.00     0.188 C 
BRANCH   2   3
ATOM      3  C   UNL     1      -0.236  -9.124   4.707  1.00  0.00     0.188 C 
BRANCH   3   4
ATOM      4  O   UNL     1       0.554 -10.159   5.286  1.00  0.00    -0.376 OA
BRANCH   4   5
ATOM      5  C   UNL     1       1.868 -10.352   4.774  1.00  0.00     0.202 C 
BRANCH   5   6
ATOM      6  C   UNL     1       2.898  -9.234   5.004  1.00  0.00     0.261 C 
BRANCH   6   7
ATOM      7  O   UNL     1       2.519  -7.943   4.507  1.00  0.00    -0.460 OA
BRANCH   7   8
ATOM      8  C   UNL     1       2.351  -7.799   3.180  1.00  0.00     0.338 C 
ATOM      9  O   UNL     1       2.561  -8.634   2.318  1.00  0.00    -0.246 OA
BRANCH   8  10
ATOM     10  C   UNL     1       1.667  -6.505   2.955  1.00  0.00     0.087 C 
ATOM     11  C   UNL     1      -1.092  -2.686   1.224  1.00  0.00    -0.026 A 
ATOM     12  C   UNL     1      -0.253  -2.873   2.333  1.00  0.00     0.052 A 
ATOM     13  C   UNL     1      -1.490  -3.833   0.513  1.00  0.00     0.045 A 
ATOM     14  C   UNL     1       0.320  -4.117   2.605  1.00  0.00     0.128 A 
ATOM     15  C   UNL     1      -0.956  -5.091   0.815  1.00  0.00     0.032 A 
ATOM     16  Cl  UNL     1      -2.640  -3.751  -0.777  1.00  0.00    -0.084 Cl
ATOM     17  C   UNL     1       0.000  -5.223   1.823  1.00  0.00     0.019 A 
ATOM     18  O   UNL     1       1.195  -4.152   3.650  1.00  0.00    -0.475 OA
ATOM     19  C   UNL     1       0.686  -6.484   2.042  1.00  0.00     0.027 C 
ATOM     20  C   UNL     1       2.045  -5.321   3.812  1.00  0.00     0.316 C 
BRANCH  11  21
ATOM     21  C   UNL     1      -1.535  -1.307   0.776  1.00  0.00     0.037 C 
BRANCH  21  22
ATOM     22  C   UNL     1      -0.879  -0.071   1.420  1.00  0.00     0.008 C 
BRANCH  22  23
ATOM     23  C   UNL     1       0.643   0.094   1.209  1.00  0.00    -0.017 C 
ATOM     24  C   UNL     1       1.027   0.289  -0.257  1.00  0.00     0.007 C 
ATOM     25  C   UNL     1       1.148   1.273   2.046  1.00  0.00     0.007 C 
ENDBRANCH  22  23
ENDBRANCH  21  22
ENDBRANCH  11  21
BRANCH  20  26
ATOM     26  C   UNL     1       3.510  -4.913   3.603  1.00  0.00     0.430 C 
ATOM     27  F   UNL     1       3.821  -3.810   4.323  1.00  0.00    -0.167 F 
ATOM     28  F   UNL     1       4.360  -5.893   3.983  1.00  0.00    -0.167 F 
ATOM     29  F   UNL     1       3.767  -4.635   2.303  1.00  0.00    -0.167 F 
ENDBRANCH  20  26
ENDBRANCH   8  10
ENDBRANCH   7   8
ENDBRANCH   6   7
ENDBRANCH   5   6
ENDBRANCH   4   5
ENDBRANCH   3   4
ENDBRANCH   2   3
ENDBRANCH   1   2
BRANCH   1  30
ATOM     30  C   UNL     1       0.325  -8.560   7.819  1.00  0.00     0.188 C 
BRANCH  30  31
ATOM     31  C   UNL     1      -0.711  -9.709   7.828  1.00  0.00     0.188 C 
BRANCH  31  32
ATOM     32  O   UNL     1      -1.924  -9.406   7.141  1.00  0.00    -0.376 OA
BRANCH  32  33
ATOM     33  C   UNL     1      -3.079  -9.191   7.942  1.00  0.00     0.202 C 
BRANCH  33  34
ATOM     34  C   UNL     1      -3.124  -7.816   8.616  1.00  0.00     0.261 C 
BRANCH  34  35
ATOM     35  O   UNL     1      -2.076  -7.565   9.563  1.00  0.00    -0.460 OA
BRANCH  35  36
ATOM     36  C   UNL     1      -1.961  -8.406  10.615  1.00  0.00     0.338 C 
ATOM     37  O   UNL     1      -2.691  -9.341  10.893  1.00  0.00    -0.246 OA
BRANCH  36  38
ATOM     38  C   UNL     1      -0.665  -8.118  11.264  1.00  0.00     0.060 A 
ATOM     39  C   UNL     1      -0.324  -6.805  11.599  1.00  0.00     0.016 A 
ATOM     40  C   UNL     1       0.232  -9.168  11.500  1.00  0.00     0.016 A 
ATOM     41  C   UNL     1       0.906  -6.546  12.201  1.00  0.00     0.010 A 
ATOM     42  C   UNL     1       1.467  -8.905  12.099  1.00  0.00     0.010 A 
ATOM     43  C   UNL     1       1.800  -7.596  12.476  1.00  0.00    -0.014 A 
BRANCH  43  44
ATOM     44  C   UNL     1       2.984  -7.331  13.328  1.00  0.00     0.031 A 
ATOM     45  C   UNL     1       4.358  -7.161  12.758  1.00  0.00     0.074 A 
ATOM     46  C   UNL     1       2.780  -7.226  14.655  1.00  0.00     0.049 A 
ATOM     47  N   UNL     1       5.459  -6.813  13.373  1.00  0.00    -0.248 NA
ATOM     48  C   UNL     1       4.524  -7.417  11.320  1.00  0.00     0.031 C 
ATOM     49  C   UNL     1       1.484  -7.403  15.317  1.00  0.00     0.029 A 
ATOM     50  N   UNL     1       3.641  -6.933  15.679  1.00  0.00    -0.354 N 
ATOM     51  C   UNL     1       6.448  -6.779  12.399  1.00  0.00     0.074 A 
ATOM     52  C   UNL     1       5.823  -7.192  11.157  1.00  0.00     0.031 C 
ATOM     53  C   UNL     1       1.632  -7.184  16.632  1.00  0.00     0.029 A 
ATOM     54  C   UNL     1       3.030  -6.873  16.908  1.00  0.00     0.049 A 
ATOM     55  H   UNL     1       4.605  -6.779  15.546  1.00  0.00     0.167 HD
ATOM     56  C   UNL     1       7.748  -6.418  12.532  1.00  0.00     0.037 A 
ATOM     57  C   UNL     1       3.535  -6.588  18.123  1.00  0.00     0.037 A 
ATOM     58  C   UNL     1       8.359  -6.028  13.780  1.00  0.00     0.049 A 
ATOM     59  C   UNL     1       4.989  -6.234  18.248  1.00  0.00     0.074 A 
ATOM     60  C   UNL     1       9.659  -5.606  14.005  1.00  0.00     0.029 A 
ATOM     61  N   UNL     1       7.723  -6.025  15.013  1.00  0.00    -0.354 N 
ATOM     62  N   UNL     1       5.893  -6.129  17.303  1.00  0.00    -0.248 NA
ATOM     63  C   UNL     1       5.491  -5.953  19.599  1.00  0.00     0.031 C 
ATOM     64  C   UNL     1       9.823  -5.397  15.378  1.00  0.00     0.029 A 
ATOM     65  C   UNL     1       8.612  -5.640  16.006  1.00  0.00     0.049 A 
ATOM     66  H   UNL     1       6.779  -6.261  15.162  1.00  0.00     0.167 HD
ATOM     67  C   UNL     1       7.069  -5.757  17.944  1.00  0.00     0.074 A 
ATOM     68  C   UNL     1       6.756  -5.637  19.354  1.00  0.00     0.031 C 
ATOM     69  C   UNL     1       8.295  -5.536  17.410  1.00  0.00     0.037 A 
BRANCH  56  70
ATOM     70  C   UNL     1       8.607  -6.411  11.297  1.00  0.00     0.058 A 
ATOM     71  C   UNL     1       8.456  -5.425  10.309  1.00  0.00     0.135 A 
ATOM     72  C   UNL     1       9.647  -7.342  11.137  1.00  0.00     0.135 A 
ATOM     73  F   UNL     1       7.475  -4.514  10.409  1.00  0.00    -0.206 F 
ATOM     74  C   UNL     1       9.294  -5.370   9.200  1.00  0.00     0.059 A 
ATOM     75  C   UNL     1      10.512  -7.293  10.047  1.00  0.00     0.059 A 
ATOM     76  F   UNL     1       9.839  -8.304  12.053  1.00  0.00    -0.206 F 
ATOM     77  C   UNL     1      10.322  -6.307   9.079  1.00  0.00     0.060 A 
BRANCH  77  78
ATOM     78  S   UNL     1      11.410  -6.209   7.641  1.00  0.00     0.124 S 
ATOM     79  O   UNL     1      10.512  -6.624   6.568  1.00  0.00    -0.237 OA
ATOM     80  O   UNL     1      11.794  -4.801   7.637  1.00  0.00    -0.237 OA
ATOM     81  O   UNL     1      12.481  -7.148   7.958  1.00  0.00    -0.744 OA
ENDBRANCH  77  78
ENDBRANCH  56  70
BRANCH  57  82
ATOM     82  C   UNL     1       2.637  -6.590  19.305  1.00  0.00     0.058 A 
ATOM     83  C   UNL     1       2.263  -5.391  19.926  1.00  0.00     0.135 A 
ATOM     84  C   UNL     1       2.098  -7.786  19.806  1.00  0.00     0.135 A 
ATOM     85  F   UNL     1       2.755  -4.224  19.482  1.00  0.00    -0.206 F 
ATOM     86  C   UNL     1       1.389  -5.374  21.007  1.00  0.00     0.059 A 
ATOM     87  C   UNL     1       1.203  -7.793  20.870  1.00  0.00     0.059 A 
ATOM     88  F   UNL     1       2.412  -8.958  19.232  1.00  0.00    -0.206 F 
ATOM     89  C   UNL     1       0.859  -6.581  21.468  1.00  0.00     0.060 A 
BRANCH  89  90
ATOM     90  S   UNL     1      -0.322  -6.538  22.832  1.00  0.00     0.124 S 
ATOM     91  O   UNL     1       0.538  -6.182  23.954  1.00  0.00    -0.237 OA
ATOM     92  O   UNL     1      -1.258  -5.509  22.392  1.00  0.00    -0.237 OA
ATOM     93  O   UNL     1      -0.859  -7.896  22.854  1.00  0.00    -0.744 OA
ENDBRANCH  89  90
ENDBRANCH  57  82
BRANCH  69  94
ATOM     94  C   UNL     1       9.400  -5.144  18.352  1.00  0.00     0.058 A 
ATOM     95  C   UNL     1       9.986  -6.078  19.220  1.00  0.00     0.135 A 
ATOM     96  C   UNL     1       9.924  -3.841  18.340  1.00  0.00     0.135 A 
ATOM     97  F   UNL     1       9.516  -7.334  19.278  1.00  0.00    -0.206 F 
ATOM     98  C   UNL     1      11.046  -5.732  20.052  1.00  0.00     0.059 A 
ATOM     99  C   UNL     1      11.000  -3.479  19.145  1.00  0.00     0.059 A 
ATOM    100  F   UNL     1       9.403  -2.910  17.525  1.00  0.00    -0.206 F 
ATOM    101  C   UNL     1      11.551  -4.431  20.003  1.00  0.00     0.060 A 
BRANCH 101 102
ATOM    102  S   UNL     1      12.961  -4.014  21.051  1.00  0.00     0.124 S 
ATOM    103  O   UNL     1      12.351  -4.005  22.376  1.00  0.00    -0.237 OA
ATOM    104  O   UNL     1      13.882  -5.114  20.785  1.00  0.00    -0.237 OA
ATOM    105  O   UNL     1      13.386  -2.711  20.547  1.00  0.00    -0.744 OA
ENDBRANCH 101 102
ENDBRANCH  69  94
ENDBRANCH  43  44
ENDBRANCH  36  38
ENDBRANCH  35  36
ENDBRANCH  34  35
ENDBRANCH  33  34
ENDBRANCH  32  33
ENDBRANCH  31  32
ENDBRANCH  30  31
ENDBRANCH   1  30
TORSDOF 27
