REMARK SMILES CS(=O)(=O)c1ccc(C2=NN(c3ccc(C(=O)OCCOCCOCCOCCOC(=O)c4ccc(-c5c6nc(c(-c7c(F)cc(S(=O)(=O)[O-])cc7F)c7ccc([nH]7)c(-c7c(F)cc(S(=O)(=O)[O-])cc7F)c7nc(c(-c8c(F)cc(S(=O)(=O)[O-])cc8F)c8ccc5[nH]8)C=C7)C=C6)cc4)cc3)[C@H](c3ccc(F)cc3)C2)cc1
REMARK SMILES IDX 24 1 23 2 22 3 21 4 20 5 19 6 18 7 16 8 17 9 15 10 12 11
REMARK SMILES IDX 13 12 100 13 14 14 99 15 11 16 9 17 10 18 109 19 101 20 8 21
REMARK SMILES IDX 5 22 6 23 111 24 7 25 110 26 2 27 1 28 3 29 4 30 102 31
REMARK SMILES IDX 103 32 108 33 104 34 107 35 105 36 106 37 25 38 26 39 27 40
REMARK SMILES IDX 28 41 29 42 30 43 31 44 32 45 33 46 34 47 98 48 35 49 97 50
REMARK SMILES IDX 36 51 37 52 38 53 91 54 39 55 96 56 90 57 92 58 40 59 95 60
REMARK SMILES IDX 89 61 88 62 41 64 75 65 54 66 74 67 55 68 58 69 73 70 93 71
REMARK SMILES IDX 56 72 57 73 72 75 94 76 59 77 42 78 43 79 52 80 44 81 45 82
REMARK SMILES IDX 51 83 53 84 46 85 47 86 48 87 49 88 50 89 76 90 77 91 86 92
REMARK SMILES IDX 78 93 79 94 85 95 87 96 80 97 81 98 82 99 83 100 84 101
REMARK SMILES IDX 60 102 61 103 70 104 62 105 63 106 69 107 71 108 64 109
REMARK SMILES IDX 65 110 66 111 67 112 68 113
REMARK H PARENT 92 63 58 74
REMARK Flexibility Score: inf
ROOT
ATOM      1  O   UNL     1       0.960  -5.912 -13.843  1.00  0.00    -0.377 OA
ENDROOT
BRANCH   1   2
ATOM      2  C   UNL     1       0.077  -4.935 -13.318  1.00  0.00     0.188 C 
BRANCH   2   3
ATOM      3  C   UNL     1      -0.533  -3.922 -14.307  1.00  0.00     0.188 C 
BRANCH   3   4
ATOM      4  O   UNL     1      -0.420  -4.313 -15.664  1.00  0.00    -0.376 OA
BRANCH   4   5
ATOM      5  C   UNL     1       0.531  -3.689 -16.506  1.00  0.00     0.202 C 
BRANCH   5   6
ATOM      6  C   UNL     1       2.012  -3.601 -16.106  1.00  0.00     0.261 C 
BRANCH   6   7
ATOM      7  O   UNL     1       2.283  -3.393 -14.720  1.00  0.00    -0.460 OA
BRANCH   7   8
ATOM      8  C   UNL     1       2.112  -2.150 -14.226  1.00  0.00     0.338 C 
ATOM      9  O   UNL     1       1.761  -1.159 -14.842  1.00  0.00    -0.246 OA
BRANCH   8  10
ATOM     10  C   UNL     1       2.248  -2.219 -12.748  1.00  0.00     0.060 A 
ATOM     11  C   UNL     1       2.573  -2.195  -9.963  1.00  0.00     0.060 A 
ATOM     12  C   UNL     1       1.642  -1.344 -10.571  1.00  0.00     0.029 A 
ATOM     13  C   UNL     1       3.221  -3.158 -10.748  1.00  0.00     0.029 A 
ATOM     14  C   UNL     1       1.486  -1.349 -11.960  1.00  0.00     0.018 A 
ATOM     15  C   UNL     1       3.082  -3.160 -12.135  1.00  0.00     0.018 A 
BRANCH  11  16
ATOM     16  N   UNL     1       3.025  -1.970  -8.656  1.00  0.00    -0.257 N 
ATOM     17  C   UNL     1       2.631  -1.309  -6.671  1.00  0.00     0.071 C 
ATOM     18  N   UNL     1       2.176  -2.089  -7.602  1.00  0.00    -0.176 NA
ATOM     19  C   UNL     1       3.783  -0.424  -7.059  1.00  0.00     0.091 C 
ATOM     20  C   UNL     1       4.073  -0.948  -8.471  1.00  0.00     0.144 C 
BRANCH  17  21
ATOM     21  C   UNL     1       2.081  -1.287  -5.305  1.00  0.00    -0.002 A 
ATOM     22  C   UNL     1       1.067  -1.333  -2.709  1.00  0.00     0.067 A 
ATOM     23  C   UNL     1       1.321  -2.536  -3.377  1.00  0.00     0.021 A 
ATOM     24  C   UNL     1       1.320  -0.106  -3.332  1.00  0.00     0.021 A 
ATOM     25  C   UNL     1       1.814  -2.511  -4.682  1.00  0.00     0.011 A 
ATOM     26  C   UNL     1       1.842  -0.085  -4.632  1.00  0.00     0.011 A 
BRANCH  22  27
ATOM     27  S   UNL     1       0.407  -1.410  -1.058  1.00  0.00     0.175 S 
ATOM     28  C   UNL     1       1.096  -0.038  -0.176  1.00  0.00     0.163 C 
ATOM     29  O   UNL     1       0.943  -2.610  -0.441  1.00  0.00    -0.224 OA
ATOM     30  O   UNL     1      -1.022  -1.197  -1.172  1.00  0.00    -0.224 OA
ENDBRANCH  22  27
ENDBRANCH  17  21
BRANCH  20  31
ATOM     31  C   UNL     1       5.455  -1.526  -8.758  1.00  0.00    -0.023 A 
ATOM     32  C   UNL     1       6.299  -2.058  -7.771  1.00  0.00     0.009 A 
ATOM     33  C   UNL     1       5.880  -1.612 -10.103  1.00  0.00     0.009 A 
ATOM     34  C   UNL     1       7.509  -2.667  -8.122  1.00  0.00     0.039 A 
ATOM     35  C   UNL     1       7.059  -2.269 -10.456  1.00  0.00     0.039 A 
ATOM     36  C   UNL     1       7.867  -2.788  -9.459  1.00  0.00     0.123 A 
ATOM     37  F   UNL     1       9.001  -3.420  -9.784  1.00  0.00    -0.207 F 
ENDBRANCH  20  31
ENDBRANCH  11  16
ENDBRANCH   8  10
ENDBRANCH   7   8
ENDBRANCH   6   7
ENDBRANCH   5   6
ENDBRANCH   4   5
ENDBRANCH   3   4
ENDBRANCH   2   3
ENDBRANCH   1   2
BRANCH   1  38
ATOM     38  C   UNL     1       0.510  -6.799 -14.866  1.00  0.00     0.188 C 
BRANCH  38  39
ATOM     39  C   UNL     1      -0.987  -6.963 -15.232  1.00  0.00     0.188 C 
BRANCH  39  40
ATOM     40  O   UNL     1      -1.904  -6.453 -14.278  1.00  0.00    -0.376 OA
BRANCH  40  41
ATOM     41  C   UNL     1      -2.611  -7.385 -13.480  1.00  0.00     0.202 C 
BRANCH  41  42
ATOM     42  C   UNL     1      -1.777  -8.247 -12.523  1.00  0.00     0.261 C 
BRANCH  42  43
ATOM     43  O   UNL     1      -0.726  -9.017 -13.124  1.00  0.00    -0.460 OA
BRANCH  43  44
ATOM     44  C   UNL     1      -1.083  -9.984 -13.997  1.00  0.00     0.338 C 
ATOM     45  O   UNL     1      -2.215 -10.288 -14.335  1.00  0.00    -0.246 OA
BRANCH  44  46
ATOM     46  C   UNL     1       0.155 -10.492 -14.623  1.00  0.00     0.060 A 
ATOM     47  C   UNL     1       0.336 -10.346 -16.005  1.00  0.00     0.016 A 
ATOM     48  C   UNL     1       1.146 -11.083 -13.838  1.00  0.00     0.016 A 
ATOM     49  C   UNL     1       1.506 -10.812 -16.608  1.00  0.00     0.010 A 
ATOM     50  C   UNL     1       2.306 -11.568 -14.446  1.00  0.00     0.010 A 
ATOM     51  C   UNL     1       2.481 -11.457 -15.836  1.00  0.00    -0.014 A 
BRANCH  51  52
ATOM     52  C   UNL     1       3.608 -12.162 -16.496  1.00  0.00     0.031 A 
ATOM     53  C   UNL     1       3.506 -13.651 -16.688  1.00  0.00     0.074 A 
ATOM     54  C   UNL     1       4.699 -11.498 -16.915  1.00  0.00     0.049 A 
ATOM     55  N   UNL     1       4.386 -14.489 -17.169  1.00  0.00    -0.248 NA
ATOM     56  C   UNL     1       2.238 -14.278 -16.279  1.00  0.00     0.031 C 
ATOM     57  C   UNL     1       4.898 -10.053 -16.819  1.00  0.00     0.029 A 
ATOM     58  N   UNL     1       5.856 -11.959 -17.495  1.00  0.00    -0.354 N 
ATOM     59  C   UNL     1       3.785 -15.741 -17.113  1.00  0.00     0.074 A 
ATOM     60  C   UNL     1       2.476 -15.557 -16.525  1.00  0.00     0.031 C 
ATOM     61  C   UNL     1       6.113  -9.747 -17.309  1.00  0.00     0.029 A 
ATOM     62  C   UNL     1       6.792 -10.976 -17.716  1.00  0.00     0.049 A 
ATOM     63  H   UNL     1       6.001 -12.904 -17.729  1.00  0.00     0.167 HD
ATOM     64  C   UNL     1       4.278 -16.934 -17.522  1.00  0.00     0.037 A 
ATOM     65  C   UNL     1       8.060 -11.065 -18.169  1.00  0.00     0.037 A 
ATOM     66  C   UNL     1       5.585 -17.110 -18.100  1.00  0.00     0.049 A 
ATOM     67  C   UNL     1       8.617 -12.417 -18.542  1.00  0.00     0.074 A 
ATOM     68  C   UNL     1       6.170 -18.274 -18.563  1.00  0.00     0.029 A 
ATOM     69  N   UNL     1       6.515 -16.096 -18.280  1.00  0.00    -0.354 N 
ATOM     70  N   UNL     1       8.030 -13.590 -18.513  1.00  0.00    -0.248 NA
ATOM     71  C   UNL     1      10.011 -12.457 -19.009  1.00  0.00     0.031 C 
ATOM     72  C   UNL     1       7.475 -17.977 -18.968  1.00  0.00     0.029 A 
ATOM     73  C   UNL     1       7.682 -16.614 -18.818  1.00  0.00     0.049 A 
ATOM     74  H   UNL     1       6.368 -15.148 -18.059  1.00  0.00     0.167 HD
ATOM     75  C   UNL     1       8.971 -14.502 -18.983  1.00  0.00     0.074 A 
ATOM     76  C   UNL     1      10.162 -13.742 -19.303  1.00  0.00     0.031 C 
ATOM     77  C   UNL     1       8.861 -15.845 -19.137  1.00  0.00     0.037 A 
BRANCH  64  78
ATOM     78  C   UNL     1       3.411 -18.149 -17.330  1.00  0.00     0.058 A 
ATOM     79  C   UNL     1       2.249 -18.359 -18.089  1.00  0.00     0.135 A 
ATOM     80  C   UNL     1       3.769 -19.136 -16.397  1.00  0.00     0.135 A 
ATOM     81  F   UNL     1       1.848 -17.440 -18.982  1.00  0.00    -0.206 F 
ATOM     82  C   UNL     1       1.459 -19.491 -17.913  1.00  0.00     0.059 A 
ATOM     83  C   UNL     1       3.011 -20.290 -16.225  1.00  0.00     0.059 A 
ATOM     84  F   UNL     1       4.868 -18.985 -15.641  1.00  0.00    -0.206 F 
ATOM     85  C   UNL     1       1.850 -20.452 -16.979  1.00  0.00     0.060 A 
BRANCH  85  86
ATOM     86  S   UNL     1       0.819 -21.919 -16.771  1.00  0.00     0.124 S 
ATOM     87  O   UNL     1      -0.357 -21.359 -16.113  1.00  0.00    -0.237 OA
ATOM     88  O   UNL     1       0.625 -22.360 -18.148  1.00  0.00    -0.237 OA
ATOM     89  O   UNL     1       1.640 -22.799 -15.944  1.00  0.00    -0.744 OA
ENDBRANCH  85  86
ENDBRANCH  64  78
BRANCH  65  90
ATOM     90  C   UNL     1       8.901  -9.841 -18.277  1.00  0.00     0.058 A 
ATOM     91  C   UNL     1       9.307  -9.347 -19.525  1.00  0.00     0.135 A 
ATOM     92  C   UNL     1       9.323  -9.145 -17.133  1.00  0.00     0.135 A 
ATOM     93  F   UNL     1       8.945  -9.985 -20.649  1.00  0.00    -0.206 F 
ATOM     94  C   UNL     1      10.109  -8.215 -19.637  1.00  0.00     0.059 A 
ATOM     95  C   UNL     1      10.101  -7.994 -17.220  1.00  0.00     0.059 A 
ATOM     96  F   UNL     1       8.960  -9.572 -15.913  1.00  0.00    -0.206 F 
ATOM     97  C   UNL     1      10.496  -7.542 -18.477  1.00  0.00     0.060 A 
BRANCH  97  98
ATOM     98  S   UNL     1      11.491  -6.043 -18.638  1.00  0.00     0.124 S 
ATOM     99  O   UNL     1      12.777  -6.586 -19.061  1.00  0.00    -0.237 OA
ATOM    100  O   UNL     1      10.751  -5.293 -19.648  1.00  0.00    -0.237 OA
ATOM    101  O   UNL     1      11.458  -5.471 -17.295  1.00  0.00    -0.744 OA
ENDBRANCH  97  98
ENDBRANCH  65  90
BRANCH  77 102
ATOM    102  C   UNL     1      10.043 -16.584 -19.706  1.00  0.00     0.058 A 
ATOM    103  C   UNL     1      11.222 -16.777 -18.968  1.00  0.00     0.135 A 
ATOM    104  C   UNL     1       9.973 -17.161 -20.985  1.00  0.00     0.135 A 
ATOM    105  F   UNL     1      11.347 -16.245 -17.742  1.00  0.00    -0.206 F 
ATOM    106  C   UNL     1      12.296 -17.494 -19.486  1.00  0.00     0.059 A 
ATOM    107  C   UNL     1      11.022 -17.908 -21.511  1.00  0.00     0.059 A 
ATOM    108  F   UNL     1       8.866 -17.018 -21.731  1.00  0.00    -0.206 F 
ATOM    109  C   UNL     1      12.185 -18.060 -20.758  1.00  0.00     0.060 A 
BRANCH 109 110
ATOM    110  S   UNL     1      13.573 -19.018 -21.402  1.00  0.00     0.124 S 
ATOM    111  O   UNL     1      14.551 -17.972 -21.679  1.00  0.00    -0.237 OA
ATOM    112  O   UNL     1      13.888 -19.901 -20.283  1.00  0.00    -0.237 OA
ATOM    113  O   UNL     1      13.014 -19.681 -22.577  1.00  0.00    -0.744 OA
ENDBRANCH 109 110
ENDBRANCH  77 102
ENDBRANCH  51  52
ENDBRANCH  44  46
ENDBRANCH  43  44
ENDBRANCH  42  43
ENDBRANCH  41  42
ENDBRANCH  40  41
ENDBRANCH  39  40
ENDBRANCH  38  39
ENDBRANCH   1  38
TORSDOF 27
