REMARK SMILES C[C@H](NC(=O)OCc1ccccc1)C(=O)NCC(=O)N1CCC[C@H]1C(=O)OCCOCCOCCOCCOC(=O)c1ccc(-c2c3nc(c(-c4c(F)cc(S(=O)(=O)[O-])cc4F)c4ccc([nH]4)c(-c4c(F)cc(S(=O)(=O)[O-])cc4F)c4nc(c(-c5c(F)cc(S(=O)(=O)[O-])cc5F)c5ccc2[nH]5)C=C4)C=C3)cc1
REMARK SMILES IDX 31 1 30 2 29 3 28 4 27 5 25 6 26 7 24 8 20 9 21 10 22 11
REMARK SMILES IDX 23 12 18 13 19 14 17 15 16 16 14 17 15 18 2 20 1 21 3 22
REMARK SMILES IDX 4 23 5 25 6 26 7 27 8 28 9 29 13 30 10 31 12 32 11 33 32 34
REMARK SMILES IDX 33 35 34 36 35 37 36 38 37 39 38 40 39 41 40 42 41 43 42 44
REMARK SMILES IDX 43 45 107 46 44 47 106 48 45 49 46 50 47 51 100 52 48 53
REMARK SMILES IDX 105 54 99 55 101 56 49 57 104 58 98 59 97 60 50 62 84 63
REMARK SMILES IDX 63 64 83 65 64 66 67 67 82 68 102 69 65 70 66 71 81 73
REMARK SMILES IDX 103 74 68 75 51 76 52 77 61 78 53 79 54 80 60 81 62 82 55 83
REMARK SMILES IDX 56 84 57 85 58 86 59 87 85 88 86 89 95 90 87 91 88 92 94 93
REMARK SMILES IDX 96 94 89 95 90 96 91 97 92 98 93 99 69 100 70 101 79 102
REMARK SMILES IDX 71 103 72 104 78 105 80 106 73 107 74 108 75 109 76 110
REMARK SMILES IDX 77 111
REMARK H PARENT 16 19 3 24 101 61 67 72
REMARK Flexibility Score: inf
ROOT
ATOM      1  C   UNL     1      -3.376  -3.799  -3.044  1.00  0.00     0.188 C 
ENDROOT
BRANCH   1   2
ATOM      2  O   UNL     1      -3.705  -4.902  -3.880  1.00  0.00    -0.376 OA
BRANCH   2   3
ATOM      3  C   UNL     1      -3.176  -6.186  -3.577  1.00  0.00     0.202 C 
BRANCH   3   4
ATOM      4  C   UNL     1      -1.667  -6.357  -3.308  1.00  0.00     0.261 C 
BRANCH   4   5
ATOM      5  O   UNL     1      -1.077  -5.453  -2.350  1.00  0.00    -0.462 OA
BRANCH   5   6
ATOM      6  C   UNL     1      -0.201  -4.514  -2.812  1.00  0.00     0.328 C 
ATOM      7  O   UNL     1       0.125  -4.419  -3.990  1.00  0.00    -0.250 OA
BRANCH   6   8
ATOM      8  C   UNL     1       0.281  -3.522  -1.700  1.00  0.00     0.195 C 
ATOM      9  N   UNL     1      -0.465  -2.251  -1.427  1.00  0.00    -0.327 N 
ATOM     10  C   UNL     1      -0.709  -2.103   0.008  1.00  0.00     0.120 C 
ATOM     11  C   UNL     1       0.295  -3.032   0.663  1.00  0.00     0.024 C 
ATOM     12  C   UNL     1       0.393  -4.189  -0.317  1.00  0.00     0.039 C 
BRANCH   9  13
ATOM     13  C   UNL     1      -0.688  -1.351  -2.442  1.00  0.00     0.242 C 
ATOM     14  O   UNL     1      -0.434  -1.654  -3.612  1.00  0.00    -0.273 OA
BRANCH  13  15
ATOM     15  C   UNL     1      -1.119   0.109  -2.195  1.00  0.00     0.216 C 
BRANCH  15  16
ATOM     16  N   UNL     1      -1.683   0.578  -0.947  1.00  0.00    -0.345 N 
ATOM     17  C   UNL     1      -1.130   1.360   0.026  1.00  0.00     0.242 C 
ATOM     18  O   UNL     1      -1.899   1.840   0.864  1.00  0.00    -0.273 OA
ATOM     19  H   UNL     1      -2.608   0.289  -0.772  1.00  0.00     0.164 HD
BRANCH  17  20
ATOM     20  C   UNL     1       0.364   1.750   0.019  1.00  0.00     0.171 C 
ATOM     21  C   UNL     1       0.604   2.929  -0.922  1.00  0.00     0.042 C 
BRANCH  20  22
ATOM     22  N   UNL     1       1.265   0.644  -0.282  1.00  0.00    -0.310 N 
ATOM     23  C   UNL     1       2.592   0.599   0.021  1.00  0.00     0.408 C 
ATOM     24  H   UNL     1       0.882  -0.137  -0.743  1.00  0.00     0.167 HD
ATOM     25  O   UNL     1       3.285  -0.348  -0.303  1.00  0.00    -0.225 OA
BRANCH  23  26
ATOM     26  O   UNL     1       3.003   1.708   0.678  1.00  0.00    -0.445 OA
BRANCH  26  27
ATOM     27  C   UNL     1       4.412   1.803   0.899  1.00  0.00     0.270 C 
BRANCH  27  28
ATOM     28  C   UNL     1       4.892   1.050   2.115  1.00  0.00    -0.011 A 
ATOM     29  C   UNL     1       4.024   0.621   3.129  1.00  0.00     0.007 A 
ATOM     30  C   UNL     1       6.265   0.794   2.248  1.00  0.00     0.007 A 
ATOM     31  C   UNL     1       4.515  -0.083   4.229  1.00  0.00     0.000 A 
ATOM     32  C   UNL     1       6.755   0.098   3.352  1.00  0.00     0.000 A 
ATOM     33  C   UNL     1       5.878  -0.347   4.338  1.00  0.00     0.000 A 
ENDBRANCH  27  28
ENDBRANCH  26  27
ENDBRANCH  23  26
ENDBRANCH  20  22
ENDBRANCH  17  20
ENDBRANCH  15  16
ENDBRANCH  13  15
ENDBRANCH   9  13
ENDBRANCH   6   8
ENDBRANCH   5   6
ENDBRANCH   4   5
ENDBRANCH   3   4
ENDBRANCH   2   3
ENDBRANCH   1   2
BRANCH   1  34
ATOM     34  C   UNL     1      -3.306  -3.992  -1.516  1.00  0.00     0.188 C 
BRANCH  34  35
ATOM     35  O   UNL     1      -3.626  -5.286  -1.053  1.00  0.00    -0.377 OA
BRANCH  35  36
ATOM     36  C   UNL     1      -4.955  -5.485  -0.610  1.00  0.00     0.188 C 
BRANCH  36  37
ATOM     37  C   UNL     1      -6.078  -4.801  -1.410  1.00  0.00     0.188 C 
BRANCH  37  38
ATOM     38  O   UNL     1      -5.864  -3.408  -1.620  1.00  0.00    -0.376 OA
BRANCH  38  39
ATOM     39  C   UNL     1      -6.520  -2.467  -0.787  1.00  0.00     0.202 C 
BRANCH  39  40
ATOM     40  C   UNL     1      -6.068  -2.360   0.680  1.00  0.00     0.261 C 
BRANCH  40  41
ATOM     41  O   UNL     1      -6.079  -3.567   1.450  1.00  0.00    -0.460 OA
BRANCH  41  42
ATOM     42  C   UNL     1      -7.262  -4.203   1.591  1.00  0.00     0.338 C 
ATOM     43  O   UNL     1      -8.341  -3.838   1.165  1.00  0.00    -0.246 OA
BRANCH  42  44
ATOM     44  C   UNL     1      -6.988  -5.534   2.175  1.00  0.00     0.060 A 
ATOM     45  C   UNL     1      -7.370  -6.676   1.458  1.00  0.00     0.016 A 
ATOM     46  C   UNL     1      -6.343  -5.654   3.408  1.00  0.00     0.016 A 
ATOM     47  C   UNL     1      -7.152  -7.943   1.996  1.00  0.00     0.010 A 
ATOM     48  C   UNL     1      -6.150  -6.924   3.959  1.00  0.00     0.010 A 
ATOM     49  C   UNL     1      -6.596  -8.069   3.275  1.00  0.00    -0.014 A 
BRANCH  49  50
ATOM     50  C   UNL     1      -6.734  -9.356   3.998  1.00  0.00     0.031 A 
ATOM     51  C   UNL     1      -7.894  -9.499   4.948  1.00  0.00     0.074 A 
ATOM     52  C   UNL     1      -5.890 -10.381   3.791  1.00  0.00     0.049 A 
ATOM     53  N   UNL     1      -8.217 -10.500   5.723  1.00  0.00    -0.248 NA
ATOM     54  C   UNL     1      -8.812  -8.350   5.035  1.00  0.00     0.031 C 
ATOM     55  C   UNL     1      -4.766 -10.379   2.856  1.00  0.00     0.029 A 
ATOM     56  N   UNL     1      -5.850 -11.627   4.364  1.00  0.00    -0.354 N 
ATOM     57  C   UNL     1      -9.369 -10.100   6.392  1.00  0.00     0.074 A 
ATOM     58  C   UNL     1      -9.665  -8.751   5.964  1.00  0.00     0.031 C 
ATOM     59  C   UNL     1      -4.141 -11.568   2.926  1.00  0.00     0.029 A 
ATOM     60  C   UNL     1      -4.799 -12.400   3.933  1.00  0.00     0.049 A 
ATOM     61  H   UNL     1      -6.513 -11.939   5.022  1.00  0.00     0.167 HD
ATOM     62  C   UNL     1     -10.121 -10.798   7.274  1.00  0.00     0.037 A 
ATOM     63  C   UNL     1      -4.407 -13.630   4.324  1.00  0.00     0.037 A 
ATOM     64  C   UNL     1      -9.815 -12.137   7.700  1.00  0.00     0.049 A 
ATOM     65  C   UNL     1      -5.210 -14.358   5.375  1.00  0.00     0.074 A 
ATOM     66  C   UNL     1     -10.507 -12.937   8.591  1.00  0.00     0.029 A 
ATOM     67  N   UNL     1      -8.719 -12.873   7.269  1.00  0.00    -0.354 N 
ATOM     68  N   UNL     1      -6.302 -13.974   5.995  1.00  0.00    -0.248 NA
ATOM     69  C   UNL     1      -4.733 -15.689   5.774  1.00  0.00     0.031 C 
ATOM     70  C   UNL     1      -9.798 -14.132   8.745  1.00  0.00     0.029 A 
ATOM     71  C   UNL     1      -8.704 -14.108   7.894  1.00  0.00     0.049 A 
ATOM     72  H   UNL     1      -8.052 -12.562   6.615  1.00  0.00     0.167 HD
ATOM     73  C   UNL     1      -6.664 -15.034   6.824  1.00  0.00     0.074 A 
ATOM     74  C   UNL     1      -5.677 -16.074   6.621  1.00  0.00     0.031 C 
ATOM     75  C   UNL     1      -7.721 -15.140   7.669  1.00  0.00     0.037 A 
BRANCH  62  76
ATOM     76  C   UNL     1     -11.325 -10.109   7.859  1.00  0.00     0.058 A 
ATOM     77  C   UNL     1     -12.455  -9.801   7.084  1.00  0.00     0.135 A 
ATOM     78  C   UNL     1     -11.351  -9.760   9.219  1.00  0.00     0.135 A 
ATOM     79  F   UNL     1     -12.476 -10.089   5.772  1.00  0.00    -0.206 F 
ATOM     80  C   UNL     1     -13.554  -9.144   7.628  1.00  0.00     0.059 A 
ATOM     81  C   UNL     1     -12.453  -9.133   9.793  1.00  0.00     0.059 A 
ATOM     82  F   UNL     1     -10.296 -10.024  10.006  1.00  0.00    -0.206 F 
ATOM     83  C   UNL     1     -13.543  -8.815   8.985  1.00  0.00     0.060 A 
BRANCH  83  84
ATOM     84  S   UNL     1     -14.977  -7.963   9.675  1.00  0.00     0.124 S 
ATOM     85  O   UNL     1     -14.851  -6.642   9.066  1.00  0.00    -0.237 OA
ATOM     86  O   UNL     1     -16.085  -8.780   9.193  1.00  0.00    -0.237 OA
ATOM     87  O   UNL     1     -14.743  -8.014  11.115  1.00  0.00    -0.744 OA
ENDBRANCH  83  84
ENDBRANCH  62  76
BRANCH  63  88
ATOM     88  C   UNL     1      -3.196 -14.256   3.725  1.00  0.00     0.058 A 
ATOM     89  C   UNL     1      -3.295 -15.394   2.910  1.00  0.00     0.135 A 
ATOM     90  C   UNL     1      -1.913 -13.737   3.965  1.00  0.00     0.135 A 
ATOM     91  F   UNL     1      -4.496 -15.938   2.661  1.00  0.00    -0.206 F 
ATOM     92  C   UNL     1      -2.168 -16.005   2.368  1.00  0.00     0.059 A 
ATOM     93  C   UNL     1      -0.774 -14.312   3.409  1.00  0.00     0.059 A 
ATOM     94  F   UNL     1      -1.761 -12.646   4.731  1.00  0.00    -0.206 F 
ATOM     95  C   UNL     1      -0.911 -15.452   2.620  1.00  0.00     0.060 A 
BRANCH  95  96
ATOM     96  S   UNL     1       0.539 -16.226   1.872  1.00  0.00     0.124 S 
ATOM     97  O   UNL     1       0.629 -17.472   2.623  1.00  0.00    -0.237 OA
ATOM     98  O   UNL     1       0.131 -16.349   0.476  1.00  0.00    -0.237 OA
ATOM     99  O   UNL     1       1.603 -15.259   2.123  1.00  0.00    -0.744 OA
ENDBRANCH  95  96
ENDBRANCH  63  88
BRANCH  75 100
ATOM    100  C   UNL     1      -7.909 -16.447   8.394  1.00  0.00     0.058 A 
ATOM    101  C   UNL     1      -7.050 -16.862   9.423  1.00  0.00     0.135 A 
ATOM    102  C   UNL     1      -9.006 -17.270   8.087  1.00  0.00     0.135 A 
ATOM    103  F   UNL     1      -5.985 -16.116   9.757  1.00  0.00    -0.206 F 
ATOM    104  C   UNL     1      -7.253 -18.060  10.101  1.00  0.00     0.059 A 
ATOM    105  C   UNL     1      -9.248 -18.455   8.775  1.00  0.00     0.059 A 
ATOM    106  F   UNL     1      -9.868 -16.916   7.121  1.00  0.00    -0.206 F 
ATOM    107  C   UNL     1      -8.357 -18.849   9.771  1.00  0.00     0.060 A 
BRANCH 107 108
ATOM    108  S   UNL     1      -8.624 -20.387  10.678  1.00  0.00     0.124 S 
ATOM    109  O   UNL     1      -7.551 -21.226  10.155  1.00  0.00    -0.237 OA
ATOM    110  O   UNL     1      -8.477 -19.959  12.066  1.00  0.00    -0.237 OA
ATOM    111  O   UNL     1      -9.975 -20.781  10.289  1.00  0.00    -0.744 OA
ENDBRANCH 107 108
ENDBRANCH  75 100
ENDBRANCH  49  50
ENDBRANCH  42  44
ENDBRANCH  41  42
ENDBRANCH  40  41
ENDBRANCH  39  40
ENDBRANCH  38  39
ENDBRANCH  37  38
ENDBRANCH  36  37
ENDBRANCH  35  36
ENDBRANCH  34  35
ENDBRANCH   1  34
TORSDOF 31
