REMARK SMILES C[C@H]1CC[C@@]2(CO)C(C(=O)OCCOCCOCCOCCOC(=O)c3ccc(-c4c5nc(c(-c6c(F)cc(S(=O)(=O)[O-])cc6F)c6ccc([nH]6)c(-c6c(F)cc(S(=O)(=O)[O-])cc6F)c6nc(c(-c7c(F)cc(S(=O)(=O)[O-])cc7F)c7ccc4[nH]7)C=C6)C=C5)cc3)=C[C@@H](O)C[C@@H]2[C@@]1(C)CCc1ccoc1
REMARK SMILES IDX 17 1 16 2 15 3 14 4 13 5 12 6 11 7 9 8 10 9 8 10 1 11 2 12
REMARK SMILES IDX 3 13 97 14 4 15 96 16 98 17 5 18 95 19 93 20 92 21 99 22
REMARK SMILES IDX 100 23 101 24 102 25 105 26 103 27 104 28 6 29 7 30 94 32
REMARK SMILES IDX 18 34 19 35 20 36 21 37 22 38 23 39 24 40 25 41 26 42 27 43
REMARK SMILES IDX 91 44 28 45 90 46 29 47 30 48 31 49 84 50 32 51 89 52 83 53
REMARK SMILES IDX 85 54 33 55 88 56 82 57 81 58 34 60 68 61 47 62 67 63 48 64
REMARK SMILES IDX 51 65 66 66 86 67 49 68 50 69 65 71 87 72 52 73 35 74 36 75
REMARK SMILES IDX 45 76 37 77 38 78 44 79 46 80 39 81 40 82 41 83 42 84 43 85
REMARK SMILES IDX 69 86 70 87 79 88 71 89 72 90 78 91 80 92 73 93 74 94 75 95
REMARK SMILES IDX 76 96 77 97 53 98 54 99 63 100 55 101 56 102 62 103 64 104
REMARK SMILES IDX 57 105 58 106 59 107 60 108 61 109
REMARK H PARENT 7 31 94 33 85 59 51 70
REMARK Flexibility Score: inf
ROOT
ATOM      1  O   UNL     1       3.150   3.659  -0.978  1.00  0.00    -0.377 OA
ENDROOT
BRANCH   1   2
ATOM      2  C   UNL     1       4.011   2.553  -0.727  1.00  0.00     0.188 C 
BRANCH   2   3
ATOM      3  C   UNL     1       4.094   1.413  -1.767  1.00  0.00     0.188 C 
BRANCH   3   4
ATOM      4  O   UNL     1       3.407   1.671  -2.983  1.00  0.00    -0.376 OA
BRANCH   4   5
ATOM      5  C   UNL     1       2.198   1.018  -3.313  1.00  0.00     0.202 C 
BRANCH   5   6
ATOM      6  C   UNL     1       0.840   1.466  -2.694  1.00  0.00     0.261 C 
BRANCH   6   7
ATOM      7  O   UNL     1       0.812   2.076  -1.391  1.00  0.00    -0.460 OA
BRANCH   7   8
ATOM      8  C   UNL     1       1.323   1.258  -0.453  1.00  0.00     0.334 C 
ATOM      9  O   UNL     1       1.865   0.210  -0.762  1.00  0.00    -0.247 OA
BRANCH   8  10
ATOM     10  C   UNL     1       1.211   1.688   0.979  1.00  0.00     0.044 C 
ATOM     11  C   UNL     1       0.602  -2.037  -0.285  1.00  0.00     0.008 C 
ATOM     12  C   UNL     1       0.651  -2.325   1.233  1.00  0.00    -0.008 C 
ATOM     13  C   UNL     1       2.017  -1.981   1.808  1.00  0.00     0.005 C 
ATOM     14  C   UNL     1      -0.520  -1.650   1.994  1.00  0.00    -0.026 C 
ATOM     15  C   UNL     1       2.386  -0.515   1.773  1.00  0.00     0.015 C 
ATOM     16  C   UNL     1      -0.314  -0.077   1.763  1.00  0.00     0.011 C 
ATOM     17  C   UNL     1      -0.496  -1.857   3.526  1.00  0.00     0.012 C 
ATOM     18  C   UNL     1       1.212   0.496   1.997  1.00  0.00     0.029 C 
ATOM     19  C   UNL     1      -1.323   0.993   2.268  1.00  0.00     0.041 C 
ATOM     20  C   UNL     1      -1.087   2.360   1.525  1.00  0.00     0.138 C 
ATOM     21  C   UNL     1       0.367   2.715   1.235  1.00  0.00     0.016 C 
BRANCH  14  22
ATOM     22  C   UNL     1      -1.886  -2.370   1.526  1.00  0.00     0.012 C 
BRANCH  22  23
ATOM     23  C   UNL     1      -2.073  -3.423   0.354  1.00  0.00     0.039 C 
BRANCH  23  24
ATOM     24  C   UNL     1      -1.192  -4.670   0.207  1.00  0.00    -0.010 A 
ATOM     25  C   UNL     1      -0.125  -4.926  -0.733  1.00  0.00     0.045 A 
ATOM     26  C   UNL     1      -1.321  -5.886   0.857  1.00  0.00     0.198 A 
ATOM     27  C   UNL     1       0.418  -6.149  -0.437  1.00  0.00     0.195 A 
ATOM     28  O   UNL     1      -0.334  -6.758   0.506  1.00  0.00    -0.472 OA
ENDBRANCH  23  24
ENDBRANCH  22  23
ENDBRANCH  14  22
BRANCH  18  29
ATOM     29  C   UNL     1       1.536   1.164   3.409  1.00  0.00     0.168 C 
BRANCH  29  30
ATOM     30  O   UNL     1       2.189   0.347   4.381  1.00  0.00    -0.395 OA
ATOM     31  H   UNL     1       1.609  -0.391   4.626  1.00  0.00     0.210 HD
ENDBRANCH  29  30
ENDBRANCH  18  29
BRANCH  20  32
ATOM     32  O   UNL     1      -1.742   2.302   0.261  1.00  0.00    -0.389 OA
ATOM     33  H   UNL     1      -1.339   1.605  -0.280  1.00  0.00     0.211 HD
ENDBRANCH  20  32
ENDBRANCH   8  10
ENDBRANCH   7   8
ENDBRANCH   6   7
ENDBRANCH   5   6
ENDBRANCH   4   5
ENDBRANCH   3   4
ENDBRANCH   2   3
ENDBRANCH   1   2
BRANCH   1  34
ATOM     34  C   UNL     1       3.085   4.210  -2.294  1.00  0.00     0.188 C 
BRANCH  34  35
ATOM     35  C   UNL     1       4.346   4.195  -3.189  1.00  0.00     0.188 C 
BRANCH  35  36
ATOM     36  O   UNL     1       5.544   3.855  -2.512  1.00  0.00    -0.376 OA
BRANCH  36  37
ATOM     37  C   UNL     1       6.347   4.931  -2.055  1.00  0.00     0.202 C 
BRANCH  37  38
ATOM     38  C   UNL     1       5.700   5.944  -1.096  1.00  0.00     0.261 C 
BRANCH  38  39
ATOM     39  O   UNL     1       4.554   6.665  -1.585  1.00  0.00    -0.460 OA
BRANCH  39  40
ATOM     40  C   UNL     1       4.658   7.338  -2.752  1.00  0.00     0.338 C 
ATOM     41  O   UNL     1       5.662   7.487  -3.428  1.00  0.00    -0.246 OA
BRANCH  40  42
ATOM     42  C   UNL     1       3.285   7.669  -3.197  1.00  0.00     0.060 A 
ATOM     43  C   UNL     1       2.820   7.167  -4.423  1.00  0.00     0.016 A 
ATOM     44  C   UNL     1       2.450   8.443  -2.390  1.00  0.00     0.016 A 
ATOM     45  C   UNL     1       1.530   7.466  -4.859  1.00  0.00     0.010 A 
ATOM     46  C   UNL     1       1.173   8.777  -2.846  1.00  0.00     0.010 A 
ATOM     47  C   UNL     1       0.723   8.320  -4.098  1.00  0.00    -0.014 A 
BRANCH  47  48
ATOM     48  C   UNL     1      -0.463   8.948  -4.725  1.00  0.00     0.031 A 
ATOM     49  C   UNL     1      -0.268  10.284  -5.391  1.00  0.00     0.074 A 
ATOM     50  C   UNL     1      -1.671   8.358  -4.716  1.00  0.00     0.049 A 
ATOM     51  N   UNL     1      -1.149  11.076  -5.941  1.00  0.00    -0.248 NA
ATOM     52  C   UNL     1       1.113  10.796  -5.438  1.00  0.00     0.031 C 
ATOM     53  C   UNL     1      -1.968   7.045  -4.147  1.00  0.00     0.029 A 
ATOM     54  N   UNL     1      -2.879   8.802  -5.192  1.00  0.00    -0.354 N 
ATOM     55  C   UNL     1      -0.434  12.182  -6.386  1.00  0.00     0.074 A 
ATOM     56  C   UNL     1       0.950  11.970  -6.027  1.00  0.00     0.031 C 
ATOM     57  C   UNL     1      -3.285   6.802  -4.282  1.00  0.00     0.029 A 
ATOM     58  C   UNL     1      -3.925   7.955  -4.916  1.00  0.00     0.049 A 
ATOM     59  H   UNL     1      -2.986   9.648  -5.684  1.00  0.00     0.167 HD
ATOM     60  C   UNL     1      -0.892  13.276  -7.036  1.00  0.00     0.037 A 
ATOM     61  C   UNL     1      -5.249   8.112  -5.122  1.00  0.00     0.037 A 
ATOM     62  C   UNL     1      -2.272  13.481  -7.385  1.00  0.00     0.049 A 
ATOM     63  C   UNL     1      -5.747   9.374  -5.785  1.00  0.00     0.074 A 
ATOM     64  C   UNL     1      -2.836  14.544  -8.066  1.00  0.00     0.029 A 
ATOM     65  N   UNL     1      -3.305  12.611  -7.068  1.00  0.00    -0.354 N 
ATOM     66  N   UNL     1      -5.059  10.401  -6.229  1.00  0.00    -0.248 NA
ATOM     67  C   UNL     1      -7.199   9.501  -5.974  1.00  0.00     0.031 C 
ATOM     68  C   UNL     1      -4.220  14.346  -8.108  1.00  0.00     0.029 A 
ATOM     69  C   UNL     1      -4.510  13.130  -7.509  1.00  0.00     0.049 A 
ATOM     70  H   UNL     1      -3.197  11.752  -6.599  1.00  0.00     0.167 HD
ATOM     71  C   UNL     1      -5.992  11.281  -6.770  1.00  0.00     0.074 A 
ATOM     72  C   UNL     1      -7.290  10.660  -6.611  1.00  0.00     0.031 C 
ATOM     73  C   UNL     1      -5.794  12.494  -7.346  1.00  0.00     0.037 A 
BRANCH  60  74
ATOM     74  C   UNL     1       0.101  14.353  -7.373  1.00  0.00     0.058 A 
ATOM     75  C   UNL     1       1.071  14.183  -8.373  1.00  0.00     0.135 A 
ATOM     76  C   UNL     1       0.057  15.587  -6.705  1.00  0.00     0.135 A 
ATOM     77  F   UNL     1       1.174  13.014  -9.025  1.00  0.00    -0.206 F 
ATOM     78  C   UNL     1       1.974  15.193  -8.688  1.00  0.00     0.059 A 
ATOM     79  C   UNL     1       0.931  16.622  -7.023  1.00  0.00     0.059 A 
ATOM     80  F   UNL     1      -0.844  15.798  -5.733  1.00  0.00    -0.206 F 
ATOM     81  C   UNL     1       1.893  16.411  -8.010  1.00  0.00     0.060 A 
BRANCH  81  82
ATOM     82  S   UNL     1       3.058  17.720  -8.445  1.00  0.00     0.124 S 
ATOM     83  O   UNL     1       4.304  17.197  -7.894  1.00  0.00    -0.237 OA
ATOM     84  O   UNL     1       2.969  17.742  -9.902  1.00  0.00    -0.237 OA
ATOM     85  O   UNL     1       2.518  18.895  -7.769  1.00  0.00    -0.744 OA
ENDBRANCH  81  82
ENDBRANCH  60  74
BRANCH  61  86
ATOM     86  C   UNL     1      -6.206   7.065  -4.668  1.00  0.00     0.058 A 
ATOM     87  C   UNL     1      -6.941   6.300  -5.585  1.00  0.00     0.135 A 
ATOM     88  C   UNL     1      -6.413   6.818  -3.301  1.00  0.00     0.135 A 
ATOM     89  F   UNL     1      -6.792   6.507  -6.903  1.00  0.00    -0.206 F 
ATOM     90  C   UNL     1      -7.856   5.338  -5.167  1.00  0.00     0.059 A 
ATOM     91  C   UNL     1      -7.301   5.843  -2.858  1.00  0.00     0.059 A 
ATOM     92  F   UNL     1      -5.733   7.518  -2.380  1.00  0.00    -0.206 F 
ATOM     93  C   UNL     1      -8.027   5.114  -3.799  1.00  0.00     0.060 A 
BRANCH  93  94
ATOM     94  S   UNL     1      -9.182   3.832  -3.268  1.00  0.00     0.124 S 
ATOM     95  O   UNL     1     -10.468   4.449  -3.573  1.00  0.00    -0.237 OA
ATOM     96  O   UNL     1      -8.797   2.705  -4.112  1.00  0.00    -0.237 OA
ATOM     97  O   UNL     1      -8.879   3.674  -1.848  1.00  0.00    -0.744 OA
ENDBRANCH  93  94
ENDBRANCH  61  86
BRANCH  73  98
ATOM     98  C   UNL     1      -7.000  13.221  -7.878  1.00  0.00     0.058 A 
ATOM     99  C   UNL     1      -7.944  13.810  -7.023  1.00  0.00     0.135 A 
ATOM    100  C   UNL     1      -7.175  13.389  -9.261  1.00  0.00     0.135 A 
ATOM    101  F   UNL     1      -7.827  13.677  -5.692  1.00  0.00    -0.206 F 
ATOM    102  C   UNL     1      -9.032  14.521  -7.521  1.00  0.00     0.059 A 
ATOM    103  C   UNL     1      -8.237  14.122  -9.781  1.00  0.00     0.059 A 
ATOM    104  F   UNL     1      -6.293  12.858 -10.124  1.00  0.00    -0.206 F 
ATOM    105  C   UNL     1      -9.168  14.674  -8.902  1.00  0.00     0.060 A 
BRANCH 105 106
ATOM    106  S   UNL     1     -10.563  15.630  -9.534  1.00  0.00     0.124 S 
ATOM    107  O   UNL     1     -11.677  14.719  -9.291  1.00  0.00    -0.237 OA
ATOM    108  O   UNL     1     -10.527  16.825  -8.696  1.00  0.00    -0.237 OA
ATOM    109  O   UNL     1     -10.222  15.845 -10.937  1.00  0.00    -0.744 OA
ENDBRANCH 105 106
ENDBRANCH  73  98
ENDBRANCH  47  48
ENDBRANCH  40  42
ENDBRANCH  39  40
ENDBRANCH  38  39
ENDBRANCH  37  38
ENDBRANCH  36  37
ENDBRANCH  35  36
ENDBRANCH  34  35
ENDBRANCH   1  34
TORSDOF 29
