REMARK SMILES CCOc1cc([C@@H]2[NH2+][C@H](C(=O)OCCOCCOCCOCCOC(=O)c3ccc(-c4c5nc(c(-c6c(F)cc(S(=O)(=O)[O-])cc6F)c6ccc([nH]6)c(-c6c(F)cc(S(=O)(=O)[O-])cc6F)c6nc(c(-c7c(F)cc(S(=O)(=O)[O-])cc7F)c7ccc4[nH]7)C=C6)C=C5)cc3)CS2)ccc1OCc1ccc(Cl)cc1
REMARK SMILES IDX 17 1 16 2 15 3 14 4 13 5 12 6 10 7 11 8 9 9 7 10 8 11 94 12
REMARK SMILES IDX 93 15 6 16 4 17 5 18 97 19 96 20 95 21 3 22 2 23 1 24 98 25
REMARK SMILES IDX 99 26 100 27 101 28 106 29 102 30 105 31 103 32 104 33 18 34
REMARK SMILES IDX 19 35 20 36 21 37 22 38 23 39 24 40 25 41 26 42 27 43 28 44
REMARK SMILES IDX 92 45 29 46 91 47 30 48 31 49 32 50 85 51 33 52 90 53 84 54
REMARK SMILES IDX 86 55 34 56 89 57 83 58 82 59 35 61 69 62 48 63 68 64 49 65
REMARK SMILES IDX 52 66 67 67 87 68 50 69 51 70 66 72 88 73 53 74 36 75 37 76
REMARK SMILES IDX 46 77 38 78 39 79 45 80 47 81 40 82 41 83 42 84 43 85 44 86
REMARK SMILES IDX 70 87 71 88 80 89 72 90 73 91 79 92 81 93 74 94 75 95 76 96
REMARK SMILES IDX 77 97 78 98 54 99 55 100 64 101 56 102 57 103 63 104 65 105
REMARK SMILES IDX 58 106 59 107 60 108 61 109 62 110
REMARK H PARENT 8 13 8 14 86 60 52 71
REMARK Flexibility Score: inf
ROOT
ATOM      1  C   UNL     1       3.598  -3.014   4.454  1.00  0.00     0.188 C 
ENDROOT
BRANCH   1   2
ATOM      2  C   UNL     1       4.218  -1.826   5.206  1.00  0.00     0.188 C 
BRANCH   2   3
ATOM      3  O   UNL     1       3.788  -0.509   4.896  1.00  0.00    -0.376 OA
BRANCH   3   4
ATOM      4  C   UNL     1       4.056   0.095   3.634  1.00  0.00     0.202 C 
BRANCH   4   5
ATOM      5  C   UNL     1       5.236  -0.350   2.756  1.00  0.00     0.261 C 
BRANCH   5   6
ATOM      6  O   UNL     1       5.319  -1.774   2.619  1.00  0.00    -0.459 OA
BRANCH   6   7
ATOM      7  C   UNL     1       6.507  -2.311   2.248  1.00  0.00     0.365 C 
ATOM      8  O   UNL     1       7.492  -1.637   1.960  1.00  0.00    -0.245 OA
BRANCH   7   9
ATOM      9  C   UNL     1       6.562  -3.857   2.384  1.00  0.00     0.304 C 
ATOM     10  C   UNL     1       4.935  -4.918   0.952  1.00  0.00     0.274 C 
ATOM     11  N   UNL     1       5.254  -4.590   2.350  1.00  0.00    -0.319 N 
ATOM     12  S   UNL     1       6.496  -5.638   0.376  1.00  0.00    -0.087 SA
ATOM     13  H   UNL     1       5.327  -5.448   2.897  1.00  0.00     0.348 HD
ATOM     14  H   UNL     1       4.518  -4.006   2.748  1.00  0.00     0.348 HD
ATOM     15  C   UNL     1       7.506  -4.475   1.349  1.00  0.00     0.153 C 
BRANCH  10  16
ATOM     16  C   UNL     1       4.428  -3.671   0.238  1.00  0.00     0.024 A 
ATOM     17  C   UNL     1       2.883  -1.769   0.320  1.00  0.00     0.161 A 
ATOM     18  C   UNL     1       3.189  -3.100   0.636  1.00  0.00     0.061 A 
ATOM     19  C   UNL     1       3.819  -1.016  -0.404  1.00  0.00     0.161 A 
ATOM     20  C   UNL     1       4.990  -1.606  -0.884  1.00  0.00     0.051 A 
ATOM     21  C   UNL     1       5.263  -2.937  -0.617  1.00  0.00     0.015 A 
BRANCH  17  22
ATOM     22  O   UNL     1       1.762  -1.156   0.816  1.00  0.00    -0.490 OA
BRANCH  22  23
ATOM     23  C   UNL     1       0.528  -1.600   0.232  1.00  0.00     0.226 C 
ATOM     24  C   UNL     1      -0.478  -0.455   0.310  1.00  0.00     0.049 C 
ENDBRANCH  22  23
ENDBRANCH  17  22
BRANCH  19  25
ATOM     25  O   UNL     1       3.683   0.284  -0.791  1.00  0.00    -0.485 OA
BRANCH  25  26
ATOM     26  C   UNL     1       2.458   0.627  -1.449  1.00  0.00     0.265 C 
BRANCH  26  27
ATOM     27  C   UNL     1       2.024  -0.182  -2.664  1.00  0.00    -0.011 A 
ATOM     28  C   UNL     1       1.342   0.467  -3.701  1.00  0.00     0.009 A 
ATOM     29  C   UNL     1       2.285  -1.551  -2.834  1.00  0.00     0.009 A 
ATOM     30  C   UNL     1       1.182  -0.167  -4.938  1.00  0.00     0.021 A 
ATOM     31  C   UNL     1       2.104  -2.196  -4.036  1.00  0.00     0.021 A 
ATOM     32  C   UNL     1       1.659  -1.464  -5.108  1.00  0.00     0.041 A 
ATOM     33  Cl  UNL     1       1.918  -2.182  -6.624  1.00  0.00    -0.084 Cl
ENDBRANCH  26  27
ENDBRANCH  25  26
ENDBRANCH  19  25
ENDBRANCH  10  16
ENDBRANCH   7   9
ENDBRANCH   6   7
ENDBRANCH   5   6
ENDBRANCH   4   5
ENDBRANCH   3   4
ENDBRANCH   2   3
ENDBRANCH   1   2
BRANCH   1  34
ATOM     34  O   UNL     1       2.200  -3.178   4.549  1.00  0.00    -0.377 OA
BRANCH  34  35
ATOM     35  C   UNL     1       1.448  -2.212   3.837  1.00  0.00     0.188 C 
BRANCH  35  36
ATOM     36  C   UNL     1       0.642  -1.269   4.735  1.00  0.00     0.188 C 
BRANCH  36  37
ATOM     37  O   UNL     1       0.251  -1.630   6.057  1.00  0.00    -0.376 OA
BRANCH  37  38
ATOM     38  C   UNL     1       0.609  -2.892   6.591  1.00  0.00     0.202 C 
BRANCH  38  39
ATOM     39  C   UNL     1      -0.114  -4.133   6.025  1.00  0.00     0.261 C 
BRANCH  39  40
ATOM     40  O   UNL     1      -0.643  -4.033   4.691  1.00  0.00    -0.460 OA
BRANCH  40  41
ATOM     41  C   UNL     1      -1.837  -3.420   4.587  1.00  0.00     0.338 C 
ATOM     42  O   UNL     1      -2.502  -2.938   5.510  1.00  0.00    -0.246 OA
BRANCH  41  43
ATOM     43  C   UNL     1      -2.248  -3.322   3.174  1.00  0.00     0.060 A 
ATOM     44  C   UNL     1      -2.649  -2.077   2.682  1.00  0.00     0.016 A 
ATOM     45  C   UNL     1      -2.351  -4.458   2.361  1.00  0.00     0.016 A 
ATOM     46  C   UNL     1      -3.189  -1.972   1.397  1.00  0.00     0.010 A 
ATOM     47  C   UNL     1      -2.898  -4.350   1.071  1.00  0.00     0.010 A 
ATOM     48  C   UNL     1      -3.340  -3.108   0.586  1.00  0.00    -0.014 A 
BRANCH  48  49
ATOM     49  C   UNL     1      -4.164  -3.006  -0.650  1.00  0.00     0.031 A 
ATOM     50  C   UNL     1      -5.660  -3.130  -0.503  1.00  0.00     0.074 A 
ATOM     51  C   UNL     1      -3.628  -2.788  -1.868  1.00  0.00     0.049 A 
ATOM     52  N   UNL     1      -6.593  -3.067  -1.417  1.00  0.00    -0.248 NA
ATOM     53  C   UNL     1      -6.164  -3.388   0.857  1.00  0.00     0.031 C 
ATOM     54  C   UNL     1      -2.201  -2.697  -2.168  1.00  0.00     0.029 A 
ATOM     55  N   UNL     1      -4.229  -2.594  -3.090  1.00  0.00    -0.354 N 
ATOM     56  C   UNL     1      -7.790  -3.306  -0.750  1.00  0.00     0.074 A 
ATOM     57  C   UNL     1      -7.465  -3.513   0.644  1.00  0.00     0.031 C 
ATOM     58  C   UNL     1      -2.036  -2.420  -3.475  1.00  0.00     0.029 A 
ATOM     59  C   UNL     1      -3.344  -2.348  -4.117  1.00  0.00     0.049 A 
ATOM     60  H   UNL     1      -5.205  -2.627  -3.219  1.00  0.00     0.167 HD
ATOM     61  C   UNL     1      -9.044  -3.370  -1.256  1.00  0.00     0.037 A 
ATOM     62  C   UNL     1      -3.571  -2.108  -5.425  1.00  0.00     0.037 A 
ATOM     63  C   UNL     1      -9.366  -3.192  -2.647  1.00  0.00     0.049 A 
ATOM     64  C   UNL     1      -4.981  -2.159  -5.952  1.00  0.00     0.074 A 
ATOM     65  C   UNL     1     -10.608  -3.235  -3.256  1.00  0.00     0.029 A 
ATOM     66  N   UNL     1      -8.439  -2.952  -3.650  1.00  0.00    -0.354 N 
ATOM     67  N   UNL     1      -6.098  -2.387  -5.307  1.00  0.00    -0.248 NA
ATOM     68  C   UNL     1      -5.151  -1.948  -7.399  1.00  0.00     0.031 C 
ATOM     69  C   UNL     1     -10.428  -3.071  -4.633  1.00  0.00     0.029 A 
ATOM     70  C   UNL     1      -9.080  -2.863  -4.874  1.00  0.00     0.049 A 
ATOM     71  H   UNL     1      -7.468  -2.859  -3.512  1.00  0.00     0.167 HD
ATOM     72  C   UNL     1      -7.099  -2.367  -6.272  1.00  0.00     0.074 A 
ATOM     73  C   UNL     1      -6.463  -2.064  -7.536  1.00  0.00     0.031 C 
ATOM     74  C   UNL     1      -8.427  -2.592  -6.128  1.00  0.00     0.037 A 
BRANCH  61  75
ATOM     75  C   UNL     1     -10.156  -3.703  -0.302  1.00  0.00     0.058 A 
ATOM     76  C   UNL     1     -10.598  -2.792   0.671  1.00  0.00     0.135 A 
ATOM     77  C   UNL     1     -10.798  -4.950  -0.372  1.00  0.00     0.135 A 
ATOM     78  F   UNL     1     -10.003  -1.595   0.796  1.00  0.00    -0.206 F 
ATOM     79  C   UNL     1     -11.617  -3.117   1.559  1.00  0.00     0.059 A 
ATOM     80  C   UNL     1     -11.840  -5.285   0.486  1.00  0.00     0.059 A 
ATOM     81  F   UNL     1     -10.411  -5.860  -1.280  1.00  0.00    -0.206 F 
ATOM     82  C   UNL     1     -12.232  -4.367   1.458  1.00  0.00     0.060 A 
BRANCH  82  83
ATOM     83  S   UNL     1     -13.555  -4.773   2.617  1.00  0.00     0.124 S 
ATOM     84  O   UNL     1     -12.806  -4.970   3.855  1.00  0.00    -0.237 OA
ATOM     85  O   UNL     1     -14.392  -3.578   2.566  1.00  0.00    -0.237 OA
ATOM     86  O   UNL     1     -14.150  -5.977   2.046  1.00  0.00    -0.744 OA
ENDBRANCH  82  83
ENDBRANCH  61  75
BRANCH  62  87
ATOM     87  C   UNL     1      -2.474  -1.832  -6.390  1.00  0.00     0.058 A 
ATOM     88  C   UNL     1      -2.239  -0.527  -6.849  1.00  0.00     0.135 A 
ATOM     89  C   UNL     1      -1.755  -2.876  -6.987  1.00  0.00     0.135 A 
ATOM     90  F   UNL     1      -2.930   0.501  -6.333  1.00  0.00    -0.206 F 
ATOM     91  C   UNL     1      -1.327  -0.264  -7.868  1.00  0.00     0.059 A 
ATOM     92  C   UNL     1      -0.854  -2.640  -8.025  1.00  0.00     0.059 A 
ATOM     93  F   UNL     1      -1.934  -4.138  -6.567  1.00  0.00    -0.206 F 
ATOM     94  C   UNL     1      -0.638  -1.327  -8.453  1.00  0.00     0.060 A 
BRANCH  94  95
ATOM     95  S   UNL     1       0.670  -0.938  -9.652  1.00  0.00     0.124 S 
ATOM     96  O   UNL     1      -0.107  -0.583 -10.833  1.00  0.00    -0.237 OA
ATOM     97  O   UNL     1       1.362   0.169  -8.995  1.00  0.00    -0.237 OA
ATOM     98  O   UNL     1       1.430  -2.180  -9.756  1.00  0.00    -0.744 OA
ENDBRANCH  94  95
ENDBRANCH  62  87
BRANCH  74  99
ATOM     99  C   UNL     1      -9.272  -2.518  -7.367  1.00  0.00     0.058 A 
ATOM    100  C   UNL     1      -9.226  -3.517  -8.352  1.00  0.00     0.135 A 
ATOM    101  C   UNL     1     -10.157  -1.445  -7.558  1.00  0.00     0.135 A 
ATOM    102  F   UNL     1      -8.386  -4.556  -8.223  1.00  0.00    -0.206 F 
ATOM    103  C   UNL     1     -10.013  -3.443  -9.496  1.00  0.00     0.059 A 
ATOM    104  C   UNL     1     -10.973  -1.366  -8.680  1.00  0.00     0.059 A 
ATOM    105  F   UNL     1     -10.239  -0.465  -6.644  1.00  0.00    -0.206 F 
ATOM    106  C   UNL     1     -10.886  -2.364  -9.650  1.00  0.00     0.060 A 
BRANCH 106 107
ATOM    107  S   UNL     1     -11.925  -2.294 -11.124  1.00  0.00     0.124 S 
ATOM    108  O   UNL     1     -10.953  -1.942 -12.153  1.00  0.00    -0.237 OA
ATOM    109  O   UNL     1     -12.459  -3.651 -11.193  1.00  0.00    -0.237 OA
ATOM    110  O   UNL     1     -12.902  -1.258 -10.802  1.00  0.00    -0.744 OA
ENDBRANCH 106 107
ENDBRANCH  74  99
ENDBRANCH  48  49
ENDBRANCH  41  43
ENDBRANCH  40  41
ENDBRANCH  39  40
ENDBRANCH  38  39
ENDBRANCH  37  38
ENDBRANCH  36  37
ENDBRANCH  35  36
ENDBRANCH  34  35
ENDBRANCH   1  34
TORSDOF 29
