REMARK SMILES CC(=O)Nc1cnc(N(C)CCc2cn[nH]c2)c(C(=O)OCCOCCOCCOCCOC(=O)c2ccc(-c3c4nc(c(-c5c(F)cc(S(=O)(=O)[O-])cc5F)c5ccc([nH]5)c(-c5c(F)cc(S(=O)(=O)[O-])cc5F)c5nc(c(-c6c(F)cc(S(=O)(=O)[O-])cc6F)c6ccc3[nH]6)C=C5)C=C4)cc2)c1
REMARK SMILES IDX 26 1 25 2 24 3 23 4 22 5 21 6 19 7 20 8 18 9 5 10 6 11
REMARK SMILES IDX 102 12 7 13 8 14 4 15 1 16 2 17 3 18 9 20 10 21 11 22 12 23
REMARK SMILES IDX 13 24 14 25 17 26 15 27 16 28 27 30 28 31 29 32 30 33 31 34
REMARK SMILES IDX 32 35 33 36 34 37 35 38 36 39 37 40 101 41 38 42 100 43
REMARK SMILES IDX 39 44 40 45 41 46 94 47 42 48 99 49 93 50 95 51 43 52 98 53
REMARK SMILES IDX 92 54 91 55 44 57 78 58 57 59 77 60 58 61 61 62 76 63 96 64
REMARK SMILES IDX 59 65 60 66 75 68 97 69 62 70 45 71 46 72 55 73 47 74 48 75
REMARK SMILES IDX 54 76 56 77 49 78 50 79 51 80 52 81 53 82 79 83 80 84 89 85
REMARK SMILES IDX 81 86 82 87 88 88 90 89 83 90 84 91 85 92 86 93 87 94 63 95
REMARK SMILES IDX 64 96 73 97 65 98 66 99 72 100 74 101 67 102 68 103 69 104
REMARK SMILES IDX 70 105 71 106
REMARK H PARENT 4 19 16 29 95 56 61 67
REMARK Flexibility Score: inf
ROOT
ATOM      1  C   UNL     1       6.690  -2.552  -1.962  1.00  0.00     0.188 C 
ENDROOT
BRANCH   1   2
ATOM      2  C   UNL     1       7.166  -1.614  -3.086  1.00  0.00     0.188 C 
BRANCH   2   3
ATOM      3  O   UNL     1       7.964  -0.517  -2.664  1.00  0.00    -0.376 OA
BRANCH   3   4
ATOM      4  C   UNL     1       7.339   0.739  -2.444  1.00  0.00     0.202 C 
BRANCH   4   5
ATOM      5  C   UNL     1       6.282   0.822  -1.322  1.00  0.00     0.261 C 
BRANCH   5   6
ATOM      6  O   UNL     1       5.160  -0.073  -1.437  1.00  0.00    -0.460 OA
BRANCH   6   7
ATOM      7  C   UNL     1       4.492   0.006  -2.612  1.00  0.00     0.342 C 
ATOM      8  O   UNL     1       4.824   0.778  -3.488  1.00  0.00    -0.246 OA
BRANCH   7   9
ATOM      9  C   UNL     1       3.427  -1.029  -2.682  1.00  0.00     0.104 A 
ATOM     10  C   UNL     1       1.761  -2.229  -1.357  1.00  0.00     0.060 A 
ATOM     11  C   UNL     1       1.607  -3.044  -2.456  1.00  0.00     0.139 A 
ATOM     12  C   UNL     1       2.732  -1.249  -1.464  1.00  0.00     0.047 A 
ATOM     13  N   UNL     1       2.232  -2.841  -3.637  1.00  0.00    -0.236 NA
ATOM     14  C   UNL     1       3.101  -1.800  -3.815  1.00  0.00     0.143 A 
BRANCH  10  15
ATOM     15  N   UNL     1       0.960  -2.454  -0.229  1.00  0.00    -0.325 N 
ATOM     16  C   UNL     1       0.784  -0.124   0.642  1.00  0.00     0.114 C 
ATOM     17  C   UNL     1       0.531  -1.603   0.750  1.00  0.00     0.221 C 
ATOM     18  O   UNL     1      -0.140  -2.065   1.676  1.00  0.00    -0.275 OA
ATOM     19  H   UNL     1       0.654  -3.384  -0.124  1.00  0.00     0.169 HD
ENDBRANCH  10  15
BRANCH  14  20
ATOM     20  N   UNL     1       3.521  -1.661  -5.125  1.00  0.00    -0.359 N 
ATOM     21  C   UNL     1       3.323  -2.829  -5.994  1.00  0.00     0.145 C 
BRANCH  20  22
ATOM     22  C   UNL     1       4.194  -0.513  -5.750  1.00  0.00     0.122 C 
BRANCH  22  23
ATOM     23  C   UNL     1       3.320   0.726  -6.049  1.00  0.00     0.060 C 
BRANCH  23  24
ATOM     24  C   UNL     1       2.638   1.436  -4.920  1.00  0.00    -0.008 A 
ATOM     25  C   UNL     1       3.057   2.625  -4.261  1.00  0.00     0.138 A 
ATOM     26  C   UNL     1       1.488   1.086  -4.244  1.00  0.00     0.108 A 
ATOM     27  N   UNL     1       2.278   2.943  -3.224  1.00  0.00    -0.184 NA
ATOM     28  N   UNL     1       1.355   1.974  -3.217  1.00  0.00    -0.285 N 
ATOM     29  H   UNL     1       0.647   1.908  -2.535  1.00  0.00     0.189 HD
ENDBRANCH  23  24
ENDBRANCH  22  23
ENDBRANCH  20  22
ENDBRANCH  14  20
ENDBRANCH   7   9
ENDBRANCH   6   7
ENDBRANCH   5   6
ENDBRANCH   4   5
ENDBRANCH   3   4
ENDBRANCH   2   3
ENDBRANCH   1   2
BRANCH   1  30
ATOM     30  O   UNL     1       7.075  -2.255  -0.632  1.00  0.00    -0.377 OA
BRANCH  30  31
ATOM     31  C   UNL     1       8.422  -1.881  -0.363  1.00  0.00     0.188 C 
BRANCH  31  32
ATOM     32  C   UNL     1       9.579  -2.372  -1.259  1.00  0.00     0.188 C 
BRANCH  32  33
ATOM     33  O   UNL     1       9.262  -3.474  -2.100  1.00  0.00    -0.376 OA
BRANCH  33  34
ATOM     34  C   UNL     1       9.785  -4.731  -1.697  1.00  0.00     0.202 C 
BRANCH  34  35
ATOM     35  C   UNL     1       9.060  -5.357  -0.499  1.00  0.00     0.261 C 
BRANCH  35  36
ATOM     36  O   UNL     1       9.147  -4.614   0.727  1.00  0.00    -0.460 OA
BRANCH  36  37
ATOM     37  C   UNL     1      10.384  -4.361   1.211  1.00  0.00     0.338 C 
ATOM     38  O   UNL     1      11.442  -4.770   0.769  1.00  0.00    -0.246 OA
BRANCH  37  39
ATOM     39  C   UNL     1      10.260  -3.306   2.240  1.00  0.00     0.060 A 
ATOM     40  C   UNL     1      11.057  -2.159   2.118  1.00  0.00     0.016 A 
ATOM     41  C   UNL     1       9.335  -3.420   3.283  1.00  0.00     0.016 A 
ATOM     42  C   UNL     1      10.979  -1.154   3.078  1.00  0.00     0.010 A 
ATOM     43  C   UNL     1       9.277  -2.426   4.262  1.00  0.00     0.010 A 
ATOM     44  C   UNL     1      10.140  -1.319   4.189  1.00  0.00    -0.014 A 
BRANCH  44  45
ATOM     45  C   UNL     1      10.432  -0.524   5.405  1.00  0.00     0.031 A 
ATOM     46  C   UNL     1      11.446  -1.094   6.363  1.00  0.00     0.074 A 
ATOM     47  C   UNL     1       9.882   0.682   5.626  1.00  0.00     0.049 A 
ATOM     48  N   UNL     1      11.942  -0.579   7.457  1.00  0.00    -0.248 NA
ATOM     49  C   UNL     1      11.979  -2.428   6.032  1.00  0.00     0.031 C 
ATOM     50  C   UNL     1       8.915   1.350   4.757  1.00  0.00     0.029 A 
ATOM     51  N   UNL     1      10.074   1.565   6.658  1.00  0.00    -0.354 N 
ATOM     52  C   UNL     1      12.854  -1.515   7.931  1.00  0.00     0.074 A 
ATOM     53  C   UNL     1      12.812  -2.648   7.035  1.00  0.00     0.031 C 
ATOM     54  C   UNL     1       8.597   2.542   5.295  1.00  0.00     0.029 A 
ATOM     55  C   UNL     1       9.329   2.715   6.550  1.00  0.00     0.049 A 
ATOM     56  H   UNL     1      10.689   1.392   7.407  1.00  0.00     0.167 HD
ATOM     57  C   UNL     1      13.668  -1.436   9.008  1.00  0.00     0.037 A 
ATOM     58  C   UNL     1       9.254   3.779   7.374  1.00  0.00     0.037 A 
ATOM     59  C   UNL     1      13.689  -0.322   9.913  1.00  0.00     0.049 A 
ATOM     60  C   UNL     1      10.122   3.817   8.608  1.00  0.00     0.074 A 
ATOM     61  C   UNL     1      14.457  -0.148  11.050  1.00  0.00     0.029 A 
ATOM     62  N   UNL     1      12.893   0.808   9.788  1.00  0.00    -0.354 N 
ATOM     63  N   UNL     1      10.997   2.935   9.034  1.00  0.00    -0.248 NA
ATOM     64  C   UNL     1      10.003   5.005   9.466  1.00  0.00     0.031 C 
ATOM     65  C   UNL     1      14.099   1.073  11.633  1.00  0.00     0.029 A 
ATOM     66  C   UNL     1      13.143   1.679  10.833  1.00  0.00     0.049 A 
ATOM     67  H   UNL     1      12.247   0.966   9.062  1.00  0.00     0.167 HD
ATOM     68  C   UNL     1      11.557   3.478  10.188  1.00  0.00     0.074 A 
ATOM     69  C   UNL     1      10.927   4.767  10.388  1.00  0.00     0.031 C 
ATOM     70  C   UNL     1      12.510   2.963  11.005  1.00  0.00     0.037 A 
BRANCH  57  71
ATOM     71  C   UNL     1      14.574  -2.606   9.266  1.00  0.00     0.058 A 
ATOM     72  C   UNL     1      15.683  -2.872   8.446  1.00  0.00     0.135 A 
ATOM     73  C   UNL     1      14.323  -3.480  10.334  1.00  0.00     0.135 A 
ATOM     74  F   UNL     1      15.950  -2.083   7.392  1.00  0.00    -0.206 F 
ATOM     75  C   UNL     1      16.496  -3.980   8.659  1.00  0.00     0.059 A 
ATOM     76  C   UNL     1      15.137  -4.581  10.582  1.00  0.00     0.059 A 
ATOM     77  F   UNL     1      13.268  -3.279  11.139  1.00  0.00    -0.206 F 
ATOM     78  C   UNL     1      16.212  -4.831   9.729  1.00  0.00     0.060 A 
BRANCH  78  79
ATOM     79  S   UNL     1      17.270  -6.270   9.992  1.00  0.00     0.124 S 
ATOM     80  O   UNL     1      16.838  -7.149   8.910  1.00  0.00    -0.237 OA
ATOM     81  O   UNL     1      18.608  -5.704   9.853  1.00  0.00    -0.237 OA
ATOM     82  O   UNL     1      16.916  -6.710  11.337  1.00  0.00    -0.744 OA
ENDBRANCH  78  79
ENDBRANCH  57  71
BRANCH  58  83
ATOM     83  C   UNL     1       8.336   4.908   7.060  1.00  0.00     0.058 A 
ATOM     84  C   UNL     1       8.831   6.166   6.685  1.00  0.00     0.135 A 
ATOM     85  C   UNL     1       6.944   4.755   7.150  1.00  0.00     0.135 A 
ATOM     86  F   UNL     1      10.155   6.366   6.597  1.00  0.00    -0.206 F 
ATOM     87  C   UNL     1       7.982   7.238   6.428  1.00  0.00     0.059 A 
ATOM     88  C   UNL     1       6.073   5.806   6.875  1.00  0.00     0.059 A 
ATOM     89  F   UNL     1       6.418   3.571   7.498  1.00  0.00    -0.206 F 
ATOM     90  C   UNL     1       6.602   7.047   6.526  1.00  0.00     0.060 A 
BRANCH  90  91
ATOM     91  S   UNL     1       5.505   8.433   6.151  1.00  0.00     0.124 S 
ATOM     92  O   UNL     1       5.673   9.269   7.334  1.00  0.00    -0.237 OA
ATOM     93  O   UNL     1       6.080   8.953   4.914  1.00  0.00    -0.237 OA
ATOM     94  O   UNL     1       4.200   7.796   6.006  1.00  0.00    -0.744 OA
ENDBRANCH  90  91
ENDBRANCH  58  83
BRANCH  70  95
ATOM     95  C   UNL     1      12.966   3.814  12.158  1.00  0.00     0.058 A 
ATOM     96  C   UNL     1      12.155   4.037  13.282  1.00  0.00     0.135 A 
ATOM     97  C   UNL     1      14.248   4.388  12.149  1.00  0.00     0.135 A 
ATOM     98  F   UNL     1      10.922   3.510  13.342  1.00  0.00    -0.206 F 
ATOM     99  C   UNL     1      12.584   4.835  14.339  1.00  0.00     0.059 A 
ATOM    100  C   UNL     1      14.708   5.165  13.207  1.00  0.00     0.059 A 
ATOM    101  F   UNL     1      15.070   4.190  11.107  1.00  0.00    -0.206 F 
ATOM    102  C   UNL     1      13.860   5.399  14.289  1.00  0.00     0.060 A 
BRANCH 102 103
ATOM    103  S   UNL     1      14.408   6.433  15.664  1.00  0.00     0.124 S 
ATOM    104  O   UNL     1      13.687   7.674  15.402  1.00  0.00    -0.237 OA
ATOM    105  O   UNL     1      13.961   5.673  16.827  1.00  0.00    -0.237 OA
ATOM    106  O   UNL     1      15.856   6.496  15.484  1.00  0.00    -0.744 OA
ENDBRANCH 102 103
ENDBRANCH  70  95
ENDBRANCH  44  45
ENDBRANCH  37  39
ENDBRANCH  36  37
ENDBRANCH  35  36
ENDBRANCH  34  35
ENDBRANCH  33  34
ENDBRANCH  32  33
ENDBRANCH  31  32
ENDBRANCH  30  31
ENDBRANCH   1  30
TORSDOF 28
