REMARK SMILES O=C(Nc1ccc2c(c1)[C@@H]1C=CC[C@@H]1[C@H](C(=O)OCCOCCOCCOCCOC(=O)c1ccc(-c3c4nc(c(-c5c(F)cc(S(=O)(=O)[O-])cc5F)c5ccc([nH]5)c(-c5c(F)cc(S(=O)(=O)[O-])cc5F)c5nc(c(-c6c(F)cc(S(=O)(=O)[O-])cc6F)c6ccc3[nH]6)C=C5)C=C4)cc1)N2)c1ccccc1
REMARK SMILES IDX 25 1 24 2 23 3 22 4 21 5 20 6 19 7 18 8 16 9 17 10 15 11
REMARK SMILES IDX 4 12 5 13 9 14 6 15 8 16 7 17 10 18 99 19 11 20 14 21 12 23
REMARK SMILES IDX 13 24 3 25 1 26 2 27 100 29 101 30 105 31 102 32 104 33
REMARK SMILES IDX 103 34 26 35 27 36 28 37 29 38 30 39 31 40 32 41 33 42 34 43
REMARK SMILES IDX 98 44 35 45 97 46 36 47 37 48 38 49 91 50 39 51 96 52 90 53
REMARK SMILES IDX 92 54 40 55 95 56 89 57 88 58 41 60 75 61 54 62 74 63 55 64
REMARK SMILES IDX 58 65 73 66 93 67 56 68 57 69 72 71 94 72 59 73 42 74 43 75
REMARK SMILES IDX 52 76 44 77 45 78 51 79 53 80 46 81 47 82 48 83 49 84 50 85
REMARK SMILES IDX 76 86 77 87 86 88 78 89 79 90 85 91 87 92 80 93 81 94 82 95
REMARK SMILES IDX 83 96 84 97 60 98 61 99 70 100 62 101 63 102 69 103 71 104
REMARK SMILES IDX 64 105 65 106 66 107 67 108 68 109
REMARK H PARENT 99 22 3 28 92 59 58 70
REMARK Flexibility Score: inf
ROOT
ATOM      1  C   UNL     1      12.756   2.833  -0.345  1.00  0.00     0.188 C 
ENDROOT
BRANCH   1   2
ATOM      2  O   UNL     1      11.642   2.282   0.353  1.00  0.00    -0.377 OA
BRANCH   2   3
ATOM      3  C   UNL     1      11.690   2.118   1.756  1.00  0.00     0.188 C 
BRANCH   3   4
ATOM      4  C   UNL     1      12.615   1.042   2.332  1.00  0.00     0.188 C 
BRANCH   4   5
ATOM      5  O   UNL     1      13.783   0.745   1.608  1.00  0.00    -0.376 OA
BRANCH   5   6
ATOM      6  C   UNL     1      13.787  -0.154   0.512  1.00  0.00     0.202 C 
BRANCH   6   7
ATOM      7  C   UNL     1      12.563  -0.848  -0.121  1.00  0.00     0.261 C 
BRANCH   7   8
ATOM      8  O   UNL     1      11.268  -0.278   0.087  1.00  0.00    -0.462 OA
BRANCH   8   9
ATOM      9  C   UNL     1      10.479  -0.963   0.940  1.00  0.00     0.328 C 
ATOM     10  O   UNL     1      10.845  -1.967   1.556  1.00  0.00    -0.250 OA
BRANCH   9  11
ATOM     11  C   UNL     1       9.053  -0.427   1.115  1.00  0.00     0.194 C 
ATOM     12  C   UNL     1       4.009  -1.040   0.831  1.00  0.00     0.041 A 
ATOM     13  C   UNL     1       4.567  -2.314   0.856  1.00  0.00     0.028 A 
ATOM     14  C   UNL     1       4.834   0.079   0.963  1.00  0.00     0.032 A 
ATOM     15  C   UNL     1       5.951  -2.455   0.863  1.00  0.00     0.028 A 
ATOM     16  C   UNL     1       6.228  -0.050   0.928  1.00  0.00    -0.015 A 
ATOM     17  C   UNL     1       6.786  -1.335   0.882  1.00  0.00     0.039 A 
ATOM     18  C   UNL     1       7.115   1.178   0.927  1.00  0.00     0.050 C 
ATOM     19  N   UNL     1       8.146  -1.520   0.785  1.00  0.00    -0.372 N 
ATOM     20  C   UNL     1       6.745   2.202  -0.113  1.00  0.00    -0.023 C 
ATOM     21  C   UNL     1       8.577   0.888   0.511  1.00  0.00     0.038 C 
ATOM     22  H   UNL     1       8.506  -2.389   0.494  1.00  0.00     0.161 HD
ATOM     23  C   UNL     1       7.564   2.154  -1.173  1.00  0.00    -0.030 C 
ATOM     24  C   UNL     1       8.613   1.091  -1.006  1.00  0.00     0.034 C 
BRANCH  12  25
ATOM     25  N   UNL     1       2.628  -0.938   0.613  1.00  0.00    -0.322 N 
ATOM     26  O   UNL     1       0.693   0.118   0.105  1.00  0.00    -0.269 OA
ATOM     27  C   UNL     1       1.917   0.071  -0.006  1.00  0.00     0.255 C 
ATOM     28  H   UNL     1       2.089  -1.690   0.949  1.00  0.00     0.170 HD
BRANCH  27  29
ATOM     29  C   UNL     1       2.602   1.060  -0.881  1.00  0.00     0.040 A 
ATOM     30  C   UNL     1       3.577   0.671  -1.812  1.00  0.00     0.014 A 
ATOM     31  C   UNL     1       2.251   2.409  -0.764  1.00  0.00     0.014 A 
ATOM     32  C   UNL     1       4.244   1.636  -2.567  1.00  0.00     0.001 A 
ATOM     33  C   UNL     1       2.916   3.369  -1.529  1.00  0.00     0.001 A 
ATOM     34  C   UNL     1       3.918   2.984  -2.420  1.00  0.00     0.000 A 
ENDBRANCH  27  29
ENDBRANCH  12  25
ENDBRANCH   9  11
ENDBRANCH   8   9
ENDBRANCH   7   8
ENDBRANCH   6   7
ENDBRANCH   5   6
ENDBRANCH   4   5
ENDBRANCH   3   4
ENDBRANCH   2   3
ENDBRANCH   1   2
BRANCH   1  35
ATOM     35  C   UNL     1      13.935   3.469   0.418  1.00  0.00     0.188 C 
BRANCH  35  36
ATOM     36  O   UNL     1      13.608   3.999   1.690  1.00  0.00    -0.376 OA
BRANCH  36  37
ATOM     37  C   UNL     1      13.273   5.376   1.781  1.00  0.00     0.202 C 
BRANCH  37  38
ATOM     38  C   UNL     1      12.078   5.886   0.959  1.00  0.00     0.261 C 
BRANCH  38  39
ATOM     39  O   UNL     1      12.178   5.766  -0.469  1.00  0.00    -0.460 OA
BRANCH  39  40
ATOM     40  C   UNL     1      13.244   6.332  -1.080  1.00  0.00     0.338 C 
ATOM     41  O   UNL     1      14.124   6.986  -0.565  1.00  0.00    -0.246 OA
BRANCH  40  42
ATOM     42  C   UNL     1      13.257   5.855  -2.480  1.00  0.00     0.060 A 
ATOM     43  C   UNL     1      14.338   5.082  -2.925  1.00  0.00     0.016 A 
ATOM     44  C   UNL     1      12.216   6.186  -3.349  1.00  0.00     0.016 A 
ATOM     45  C   UNL     1      14.400   4.672  -4.257  1.00  0.00     0.010 A 
ATOM     46  C   UNL     1      12.291   5.793  -4.688  1.00  0.00     0.010 A 
ATOM     47  C   UNL     1      13.401   5.066  -5.156  1.00  0.00    -0.014 A 
BRANCH  47  48
ATOM     48  C   UNL     1      13.616   4.900  -6.615  1.00  0.00     0.031 A 
ATOM     49  C   UNL     1      14.108   6.086  -7.401  1.00  0.00     0.074 A 
ATOM     50  C   UNL     1      13.404   3.721  -7.227  1.00  0.00     0.049 A 
ATOM     51  N   UNL     1      14.314   6.204  -8.686  1.00  0.00    -0.248 NA
ATOM     52  C   UNL     1      14.407   7.304  -6.629  1.00  0.00     0.031 C 
ATOM     53  C   UNL     1      12.977   2.490  -6.566  1.00  0.00     0.029 A 
ATOM     54  N   UNL     1      13.513   3.373  -8.550  1.00  0.00    -0.354 N 
ATOM     55  C   UNL     1      14.758   7.508  -8.879  1.00  0.00     0.074 A 
ATOM     56  C   UNL     1      14.759   8.152  -7.583  1.00  0.00     0.031 C 
ATOM     57  C   UNL     1      12.848   1.522  -7.491  1.00  0.00     0.029 A 
ATOM     58  C   UNL     1      13.147   2.074  -8.812  1.00  0.00     0.049 A 
ATOM     59  H   UNL     1      13.824   3.995  -9.247  1.00  0.00     0.167 HD
ATOM     60  C   UNL     1      15.140   8.111 -10.029  1.00  0.00     0.037 A 
ATOM     61  C   UNL     1      13.042   1.417  -9.985  1.00  0.00     0.037 A 
ATOM     62  C   UNL     1      15.130   7.465 -11.316  1.00  0.00     0.049 A 
ATOM     63  C   UNL     1      13.389   2.135 -11.266  1.00  0.00     0.074 A 
ATOM     64  C   UNL     1      15.502   7.987 -12.542  1.00  0.00     0.029 A 
ATOM     65  N   UNL     1      14.718   6.160 -11.545  1.00  0.00    -0.354 N 
ATOM     66  N   UNL     1      13.820   3.364 -11.435  1.00  0.00    -0.248 NA
ATOM     67  C   UNL     1      13.238   1.378 -12.517  1.00  0.00     0.031 C 
ATOM     68  C   UNL     1      15.259   7.017 -13.520  1.00  0.00     0.029 A 
ATOM     69  C   UNL     1      14.801   5.868 -12.896  1.00  0.00     0.049 A 
ATOM     70  H   UNL     1      14.412   5.534 -10.849  1.00  0.00     0.167 HD
ATOM     71  C   UNL     1      14.024   3.513 -12.804  1.00  0.00     0.074 A 
ATOM     72  C   UNL     1      13.678   2.248 -13.416  1.00  0.00     0.031 C 
ATOM     73  C   UNL     1      14.463   4.598 -13.492  1.00  0.00     0.037 A 
BRANCH  60  74
ATOM     74  C   UNL     1      15.571   9.551  -9.953  1.00  0.00     0.058 A 
ATOM     75  C   UNL     1      16.772   9.934  -9.335  1.00  0.00     0.135 A 
ATOM     76  C   UNL     1      14.785  10.560 -10.534  1.00  0.00     0.135 A 
ATOM     77  F   UNL     1      17.553   9.015  -8.745  1.00  0.00    -0.206 F 
ATOM     78  C   UNL     1      17.165  11.267  -9.272  1.00  0.00     0.059 A 
ATOM     79  C   UNL     1      15.174  11.896 -10.511  1.00  0.00     0.059 A 
ATOM     80  F   UNL     1      13.624  10.251 -11.133  1.00  0.00    -0.206 F 
ATOM     81  C   UNL     1      16.360  12.241  -9.865  1.00  0.00     0.060 A 
BRANCH  81  82
ATOM     82  S   UNL     1      16.889  13.964  -9.781  1.00  0.00     0.124 S 
ATOM     83  O   UNL     1      16.692  14.261  -8.366  1.00  0.00    -0.237 OA
ATOM     84  O   UNL     1      18.277  13.885 -10.225  1.00  0.00    -0.237 OA
ATOM     85  O   UNL     1      15.979  14.646 -10.696  1.00  0.00    -0.744 OA
ENDBRANCH  81  82
ENDBRANCH  60  74
BRANCH  61  86
ATOM     86  C   UNL     1      12.576   0.003 -10.011  1.00  0.00     0.058 A 
ATOM     87  C   UNL     1      13.437  -1.038 -10.391  1.00  0.00     0.135 A 
ATOM     88  C   UNL     1      11.259  -0.336  -9.664  1.00  0.00     0.135 A 
ATOM     89  F   UNL     1      14.702  -0.766 -10.746  1.00  0.00    -0.206 F 
ATOM     90  C   UNL     1      13.007  -2.360 -10.439  1.00  0.00     0.059 A 
ATOM     91  C   UNL     1      10.813  -1.655  -9.675  1.00  0.00     0.059 A 
ATOM     92  F   UNL     1      10.395   0.619  -9.287  1.00  0.00    -0.206 F 
ATOM     93  C   UNL     1      11.694  -2.659 -10.074  1.00  0.00     0.060 A 
BRANCH  93  94
ATOM     94  S   UNL     1      11.164  -4.386 -10.088  1.00  0.00     0.124 S 
ATOM     95  O   UNL     1      11.115  -4.668 -11.517  1.00  0.00    -0.237 OA
ATOM     96  O   UNL     1      12.237  -5.038  -9.344  1.00  0.00    -0.237 OA
ATOM     97  O   UNL     1       9.873  -4.347  -9.406  1.00  0.00    -0.744 OA
ENDBRANCH  93  94
ENDBRANCH  61  86
BRANCH  73  98
ATOM     98  C   UNL     1      14.641   4.458 -14.981  1.00  0.00     0.058 A 
ATOM     99  C   UNL     1      13.548   4.358 -15.856  1.00  0.00     0.135 A 
ATOM    100  C   UNL     1      15.928   4.487 -15.545  1.00  0.00     0.135 A 
ATOM    101  F   UNL     1      12.296   4.322 -15.372  1.00  0.00    -0.206 F 
ATOM    102  C   UNL     1      13.725   4.266 -17.233  1.00  0.00     0.059 A 
ATOM    103  C   UNL     1      16.127   4.430 -16.921  1.00  0.00     0.059 A 
ATOM    104  F   UNL     1      17.010   4.594 -14.756  1.00  0.00    -0.206 F 
ATOM    105  C   UNL     1      15.019   4.307 -17.757  1.00  0.00     0.060 A 
BRANCH 105 106
ATOM    106  S   UNL     1      15.231   4.223 -19.547  1.00  0.00     0.124 S 
ATOM    107  O   UNL     1      14.893   2.830 -19.819  1.00  0.00    -0.237 OA
ATOM    108  O   UNL     1      14.269   5.213 -20.021  1.00  0.00    -0.237 OA
ATOM    109  O   UNL     1      16.634   4.578 -19.742  1.00  0.00    -0.744 OA
ENDBRANCH 105 106
ENDBRANCH  73  98
ENDBRANCH  47  48
ENDBRANCH  40  42
ENDBRANCH  39  40
ENDBRANCH  38  39
ENDBRANCH  37  38
ENDBRANCH  36  37
ENDBRANCH  35  36
ENDBRANCH   1  35
TORSDOF 25
