REMARK SMILES Cn1c(=O)c(=O)n(C)c2cc(S(=O)(=O)N3CCC[C@H]3C(=O)OCCOCCOCCOCCOC(=O)c3ccc(-c4c5nc(c(-c6c(F)cc(S(=O)(=O)[O-])cc6F)c6ccc([nH]6)c(-c6c(F)cc(S(=O)(=O)[O-])cc6F)c6nc(c(-c7c(F)cc(S(=O)(=O)[O-])cc7F)c7ccc4[nH]7)C=C6)C=C5)cc3)ccc21
REMARK SMILES IDX 29 1 28 2 27 3 26 4 25 5 24 6 23 7 22 8 20 9 21 10 19 11
REMARK SMILES IDX 15 12 16 13 17 14 18 15 12 16 13 17 14 18 11 19 1 20 2 21
REMARK SMILES IDX 3 22 105 23 4 24 5 25 9 26 104 27 6 28 7 29 10 30 103 31
REMARK SMILES IDX 8 32 30 33 31 34 32 35 33 36 34 37 35 38 36 39 37 40 38 41
REMARK SMILES IDX 102 42 39 43 101 44 40 45 41 46 42 47 95 48 43 49 100 50
REMARK SMILES IDX 94 51 96 52 44 53 99 54 93 55 92 56 45 58 79 59 58 60 78 61
REMARK SMILES IDX 59 62 62 63 77 64 97 65 60 66 61 67 76 69 98 70 63 71 46 72
REMARK SMILES IDX 47 73 56 74 48 75 49 76 55 77 57 78 50 79 51 80 52 81 53 82
REMARK SMILES IDX 54 83 80 84 81 85 90 86 82 87 83 88 89 89 91 90 84 91 85 92
REMARK SMILES IDX 86 93 87 94 88 95 64 96 65 97 74 98 66 99 67 100 73 101
REMARK SMILES IDX 75 102 68 103 69 104 70 105 71 106 72 107
REMARK H PARENT 96 57 62 68
REMARK Flexibility Score: inf
ROOT
ATOM      1  C   UNL     1       5.715   8.849   5.795  1.00  0.00     0.188 C 
ENDROOT
BRANCH   1   2
ATOM      2  O   UNL     1       5.971   7.543   5.315  1.00  0.00    -0.377 OA
BRANCH   2   3
ATOM      3  C   UNL     1       4.832   6.714   5.150  1.00  0.00     0.188 C 
BRANCH   3   4
ATOM      4  C   UNL     1       4.645   5.677   6.274  1.00  0.00     0.188 C 
BRANCH   4   5
ATOM      5  O   UNL     1       5.756   4.938   6.793  1.00  0.00    -0.376 OA
BRANCH   5   6
ATOM      6  C   UNL     1       7.058   5.502   6.714  1.00  0.00     0.202 C 
BRANCH   6   7
ATOM      7  C   UNL     1       7.819   5.098   5.437  1.00  0.00     0.261 C 
BRANCH   7   8
ATOM      8  O   UNL     1       7.002   4.984   4.255  1.00  0.00    -0.462 OA
BRANCH   8   9
ATOM      9  C   UNL     1       6.340   3.809   4.138  1.00  0.00     0.324 C 
ATOM     10  O   UNL     1       6.477   2.852   4.900  1.00  0.00    -0.250 OA
BRANCH   9  11
ATOM     11  C   UNL     1       5.395   3.717   2.959  1.00  0.00     0.183 C 
ATOM     12  N   UNL     1       5.121   4.831   2.005  1.00  0.00    -0.184 NA
ATOM     13  C   UNL     1       5.987   4.635   0.828  1.00  0.00     0.103 C 
ATOM     14  C   UNL     1       6.019   3.131   0.655  1.00  0.00     0.019 C 
ATOM     15  C   UNL     1       5.937   2.580   2.070  1.00  0.00     0.034 C 
BRANCH  12  16
ATOM     16  S   UNL     1       3.535   5.403   1.765  1.00  0.00     0.243 S 
ATOM     17  O   UNL     1       3.600   6.481   0.800  1.00  0.00    -0.207 OA
ATOM     18  O   UNL     1       2.914   5.598   3.058  1.00  0.00    -0.207 OA
BRANCH  16  19
ATOM     19  C   UNL     1       2.561   4.109   0.998  1.00  0.00     0.084 A 
ATOM     20  C   UNL     1       0.495  -0.342  -0.361  1.00  0.00     0.154 C 
ATOM     21  N   UNL     1       0.195   1.042  -0.702  1.00  0.00    -0.305 N 
ATOM     22  C   UNL     1      -0.784   1.289  -1.656  1.00  0.00     0.316 A 
ATOM     23  C   UNL     1       0.935   2.094  -0.108  1.00  0.00     0.068 A 
ATOM     24  O   UNL     1      -1.416   0.402  -2.224  1.00  0.00    -0.263 OA
ATOM     25  C   UNL     1      -1.096   2.754  -1.988  1.00  0.00     0.316 A 
ATOM     26  C   UNL     1       0.796   3.421  -0.555  1.00  0.00     0.069 A 
ATOM     27  C   UNL     1       1.806   1.821   0.951  1.00  0.00     0.030 A 
ATOM     28  O   UNL     1      -2.078   2.994  -2.687  1.00  0.00    -0.263 OA
ATOM     29  N   UNL     1      -0.246   3.737  -1.475  1.00  0.00    -0.305 N 
ATOM     30  C   UNL     1       1.657   4.415  -0.033  1.00  0.00     0.050 A 
ATOM     31  C   UNL     1       2.565   2.828   1.529  1.00  0.00     0.024 A 
ATOM     32  C   UNL     1      -0.540   5.123  -1.808  1.00  0.00     0.154 C 
ENDBRANCH  16  19
ENDBRANCH  12  16
ENDBRANCH   9  11
ENDBRANCH   8   9
ENDBRANCH   7   8
ENDBRANCH   6   7
ENDBRANCH   5   6
ENDBRANCH   4   5
ENDBRANCH   3   4
ENDBRANCH   2   3
ENDBRANCH   1   2
BRANCH   1  33
ATOM     33  C   UNL     1       4.989   8.905   7.144  1.00  0.00     0.188 C 
BRANCH  33  34
ATOM     34  O   UNL     1       3.621   8.502   7.036  1.00  0.00    -0.376 OA
BRANCH  34  35
ATOM     35  C   UNL     1       2.660   9.554   7.036  1.00  0.00     0.202 C 
BRANCH  35  36
ATOM     36  C   UNL     1       2.447  10.218   5.668  1.00  0.00     0.261 C 
BRANCH  36  37
ATOM     37  O   UNL     1       3.567  10.940   5.127  1.00  0.00    -0.460 OA
BRANCH  37  38
ATOM     38  C   UNL     1       4.164  11.890   5.879  1.00  0.00     0.338 C 
ATOM     39  O   UNL     1       3.809  12.289   6.974  1.00  0.00    -0.246 OA
BRANCH  38  40
ATOM     40  C   UNL     1       5.463  12.208   5.242  1.00  0.00     0.060 A 
ATOM     41  C   UNL     1       5.548  12.446   3.867  1.00  0.00     0.016 A 
ATOM     42  C   UNL     1       6.622  12.210   6.030  1.00  0.00     0.016 A 
ATOM     43  C   UNL     1       6.789  12.714   3.286  1.00  0.00     0.010 A 
ATOM     44  C   UNL     1       7.866  12.461   5.444  1.00  0.00     0.010 A 
ATOM     45  C   UNL     1       7.954  12.740   4.072  1.00  0.00    -0.014 A 
BRANCH  45  46
ATOM     46  C   UNL     1       9.216  13.256   3.490  1.00  0.00     0.031 A 
ATOM     47  C   UNL     1      10.291  12.353   2.969  1.00  0.00     0.074 A 
ATOM     48  C   UNL     1       9.364  14.593   3.426  1.00  0.00     0.049 A 
ATOM     49  N   UNL     1      11.395  12.674   2.344  1.00  0.00    -0.248 NA
ATOM     50  C   UNL     1      10.111  10.911   3.178  1.00  0.00     0.031 C 
ATOM     51  C   UNL     1       8.384  15.565   3.916  1.00  0.00     0.029 A 
ATOM     52  N   UNL     1      10.374  15.364   2.913  1.00  0.00    -0.354 N 
ATOM     53  C   UNL     1      12.031  11.475   2.049  1.00  0.00     0.074 A 
ATOM     54  C   UNL     1      11.210  10.421   2.616  1.00  0.00     0.031 C 
ATOM     55  C   UNL     1       8.827  16.803   3.653  1.00  0.00     0.029 A 
ATOM     56  C   UNL     1      10.126  16.713   2.994  1.00  0.00     0.049 A 
ATOM     57  H   UNL     1      11.197  14.988   2.525  1.00  0.00     0.167 HD
ATOM     58  C   UNL     1      13.179  11.276   1.355  1.00  0.00     0.037 A 
ATOM     59  C   UNL     1      10.854  17.763   2.571  1.00  0.00     0.037 A 
ATOM     60  C   UNL     1      14.004  12.336   0.824  1.00  0.00     0.049 A 
ATOM     61  C   UNL     1      12.152  17.518   1.859  1.00  0.00     0.074 A 
ATOM     62  C   UNL     1      15.176  12.233   0.093  1.00  0.00     0.029 A 
ATOM     63  N   UNL     1      13.754  13.694   0.978  1.00  0.00    -0.354 N 
ATOM     64  N   UNL     1      12.713  16.376   1.542  1.00  0.00    -0.248 NA
ATOM     65  C   UNL     1      12.913  18.703   1.444  1.00  0.00     0.031 C 
ATOM     66  C   UNL     1      15.656  13.524  -0.156  1.00  0.00     0.029 A 
ATOM     67  C   UNL     1      14.762  14.436   0.380  1.00  0.00     0.049 A 
ATOM     68  H   UNL     1      12.975  14.074   1.445  1.00  0.00     0.167 HD
ATOM     69  C   UNL     1      13.886  16.704   0.874  1.00  0.00     0.074 A 
ATOM     70  C   UNL     1      13.947  18.151   0.822  1.00  0.00     0.031 C 
ATOM     71  C   UNL     1      14.825  15.877   0.349  1.00  0.00     0.037 A 
BRANCH  58  72
ATOM     72  C   UNL     1      13.611   9.855   1.115  1.00  0.00     0.058 A 
ATOM     73  C   UNL     1      12.925   9.031   0.208  1.00  0.00     0.135 A 
ATOM     74  C   UNL     1      14.745   9.324   1.750  1.00  0.00     0.135 A 
ATOM     75  F   UNL     1      11.832   9.484  -0.425  1.00  0.00    -0.206 F 
ATOM     76  C   UNL     1      13.330   7.723  -0.038  1.00  0.00     0.059 A 
ATOM     77  C   UNL     1      15.182   8.024   1.503  1.00  0.00     0.059 A 
ATOM     78  F   UNL     1      15.443  10.070   2.621  1.00  0.00    -0.206 F 
ATOM     79  C   UNL     1      14.458   7.226   0.618  1.00  0.00     0.060 A 
BRANCH  79  80
ATOM     80  S   UNL     1      14.954   5.520   0.299  1.00  0.00     0.124 S 
ATOM     81  O   UNL     1      13.893   4.778   0.975  1.00  0.00    -0.237 OA
ATOM     82  O   UNL     1      14.937   5.457  -1.159  1.00  0.00    -0.237 OA
ATOM     83  O   UNL     1      16.274   5.427   0.913  1.00  0.00    -0.744 OA
ENDBRANCH  79  80
ENDBRANCH  58  72
BRANCH  59  84
ATOM     84  C   UNL     1      10.327  19.135   2.770  1.00  0.00     0.058 A 
ATOM     85  C   UNL     1       9.809  19.864   1.691  1.00  0.00     0.135 A 
ATOM     86  C   UNL     1      10.264  19.713   4.047  1.00  0.00     0.135 A 
ATOM     87  F   UNL     1       9.851  19.350   0.452  1.00  0.00    -0.206 F 
ATOM     88  C   UNL     1       9.242  21.120   1.870  1.00  0.00     0.059 A 
ATOM     89  C   UNL     1       9.682  20.959   4.254  1.00  0.00     0.059 A 
ATOM     90  F   UNL     1      10.730  19.044   5.112  1.00  0.00    -0.206 F 
ATOM     91  C   UNL     1       9.175  21.656   3.158  1.00  0.00     0.060 A 
BRANCH  91  92
ATOM     92  S   UNL     1       8.362  23.251   3.386  1.00  0.00     0.124 S 
ATOM     93  O   UNL     1       9.328  24.163   2.784  1.00  0.00    -0.237 OA
ATOM     94  O   UNL     1       7.115  23.065   2.650  1.00  0.00    -0.237 OA
ATOM     95  O   UNL     1       8.217  23.351   4.835  1.00  0.00    -0.744 OA
ENDBRANCH  91  92
ENDBRANCH  59  84
BRANCH  71  96
ATOM     96  C   UNL     1      16.005  16.519  -0.326  1.00  0.00     0.058 A 
ATOM     97  C   UNL     1      17.022  17.143   0.414  1.00  0.00     0.135 A 
ATOM     98  C   UNL     1      16.145  16.472  -1.722  1.00  0.00     0.135 A 
ATOM     99  F   UNL     1      16.931  17.226   1.751  1.00  0.00    -0.206 F 
ATOM    100  C   UNL     1      18.129  17.712  -0.208  1.00  0.00     0.059 A 
ATOM    101  C   UNL     1      17.256  17.014  -2.364  1.00  0.00     0.059 A 
ATOM    102  F   UNL     1      15.204  15.882  -2.477  1.00  0.00    -0.206 F 
ATOM    103  C   UNL     1      18.238  17.640  -1.598  1.00  0.00     0.060 A 
BRANCH 103 104
ATOM    104  S   UNL     1      19.700  18.349  -2.387  1.00  0.00     0.124 S 
ATOM    105  O   UNL     1      19.444  19.779  -2.250  1.00  0.00    -0.237 OA
ATOM    106  O   UNL     1      20.785  17.818  -1.567  1.00  0.00    -0.237 OA
ATOM    107  O   UNL     1      19.639  17.827  -3.749  1.00  0.00    -0.744 OA
ENDBRANCH 103 104
ENDBRANCH  71  96
ENDBRANCH  45  46
ENDBRANCH  38  40
ENDBRANCH  37  38
ENDBRANCH  36  37
ENDBRANCH  35  36
ENDBRANCH  34  35
ENDBRANCH  33  34
ENDBRANCH   1  33
TORSDOF 25
