REMARK SMILES Cc1ccc2ncc(/C=C/c3cc(C(=O)OCCOCCOCCOCCOC(=O)c4ccc(-c5c6nc(c(-c7c(F)cc(S(=O)(=O)[O-])cc7F)c7ccc([nH]7)c(-c7c(F)cc(S(=O)(=O)[O-])cc7F)c7nc(c(-c8c(F)cc(S(=O)(=O)[O-])cc8F)c8ccc5[nH]8)C=C7)C=C6)cc4)ncn3)n2c1
REMARK SMILES IDX 23 1 22 2 21 3 20 4 19 5 18 6 17 7 16 8 14 9 15 10 13 11
REMARK SMILES IDX 11 12 12 13 99 14 98 15 97 16 10 17 9 18 8 19 1 20 2 21 3 22
REMARK SMILES IDX 101 23 4 24 100 25 5 26 6 27 7 28 24 29 25 30 26 31 27 32
REMARK SMILES IDX 28 33 29 34 30 35 31 36 32 37 96 38 33 39 95 40 34 41 35 42
REMARK SMILES IDX 36 43 89 44 37 45 94 46 88 47 90 48 38 49 93 50 87 51 86 52
REMARK SMILES IDX 39 54 73 55 52 56 72 57 53 58 56 59 71 60 91 61 54 62 55 63
REMARK SMILES IDX 70 65 92 66 57 67 40 68 41 69 50 70 42 71 43 72 49 73 51 74
REMARK SMILES IDX 44 75 45 76 46 77 47 78 48 79 74 80 75 81 84 82 76 83 77 84
REMARK SMILES IDX 83 85 85 86 78 87 79 88 80 89 81 90 82 91 58 92 59 93 68 94
REMARK SMILES IDX 60 95 61 96 67 97 69 98 62 99 63 100 64 101 65 102 66 103
REMARK H PARENT 90 53 56 64
REMARK Flexibility Score: inf
ROOT
ATOM      1  C   UNL     1       7.116   8.929   0.053  1.00  0.00     0.188 C 
ENDROOT
BRANCH   1   2
ATOM      2  O   UNL     1       5.822   8.468  -0.323  1.00  0.00    -0.377 OA
BRANCH   2   3
ATOM      3  C   UNL     1       5.429   8.629  -1.668  1.00  0.00     0.188 C 
BRANCH   3   4
ATOM      4  C   UNL     1       4.960  10.051  -2.007  1.00  0.00     0.188 C 
BRANCH   4   5
ATOM      5  O   UNL     1       5.535  11.074  -1.223  1.00  0.00    -0.376 OA
BRANCH   5   6
ATOM      6  C   UNL     1       5.000  11.534   0.011  1.00  0.00     0.202 C 
BRANCH   6   7
ATOM      7  C   UNL     1       4.264  10.717   1.088  1.00  0.00     0.261 C 
BRANCH   7   8
ATOM      8  O   UNL     1       3.546   9.579   0.648  1.00  0.00    -0.459 OA
BRANCH   8   9
ATOM      9  C   UNL     1       2.467   9.809  -0.137  1.00  0.00     0.357 C 
ATOM     10  O   UNL     1       2.010  10.878  -0.460  1.00  0.00    -0.244 OA
BRANCH   9  11
ATOM     11  C   UNL     1       2.131   8.481  -0.723  1.00  0.00     0.152 A 
ATOM     12  C   UNL     1       1.840   6.192  -0.538  1.00  0.00     0.067 A 
ATOM     13  C   UNL     1       2.199   7.367   0.071  1.00  0.00     0.064 A 
ATOM     14  N   UNL     1       1.617   6.081  -1.863  1.00  0.00    -0.237 NA
ATOM     15  C   UNL     1       1.648   7.230  -2.554  1.00  0.00     0.223 A 
ATOM     16  N   UNL     1       1.864   8.447  -2.050  1.00  0.00    -0.229 NA
BRANCH  12  17
ATOM     17  C   UNL     1       1.571   4.994   0.264  1.00  0.00     0.030 C 
ATOM     18  C   UNL     1       0.950   5.132   1.445  1.00  0.00     0.030 C 
BRANCH  18  19
ATOM     19  C   UNL     1       0.506   4.156   2.368  1.00  0.00     0.065 A 
ATOM     20  C   UNL     1       0.817  -0.337   0.120  1.00  0.00     0.046 C 
ATOM     21  C   UNL     1       0.473   0.607   1.228  1.00  0.00    -0.034 A 
ATOM     22  C   UNL     1      -0.124   0.091   2.452  1.00  0.00     0.009 A 
ATOM     23  C   UNL     1       0.687   1.932   1.129  1.00  0.00     0.096 A 
ATOM     24  C   UNL     1      -0.439   0.907   3.473  1.00  0.00     0.048 A 
ATOM     25  N   UNL     1       0.380   2.787   2.192  1.00  0.00    -0.300 N 
ATOM     26  C   UNL     1      -0.179   2.300   3.380  1.00  0.00     0.137 A 
ATOM     27  N   UNL     1      -0.394   3.248   4.260  1.00  0.00    -0.236 NA
ATOM     28  C   UNL     1       0.020   4.392   3.647  1.00  0.00     0.140 A 
ENDBRANCH  18  19
ENDBRANCH  12  17
ENDBRANCH   9  11
ENDBRANCH   8   9
ENDBRANCH   7   8
ENDBRANCH   6   7
ENDBRANCH   5   6
ENDBRANCH   4   5
ENDBRANCH   3   4
ENDBRANCH   2   3
ENDBRANCH   1   2
BRANCH   1  29
ATOM     29  C   UNL     1       7.982   9.841  -0.850  1.00  0.00     0.188 C 
BRANCH  29  30
ATOM     30  O   UNL     1       7.979   9.450  -2.213  1.00  0.00    -0.376 OA
BRANCH  30  31
ATOM     31  C   UNL     1       9.106   8.748  -2.707  1.00  0.00     0.202 C 
BRANCH  31  32
ATOM     32  C   UNL     1       9.574   7.468  -1.986  1.00  0.00     0.261 C 
BRANCH  32  33
ATOM     33  O   UNL     1       9.661   7.576  -0.554  1.00  0.00    -0.460 OA
BRANCH  33  34
ATOM     34  C   UNL     1      10.809   7.985   0.036  1.00  0.00     0.338 C 
ATOM     35  O   UNL     1      11.910   8.043  -0.475  1.00  0.00    -0.246 OA
BRANCH  34  36
ATOM     36  C   UNL     1      10.386   8.690   1.282  1.00  0.00     0.060 A 
ATOM     37  C   UNL     1       9.450   8.142   2.167  1.00  0.00     0.016 A 
ATOM     38  C   UNL     1      10.697  10.056   1.348  1.00  0.00     0.016 A 
ATOM     39  C   UNL     1       8.739   8.993   3.020  1.00  0.00     0.010 A 
ATOM     40  C   UNL     1       9.961  10.905   2.176  1.00  0.00     0.010 A 
ATOM     41  C   UNL     1       8.947  10.388   2.984  1.00  0.00    -0.014 A 
BRANCH  41  42
ATOM     42  C   UNL     1       8.284  11.229   4.002  1.00  0.00     0.031 A 
ATOM     43  C   UNL     1       8.738  10.869   5.373  1.00  0.00     0.074 A 
ATOM     44  C   UNL     1       7.509  12.322   3.810  1.00  0.00     0.049 A 
ATOM     45  N   UNL     1       8.038  10.430   6.365  1.00  0.00    -0.248 NA
ATOM     46  C   UNL     1      10.194  10.850   5.604  1.00  0.00     0.031 C 
ATOM     47  C   UNL     1       7.224  12.989   2.542  1.00  0.00     0.029 A 
ATOM     48  N   UNL     1       6.866  13.132   4.717  1.00  0.00    -0.354 N 
ATOM     49  C   UNL     1       8.942  10.268   7.410  1.00  0.00     0.074 A 
ATOM     50  C   UNL     1      10.261  10.364   6.841  1.00  0.00     0.031 C 
ATOM     51  C   UNL     1       6.600  14.166   2.768  1.00  0.00     0.029 A 
ATOM     52  C   UNL     1       6.412  14.349   4.195  1.00  0.00     0.049 A 
ATOM     53  H   UNL     1       6.736  12.876   5.659  1.00  0.00     0.167 HD
ATOM     54  C   UNL     1       8.558  10.297   8.712  1.00  0.00     0.037 A 
ATOM     55  C   UNL     1       5.991  15.461   4.868  1.00  0.00     0.037 A 
ATOM     56  C   UNL     1       7.146  10.087   8.864  1.00  0.00     0.049 A 
ATOM     57  C   UNL     1       5.631  15.035   6.242  1.00  0.00     0.074 A 
ATOM     58  C   UNL     1       6.287   9.049   8.566  1.00  0.00     0.029 A 
ATOM     59  N   UNL     1       6.351  11.187   9.068  1.00  0.00    -0.354 N 
ATOM     60  N   UNL     1       4.611  14.274   6.523  1.00  0.00    -0.248 NA
ATOM     61  C   UNL     1       6.678  15.077   7.251  1.00  0.00     0.031 C 
ATOM     62  C   UNL     1       5.078   9.673   8.148  1.00  0.00     0.029 A 
ATOM     63  C   UNL     1       5.246  11.053   8.266  1.00  0.00     0.049 A 
ATOM     64  H   UNL     1       6.539  11.936   9.679  1.00  0.00     0.167 HD
ATOM     65  C   UNL     1       5.080  13.410   7.500  1.00  0.00     0.074 A 
ATOM     66  C   UNL     1       6.337  13.997   7.958  1.00  0.00     0.031 C 
ATOM     67  C   UNL     1       4.550  12.162   7.652  1.00  0.00     0.037 A 
BRANCH  54  68
ATOM     68  C   UNL     1       9.433  10.843   9.803  1.00  0.00     0.058 A 
ATOM     69  C   UNL     1       9.151  10.550  11.148  1.00  0.00     0.135 A 
ATOM     70  C   UNL     1      10.401  11.849   9.579  1.00  0.00     0.135 A 
ATOM     71  F   UNL     1       8.218   9.639  11.466  1.00  0.00    -0.206 F 
ATOM     72  C   UNL     1       9.774  11.225  12.198  1.00  0.00     0.059 A 
ATOM     73  C   UNL     1      11.076  12.491  10.607  1.00  0.00     0.059 A 
ATOM     74  F   UNL     1      10.667  12.316   8.351  1.00  0.00    -0.206 F 
ATOM     75  C   UNL     1      10.734  12.195  11.915  1.00  0.00     0.060 A 
BRANCH  75  76
ATOM     76  S   UNL     1      11.489  13.113  13.268  1.00  0.00     0.124 S 
ATOM     77  O   UNL     1      10.351  13.870  13.777  1.00  0.00    -0.237 OA
ATOM     78  O   UNL     1      11.978  12.037  14.124  1.00  0.00    -0.237 OA
ATOM     79  O   UNL     1      12.525  13.899  12.605  1.00  0.00    -0.744 OA
ENDBRANCH  75  76
ENDBRANCH  54  68
BRANCH  55  80
ATOM     80  C   UNL     1       6.184  16.907   4.515  1.00  0.00     0.058 A 
ATOM     81  C   UNL     1       5.561  17.946   5.241  1.00  0.00     0.135 A 
ATOM     82  C   UNL     1       7.207  17.319   3.636  1.00  0.00     0.135 A 
ATOM     83  F   UNL     1       4.585  17.667   6.119  1.00  0.00    -0.206 F 
ATOM     84  C   UNL     1       5.969  19.288   5.146  1.00  0.00     0.059 A 
ATOM     85  C   UNL     1       7.620  18.646   3.513  1.00  0.00     0.059 A 
ATOM     86  F   UNL     1       7.916  16.427   2.931  1.00  0.00    -0.206 F 
ATOM     87  C   UNL     1       7.022  19.623   4.296  1.00  0.00     0.060 A 
BRANCH  87  88
ATOM     88  S   UNL     1       7.706  21.301   4.320  1.00  0.00     0.124 S 
ATOM     89  O   UNL     1       6.616  22.085   3.750  1.00  0.00    -0.237 OA
ATOM     90  O   UNL     1       7.966  21.506   5.741  1.00  0.00    -0.237 OA
ATOM     91  O   UNL     1       8.899  21.192   3.483  1.00  0.00    -0.744 OA
ENDBRANCH  87  88
ENDBRANCH  55  80
BRANCH  67  92
ATOM     92  C   UNL     1       3.257  11.841   6.945  1.00  0.00     0.058 A 
ATOM     93  C   UNL     1       3.103  11.780   5.547  1.00  0.00     0.135 A 
ATOM     94  C   UNL     1       2.176  11.405   7.728  1.00  0.00     0.135 A 
ATOM     95  F   UNL     1       4.116  12.091   4.725  1.00  0.00    -0.206 F 
ATOM     96  C   UNL     1       1.921  11.322   4.959  1.00  0.00     0.059 A 
ATOM     97  C   UNL     1       1.003  10.914   7.163  1.00  0.00     0.059 A 
ATOM     98  F   UNL     1       2.280  11.393   9.067  1.00  0.00    -0.206 F 
ATOM     99  C   UNL     1       0.881  10.877   5.776  1.00  0.00     0.060 A 
BRANCH  99 100
ATOM    100  S   UNL     1      -0.595  10.169   5.010  1.00  0.00     0.124 S 
ATOM    101  O   UNL     1      -1.205  11.336   4.383  1.00  0.00    -0.237 OA
ATOM    102  O   UNL     1      -0.031   9.177   4.096  1.00  0.00    -0.237 OA
ATOM    103  O   UNL     1      -1.332   9.613   6.142  1.00  0.00    -0.744 OA
ENDBRANCH  99 100
ENDBRANCH  67  92
ENDBRANCH  41  42
ENDBRANCH  34  36
ENDBRANCH  33  34
ENDBRANCH  32  33
ENDBRANCH  31  32
ENDBRANCH  30  31
ENDBRANCH  29  30
ENDBRANCH   1  29
TORSDOF 25
