REMARK SMILES CC(C)C(=O)Nc1ccc(NC(=O)[C@@H]2[C@@H](C(=O)OCCOCCOCCOCCOC(=O)c3ccc(-c4c5nc(c(-c6c(F)cc(S(=O)(=O)[O-])cc6F)c6ccc([nH]6)c(-c6c(F)cc(S(=O)(=O)[O-])cc6F)c6nc(c(-c7c(F)cc(S(=O)(=O)[O-])cc7F)c7ccc4[nH]7)C=C6)C=C5)cc3)C2(C)C)cc1Cl
REMARK SMILES IDX 23 1 22 2 21 3 20 4 19 5 18 6 16 7 17 8 15 9 14 10 99 11
REMARK SMILES IDX 100 12 101 13 12 14 11 15 13 17 10 18 7 19 8 20 103 21 9 22
REMARK SMILES IDX 102 23 104 24 6 25 4 26 5 27 2 29 1 30 3 31 24 32 25 33
REMARK SMILES IDX 26 34 27 35 28 36 29 37 30 38 31 39 32 40 33 41 34 42 98 43
REMARK SMILES IDX 35 44 97 45 36 46 37 47 38 48 91 49 39 50 96 51 90 52 92 53
REMARK SMILES IDX 40 54 95 55 89 56 88 57 41 59 75 60 54 61 74 62 55 63 58 64
REMARK SMILES IDX 73 65 93 66 56 67 57 68 72 70 94 71 59 72 42 73 43 74 52 75
REMARK SMILES IDX 44 76 45 77 51 78 53 79 46 80 47 81 48 82 49 83 50 84 76 85
REMARK SMILES IDX 77 86 86 87 78 88 79 89 85 90 87 91 80 92 81 93 82 94 83 95
REMARK SMILES IDX 84 96 60 97 61 98 70 99 62 100 63 101 69 102 71 103 64 104
REMARK SMILES IDX 65 105 66 106 67 107 68 108
REMARK H PARENT 11 16 6 28 92 58 58 69
REMARK Flexibility Score: inf
ROOT
ATOM      1  C   UNL     1      -2.910   1.161  10.836  1.00  0.00     0.188 C 
ENDROOT
BRANCH   1   2
ATOM      2  C   UNL     1      -2.127   0.301  11.838  1.00  0.00     0.188 C 
BRANCH   2   3
ATOM      3  O   UNL     1      -1.280   1.039  12.711  1.00  0.00    -0.376 OA
BRANCH   3   4
ATOM      4  C   UNL     1       0.118   0.818  12.526  1.00  0.00     0.202 C 
BRANCH   4   5
ATOM      5  C   UNL     1       0.709   1.449  11.261  1.00  0.00     0.261 C 
BRANCH   5   6
ATOM      6  O   UNL     1      -0.023   1.078  10.084  1.00  0.00    -0.463 OA
BRANCH   6   7
ATOM      7  C   UNL     1       0.445   0.075   9.316  1.00  0.00     0.310 C 
ATOM      8  O   UNL     1       1.454  -0.580   9.531  1.00  0.00    -0.252 OA
BRANCH   7   9
ATOM      9  C   UNL     1      -0.491  -0.273   8.219  1.00  0.00     0.118 C 
ATOM     10  C   UNL     1      -0.160   0.134   6.791  1.00  0.00     0.100 C 
ATOM     11  C   UNL     1      -1.428   0.667   7.464  1.00  0.00    -0.009 C 
ATOM     12  C   UNL     1      -1.452   2.163   7.736  1.00  0.00     0.013 C 
ATOM     13  C   UNL     1      -2.791   0.088   7.127  1.00  0.00     0.013 C 
BRANCH  10  14
ATOM     14  C   UNL     1      -0.073  -0.962   5.791  1.00  0.00     0.228 C 
ATOM     15  N   UNL     1      -0.523  -0.842   4.496  1.00  0.00    -0.326 N 
ATOM     16  H   UNL     1      -0.256  -1.592   3.917  1.00  0.00     0.169 HD
ATOM     17  O   UNL     1       0.436  -2.031   6.126  1.00  0.00    -0.274 OA
BRANCH  15  18
ATOM     18  C   UNL     1      -1.285   0.132   3.835  1.00  0.00     0.042 A 
ATOM     19  C   UNL     1      -3.371   1.688   2.786  1.00  0.00     0.060 A 
ATOM     20  C   UNL     1      -2.587   2.170   3.833  1.00  0.00     0.030 A 
ATOM     21  C   UNL     1      -2.888   0.586   2.080  1.00  0.00     0.066 A 
ATOM     22  C   UNL     1      -1.520   1.408   4.318  1.00  0.00     0.028 A 
ATOM     23  C   UNL     1      -1.893  -0.228   2.634  1.00  0.00     0.048 A 
ATOM     24  Cl  UNL     1      -3.253   0.354   0.405  1.00  0.00    -0.082 Cl
BRANCH  19  25
ATOM     25  N   UNL     1      -4.533   2.409   2.477  1.00  0.00    -0.325 N 
ATOM     26  C   UNL     1      -5.818   2.018   2.236  1.00  0.00     0.226 C 
ATOM     27  O   UNL     1      -6.600   2.908   1.873  1.00  0.00    -0.274 OA
ATOM     28  H   UNL     1      -4.396   3.383   2.425  1.00  0.00     0.169 HD
BRANCH  26  29
ATOM     29  C   UNL     1      -6.390   0.619   2.520  1.00  0.00     0.072 C 
ATOM     30  C   UNL     1      -6.090  -0.459   1.494  1.00  0.00     0.018 C 
ATOM     31  C   UNL     1      -6.164   0.128   3.946  1.00  0.00     0.018 C 
ENDBRANCH  26  29
ENDBRANCH  19  25
ENDBRANCH  15  18
ENDBRANCH  10  14
ENDBRANCH   7   9
ENDBRANCH   6   7
ENDBRANCH   5   6
ENDBRANCH   4   5
ENDBRANCH   3   4
ENDBRANCH   2   3
ENDBRANCH   1   2
BRANCH   1  32
ATOM     32  O   UNL     1      -2.537   2.516  10.661  1.00  0.00    -0.377 OA
BRANCH  32  33
ATOM     33  C   UNL     1      -2.501   3.390  11.783  1.00  0.00     0.188 C 
BRANCH  33  34
ATOM     34  C   UNL     1      -3.396   3.117  13.006  1.00  0.00     0.188 C 
BRANCH  34  35
ATOM     35  O   UNL     1      -4.537   2.308  12.748  1.00  0.00    -0.376 OA
BRANCH  35  36
ATOM     36  C   UNL     1      -5.774   2.991  12.589  1.00  0.00     0.202 C 
BRANCH  36  37
ATOM     37  C   UNL     1      -5.909   3.780  11.281  1.00  0.00     0.261 C 
BRANCH  37  38
ATOM     38  O   UNL     1      -5.065   4.937  11.177  1.00  0.00    -0.460 OA
BRANCH  38  39
ATOM     39  C   UNL     1      -5.200   5.885  12.130  1.00  0.00     0.338 C 
ATOM     40  O   UNL     1      -5.992   5.902  13.053  1.00  0.00    -0.246 OA
BRANCH  39  41
ATOM     41  C   UNL     1      -4.098   6.848  11.962  1.00  0.00     0.060 A 
ATOM     42  C   UNL     1      -3.184   7.020  13.008  1.00  0.00     0.016 A 
ATOM     43  C   UNL     1      -3.990   7.590  10.784  1.00  0.00     0.016 A 
ATOM     44  C   UNL     1      -2.176   7.975  12.893  1.00  0.00     0.010 A 
ATOM     45  C   UNL     1      -2.990   8.557  10.678  1.00  0.00     0.010 A 
ATOM     46  C   UNL     1      -2.103   8.778  11.745  1.00  0.00    -0.014 A 
BRANCH  46  47
ATOM     47  C   UNL     1      -1.239   9.980  11.742  1.00  0.00     0.031 A 
ATOM     48  C   UNL     1      -1.853  11.296  12.137  1.00  0.00     0.074 A 
ATOM     49  C   UNL     1       0.059   9.907  11.402  1.00  0.00     0.049 A 
ATOM     50  N   UNL     1      -1.313  12.485  12.174  1.00  0.00    -0.248 NA
ATOM     51  C   UNL     1      -3.268  11.262  12.542  1.00  0.00     0.031 C 
ATOM     52  C   UNL     1       0.771   8.685  11.034  1.00  0.00     0.029 A 
ATOM     53  N   UNL     1       1.008  10.893  11.306  1.00  0.00    -0.354 N 
ATOM     54  C   UNL     1      -2.318  13.340  12.609  1.00  0.00     0.074 A 
ATOM     55  C   UNL     1      -3.509  12.540  12.791  1.00  0.00     0.031 C 
ATOM     56  C   UNL     1       2.046   8.997  10.739  1.00  0.00     0.029 A 
ATOM     57  C   UNL     1       2.231  10.442  10.873  1.00  0.00     0.049 A 
ATOM     58  H   UNL     1       0.829  11.836  11.526  1.00  0.00     0.167 HD
ATOM     59  C   UNL     1      -2.252  14.671  12.846  1.00  0.00     0.037 A 
ATOM     60  C   UNL     1       3.362  11.123  10.602  1.00  0.00     0.037 A 
ATOM     61  C   UNL     1      -1.071  15.467  12.649  1.00  0.00     0.049 A 
ATOM     62  C   UNL     1       3.390  12.617  10.799  1.00  0.00     0.074 A 
ATOM     63  C   UNL     1      -0.900  16.823  12.864  1.00  0.00     0.029 A 
ATOM     64  N   UNL     1       0.140  14.979  12.181  1.00  0.00    -0.354 N 
ATOM     65  N   UNL     1       2.440  13.411  11.234  1.00  0.00    -0.248 NA
ATOM     66  C   UNL     1       4.645  13.308  10.469  1.00  0.00     0.031 C 
ATOM     67  C   UNL     1       0.404  17.162  12.485  1.00  0.00     0.029 A 
ATOM     68  C   UNL     1       1.058  16.010  12.078  1.00  0.00     0.049 A 
ATOM     69  H   UNL     1       0.320  14.038  11.955  1.00  0.00     0.167 HD
ATOM     70  C   UNL     1       2.991  14.689  11.255  1.00  0.00     0.074 A 
ATOM     71  C   UNL     1       4.359  14.562  10.795  1.00  0.00     0.031 C 
ATOM     72  C   UNL     1       2.418  15.862  11.624  1.00  0.00     0.037 A 
BRANCH  59  73
ATOM     73  C   UNL     1      -3.507  15.346  13.321  1.00  0.00     0.058 A 
ATOM     74  C   UNL     1      -3.997  15.155  14.623  1.00  0.00     0.135 A 
ATOM     75  C   UNL     1      -4.227  16.196  12.467  1.00  0.00     0.135 A 
ATOM     76  F   UNL     1      -3.358  14.334  15.472  1.00  0.00    -0.206 F 
ATOM     77  C   UNL     1      -5.173  15.760  15.053  1.00  0.00     0.059 A 
ATOM     78  C   UNL     1      -5.393  16.831  12.884  1.00  0.00     0.059 A 
ATOM     79  F   UNL     1      -3.804  16.407  11.211  1.00  0.00    -0.206 F 
ATOM     80  C   UNL     1      -5.866  16.593  14.173  1.00  0.00     0.060 A 
BRANCH  80  81
ATOM     81  S   UNL     1      -7.398  17.363  14.740  1.00  0.00     0.124 S 
ATOM     82  O   UNL     1      -8.319  16.232  14.710  1.00  0.00    -0.237 OA
ATOM     83  O   UNL     1      -7.032  17.848  16.067  1.00  0.00    -0.237 OA
ATOM     84  O   UNL     1      -7.645  18.401  13.743  1.00  0.00    -0.744 OA
ENDBRANCH  80  81
ENDBRANCH  59  73
BRANCH  60  85
ATOM     85  C   UNL     1       4.564  10.402  10.107  1.00  0.00     0.058 A 
ATOM     86  C   UNL     1       5.702  10.254  10.913  1.00  0.00     0.135 A 
ATOM     87  C   UNL     1       4.599   9.850   8.816  1.00  0.00     0.135 A 
ATOM     88  F   UNL     1       5.720  10.774  12.149  1.00  0.00    -0.206 F 
ATOM     89  C   UNL     1       6.838   9.594  10.455  1.00  0.00     0.059 A 
ATOM     90  C   UNL     1       5.716   9.167   8.344  1.00  0.00     0.059 A 
ATOM     91  F   UNL     1       3.533   9.958   8.009  1.00  0.00    -0.206 F 
ATOM     92  C   UNL     1       6.834   9.052   9.168  1.00  0.00     0.060 A 
BRANCH  92  93
ATOM     93  S   UNL     1       8.294   8.152   8.601  1.00  0.00     0.124 S 
ATOM     94  O   UNL     1       9.227   9.241   8.341  1.00  0.00    -0.237 OA
ATOM     95  O   UNL     1       8.600   7.308   9.753  1.00  0.00    -0.237 OA
ATOM     96  O   UNL     1       7.809   7.438   7.424  1.00  0.00    -0.744 OA
ENDBRANCH  92  93
ENDBRANCH  60  85
BRANCH  72  97
ATOM     97  C   UNL     1       3.273  17.098  11.579  1.00  0.00     0.058 A 
ATOM     98  C   UNL     1       3.615  17.714  10.365  1.00  0.00     0.135 A 
ATOM     99  C   UNL     1       3.705  17.707  12.769  1.00  0.00     0.135 A 
ATOM    100  F   UNL     1       3.232  17.170   9.200  1.00  0.00    -0.206 F 
ATOM    101  C   UNL     1       4.372  18.881  10.332  1.00  0.00     0.059 A 
ATOM    102  C   UNL     1       4.441  18.887  12.760  1.00  0.00     0.059 A 
ATOM    103  F   UNL     1       3.394  17.164  13.957  1.00  0.00    -0.206 F 
ATOM    104  C   UNL     1       4.780  19.461  11.535  1.00  0.00     0.060 A 
BRANCH 104 105
ATOM    105  S   UNL     1       5.730  20.996  11.481  1.00  0.00     0.124 S 
ATOM    106  O   UNL     1       7.045  20.512  11.076  1.00  0.00    -0.237 OA
ATOM    107  O   UNL     1       5.007  21.778  10.483  1.00  0.00    -0.237 OA
ATOM    108  O   UNL     1       5.638  21.500  12.848  1.00  0.00    -0.744 OA
ENDBRANCH 104 105
ENDBRANCH  72  97
ENDBRANCH  46  47
ENDBRANCH  39  41
ENDBRANCH  38  39
ENDBRANCH  37  38
ENDBRANCH  36  37
ENDBRANCH  35  36
ENDBRANCH  34  35
ENDBRANCH  33  34
ENDBRANCH  32  33
ENDBRANCH   1  32
TORSDOF 27
