REMARK SMILES Cc1ccc(NC(=O)C[C@@H](C(=O)OCCOCCOCCOCCOC(=O)c2ccc(-c3c4nc(c(-c5c(F)cc(S(=O)(=O)[O-])cc5F)c5ccc([nH]5)c(-c5c(F)cc(S(=O)(=O)[O-])cc5F)c5nc(c(-c6c(F)cc(S(=O)(=O)[O-])cc6F)c6ccc3[nH]6)C=C5)C=C4)cc2)[NH+]2CCOCC2)cc1
REMARK SMILES IDX 19 1 18 2 17 3 16 4 15 5 14 6 13 7 11 8 12 9 10 10 9 11 7 12
REMARK SMILES IDX 6 13 8 15 5 16 1 17 2 18 3 19 101 20 4 21 100 22 94 23 95 24
REMARK SMILES IDX 99 25 96 27 98 28 97 29 20 30 21 31 22 32 23 33 24 34 25 35
REMARK SMILES IDX 26 36 27 37 28 38 29 39 93 40 30 41 92 42 31 43 32 44 33 45
REMARK SMILES IDX 86 46 34 47 91 48 85 49 87 50 35 51 90 52 84 53 83 54 36 56
REMARK SMILES IDX 70 57 49 58 69 59 50 60 53 61 68 62 88 63 51 64 52 65 67 67
REMARK SMILES IDX 89 68 54 69 37 70 38 71 47 72 39 73 40 74 46 75 48 76 41 77
REMARK SMILES IDX 42 78 43 79 44 80 45 81 71 82 72 83 81 84 73 85 74 86 80 87
REMARK SMILES IDX 82 88 75 89 76 90 77 91 78 92 79 93 55 94 56 95 65 96 57 97
REMARK SMILES IDX 58 98 64 99 66 100 59 101 60 102 61 103 62 104 63 105
REMARK H PARENT 6 14 94 26 87 55 53 66
REMARK Flexibility Score: inf
ROOT
ATOM      1  O   UNL     1      -1.141  -1.690   3.388  1.00  0.00    -0.377 OA
ENDROOT
BRANCH   1   2
ATOM      2  C   UNL     1      -0.639  -2.620   2.471  1.00  0.00     0.188 C 
BRANCH   2   3
ATOM      3  C   UNL     1       0.722  -2.180   1.742  1.00  0.00     0.188 C 
BRANCH   3   4
ATOM      4  O   UNL     1       0.514  -0.738   0.530  1.00  0.00    -0.376 OA
BRANCH   4   5
ATOM      5  C   UNL     1       0.343  -1.135  -1.483  1.00  0.00     0.202 C 
BRANCH   5   6
ATOM      6  C   UNL     1      -0.281  -1.398  -2.873  1.00  0.00     0.261 C 
BRANCH   6   7
ATOM      7  O   UNL     1      -1.322  -2.272  -3.085  1.00  0.00    -0.459 OA
BRANCH   7   8
ATOM      8  C   UNL     1      -1.224  -3.185  -2.137  1.00  0.00     0.365 C 
ATOM      9  O   UNL     1      -0.163  -3.705  -1.809  1.00  0.00    -0.245 OA
BRANCH   8  10
ATOM     10  C   UNL     1      -2.621  -3.608  -1.810  1.00  0.00     0.304 C 
BRANCH  10  11
ATOM     11  C   UNL     1      -3.177  -3.246  -0.366  1.00  0.00     0.177 C 
BRANCH  11  12
ATOM     12  C   UNL     1      -3.484  -1.859   0.439  1.00  0.00     0.231 C 
ATOM     13  N   UNL     1      -2.696  -0.777   0.811  1.00  0.00    -0.326 N 
ATOM     14  H   UNL     1      -3.167  -0.128   1.382  1.00  0.00     0.169 HD
ATOM     15  O   UNL     1      -4.653  -1.777   0.878  1.00  0.00    -0.274 OA
BRANCH  13  16
ATOM     16  C   UNL     1      -1.327  -0.407   0.532  1.00  0.00     0.041 A 
ATOM     17  C   UNL     1       3.637   0.106  -0.261  1.00  0.00     0.044 C 
ATOM     18  C   UNL     1       2.095   0.162  -0.302  1.00  0.00    -0.051 A 
ATOM     19  C   UNL     1       1.593  -1.739  -0.270  1.00  0.00     0.005 A 
ATOM     20  C   UNL     1       1.131   1.896  -0.107  1.00  0.00     0.005 A 
ATOM     21  C   UNL     1      -0.372  -2.036   0.029  1.00  0.00     0.026 A 
ATOM     22  C   UNL     1      -0.775   1.496   0.540  1.00  0.00     0.026 A 
ENDBRANCH  13  16
ENDBRANCH  11  12
ENDBRANCH  10  11
BRANCH  10  23
ATOM     23  N   UNL     1      -2.586  -5.006  -2.348  1.00  0.00    -0.319 N 
ATOM     24  C   UNL     1      -1.748  -5.051  -3.640  1.00  0.00     0.291 C 
ATOM     25  C   UNL     1      -1.910  -5.980  -1.472  1.00  0.00     0.291 C 
ATOM     26  H   UNL     1      -3.570  -5.250  -2.465  1.00  0.00     0.348 HD
ATOM     27  C   UNL     1      -1.981  -6.350  -4.343  1.00  0.00     0.221 C 
ATOM     28  C   UNL     1      -2.093  -7.338  -2.165  1.00  0.00     0.221 C 
ATOM     29  O   UNL     1      -1.545  -7.421  -3.497  1.00  0.00    -0.370 OA
ENDBRANCH  10  23
ENDBRANCH   8  10
ENDBRANCH   7   8
ENDBRANCH   6   7
ENDBRANCH   5   6
ENDBRANCH   4   5
ENDBRANCH   3   4
ENDBRANCH   2   3
ENDBRANCH   1   2
BRANCH   1  30
ATOM     30  C   UNL     1      -0.183  -0.711   3.679  1.00  0.00     0.188 C 
BRANCH  30  31
ATOM     31  C   UNL     1       1.020  -0.938   4.787  1.00  0.00     0.188 C 
BRANCH  31  32
ATOM     32  O   UNL     1       1.041  -2.174   5.428  1.00  0.00    -0.376 OA
BRANCH  32  33
ATOM     33  C   UNL     1      -0.310  -2.408   5.704  1.00  0.00     0.202 C 
BRANCH  33  34
ATOM     34  C   UNL     1      -1.228  -1.091   6.008  1.00  0.00     0.261 C 
BRANCH  34  35
ATOM     35  O   UNL     1      -0.862   0.539   5.673  1.00  0.00    -0.460 OA
BRANCH  35  36
ATOM     36  C   UNL     1      -0.254   1.690   5.135  1.00  0.00     0.338 C 
ATOM     37  O   UNL     1      -0.800   2.779   5.355  1.00  0.00    -0.246 OA
BRANCH  36  38
ATOM     38  C   UNL     1       1.003   1.976   4.160  1.00  0.00     0.060 A 
ATOM     39  C   UNL     1       0.704   2.968   3.303  1.00  0.00     0.016 A 
ATOM     40  C   UNL     1       1.957   1.162   3.518  1.00  0.00     0.016 A 
ATOM     41  C   UNL     1       0.499   2.471   2.027  1.00  0.00     0.010 A 
ATOM     42  C   UNL     1       1.841   0.612   2.160  1.00  0.00     0.010 A 
ATOM     43  C   UNL     1       0.745   0.933   1.292  1.00  0.00    -0.014 A 
BRANCH  43  44
ATOM     44  C   UNL     1       0.050   0.731  -0.810  1.00  0.00     0.031 A 
ATOM     45  C   UNL     1       1.169   1.273  -2.286  1.00  0.00     0.074 A 
ATOM     46  C   UNL     1      -1.467   0.997  -1.483  1.00  0.00     0.049 A 
ATOM     47  N   UNL     1       1.070   0.765  -3.488  1.00  0.00    -0.248 NA
ATOM     48  C   UNL     1       2.612   1.790  -2.292  1.00  0.00     0.031 C 
ATOM     49  C   UNL     1      -2.570  -0.123  -1.944  1.00  0.00     0.029 A 
ATOM     50  N   UNL     1      -2.583   1.719  -0.850  1.00  0.00    -0.354 N 
ATOM     51  C   UNL     1       2.332   0.237  -3.934  1.00  0.00     0.074 A 
ATOM     52  C   UNL     1       3.268   1.004  -3.175  1.00  0.00     0.031 C 
ATOM     53  C   UNL     1      -3.879   0.131  -1.801  1.00  0.00     0.029 A 
ATOM     54  C   UNL     1      -3.895   1.378  -1.176  1.00  0.00     0.049 A 
ATOM     55  H   UNL     1      -2.404   2.438  -0.202  1.00  0.00     0.167 HD
ATOM     56  C   UNL     1       2.354  -0.860  -4.802  1.00  0.00     0.037 A 
ATOM     57  C   UNL     1      -4.778   2.352  -1.341  1.00  0.00     0.037 A 
ATOM     58  C   UNL     1       0.961  -1.007  -5.412  1.00  0.00     0.049 A 
ATOM     59  C   UNL     1      -3.978   2.560  -2.905  1.00  0.00     0.074 A 
ATOM     60  C   UNL     1       0.007  -1.977  -5.700  1.00  0.00     0.029 A 
ATOM     61  N   UNL     1       0.206   0.160  -5.508  1.00  0.00    -0.354 N 
ATOM     62  N   UNL     1      -3.144   1.705  -3.560  1.00  0.00    -0.248 NA
ATOM     63  C   UNL     1      -4.339   3.591  -3.863  1.00  0.00     0.031 C 
ATOM     64  C   UNL     1      -1.308  -1.317  -5.811  1.00  0.00     0.029 A 
ATOM     65  C   UNL     1      -1.171   0.057  -5.591  1.00  0.00     0.049 A 
ATOM     66  H   UNL     1       0.644   1.041  -5.517  1.00  0.00     0.167 HD
ATOM     67  C   UNL     1      -2.761   2.049  -4.838  1.00  0.00     0.074 A 
ATOM     68  C   UNL     1      -3.551   3.303  -4.932  1.00  0.00     0.031 C 
ATOM     69  C   UNL     1      -1.899   1.367  -5.748  1.00  0.00     0.037 A 
BRANCH  56  70
ATOM     70  C   UNL     1       3.542  -1.910  -5.111  1.00  0.00     0.058 A 
ATOM     71  C   UNL     1       3.301  -3.005  -5.989  1.00  0.00     0.135 A 
ATOM     72  C   UNL     1       4.877  -1.953  -4.603  1.00  0.00     0.135 A 
ATOM     73  F   UNL     1       2.101  -3.213  -6.532  1.00  0.00    -0.206 F 
ATOM     74  C   UNL     1       4.252  -3.964  -6.396  1.00  0.00     0.059 A 
ATOM     75  C   UNL     1       5.877  -2.906  -5.025  1.00  0.00     0.059 A 
ATOM     76  F   UNL     1       5.282  -1.082  -3.665  1.00  0.00    -0.206 F 
ATOM     77  C   UNL     1       5.556  -3.890  -5.956  1.00  0.00     0.060 A 
BRANCH  77  78
ATOM     78  S   UNL     1       6.754  -5.039  -6.711  1.00  0.00     0.124 S 
ATOM     79  O   UNL     1       6.215  -6.347  -6.350  1.00  0.00    -0.237 OA
ATOM     80  O   UNL     1       6.655  -4.694  -8.127  1.00  0.00    -0.237 OA
ATOM     81  O   UNL     1       8.022  -4.693  -6.076  1.00  0.00    -0.744 OA
ENDBRANCH  77  78
ENDBRANCH  56  70
BRANCH  57  82
ATOM     82  C   UNL     1      -4.762   2.580   0.373  1.00  0.00     0.058 A 
ATOM     83  C   UNL     1      -5.430   1.562   1.182  1.00  0.00     0.135 A 
ATOM     84  C   UNL     1      -3.901   3.347   1.222  1.00  0.00     0.135 A 
ATOM     85  F   UNL     1      -6.274   0.707   0.582  1.00  0.00    -0.206 F 
ATOM     86  C   UNL     1      -5.216   1.300   2.585  1.00  0.00     0.059 A 
ATOM     87  C   UNL     1      -3.683   3.105   2.666  1.00  0.00     0.059 A 
ATOM     88  F   UNL     1      -3.150   4.311   0.669  1.00  0.00    -0.206 F 
ATOM     89  C   UNL     1      -4.363   2.086   3.346  1.00  0.00     0.060 A 
BRANCH  89  90
ATOM     90  S   UNL     1      -4.353   1.764   5.194  1.00  0.00     0.124 S 
ATOM     91  O   UNL     1      -5.693   2.201   5.575  1.00  0.00    -0.237 OA
ATOM     92  O   UNL     1      -4.133   0.322   5.280  1.00  0.00    -0.237 OA
ATOM     93  O   UNL     1      -3.300   2.597   5.741  1.00  0.00    -0.744 OA
ENDBRANCH  89  90
ENDBRANCH  57  82
BRANCH  69  94
ATOM     94  C   UNL     1      -1.466   2.040  -7.065  1.00  0.00     0.058 A 
ATOM     95  C   UNL     1      -2.370   2.813  -7.772  1.00  0.00     0.135 A 
ATOM     96  C   UNL     1      -0.191   1.893  -7.713  1.00  0.00     0.135 A 
ATOM     97  F   UNL     1      -3.683   2.732  -7.518  1.00  0.00    -0.206 F 
ATOM     98  C   UNL     1      -1.977   3.615  -8.829  1.00  0.00     0.059 A 
ATOM     99  C   UNL     1       0.194   2.596  -8.829  1.00  0.00     0.059 A 
ATOM    100  F   UNL     1       0.770   1.028  -7.378  1.00  0.00    -0.206 F 
ATOM    101  C   UNL     1      -0.695   3.492  -9.354  1.00  0.00     0.060 A 
BRANCH 101 102
ATOM    102  S   UNL     1      -0.296   4.328 -10.874  1.00  0.00     0.124 S 
ATOM    103  O   UNL     1      -1.461   4.000 -11.690  1.00  0.00    -0.237 OA
ATOM    104  O   UNL     1      -0.194   5.711 -10.423  1.00  0.00    -0.237 OA
ATOM    105  O   UNL     1       0.955   3.705 -11.294  1.00  0.00    -0.744 OA
ENDBRANCH 101 102
ENDBRANCH  69  94
ENDBRANCH  43  44
ENDBRANCH  36  38
ENDBRANCH  35  36
ENDBRANCH  34  35
ENDBRANCH  33  34
ENDBRANCH  32  33
ENDBRANCH  31  32
ENDBRANCH  30  31
ENDBRANCH   1  30
TORSDOF 27
