REMARK SMILES C[C@@H](CCC(=O)OCCOCCOCCOCCOC(=O)c1ccc(-c2c3nc(c(-c4c(F)cc(S(=O)(=O)[O-])cc4F)c4ccc([nH]4)c(-c4c(F)cc(S(=O)(=O)[O-])cc4F)c4nc(c(-c5c(F)cc(S(=O)(=O)[O-])cc5F)c5ccc2[nH]5)C=C4)C=C3)cc1)[C@@H]1CC[C@H]2[C@@H]3CC[C@H]4CC(=O)CC[C@@]4(C)[C@H]3CC(=O)[C@@]21C
REMARK SMILES IDX 13 1 12 2 11 3 10 4 9 5 8 6 7 7 5 8 6 9 4 10 3 11 2 12 1 13
REMARK SMILES IDX 88 14 89 15 107 16 90 17 91 18 105 19 108 20 92 21 104 22
REMARK SMILES IDX 106 23 93 24 103 25 94 26 101 27 95 28 100 29 102 30 96 31
REMARK SMILES IDX 99 32 97 33 98 34 14 35 15 36 16 37 17 38 18 39 19 40 20 41
REMARK SMILES IDX 21 42 22 43 23 44 87 45 24 46 86 47 25 48 26 49 27 50 80 51
REMARK SMILES IDX 28 52 85 53 79 54 81 55 29 56 84 57 78 58 77 59 30 61 64 62
REMARK SMILES IDX 43 63 63 64 44 65 47 66 62 67 82 68 45 69 46 70 61 72 83 73
REMARK SMILES IDX 48 74 31 75 32 76 41 77 33 78 34 79 40 80 42 81 35 82 36 83
REMARK SMILES IDX 37 84 38 85 39 86 65 87 66 88 75 89 67 90 68 91 74 92 76 93
REMARK SMILES IDX 69 94 70 95 71 96 72 97 73 98 49 99 50 100 59 101 51 102
REMARK SMILES IDX 52 103 58 104 60 105 53 106 54 107 55 108 56 109 57 110
REMARK H PARENT 81 60 47 71
REMARK Flexibility Score: inf
ROOT
ATOM      1  O   UNL     1      -4.059   1.579   1.160  1.00  0.00    -0.377 OA
ENDROOT
BRANCH   1   2
ATOM      2  C   UNL     1      -5.471   1.520   0.958  1.00  0.00     0.188 C 
BRANCH   2   3
ATOM      3  C   UNL     1      -5.814   0.885  -0.447  1.00  0.00     0.188 C 
BRANCH   3   4
ATOM      4  O   UNL     1      -5.865  -0.542  -0.420  1.00  0.00    -0.376 OA
BRANCH   4   5
ATOM      5  C   UNL     1      -5.362  -1.366  -1.488  1.00  0.00     0.202 C 
BRANCH   5   6
ATOM      6  C   UNL     1      -4.782  -0.897  -2.864  1.00  0.00     0.261 C 
BRANCH   6   7
ATOM      7  O   UNL     1      -3.563  -0.103  -2.910  1.00  0.00    -0.463 OA
BRANCH   7   8
ATOM      8  C   UNL     1      -3.563   1.088  -3.582  1.00  0.00     0.305 C 
ATOM      9  O   UNL     1      -4.571   1.556  -4.104  1.00  0.00    -0.252 OA
BRANCH   8  10
ATOM     10  C   UNL     1      -2.163   1.765  -3.706  1.00  0.00     0.123 C 
BRANCH  10  11
ATOM     11  C   UNL     1      -1.478   2.567  -2.541  1.00  0.00     0.015 C 
BRANCH  11  12
ATOM     12  C   UNL     1      -0.351   1.846  -1.595  1.00  0.00    -0.010 C 
ATOM     13  C   UNL     1       0.959   1.862  -2.374  1.00  0.00     0.008 C 
BRANCH  12  14
ATOM     14  C   UNL     1      -0.825   0.443  -1.102  1.00  0.00     0.005 C 
ATOM     15  C   UNL     1      -2.230   0.766  -0.665  1.00  0.00     0.005 C 
ATOM     16  C   UNL     1      -0.439  -0.710   0.084  1.00  0.00     0.032 C 
ATOM     17  C   UNL     1      -2.751  -0.554  -0.250  1.00  0.00     0.005 C 
ATOM     18  C   UNL     1      -1.812  -0.800   0.845  1.00  0.00     0.006 C 
ATOM     19  C   UNL     1       0.405  -0.694   1.372  1.00  0.00     0.139 C 
ATOM     20  C   UNL     1       0.001  -1.977  -0.681  1.00  0.00     0.020 C 
ATOM     21  C   UNL     1      -2.270  -1.900   1.809  1.00  0.00    -0.003 C 
ATOM     22  C   UNL     1       0.113  -1.931   2.397  1.00  0.00     0.080 C 
ATOM     23  O   UNL     1       1.169   0.229   1.633  1.00  0.00    -0.299 OA
ATOM     24  C   UNL     1      -3.757  -1.662   2.193  1.00  0.00     0.004 C 
ATOM     25  C   UNL     1      -1.321  -1.835   3.009  1.00  0.00     0.006 C 
ATOM     26  C   UNL     1      -4.253  -1.875   3.606  1.00  0.00     0.005 C 
ATOM     27  C   UNL     1      -1.912  -2.684   4.236  1.00  0.00    -0.025 C 
ATOM     28  C   UNL     1      -3.167  -1.864   4.691  1.00  0.00     0.002 C 
ATOM     29  C   UNL     1      -2.415  -4.126   3.933  1.00  0.00     0.015 C 
ATOM     30  C   UNL     1      -0.905  -2.803   5.392  1.00  0.00     0.012 C 
ATOM     31  C   UNL     1      -3.775  -2.356   6.000  1.00  0.00     0.079 C 
ATOM     32  C   UNL     1      -3.508  -4.699   4.883  1.00  0.00     0.076 C 
ATOM     33  C   UNL     1      -4.256  -3.768   5.831  1.00  0.00     0.133 C 
ATOM     34  O   UNL     1      -5.226  -4.174   6.476  1.00  0.00    -0.300 OA
ENDBRANCH  12  14
ENDBRANCH  11  12
ENDBRANCH  10  11
ENDBRANCH   8  10
ENDBRANCH   7   8
ENDBRANCH   6   7
ENDBRANCH   5   6
ENDBRANCH   4   5
ENDBRANCH   3   4
ENDBRANCH   2   3
ENDBRANCH   1   2
BRANCH   1  35
ATOM     35  C   UNL     1      -3.530   2.432   2.172  1.00  0.00     0.188 C 
BRANCH  35  36
ATOM     36  C   UNL     1      -3.445   1.805   3.570  1.00  0.00     0.188 C 
BRANCH  36  37
ATOM     37  O   UNL     1      -3.823   2.668   4.641  1.00  0.00    -0.376 OA
BRANCH  37  38
ATOM     38  C   UNL     1      -3.206   3.949   4.684  1.00  0.00     0.202 C 
BRANCH  38  39
ATOM     39  C   UNL     1      -1.812   4.039   5.317  1.00  0.00     0.261 C 
BRANCH  39  40
ATOM     40  O   UNL     1      -0.774   3.272   4.671  1.00  0.00    -0.460 OA
BRANCH  40  41
ATOM     41  C   UNL     1      -0.248   2.304   5.464  1.00  0.00     0.338 C 
ATOM     42  O   UNL     1      -0.707   1.944   6.545  1.00  0.00    -0.246 OA
BRANCH  41  43
ATOM     43  C   UNL     1       0.941   1.620   4.902  1.00  0.00     0.060 A 
ATOM     44  C   UNL     1       0.946   0.235   5.042  1.00  0.00     0.016 A 
ATOM     45  C   UNL     1       2.103   2.256   4.463  1.00  0.00     0.016 A 
ATOM     46  C   UNL     1       2.083  -0.526   4.770  1.00  0.00     0.010 A 
ATOM     47  C   UNL     1       3.258   1.486   4.178  1.00  0.00     0.010 A 
ATOM     48  C   UNL     1       3.257   0.087   4.333  1.00  0.00    -0.014 A 
BRANCH  48  49
ATOM     49  C   UNL     1       4.501  -0.737   4.296  1.00  0.00     0.031 A 
ATOM     50  C   UNL     1       5.234  -0.947   5.595  1.00  0.00     0.074 A 
ATOM     51  C   UNL     1       4.927  -1.391   3.196  1.00  0.00     0.049 A 
ATOM     52  N   UNL     1       6.368  -1.555   5.824  1.00  0.00    -0.248 NA
ATOM     53  C   UNL     1       4.580  -0.417   6.804  1.00  0.00     0.031 C 
ATOM     54  C   UNL     1       4.243  -1.421   1.906  1.00  0.00     0.029 A 
ATOM     55  N   UNL     1       6.045  -2.171   2.991  1.00  0.00    -0.354 N 
ATOM     56  C   UNL     1       6.573  -1.464   7.195  1.00  0.00     0.074 A 
ATOM     57  C   UNL     1       5.438  -0.761   7.750  1.00  0.00     0.031 C 
ATOM     58  C   UNL     1       4.961  -2.162   1.041  1.00  0.00     0.029 A 
ATOM     59  C   UNL     1       6.189  -2.613   1.694  1.00  0.00     0.049 A 
ATOM     60  H   UNL     1       6.683  -2.392   3.708  1.00  0.00     0.167 HD
ATOM     61  C   UNL     1       7.622  -1.904   7.928  1.00  0.00     0.037 A 
ATOM     62  C   UNL     1       7.213  -3.259   1.093  1.00  0.00     0.037 A 
ATOM     63  C   UNL     1       8.770  -2.571   7.379  1.00  0.00     0.049 A 
ATOM     64  C   UNL     1       8.444  -3.608   1.899  1.00  0.00     0.074 A 
ATOM     65  C   UNL     1       9.918  -2.983   8.031  1.00  0.00     0.029 A 
ATOM     66  N   UNL     1       8.921  -2.915   6.045  1.00  0.00    -0.354 N 
ATOM     67  N   UNL     1       8.665  -3.448   3.183  1.00  0.00    -0.248 NA
ATOM     68  C   UNL     1       9.575  -4.208   1.172  1.00  0.00     0.031 C 
ATOM     69  C   UNL     1      10.786  -3.533   7.081  1.00  0.00     0.029 A 
ATOM     70  C   UNL     1      10.153  -3.516   5.849  1.00  0.00     0.049 A 
ATOM     71  H   UNL     1       8.251  -2.756   5.341  1.00  0.00     0.167 HD
ATOM     72  C   UNL     1       9.943  -3.950   3.419  1.00  0.00     0.074 A 
ATOM     73  C   UNL     1      10.444  -4.429   2.149  1.00  0.00     0.031 C 
ATOM     74  C   UNL     1      10.638  -4.006   4.583  1.00  0.00     0.037 A 
BRANCH  61  75
ATOM     75  C   UNL     1       7.605  -1.585   9.395  1.00  0.00     0.058 A 
ATOM     76  C   UNL     1       6.760  -2.255  10.293  1.00  0.00     0.135 A 
ATOM     77  C   UNL     1       8.437  -0.574   9.901  1.00  0.00     0.135 A 
ATOM     78  F   UNL     1       5.922  -3.207   9.853  1.00  0.00    -0.206 F 
ATOM     79  C   UNL     1       6.723  -1.913  11.641  1.00  0.00     0.059 A 
ATOM     80  C   UNL     1       8.434  -0.234  11.249  1.00  0.00     0.059 A 
ATOM     81  F   UNL     1       9.253   0.105   9.079  1.00  0.00    -0.206 F 
ATOM     82  C   UNL     1       7.560  -0.900  12.108  1.00  0.00     0.060 A 
BRANCH  82  83
ATOM     83  S   UNL     1       7.502  -0.449  13.855  1.00  0.00     0.124 S 
ATOM     84  O   UNL     1       6.210   0.244  13.929  1.00  0.00    -0.237 OA
ATOM     85  O   UNL     1       7.540  -1.762  14.512  1.00  0.00    -0.237 OA
ATOM     86  O   UNL     1       8.669   0.376  14.041  1.00  0.00    -0.744 OA
ENDBRANCH  82  83
ENDBRANCH  61  75
BRANCH  62  87
ATOM     87  C   UNL     1       7.174  -3.561  -0.370  1.00  0.00     0.058 A 
ATOM     88  C   UNL     1       7.173  -4.881  -0.849  1.00  0.00     0.135 A 
ATOM     89  C   UNL     1       7.198  -2.529  -1.324  1.00  0.00     0.135 A 
ATOM     90  F   UNL     1       7.180  -5.907   0.015  1.00  0.00    -0.206 F 
ATOM     91  C   UNL     1       7.209  -5.168  -2.213  1.00  0.00     0.059 A 
ATOM     92  C   UNL     1       7.204  -2.790  -2.692  1.00  0.00     0.059 A 
ATOM     93  F   UNL     1       7.212  -1.247  -0.929  1.00  0.00    -0.206 F 
ATOM     94  C   UNL     1       7.221  -4.114  -3.128  1.00  0.00     0.060 A 
BRANCH  94  95
ATOM     95  S   UNL     1       7.220  -4.492  -4.895  1.00  0.00     0.124 S 
ATOM     96  O   UNL     1       8.583  -4.968  -5.097  1.00  0.00    -0.237 OA
ATOM     97  O   UNL     1       6.170  -5.502  -4.991  1.00  0.00    -0.237 OA
ATOM     98  O   UNL     1       6.900  -3.208  -5.513  1.00  0.00    -0.744 OA
ENDBRANCH  94  95
ENDBRANCH  62  87
BRANCH  74  99
ATOM     99  C   UNL     1      11.998  -4.651   4.562  1.00  0.00     0.058 A 
ATOM    100  C   UNL     1      13.111  -4.020   3.984  1.00  0.00     0.135 A 
ATOM    101  C   UNL     1      12.205  -5.888   5.197  1.00  0.00     0.135 A 
ATOM    102  F   UNL     1      12.971  -2.839   3.363  1.00  0.00    -0.206 F 
ATOM    103  C   UNL     1      14.376  -4.602   4.018  1.00  0.00     0.059 A 
ATOM    104  C   UNL     1      13.464  -6.474   5.266  1.00  0.00     0.059 A 
ATOM    105  F   UNL     1      11.178  -6.528   5.778  1.00  0.00    -0.206 F 
ATOM    106  C   UNL     1      14.543  -5.829   4.664  1.00  0.00     0.060 A 
BRANCH 106 107
ATOM    107  S   UNL     1      16.195  -6.556   4.734  1.00  0.00     0.124 S 
ATOM    108  O   UNL     1      16.366  -7.030   3.365  1.00  0.00    -0.237 OA
ATOM    109  O   UNL     1      17.022  -5.417   5.119  1.00  0.00    -0.237 OA
ATOM    110  O   UNL     1      16.065  -7.598   5.748  1.00  0.00    -0.744 OA
ENDBRANCH 106 107
ENDBRANCH  74  99
ENDBRANCH  48  49
ENDBRANCH  41  43
ENDBRANCH  40  41
ENDBRANCH  39  40
ENDBRANCH  38  39
ENDBRANCH  37  38
ENDBRANCH  36  37
ENDBRANCH  35  36
ENDBRANCH   1  35
TORSDOF 26
