REMARK SMILES Cc1ccccc1C(=O)Nc1ccc(OCC(=O)OCCOCCOCCOCCOC(=O)c2ccc(-c3c4nc(c(-c5c(F)cc(S(=O)(=O)[O-])cc5F)c5ccc([nH]5)c(-c5c(F)cc(S(=O)(=O)[O-])cc5F)c5nc(c(-c6c(F)cc(S(=O)(=O)[O-])cc6F)c6ccc3[nH]6)C=C5)C=C4)cc2)c(-c2nc3ccccc3s2)c1
REMARK SMILES IDX 24 1 23 2 22 3 21 4 20 5 19 6 17 7 18 8 16 9 15 10 14 11
REMARK SMILES IDX 11 12 12 13 110 14 13 15 100 16 10 17 8 18 9 19 7 21 1 22
REMARK SMILES IDX 2 23 3 24 4 25 6 26 5 27 101 28 102 29 109 30 103 31 108 32
REMARK SMILES IDX 104 33 107 34 105 35 106 36 25 37 26 38 27 39 28 40 29 41
REMARK SMILES IDX 30 42 31 43 32 44 33 45 34 46 35 47 99 48 36 49 98 50 37 51
REMARK SMILES IDX 38 52 39 53 92 54 40 55 97 56 91 57 93 58 41 59 96 60 90 61
REMARK SMILES IDX 89 62 42 64 76 65 55 66 75 67 56 68 59 69 74 70 94 71 57 72
REMARK SMILES IDX 58 73 73 75 95 76 60 77 43 78 44 79 53 80 45 81 46 82 52 83
REMARK SMILES IDX 54 84 47 85 48 86 49 87 50 88 51 89 77 90 78 91 87 92 79 93
REMARK SMILES IDX 80 94 86 95 88 96 81 97 82 98 83 99 84 100 85 101 61 102
REMARK SMILES IDX 62 103 71 104 63 105 64 106 70 107 72 108 65 109 66 110
REMARK SMILES IDX 67 111 68 112 69 113
REMARK H PARENT 10 20 93 63 59 74
REMARK Flexibility Score: inf
ROOT
ATOM      1  C   UNL     1       2.973  -1.718  -0.156  1.00  0.00     0.188 C 
ENDROOT
BRANCH   1   2
ATOM      2  C   UNL     1       2.447  -1.487  -1.573  1.00  0.00     0.188 C 
BRANCH   2   3
ATOM      3  O   UNL     1       1.585  -2.388  -2.251  1.00  0.00    -0.376 OA
BRANCH   3   4
ATOM      4  C   UNL     1       1.816  -3.773  -2.066  1.00  0.00     0.202 C 
BRANCH   4   5
ATOM      5  C   UNL     1       3.203  -4.381  -2.330  1.00  0.00     0.261 C 
BRANCH   5   6
ATOM      6  O   UNL     1       4.288  -3.540  -1.939  1.00  0.00    -0.461 OA
BRANCH   6   7
ATOM      7  C   UNL     1       5.510  -3.885  -2.402  1.00  0.00     0.344 C 
ATOM      8  O   UNL     1       5.773  -4.912  -3.018  1.00  0.00    -0.248 OA
BRANCH   7   9
ATOM      9  C   UNL     1       6.540  -2.781  -2.125  1.00  0.00     0.352 C 
BRANCH   9  10
ATOM     10  O   UNL     1       6.245  -1.564  -1.489  1.00  0.00    -0.481 OA
BRANCH  10  11
ATOM     11  C   UNL     1       5.649  -0.403  -1.867  1.00  0.00     0.130 A 
ATOM     12  C   UNL     1       3.946   1.901  -1.543  1.00  0.00     0.042 A 
ATOM     13  C   UNL     1       4.835   1.542  -0.545  1.00  0.00     0.030 A 
ATOM     14  C   UNL     1       4.150   1.275  -2.774  1.00  0.00     0.041 A 
ATOM     15  C   UNL     1       5.678   0.434  -0.716  1.00  0.00     0.049 A 
ATOM     16  C   UNL     1       4.922   0.060  -2.984  1.00  0.00     0.055 A 
BRANCH  12  17
ATOM     17  N   UNL     1       3.042   2.953  -1.263  1.00  0.00    -0.322 N 
ATOM     18  C   UNL     1       1.727   3.354  -1.504  1.00  0.00     0.255 C 
ATOM     19  O   UNL     1       1.503   4.552  -1.258  1.00  0.00    -0.269 OA
ATOM     20  H   UNL     1       3.493   3.631  -0.709  1.00  0.00     0.170 HD
BRANCH  18  21
ATOM     21  C   UNL     1       0.490   2.518  -1.742  1.00  0.00     0.043 A 
ATOM     22  C   UNL     1       1.238   1.290  -3.810  1.00  0.00     0.045 C 
ATOM     23  C   UNL     1       0.276   1.553  -2.725  1.00  0.00    -0.038 A 
ATOM     24  C   UNL     1      -0.909   0.776  -2.748  1.00  0.00     0.004 A 
ATOM     25  C   UNL     1      -1.969   1.053  -1.897  1.00  0.00     0.000 A 
ATOM     26  C   UNL     1      -0.632   2.821  -0.926  1.00  0.00     0.014 A 
ATOM     27  C   UNL     1      -1.843   2.105  -1.003  1.00  0.00     0.001 A 
ENDBRANCH  18  21
ENDBRANCH  12  17
BRANCH  16  28
ATOM     28  C   UNL     1       4.529  -0.642  -4.262  1.00  0.00     0.128 A 
ATOM     29  N   UNL     1       3.507  -0.239  -5.012  1.00  0.00    -0.236 NA
ATOM     30  S   UNL     1       5.141  -2.118  -4.880  1.00  0.00    -0.114 S 
ATOM     31  C   UNL     1       2.839  -1.347  -5.525  1.00  0.00     0.082 A 
ATOM     32  C   UNL     1       3.556  -2.534  -5.434  1.00  0.00     0.055 A 
ATOM     33  C   UNL     1       1.530  -1.388  -6.053  1.00  0.00     0.030 A 
ATOM     34  C   UNL     1       2.981  -3.773  -5.772  1.00  0.00     0.021 A 
ATOM     35  C   UNL     1       0.925  -2.617  -6.333  1.00  0.00     0.002 A 
ATOM     36  C   UNL     1       1.639  -3.797  -6.172  1.00  0.00     0.002 A 
ENDBRANCH  16  28
ENDBRANCH  10  11
ENDBRANCH   9  10
ENDBRANCH   7   9
ENDBRANCH   6   7
ENDBRANCH   5   6
ENDBRANCH   4   5
ENDBRANCH   3   4
ENDBRANCH   2   3
ENDBRANCH   1   2
BRANCH   1  37
ATOM     37  O   UNL     1       2.112  -1.629   0.950  1.00  0.00    -0.377 OA
BRANCH  37  38
ATOM     38  C   UNL     1       0.743  -1.657   0.683  1.00  0.00     0.188 C 
BRANCH  38  39
ATOM     39  C   UNL     1       0.069  -0.308   0.558  1.00  0.00     0.188 C 
BRANCH  39  40
ATOM     40  O   UNL     1       0.874   0.846   0.569  1.00  0.00    -0.376 OA
BRANCH  40  41
ATOM     41  C   UNL     1       1.738   1.045   1.673  1.00  0.00     0.202 C 
BRANCH  41  42
ATOM     42  C   UNL     1       1.251   0.777   3.109  1.00  0.00     0.261 C 
BRANCH  42  43
ATOM     43  O   UNL     1       0.532  -0.450   3.350  1.00  0.00    -0.460 OA
BRANCH  43  44
ATOM     44  C   UNL     1      -0.649  -0.388   4.048  1.00  0.00     0.338 C 
ATOM     45  O   UNL     1      -1.218   0.573   4.493  1.00  0.00    -0.246 OA
BRANCH  44  46
ATOM     46  C   UNL     1      -1.284  -1.730   3.867  1.00  0.00     0.060 A 
ATOM     47  C   UNL     1      -0.795  -2.855   4.525  1.00  0.00     0.016 A 
ATOM     48  C   UNL     1      -2.038  -1.882   2.705  1.00  0.00     0.016 A 
ATOM     49  C   UNL     1      -0.804  -4.088   3.854  1.00  0.00     0.010 A 
ATOM     50  C   UNL     1      -1.903  -3.067   1.977  1.00  0.00     0.010 A 
ATOM     51  C   UNL     1      -1.119  -4.118   2.480  1.00  0.00    -0.014 A 
BRANCH  51  52
ATOM     52  C   UNL     1      -0.201  -4.868   1.545  1.00  0.00     0.031 A 
ATOM     53  C   UNL     1      -0.585  -5.487   0.221  1.00  0.00     0.074 A 
ATOM     54  C   UNL     1       1.139  -4.710   1.764  1.00  0.00     0.049 A 
ATOM     55  N   UNL     1       0.140  -6.351  -0.427  1.00  0.00    -0.248 NA
ATOM     56  C   UNL     1      -1.807  -5.188  -0.510  1.00  0.00     0.031 C 
ATOM     57  C   UNL     1       2.221  -5.049   0.861  1.00  0.00     0.029 A 
ATOM     58  N   UNL     1       1.820  -4.085   2.814  1.00  0.00    -0.354 N 
ATOM     59  C   UNL     1      -0.356  -6.538  -1.710  1.00  0.00     0.074 A 
ATOM     60  C   UNL     1      -1.633  -5.869  -1.652  1.00  0.00     0.031 C 
ATOM     61  C   UNL     1       3.386  -4.571   1.305  1.00  0.00     0.029 A 
ATOM     62  C   UNL     1       3.208  -4.211   2.680  1.00  0.00     0.049 A 
ATOM     63  H   UNL     1       1.378  -3.615   3.556  1.00  0.00     0.167 HD
ATOM     64  C   UNL     1       0.399  -7.165  -2.682  1.00  0.00     0.037 A 
ATOM     65  C   UNL     1       3.905  -4.894   3.626  1.00  0.00     0.037 A 
ATOM     66  C   UNL     1       1.717  -7.645  -2.145  1.00  0.00     0.049 A 
ATOM     67  C   UNL     1       4.116  -6.389   3.240  1.00  0.00     0.074 A 
ATOM     68  C   UNL     1       3.033  -7.668  -2.585  1.00  0.00     0.029 A 
ATOM     69  N   UNL     1       1.795  -8.167  -0.841  1.00  0.00    -0.354 N 
ATOM     70  N   UNL     1       3.986  -6.857   2.005  1.00  0.00    -0.248 NA
ATOM     71  C   UNL     1       4.380  -7.498   4.154  1.00  0.00     0.031 C 
ATOM     72  C   UNL     1       3.889  -7.994  -1.476  1.00  0.00     0.029 A 
ATOM     73  C   UNL     1       3.099  -8.289  -0.376  1.00  0.00     0.049 A 
ATOM     74  H   UNL     1       1.005  -8.420  -0.311  1.00  0.00     0.167 HD
ATOM     75  C   UNL     1       3.845  -8.222   1.989  1.00  0.00     0.074 A 
ATOM     76  C   UNL     1       4.232  -8.575   3.348  1.00  0.00     0.031 C 
ATOM     77  C   UNL     1       3.345  -8.948   0.922  1.00  0.00     0.037 A 
BRANCH  64  78
ATOM     78  C   UNL     1       0.018  -7.267  -4.207  1.00  0.00     0.058 A 
ATOM     79  C   UNL     1       0.773  -8.047  -5.126  1.00  0.00     0.135 A 
ATOM     80  C   UNL     1      -1.053  -6.589  -4.847  1.00  0.00     0.135 A 
ATOM     81  F   UNL     1       1.814  -8.783  -4.716  1.00  0.00    -0.206 F 
ATOM     82  C   UNL     1       0.509  -8.123  -6.515  1.00  0.00     0.059 A 
ATOM     83  C   UNL     1      -1.375  -6.699  -6.214  1.00  0.00     0.059 A 
ATOM     84  F   UNL     1      -1.829  -5.714  -4.208  1.00  0.00    -0.206 F 
ATOM     85  C   UNL     1      -0.577  -7.449  -7.053  1.00  0.00     0.060 A 
BRANCH  85  86
ATOM     86  S   UNL     1      -0.927  -7.529  -8.828  1.00  0.00     0.124 S 
ATOM     87  O   UNL     1       0.208  -6.806  -9.391  1.00  0.00    -0.237 OA
ATOM     88  O   UNL     1      -0.959  -8.965  -9.079  1.00  0.00    -0.237 OA
ATOM     89  O   UNL     1      -2.215  -6.849  -8.950  1.00  0.00    -0.744 OA
ENDBRANCH  85  86
ENDBRANCH  64  78
BRANCH  65  90
ATOM     90  C   UNL     1       4.121  -3.940   4.778  1.00  0.00     0.058 A 
ATOM     91  C   UNL     1       5.147  -2.983   4.567  1.00  0.00     0.135 A 
ATOM     92  C   UNL     1       3.041  -3.474   5.570  1.00  0.00     0.135 A 
ATOM     93  F   UNL     1       6.207  -3.315   3.812  1.00  0.00    -0.206 F 
ATOM     94  C   UNL     1       5.043  -1.638   4.966  1.00  0.00     0.059 A 
ATOM     95  C   UNL     1       2.916  -2.126   5.980  1.00  0.00     0.059 A 
ATOM     96  F   UNL     1       2.003  -4.288   5.826  1.00  0.00    -0.206 F 
ATOM     97  C   UNL     1       3.909  -1.205   5.647  1.00  0.00     0.060 A 
BRANCH  97  98
ATOM     98  S   UNL     1       3.678   0.580   5.950  1.00  0.00     0.124 S 
ATOM     99  O   UNL     1       4.411   0.780   7.193  1.00  0.00    -0.237 OA
ATOM    100  O   UNL     1       4.272   1.192   4.762  1.00  0.00    -0.237 OA
ATOM    101  O   UNL     1       2.228   0.713   6.052  1.00  0.00    -0.744 OA
ENDBRANCH  97  98
ENDBRANCH  65  90
BRANCH  77 102
ATOM    102  C   UNL     1       2.958 -10.431   0.954  1.00  0.00     0.058 A 
ATOM    103  C   UNL     1       2.444 -11.089   2.082  1.00  0.00     0.135 A 
ATOM    104  C   UNL     1       2.911 -11.188  -0.253  1.00  0.00     0.135 A 
ATOM    105  F   UNL     1       2.325 -10.461   3.259  1.00  0.00    -0.206 F 
ATOM    106  C   UNL     1       1.978 -12.409   2.033  1.00  0.00     0.059 A 
ATOM    107  C   UNL     1       2.382 -12.474  -0.337  1.00  0.00     0.059 A 
ATOM    108  F   UNL     1       3.369 -10.694  -1.413  1.00  0.00    -0.206 F 
ATOM    109  C   UNL     1       1.949 -13.093   0.821  1.00  0.00     0.060 A 
BRANCH 109 110
ATOM    110  S   UNL     1       1.318 -14.780   0.748  1.00  0.00     0.124 S 
ATOM    111  O   UNL     1       2.524 -15.550   1.032  1.00  0.00    -0.237 OA
ATOM    112  O   UNL     1       0.301 -14.790   1.796  1.00  0.00    -0.237 OA
ATOM    113  O   UNL     1       0.803 -14.889  -0.613  1.00  0.00    -0.744 OA
ENDBRANCH 109 110
ENDBRANCH  77 102
ENDBRANCH  51  52
ENDBRANCH  44  46
ENDBRANCH  43  44
ENDBRANCH  42  43
ENDBRANCH  41  42
ENDBRANCH  40  41
ENDBRANCH  39  40
ENDBRANCH  38  39
ENDBRANCH  37  38
ENDBRANCH   1  37
TORSDOF 28
