REMARK SMILES Cc1csc(C[C@@H](Cc2ccc(Br)cc2)C(=O)OCCOCCOCCOCCOC(=O)c2ccc(-c3c4nc(c(-c5c(F)cc(S(=O)(=O)[O-])cc5F)c5ccc([nH]5)c(-c5c(F)cc(S(=O)(=O)[O-])cc5F)c5nc(c(-c6c(F)cc(S(=O)(=O)[O-])cc6F)c6ccc3[nH]6)C=C5)C=C4)cc2)n1
REMARK SMILES IDX 25 1 24 2 23 3 22 4 21 5 20 6 19 7 18 8 16 9 17 10 7 11 6 12
REMARK SMILES IDX 5 13 1 14 2 15 3 16 99 17 4 18 8 19 9 20 10 21 15 22 11 23
REMARK SMILES IDX 14 24 12 25 13 26 26 27 27 28 28 29 29 30 30 31 31 32 32 33
REMARK SMILES IDX 33 34 34 35 98 36 35 37 97 38 36 39 37 40 38 41 91 42 39 43
REMARK SMILES IDX 96 44 90 45 92 46 40 47 95 48 89 49 88 50 41 52 75 53 54 54
REMARK SMILES IDX 74 55 55 56 58 57 73 58 93 59 56 60 57 61 72 63 94 64 59 65
REMARK SMILES IDX 42 66 43 67 52 68 44 69 45 70 51 71 53 72 46 73 47 74 48 75
REMARK SMILES IDX 49 76 50 77 76 78 77 79 86 80 78 81 79 82 85 83 87 84 80 85
REMARK SMILES IDX 81 86 82 87 83 88 84 89 60 90 61 91 70 92 62 93 63 94 69 95
REMARK SMILES IDX 71 96 64 97 65 98 66 99 67 100 68 101
REMARK H PARENT 92 51 58 62
REMARK Flexibility Score: inf
ROOT
ATOM      1  C   UNL     1       4.607   5.164   1.257  1.00  0.00     0.188 C 
ENDROOT
BRANCH   1   2
ATOM      2  O   UNL     1       3.612   4.630   0.386  1.00  0.00    -0.377 OA
BRANCH   2   3
ATOM      3  C   UNL     1       4.029   3.973  -0.792  1.00  0.00     0.188 C 
BRANCH   3   4
ATOM      4  C   UNL     1       4.194   4.843  -2.043  1.00  0.00     0.188 C 
BRANCH   4   5
ATOM      5  O   UNL     1       4.314   6.249  -1.939  1.00  0.00    -0.376 OA
BRANCH   5   6
ATOM      6  C   UNL     1       3.370   7.007  -1.196  1.00  0.00     0.202 C 
BRANCH   6   7
ATOM      7  C   UNL     1       1.865   6.703  -1.215  1.00  0.00     0.261 C 
BRANCH   7   8
ATOM      8  O   UNL     1       1.444   5.379  -0.827  1.00  0.00    -0.463 OA
BRANCH   8   9
ATOM      9  C   UNL     1       0.886   4.615  -1.794  1.00  0.00     0.309 C 
ATOM     10  O   UNL     1       0.888   4.909  -2.987  1.00  0.00    -0.252 OA
BRANCH   9  11
ATOM     11  C   UNL     1       0.117   3.404  -1.285  1.00  0.00     0.110 C 
BRANCH  11  12
ATOM     12  C   UNL     1       0.739   2.606  -0.122  1.00  0.00     0.083 C 
BRANCH  12  13
ATOM     13  C   UNL     1       0.144   1.224  -0.021  1.00  0.00     0.094 A 
ATOM     14  C   UNL     1      -2.804  -0.826   0.026  1.00  0.00     0.067 C 
ATOM     15  C   UNL     1      -1.389  -0.380   0.026  1.00  0.00     0.048 A 
ATOM     16  C   UNL     1      -0.255  -1.166   0.028  1.00  0.00     0.090 A 
ATOM     17  N   UNL     1      -1.147   0.978   0.011  1.00  0.00    -0.247 NA
ATOM     18  S   UNL     1       1.145  -0.176   0.005  1.00  0.00    -0.127 S 
ENDBRANCH  12  13
ENDBRANCH  11  12
BRANCH  11  19
ATOM     19  C   UNL     1      -1.347   3.851  -1.069  1.00  0.00     0.051 C 
BRANCH  19  20
ATOM     20  C   UNL     1      -1.537   4.667   0.189  1.00  0.00    -0.047 A 
ATOM     21  C   UNL     1      -1.741   4.031   1.422  1.00  0.00     0.005 A 
ATOM     22  C   UNL     1      -1.374   6.058   0.161  1.00  0.00     0.005 A 
ATOM     23  C   UNL     1      -1.667   4.754   2.611  1.00  0.00     0.016 A 
ATOM     24  C   UNL     1      -1.308   6.785   1.350  1.00  0.00     0.016 A 
ATOM     25  C   UNL     1      -1.427   6.124   2.570  1.00  0.00     0.017 A 
ATOM     26  Br  UNL     1      -1.222   7.088   4.182  1.00  0.00    -0.051 Br
ENDBRANCH  19  20
ENDBRANCH  11  19
ENDBRANCH   9  11
ENDBRANCH   8   9
ENDBRANCH   7   8
ENDBRANCH   6   7
ENDBRANCH   5   6
ENDBRANCH   4   5
ENDBRANCH   3   4
ENDBRANCH   2   3
ENDBRANCH   1   2
BRANCH   1  27
ATOM     27  C   UNL     1       6.012   5.454   0.696  1.00  0.00     0.188 C 
BRANCH  27  28
ATOM     28  O   UNL     1       6.560   4.401  -0.085  1.00  0.00    -0.376 OA
BRANCH  28  29
ATOM     29  C   UNL     1       7.352   3.409   0.554  1.00  0.00     0.202 C 
BRANCH  29  30
ATOM     30  C   UNL     1       6.714   2.583   1.685  1.00  0.00     0.261 C 
BRANCH  30  31
ATOM     31  O   UNL     1       6.321   3.305   2.864  1.00  0.00    -0.460 OA
BRANCH  31  32
ATOM     32  C   UNL     1       7.240   4.087   3.460  1.00  0.00     0.338 C 
ATOM     33  O   UNL     1       8.425   4.178   3.172  1.00  0.00    -0.246 OA
BRANCH  32  34
ATOM     34  C   UNL     1       6.547   4.985   4.402  1.00  0.00     0.060 A 
ATOM     35  C   UNL     1       6.704   6.367   4.243  1.00  0.00     0.016 A 
ATOM     36  C   UNL     1       5.789   4.474   5.459  1.00  0.00     0.016 A 
ATOM     37  C   UNL     1       6.165   7.241   5.183  1.00  0.00     0.010 A 
ATOM     38  C   UNL     1       5.264   5.351   6.412  1.00  0.00     0.010 A 
ATOM     39  C   UNL     1       5.498   6.734   6.305  1.00  0.00    -0.014 A 
BRANCH  39  40
ATOM     40  C   UNL     1       5.268   7.635   7.461  1.00  0.00     0.031 A 
ATOM     41  C   UNL     1       6.255   7.600   8.598  1.00  0.00     0.074 A 
ATOM     42  C   UNL     1       4.258   8.522   7.463  1.00  0.00     0.049 A 
ATOM     43  N   UNL     1       6.292   8.316   9.691  1.00  0.00    -0.248 NA
ATOM     44  C   UNL     1       7.353   6.624   8.485  1.00  0.00     0.031 C 
ATOM     45  C   UNL     1       3.269   8.680   6.399  1.00  0.00     0.029 A 
ATOM     46  N   UNL     1       3.904   9.465   8.395  1.00  0.00    -0.354 N 
ATOM     47  C   UNL     1       7.410   7.880  10.393  1.00  0.00     0.074 A 
ATOM     48  C   UNL     1       8.002   6.808   9.624  1.00  0.00     0.031 C 
ATOM     49  C   UNL     1       2.419   9.665   6.737  1.00  0.00     0.029 A 
ATOM     50  C   UNL     1       2.787  10.188   8.052  1.00  0.00     0.049 A 
ATOM     51  H   UNL     1       4.404   9.609   9.231  1.00  0.00     0.167 HD
ATOM     52  C   UNL     1       7.909   8.340  11.565  1.00  0.00     0.037 A 
ATOM     53  C   UNL     1       2.134  11.154   8.729  1.00  0.00     0.037 A 
ATOM     54  C   UNL     1       7.311   9.405  12.327  1.00  0.00     0.049 A 
ATOM     55  C   UNL     1       2.666  11.602  10.068  1.00  0.00     0.074 A 
ATOM     56  C   UNL     1       7.734   9.948  13.526  1.00  0.00     0.029 A 
ATOM     57  N   UNL     1       6.155  10.084  11.967  1.00  0.00    -0.354 N 
ATOM     58  N   UNL     1       3.732  11.191  10.714  1.00  0.00    -0.248 NA
ATOM     59  C   UNL     1       1.912  12.653  10.764  1.00  0.00     0.031 C 
ATOM     60  C   UNL     1       6.804  10.916  13.920  1.00  0.00     0.029 A 
ATOM     61  C   UNL     1       5.838  11.025  12.932  1.00  0.00     0.049 A 
ATOM     62  H   UNL     1       5.636   9.921  11.146  1.00  0.00     0.167 HD
ATOM     63  C   UNL     1       3.797  11.960  11.873  1.00  0.00     0.074 A 
ATOM     64  C   UNL     1       2.666  12.864  11.834  1.00  0.00     0.031 C 
ATOM     65  C   UNL     1       4.713  11.927  12.874  1.00  0.00     0.037 A 
BRANCH  52  66
ATOM     66  C   UNL     1       9.143   7.670  12.108  1.00  0.00     0.058 A 
ATOM     67  C   UNL     1      10.398   7.810  11.492  1.00  0.00     0.135 A 
ATOM     68  C   UNL     1       9.072   6.889  13.273  1.00  0.00     0.135 A 
ATOM     69  F   UNL     1      10.521   8.528  10.364  1.00  0.00    -0.206 F 
ATOM     70  C   UNL     1      11.530   7.175  11.993  1.00  0.00     0.059 A 
ATOM     71  C   UNL     1      10.198   6.271  13.810  1.00  0.00     0.059 A 
ATOM     72  F   UNL     1       7.899   6.716  13.901  1.00  0.00    -0.206 F 
ATOM     73  C   UNL     1      11.419   6.406  13.153  1.00  0.00     0.060 A 
BRANCH  73  74
ATOM     74  S   UNL     1      12.897   5.586  13.789  1.00  0.00     0.124 S 
ATOM     75  O   UNL     1      13.100   4.539  12.792  1.00  0.00    -0.237 OA
ATOM     76  O   UNL     1      13.879   6.665  13.782  1.00  0.00    -0.237 OA
ATOM     77  O   UNL     1      12.487   5.122  15.110  1.00  0.00    -0.744 OA
ENDBRANCH  73  74
ENDBRANCH  52  66
BRANCH  53  78
ATOM     78  C   UNL     1       0.907  11.767   8.151  1.00  0.00     0.058 A 
ATOM     79  C   UNL     1       0.889  13.106   7.734  1.00  0.00     0.135 A 
ATOM     80  C   UNL     1      -0.275  11.022   8.002  1.00  0.00     0.135 A 
ATOM     81  F   UNL     1       1.988  13.864   7.866  1.00  0.00    -0.206 F 
ATOM     82  C   UNL     1      -0.257  13.690   7.204  1.00  0.00     0.059 A 
ATOM     83  C   UNL     1      -1.424  11.575   7.447  1.00  0.00     0.059 A 
ATOM     84  F   UNL     1      -0.310   9.735   8.380  1.00  0.00    -0.206 F 
ATOM     85  C   UNL     1      -1.409  12.913   7.059  1.00  0.00     0.060 A 
BRANCH  85  86
ATOM     86  S   UNL     1      -2.874  13.669   6.322  1.00  0.00     0.124 S 
ATOM     87  O   UNL     1      -3.297  14.583   7.377  1.00  0.00    -0.237 OA
ATOM     88  O   UNL     1      -2.324  14.291   5.121  1.00  0.00    -0.237 OA
ATOM     89  O   UNL     1      -3.756  12.531   6.082  1.00  0.00    -0.744 OA
ENDBRANCH  85  86
ENDBRANCH  53  78
BRANCH  65  90
ATOM     90  C   UNL     1       4.569  12.933  13.986  1.00  0.00     0.058 A 
ATOM     91  C   UNL     1       3.536  12.858  14.933  1.00  0.00     0.135 A 
ATOM     92  C   UNL     1       5.513  13.964  14.131  1.00  0.00     0.135 A 
ATOM     93  F   UNL     1       2.605  11.895  14.842  1.00  0.00    -0.206 F 
ATOM     94  C   UNL     1       3.423  13.788  15.963  1.00  0.00     0.059 A 
ATOM     95  C   UNL     1       5.440  14.884  15.172  1.00  0.00     0.059 A 
ATOM     96  F   UNL     1       6.532  14.076  13.263  1.00  0.00    -0.206 F 
ATOM     97  C   UNL     1       4.382  14.797  16.074  1.00  0.00     0.060 A 
BRANCH  97  98
ATOM     98  S   UNL     1       4.236  15.985  17.426  1.00  0.00     0.124 S 
ATOM     99  O   UNL     1       3.099  16.789  16.989  1.00  0.00    -0.237 OA
ATOM    100  O   UNL     1       3.996  15.120  18.577  1.00  0.00    -0.237 OA
ATOM    101  O   UNL     1       5.526  16.668  17.420  1.00  0.00    -0.744 OA
ENDBRANCH  97  98
ENDBRANCH  65  90
ENDBRANCH  39  40
ENDBRANCH  32  34
ENDBRANCH  31  32
ENDBRANCH  30  31
ENDBRANCH  29  30
ENDBRANCH  28  29
ENDBRANCH  27  28
ENDBRANCH   1  27
TORSDOF 27
