REMARK SMILES COc1ccc([C@H]2CC(c3ccc(S(C)(=O)=O)cc3)=NN2c2ccc(C(=O)OCCOCCOCCOCCOC(=O)c3ccc(-c4c5nc(c(-c6c(F)cc(S(=O)(=O)[O-])cc6F)c6ccc([nH]6)c(-c6c(F)cc(S(=O)(=O)[O-])cc6F)c6nc(c(-c7c(F)cc(S(=O)(=O)[O-])cc7F)c7ccc4[nH]7)C=C6)C=C5)cc3)cc2)cc1
REMARK SMILES IDX 34 1 33 2 32 3 31 4 30 5 29 6 28 7 26 8 27 9 25 10 22 11
REMARK SMILES IDX 23 12 110 13 24 14 109 15 21 16 7 17 8 18 9 19 20 20 6 21
REMARK SMILES IDX 3 22 4 23 112 24 5 25 111 26 2 27 1 28 10 29 11 30 19 31
REMARK SMILES IDX 12 32 18 33 13 34 14 35 15 36 16 37 17 38 35 39 36 40 37 41
REMARK SMILES IDX 38 42 39 43 40 44 41 45 42 46 43 47 44 48 108 49 45 50
REMARK SMILES IDX 107 51 46 52 47 53 48 54 101 55 49 56 106 57 100 58 102 59
REMARK SMILES IDX 50 60 105 61 99 62 98 63 51 65 85 66 64 67 84 68 65 69 68 70
REMARK SMILES IDX 83 71 103 72 66 73 67 74 82 76 104 77 69 78 52 79 53 80
REMARK SMILES IDX 62 81 54 82 55 83 61 84 63 85 56 86 57 87 58 88 59 89 60 90
REMARK SMILES IDX 86 91 87 92 96 93 88 94 89 95 95 96 97 97 90 98 91 99 92 100
REMARK SMILES IDX 93 101 94 102 70 103 71 104 80 105 72 106 73 107 79 108
REMARK SMILES IDX 81 109 74 110 75 111 76 112 77 113 78 114
REMARK H PARENT 102 64 68 75
REMARK Flexibility Score: inf
ROOT
ATOM      1  O   UNL     1       2.900 -11.500   6.781  1.00  0.00    -0.377 OA
ENDROOT
BRANCH   1   2
ATOM      2  C   UNL     1       4.059 -10.949   6.173  1.00  0.00     0.188 C 
BRANCH   2   3
ATOM      3  C   UNL     1       5.102 -10.213   7.042  1.00  0.00     0.188 C 
BRANCH   3   4
ATOM      4  O   UNL     1       4.884 -10.326   8.435  1.00  0.00    -0.376 OA
BRANCH   4   5
ATOM      5  C   UNL     1       4.363  -9.221   9.149  1.00  0.00     0.202 C 
BRANCH   5   6
ATOM      6  C   UNL     1       3.031  -8.593   8.710  1.00  0.00     0.261 C 
BRANCH   6   7
ATOM      7  O   UNL     1       2.849  -8.393   7.303  1.00  0.00    -0.460 OA
BRANCH   7   8
ATOM      8  C   UNL     1       3.577  -7.410   6.731  1.00  0.00     0.338 C 
ATOM      9  O   UNL     1       4.381  -6.682   7.288  1.00  0.00    -0.246 OA
BRANCH   8  10
ATOM     10  C   UNL     1       3.394  -7.472   5.261  1.00  0.00     0.060 A 
ATOM     11  C   UNL     1       3.118  -7.410   2.448  1.00  0.00     0.060 A 
ATOM     12  C   UNL     1       4.383  -7.374   3.051  1.00  0.00     0.029 A 
ATOM     13  C   UNL     1       2.004  -7.584   3.287  1.00  0.00     0.029 A 
ATOM     14  C   UNL     1       4.524  -7.371   4.443  1.00  0.00     0.018 A 
ATOM     15  C   UNL     1       2.136  -7.636   4.682  1.00  0.00     0.018 A 
BRANCH  11  16
ATOM     16  N   UNL     1       2.999  -7.236   1.070  1.00  0.00    -0.257 N 
ATOM     17  C   UNL     1       1.834  -6.639   0.413  1.00  0.00     0.144 C 
ATOM     18  C   UNL     1       2.167  -6.797  -1.071  1.00  0.00     0.091 C 
ATOM     19  C   UNL     1       3.325  -7.741  -0.974  1.00  0.00     0.071 C 
ATOM     20  N   UNL     1       3.804  -7.945   0.213  1.00  0.00    -0.176 NA
BRANCH  17  21
ATOM     21  C   UNL     1       1.594  -5.173   0.736  1.00  0.00    -0.023 A 
ATOM     22  C   UNL     1       0.996  -2.428   0.964  1.00  0.00     0.118 A 
ATOM     23  C   UNL     1       0.012  -3.384   1.206  1.00  0.00     0.047 A 
ATOM     24  C   UNL     1       2.300  -2.836   0.691  1.00  0.00     0.047 A 
ATOM     25  C   UNL     1       0.304  -4.745   1.083  1.00  0.00     0.010 A 
ATOM     26  C   UNL     1       2.599  -4.200   0.587  1.00  0.00     0.010 A 
BRANCH  22  27
ATOM     27  O   UNL     1       0.604  -1.121   1.068  1.00  0.00    -0.497 OA
ATOM     28  C   UNL     1       1.121  -0.274   0.045  1.00  0.00     0.278 C 
ENDBRANCH  22  27
ENDBRANCH  17  21
BRANCH  19  29
ATOM     29  C   UNL     1       3.837  -8.344  -2.205  1.00  0.00    -0.002 A 
ATOM     30  C   UNL     1       3.472  -9.653  -2.530  1.00  0.00     0.011 A 
ATOM     31  C   UNL     1       4.555  -7.550  -3.104  1.00  0.00     0.011 A 
ATOM     32  C   UNL     1       3.810 -10.169  -3.784  1.00  0.00     0.021 A 
ATOM     33  C   UNL     1       4.908  -8.069  -4.350  1.00  0.00     0.021 A 
ATOM     34  C   UNL     1       4.527  -9.373  -4.687  1.00  0.00     0.067 A 
BRANCH  34  35
ATOM     35  S   UNL     1       4.886 -10.002  -6.312  1.00  0.00     0.175 S 
ATOM     36  C   UNL     1       5.942 -11.395  -6.026  1.00  0.00     0.163 C 
ATOM     37  O   UNL     1       3.633 -10.481  -6.862  1.00  0.00    -0.224 OA
ATOM     38  O   UNL     1       5.669  -8.998  -7.010  1.00  0.00    -0.224 OA
ENDBRANCH  34  35
ENDBRANCH  19  29
ENDBRANCH  11  16
ENDBRANCH   8  10
ENDBRANCH   7   8
ENDBRANCH   6   7
ENDBRANCH   5   6
ENDBRANCH   4   5
ENDBRANCH   3   4
ENDBRANCH   2   3
ENDBRANCH   1   2
BRANCH   1  39
ATOM     39  C   UNL     1       3.001 -12.242   7.993  1.00  0.00     0.188 C 
BRANCH  39  40
ATOM     40  C   UNL     1       4.293 -13.000   8.377  1.00  0.00     0.188 C 
BRANCH  40  41
ATOM     41  O   UNL     1       5.289 -13.018   7.369  1.00  0.00    -0.376 OA
BRANCH  41  42
ATOM     42  C   UNL     1       5.505 -14.233   6.679  1.00  0.00     0.202 C 
BRANCH  42  43
ATOM     43  C   UNL     1       4.337 -14.791   5.856  1.00  0.00     0.261 C 
BRANCH  43  44
ATOM     44  O   UNL     1       3.087 -14.944   6.543  1.00  0.00    -0.460 OA
BRANCH  44  45
ATOM     45  C   UNL     1       3.036 -15.863   7.537  1.00  0.00     0.338 C 
ATOM     46  O   UNL     1       3.935 -16.579   7.919  1.00  0.00    -0.246 OA
BRANCH  45  47
ATOM     47  C   UNL     1       1.724 -15.710   8.207  1.00  0.00     0.060 A 
ATOM     48  C   UNL     1       1.685 -15.356   9.562  1.00  0.00     0.016 A 
ATOM     49  C   UNL     1       0.541 -15.902   7.490  1.00  0.00     0.016 A 
ATOM     50  C   UNL     1       0.456 -15.228  10.213  1.00  0.00     0.010 A 
ATOM     51  C   UNL     1      -0.686 -15.793   8.148  1.00  0.00     0.010 A 
ATOM     52  C   UNL     1      -0.733 -15.490   9.520  1.00  0.00    -0.014 A 
BRANCH  52  53
ATOM     53  C   UNL     1      -2.006 -15.643  10.266  1.00  0.00     0.031 A 
ATOM     54  C   UNL     1      -2.476 -17.036  10.589  1.00  0.00     0.074 A 
ATOM     55  C   UNL     1      -2.725 -14.576  10.657  1.00  0.00     0.049 A 
ATOM     56  N   UNL     1      -3.578 -17.427  11.172  1.00  0.00    -0.248 NA
ATOM     57  C   UNL     1      -1.580 -18.137  10.195  1.00  0.00     0.031 C 
ATOM     58  C   UNL     1      -2.356 -13.180  10.435  1.00  0.00     0.029 A 
ATOM     59  N   UNL     1      -3.929 -14.506  11.314  1.00  0.00    -0.354 N 
ATOM     60  C   UNL     1      -3.517 -18.815  11.202  1.00  0.00     0.074 A 
ATOM     61  C   UNL     1      -2.282 -19.200  10.555  1.00  0.00     0.031 C 
ATOM     62  C   UNL     1      -3.322 -12.389  10.934  1.00  0.00     0.029 A 
ATOM     63  C   UNL     1      -4.394 -13.223  11.477  1.00  0.00     0.049 A 
ATOM     64  H   UNL     1      -4.413 -15.300  11.637  1.00  0.00     0.167 HD
ATOM     65  C   UNL     1      -4.407 -19.689  11.727  1.00  0.00     0.037 A 
ATOM     66  C   UNL     1      -5.563 -12.776  11.982  1.00  0.00     0.037 A 
ATOM     67  C   UNL     1      -5.633 -19.297  12.372  1.00  0.00     0.049 A 
ATOM     68  C   UNL     1      -6.568 -13.771  12.508  1.00  0.00     0.074 A 
ATOM     69  C   UNL     1      -6.589 -20.104  12.961  1.00  0.00     0.029 A 
ATOM     70  N   UNL     1      -6.079 -17.989  12.501  1.00  0.00    -0.354 N 
ATOM     71  N   UNL     1      -6.487 -15.080  12.556  1.00  0.00    -0.248 NA
ATOM     72  C   UNL     1      -7.821 -13.229  13.052  1.00  0.00     0.031 C 
ATOM     73  C   UNL     1      -7.643 -19.291  13.389  1.00  0.00     0.029 A 
ATOM     74  C   UNL     1      -7.311 -17.970  13.133  1.00  0.00     0.049 A 
ATOM     75  H   UNL     1      -5.591 -17.193  12.190  1.00  0.00     0.167 HD
ATOM     76  C   UNL     1      -7.663 -15.514  13.163  1.00  0.00     0.074 A 
ATOM     77  C   UNL     1      -8.432 -14.328  13.473  1.00  0.00     0.031 C 
ATOM     78  C   UNL     1      -8.066 -16.780  13.442  1.00  0.00     0.037 A 
BRANCH  65  79
ATOM     79  C   UNL     1      -4.108 -21.158  11.596  1.00  0.00     0.058 A 
ATOM     80  C   UNL     1      -3.072 -21.775  12.314  1.00  0.00     0.135 A 
ATOM     81  C   UNL     1      -4.900 -21.968  10.765  1.00  0.00     0.135 A 
ATOM     82  F   UNL     1      -2.269 -21.046  13.106  1.00  0.00    -0.206 F 
ATOM     83  C   UNL     1      -2.818 -23.138  12.199  1.00  0.00     0.059 A 
ATOM     84  C   UNL     1      -4.685 -23.339  10.659  1.00  0.00     0.059 A 
ATOM     85  F   UNL     1      -5.900 -21.430  10.050  1.00  0.00    -0.206 F 
ATOM     86  C   UNL     1      -3.634 -23.913  11.371  1.00  0.00     0.060 A 
BRANCH  86  87
ATOM     87  S   UNL     1      -3.303 -25.683  11.248  1.00  0.00     0.124 S 
ATOM     88  O   UNL     1      -2.052 -25.695  10.497  1.00  0.00    -0.237 OA
ATOM     89  O   UNL     1      -3.205 -26.078  12.650  1.00  0.00    -0.237 OA
ATOM     90  O   UNL     1      -4.467 -26.199  10.534  1.00  0.00    -0.744 OA
ENDBRANCH  86  87
ENDBRANCH  65  79
BRANCH  66  91
ATOM     91  C   UNL     1      -5.854 -11.316  12.002  1.00  0.00     0.058 A 
ATOM     92  C   UNL     1      -5.933 -10.605  13.209  1.00  0.00     0.135 A 
ATOM     93  C   UNL     1      -6.056 -10.601  10.810  1.00  0.00     0.135 A 
ATOM     94  F   UNL     1      -5.764 -11.245  14.376  1.00  0.00    -0.206 F 
ATOM     95  C   UNL     1      -6.209  -9.242  13.236  1.00  0.00     0.059 A 
ATOM     96  C   UNL     1      -6.304  -9.232  10.810  1.00  0.00     0.059 A 
ATOM     97  F   UNL     1      -5.986 -11.232   9.627  1.00  0.00    -0.206 F 
ATOM     98  C   UNL     1      -6.386  -8.562  12.029  1.00  0.00     0.060 A 
BRANCH  98  99
ATOM     99  S   UNL     1      -6.681  -6.781  12.074  1.00  0.00     0.124 S 
ATOM    100  O   UNL     1      -8.034  -6.719  12.614  1.00  0.00    -0.237 OA
ATOM    101  O   UNL     1      -5.618  -6.319  12.960  1.00  0.00    -0.237 OA
ATOM    102  O   UNL     1      -6.541  -6.382  10.677  1.00  0.00    -0.744 OA
ENDBRANCH  98  99
ENDBRANCH  66  91
BRANCH  78 103
ATOM    103  C   UNL     1      -9.379 -16.956  14.159  1.00  0.00     0.058 A 
ATOM    104  C   UNL     1     -10.610 -16.712  13.528  1.00  0.00     0.135 A 
ATOM    105  C   UNL     1      -9.406 -17.435  15.479  1.00  0.00     0.135 A 
ATOM    106  F   UNL     1     -10.644 -16.250  12.268  1.00  0.00    -0.206 F 
ATOM    107  C   UNL     1     -11.818 -16.912  14.190  1.00  0.00     0.059 A 
ATOM    108  C   UNL     1     -10.602 -17.674  16.148  1.00  0.00     0.059 A 
ATOM    109  F   UNL     1      -8.260 -17.697  16.127  1.00  0.00    -0.206 F 
ATOM    110  C   UNL     1     -11.804 -17.396  15.499  1.00  0.00     0.060 A 
BRANCH 110 111
ATOM    111  S   UNL     1     -13.379 -17.680  16.334  1.00  0.00     0.124 S 
ATOM    112  O   UNL     1     -13.834 -16.315  16.577  1.00  0.00    -0.237 OA
ATOM    113  O   UNL     1     -14.131 -18.431  15.334  1.00  0.00    -0.237 OA
ATOM    114  O   UNL     1     -13.003 -18.436  17.525  1.00  0.00    -0.744 OA
ENDBRANCH 110 111
ENDBRANCH  78 103
ENDBRANCH  52  53
ENDBRANCH  45  47
ENDBRANCH  44  45
ENDBRANCH  43  44
ENDBRANCH  42  43
ENDBRANCH  41  42
ENDBRANCH  40  41
ENDBRANCH  39  40
ENDBRANCH   1  39
TORSDOF 28
