REMARK SMILES COCCCC(=O)N[C@H]1CC[C@@H](C(=O)OCCOCCOCCOCCOC(=O)c2ccc(-c3c4nc(c(-c5c(F)cc(S(=O)(=O)[O-])cc5F)c5ccc([nH]5)c(-c5c(F)cc(S(=O)(=O)[O-])cc5F)c5nc(c(-c6c(F)cc(S(=O)(=O)[O-])cc6F)c6ccc3[nH]6)C=C5)C=C4)cc2)CC1
REMARK SMILES IDX 20 1 19 2 18 3 17 4 16 5 15 6 13 7 14 8 12 9 9 10 10 11
REMARK SMILES IDX 97 12 11 13 96 14 8 15 6 16 7 17 5 19 4 20 3 21 2 22 1 23
REMARK SMILES IDX 21 24 22 25 23 26 24 27 25 28 26 29 27 30 28 31 29 32 30 33
REMARK SMILES IDX 31 34 95 35 32 36 94 37 33 38 34 39 35 40 88 41 36 42 93 43
REMARK SMILES IDX 87 44 89 45 37 46 92 47 86 48 85 49 38 51 72 52 51 53 71 54
REMARK SMILES IDX 52 55 55 56 70 57 90 58 53 59 54 60 69 62 91 63 56 64 39 65
REMARK SMILES IDX 40 66 49 67 41 68 42 69 48 70 50 71 43 72 44 73 45 74 46 75
REMARK SMILES IDX 47 76 73 77 74 78 83 79 75 80 76 81 82 82 84 83 77 84 78 85
REMARK SMILES IDX 79 86 80 87 81 88 57 89 58 90 67 91 59 92 60 93 66 94 68 95
REMARK SMILES IDX 61 96 62 97 63 98 64 99 65 100
REMARK H PARENT 8 18 89 50 55 61
REMARK Flexibility Score: inf
ROOT
ATOM      1  C   UNL     1      -1.884  -1.887   0.284  1.00  0.00     0.188 C 
ENDROOT
BRANCH   1   2
ATOM      2  C   UNL     1      -1.707  -3.067   1.238  1.00  0.00     0.188 C 
BRANCH   2   3
ATOM      3  O   UNL     1      -1.144  -2.691   2.490  1.00  0.00    -0.376 OA
BRANCH   3   4
ATOM      4  C   UNL     1       0.134  -3.234   2.788  1.00  0.00     0.202 C 
BRANCH   4   5
ATOM      5  C   UNL     1       1.295  -2.356   2.313  1.00  0.00     0.261 C 
BRANCH   5   6
ATOM      6  O   UNL     1       1.355  -2.095   0.899  1.00  0.00    -0.463 OA
BRANCH   6   7
ATOM      7  C   UNL     1       1.794  -3.106   0.112  1.00  0.00     0.309 C 
ATOM      8  O   UNL     1       1.871  -4.274   0.473  1.00  0.00    -0.252 OA
BRANCH   7   9
ATOM      9  C   UNL     1       2.351  -2.607  -1.225  1.00  0.00     0.099 C 
ATOM     10  C   UNL     1       3.721   0.117  -1.397  1.00  0.00     0.082 C 
ATOM     11  C   UNL     1       4.113  -0.988  -0.418  1.00  0.00     0.026 C 
ATOM     12  C   UNL     1       2.441  -0.146  -2.178  1.00  0.00     0.026 C 
ATOM     13  C   UNL     1       3.846  -2.360  -1.046  1.00  0.00     0.017 C 
ATOM     14  C   UNL     1       1.626  -1.415  -1.867  1.00  0.00     0.017 C 
BRANCH  10  15
ATOM     15  N   UNL     1       4.036   1.484  -0.926  1.00  0.00    -0.353 N 
ATOM     16  C   UNL     1       3.591   2.655  -0.442  1.00  0.00     0.220 C 
ATOM     17  O   UNL     1       4.514   3.475  -0.289  1.00  0.00    -0.275 OA
ATOM     18  H   UNL     1       5.013   1.577  -1.002  1.00  0.00     0.163 HD
BRANCH  16  19
ATOM     19  C   UNL     1       2.213   3.093   0.023  1.00  0.00     0.102 C 
BRANCH  19  20
ATOM     20  C   UNL     1       1.074   3.468  -0.930  1.00  0.00     0.038 C 
BRANCH  20  21
ATOM     21  C   UNL     1       0.143   2.453  -1.595  1.00  0.00     0.160 C 
BRANCH  21  22
ATOM     22  O   UNL     1      -0.366   1.334  -0.888  1.00  0.00    -0.385 OA
ATOM     23  C   UNL     1       0.271   0.971   0.311  1.00  0.00     0.194 C 
ENDBRANCH  21  22
ENDBRANCH  20  21
ENDBRANCH  19  20
ENDBRANCH  16  19
ENDBRANCH  10  15
ENDBRANCH   7   9
ENDBRANCH   6   7
ENDBRANCH   5   6
ENDBRANCH   4   5
ENDBRANCH   3   4
ENDBRANCH   2   3
ENDBRANCH   1   2
BRANCH   1  24
ATOM     24  O   UNL     1      -2.521  -0.709   0.750  1.00  0.00    -0.377 OA
BRANCH  24  25
ATOM     25  C   UNL     1      -2.200  -0.182   2.034  1.00  0.00     0.188 C 
BRANCH  25  26
ATOM     26  C   UNL     1      -3.269  -0.525   3.075  1.00  0.00     0.188 C 
BRANCH  26  27
ATOM     27  O   UNL     1      -4.620  -0.131   2.824  1.00  0.00    -0.376 OA
BRANCH  27  28
ATOM     28  C   UNL     1      -5.083  -0.139   1.480  1.00  0.00     0.202 C 
BRANCH  28  29
ATOM     29  C   UNL     1      -4.951   1.220   0.759  1.00  0.00     0.261 C 
BRANCH  29  30
ATOM     30  O   UNL     1      -3.961   2.114   1.296  1.00  0.00    -0.460 OA
BRANCH  30  31
ATOM     31  C   UNL     1      -4.298   2.705   2.462  1.00  0.00     0.338 C 
ATOM     32  O   UNL     1      -5.380   2.641   3.039  1.00  0.00    -0.246 OA
BRANCH  31  33
ATOM     33  C   UNL     1      -3.141   3.430   3.022  1.00  0.00     0.060 A 
ATOM     34  C   UNL     1      -2.783   3.183   4.353  1.00  0.00     0.016 A 
ATOM     35  C   UNL     1      -2.520   4.455   2.301  1.00  0.00     0.016 A 
ATOM     36  C   UNL     1      -1.879   4.028   4.998  1.00  0.00     0.010 A 
ATOM     37  C   UNL     1      -1.621   5.309   2.953  1.00  0.00     0.010 A 
ATOM     38  C   UNL     1      -1.353   5.139   4.323  1.00  0.00    -0.014 A 
BRANCH  38  39
ATOM     39  C   UNL     1      -0.770   6.246   5.128  1.00  0.00     0.031 A 
ATOM     40  C   UNL     1      -1.672   7.394   5.514  1.00  0.00     0.074 A 
ATOM     41  C   UNL     1       0.494   6.201   5.584  1.00  0.00     0.049 A 
ATOM     42  N   UNL     1      -1.417   8.443   6.254  1.00  0.00    -0.248 NA
ATOM     43  C   UNL     1      -3.051   7.348   4.998  1.00  0.00     0.031 C 
ATOM     44  C   UNL     1       1.452   5.131   5.316  1.00  0.00     0.029 A 
ATOM     45  N   UNL     1       1.185   7.081   6.380  1.00  0.00    -0.354 N 
ATOM     46  C   UNL     1      -2.599   9.177   6.292  1.00  0.00     0.074 A 
ATOM     47  C   UNL     1      -3.560   8.474   5.472  1.00  0.00     0.031 C 
ATOM     48  C   UNL     1       2.610   5.417   5.939  1.00  0.00     0.029 A 
ATOM     49  C   UNL     1       2.480   6.697   6.635  1.00  0.00     0.049 A 
ATOM     50  H   UNL     1       0.790   7.909   6.736  1.00  0.00     0.167 HD
ATOM     51  C   UNL     1      -2.869  10.323   6.961  1.00  0.00     0.037 A 
ATOM     52  C   UNL     1       3.448   7.312   7.345  1.00  0.00     0.037 A 
ATOM     53  C   UNL     1      -1.913  11.022   7.780  1.00  0.00     0.049 A 
ATOM     54  C   UNL     1       3.140   8.611   8.046  1.00  0.00     0.074 A 
ATOM     55  C   UNL     1      -2.085  12.194   8.496  1.00  0.00     0.029 A 
ATOM     56  N   UNL     1      -0.605  10.613   7.990  1.00  0.00    -0.354 N 
ATOM     57  N   UNL     1       2.015   9.287   8.081  1.00  0.00    -0.248 NA
ATOM     58  C   UNL     1       4.230   9.225   8.817  1.00  0.00     0.031 C 
ATOM     59  C   UNL     1      -0.867  12.515   9.107  1.00  0.00     0.029 A 
ATOM     60  C   UNL     1       0.047  11.515   8.815  1.00  0.00     0.049 A 
ATOM     61  H   UNL     1      -0.199   9.801   7.610  1.00  0.00     0.167 HD
ATOM     62  C   UNL     1       2.253  10.384   8.905  1.00  0.00     0.074 A 
ATOM     63  C   UNL     1       3.626  10.276   9.354  1.00  0.00     0.031 C 
ATOM     64  C   UNL     1       1.412  11.388   9.261  1.00  0.00     0.037 A 
BRANCH  51  65
ATOM     65  C   UNL     1      -4.248  10.905   6.810  1.00  0.00     0.058 A 
ATOM     66  C   UNL     1      -5.374  10.307   7.399  1.00  0.00     0.135 A 
ATOM     67  C   UNL     1      -4.445  12.086   6.075  1.00  0.00     0.135 A 
ATOM     68  F   UNL     1      -5.247   9.166   8.095  1.00  0.00    -0.206 F 
ATOM     69  C   UNL     1      -6.649  10.842   7.241  1.00  0.00     0.059 A 
ATOM     70  C   UNL     1      -5.707  12.653   5.927  1.00  0.00     0.059 A 
ATOM     71  F   UNL     1      -3.405  12.697   5.488  1.00  0.00    -0.206 F 
ATOM     72  C   UNL     1      -6.806  12.015   6.501  1.00  0.00     0.060 A 
BRANCH  72  73
ATOM     73  S   UNL     1      -8.465  12.700   6.304  1.00  0.00     0.124 S 
ATOM     74  O   UNL     1      -9.055  11.765   5.351  1.00  0.00    -0.237 OA
ATOM     75  O   UNL     1      -8.993  12.638   7.663  1.00  0.00    -0.237 OA
ATOM     76  O   UNL     1      -8.219  14.045   5.792  1.00  0.00    -0.744 OA
ENDBRANCH  72  73
ENDBRANCH  51  65
BRANCH  52  77
ATOM     77  C   UNL     1       4.805   6.706   7.436  1.00  0.00     0.058 A 
ATOM     78  C   UNL     1       5.290   6.178   8.642  1.00  0.00     0.135 A 
ATOM     79  C   UNL     1       5.650   6.655   6.317  1.00  0.00     0.135 A 
ATOM     80  F   UNL     1       4.527   6.213   9.745  1.00  0.00    -0.206 F 
ATOM     81  C   UNL     1       6.569   5.637   8.741  1.00  0.00     0.059 A 
ATOM     82  C   UNL     1       6.923   6.095   6.383  1.00  0.00     0.059 A 
ATOM     83  F   UNL     1       5.232   7.141   5.137  1.00  0.00    -0.206 F 
ATOM     84  C   UNL     1       7.377   5.598   7.603  1.00  0.00     0.060 A 
BRANCH  84  85
ATOM     85  S   UNL     1       9.017   4.849   7.729  1.00  0.00     0.124 S 
ATOM     86  O   UNL     1       9.750   5.869   8.470  1.00  0.00    -0.237 OA
ATOM     87  O   UNL     1       8.734   3.613   8.453  1.00  0.00    -0.237 OA
ATOM     88  O   UNL     1       9.413   4.672   6.336  1.00  0.00    -0.744 OA
ENDBRANCH  84  85
ENDBRANCH  52  77
BRANCH  64  89
ATOM     89  C   UNL     1       1.935  12.419  10.224  1.00  0.00     0.058 A 
ATOM     90  C   UNL     1       2.895  13.371   9.847  1.00  0.00     0.135 A 
ATOM     91  C   UNL     1       1.449  12.467  11.542  1.00  0.00     0.135 A 
ATOM     92  F   UNL     1       3.393  13.371   8.600  1.00  0.00    -0.206 F 
ATOM     93  C   UNL     1       3.388  14.305  10.753  1.00  0.00     0.059 A 
ATOM     94  C   UNL     1       1.906  13.412  12.456  1.00  0.00     0.059 A 
ATOM     95  F   UNL     1       0.517  11.592  11.951  1.00  0.00    -0.206 F 
ATOM     96  C   UNL     1       2.892  14.313  12.058  1.00  0.00     0.060 A 
BRANCH  96  97
ATOM     97  S   UNL     1       3.543  15.523  13.230  1.00  0.00     0.124 S 
ATOM     98  O   UNL     1       4.843  14.945  13.554  1.00  0.00    -0.237 OA
ATOM     99  O   UNL     1       3.574  16.746  12.435  1.00  0.00    -0.237 OA
ATOM    100  O   UNL     1       2.562  15.510  14.311  1.00  0.00    -0.744 OA
ENDBRANCH  96  97
ENDBRANCH  64  89
ENDBRANCH  38  39
ENDBRANCH  31  33
ENDBRANCH  30  31
ENDBRANCH  29  30
ENDBRANCH  28  29
ENDBRANCH  27  28
ENDBRANCH  26  27
ENDBRANCH  25  26
ENDBRANCH  24  25
ENDBRANCH   1  24
TORSDOF 28
