REMARK SMILES CCC[NH2+][C@@]1(C(=O)OCCOCCOCCOCCOC(=O)c2ccc(-c3c4nc(c(-c5c(F)cc(S(=O)(=O)[O-])cc5F)c5ccc([nH]5)c(-c5c(F)cc(S(=O)(=O)[O-])cc5F)c5nc(c(-c6c(F)cc(S(=O)(=O)[O-])cc6F)c6ccc3[nH]6)C=C5)C=C4)cc2)CCC[C@H](n2nc(C)c(C)c2C)C1
REMARK SMILES IDX 14 1 13 2 12 3 11 4 10 5 9 6 8 7 6 8 7 9 5 10 89 11 101 12
REMARK SMILES IDX 90 13 92 14 91 15 4 16 3 19 2 20 1 21 93 22 94 23 99 24
REMARK SMILES IDX 95 25 97 26 100 27 96 28 98 29 15 30 16 31 17 32 18 33 19 34
REMARK SMILES IDX 20 35 21 36 22 37 23 38 24 39 88 40 25 41 87 42 26 43 27 44
REMARK SMILES IDX 28 45 81 46 29 47 86 48 80 49 82 50 30 51 85 52 79 53 78 54
REMARK SMILES IDX 31 56 65 57 44 58 64 59 45 60 48 61 63 62 83 63 46 64 47 65
REMARK SMILES IDX 62 67 84 68 49 69 32 70 33 71 42 72 34 73 35 74 41 75 43 76
REMARK SMILES IDX 36 77 37 78 38 79 39 80 40 81 66 82 67 83 76 84 68 85 69 86
REMARK SMILES IDX 75 87 77 88 70 89 71 90 72 91 73 92 74 93 50 94 51 95 60 96
REMARK SMILES IDX 52 97 53 98 59 99 61 100 54 101 55 102 56 103 57 104 58 105
REMARK H PARENT 4 17 4 18 82 55 48 66
REMARK Flexibility Score: inf
ROOT
ATOM      1  O   UNL     1       2.645  -4.970  -3.127  1.00  0.00    -0.377 OA
ENDROOT
BRANCH   1   2
ATOM      2  C   UNL     1       2.202  -3.630  -2.996  1.00  0.00     0.188 C 
BRANCH   2   3
ATOM      3  C   UNL     1       2.856  -2.629  -2.020  1.00  0.00     0.188 C 
BRANCH   3   4
ATOM      4  O   UNL     1       4.256  -2.467  -2.003  1.00  0.00    -0.376 OA
BRANCH   4   5
ATOM      5  C   UNL     1       4.967  -2.599  -0.753  1.00  0.00     0.202 C 
BRANCH   5   6
ATOM      6  C   UNL     1       4.341  -2.482   0.686  1.00  0.00     0.261 C 
BRANCH   6   7
ATOM      7  O   UNL     1       3.316  -3.467   0.984  1.00  0.00    -0.459 OA
BRANCH   7   8
ATOM      8  C   UNL     1       2.435  -3.275   1.995  1.00  0.00     0.368 C 
ATOM      9  O   UNL     1       2.541  -2.341   2.790  1.00  0.00    -0.245 OA
BRANCH   8  10
ATOM     10  C   UNL     1       1.080  -4.150   1.887  1.00  0.00     0.196 C 
ATOM     11  C   UNL     1       0.734  -4.665   3.313  1.00  0.00     0.081 C 
ATOM     12  C   UNL     1       0.894  -5.411   0.963  1.00  0.00     0.108 C 
ATOM     13  C   UNL     1       1.479  -5.953   3.704  1.00  0.00     0.009 C 
ATOM     14  C   UNL     1       1.627  -6.777   1.336  1.00  0.00     0.114 C 
ATOM     15  C   UNL     1       1.196  -7.121   2.759  1.00  0.00     0.028 C 
BRANCH  10  16
ATOM     16  N   UNL     1      -0.002  -3.096   1.535  1.00  0.00    -0.332 N 
ATOM     17  H   UNL     1      -0.912  -3.555   1.515  1.00  0.00     0.347 HD
ATOM     18  H   UNL     1       0.034  -2.366   2.246  1.00  0.00     0.347 HD
BRANCH  16  19
ATOM     19  C   UNL     1       0.236  -2.461   0.229  1.00  0.00     0.261 C 
BRANCH  19  20
ATOM     20  C   UNL     1      -0.369  -1.080  -0.067  1.00  0.00     0.058 C 
ATOM     21  C   UNL     1       0.434   0.071   0.537  1.00  0.00     0.010 C 
ENDBRANCH  19  20
ENDBRANCH  16  19
ENDBRANCH  10  16
BRANCH  14  22
ATOM     22  N   UNL     1       3.085  -6.935   1.188  1.00  0.00    -0.266 N 
ATOM     23  N   UNL     1       3.711  -8.139   1.337  1.00  0.00    -0.178 NA
ATOM     24  C   UNL     1       3.897  -6.150   0.441  1.00  0.00     0.039 A 
ATOM     25  C   UNL     1       4.982  -7.889   0.948  1.00  0.00     0.063 A 
ATOM     26  C   UNL     1       5.199  -6.533   0.630  1.00  0.00    -0.007 A 
ATOM     27  C   UNL     1       3.351  -5.474  -0.699  1.00  0.00     0.066 C 
ATOM     28  C   UNL     1       5.944  -8.948   0.560  1.00  0.00     0.069 C 
ATOM     29  C   UNL     1       6.445  -5.919   0.099  1.00  0.00     0.048 C 
ENDBRANCH  14  22
ENDBRANCH   8  10
ENDBRANCH   7   8
ENDBRANCH   6   7
ENDBRANCH   5   6
ENDBRANCH   4   5
ENDBRANCH   3   4
ENDBRANCH   2   3
ENDBRANCH   1   2
BRANCH   1  30
ATOM     30  C   UNL     1       3.949  -5.331  -3.571  1.00  0.00     0.188 C 
BRANCH  30  31
ATOM     31  C   UNL     1       4.551  -4.560  -4.716  1.00  0.00     0.188 C 
BRANCH  31  32
ATOM     32  O   UNL     1       3.598  -3.781  -5.399  1.00  0.00    -0.376 OA
BRANCH  32  33
ATOM     33  C   UNL     1       2.852  -4.433  -6.415  1.00  0.00     0.202 C 
BRANCH  33  34
ATOM     34  C   UNL     1       1.941  -5.640  -6.087  1.00  0.00     0.261 C 
BRANCH  34  35
ATOM     35  O   UNL     1       2.504  -6.868  -5.572  1.00  0.00    -0.460 OA
BRANCH  35  36
ATOM     36  C   UNL     1       3.581  -7.422  -6.176  1.00  0.00     0.338 C 
ATOM     37  O   UNL     1       4.165  -6.994  -7.145  1.00  0.00    -0.246 OA
BRANCH  36  38
ATOM     38  C   UNL     1       4.057  -8.577  -5.357  1.00  0.00     0.060 A 
ATOM     39  C   UNL     1       5.380  -8.575  -4.896  1.00  0.00     0.016 A 
ATOM     40  C   UNL     1       3.236  -9.677  -5.091  1.00  0.00     0.016 A 
ATOM     41  C   UNL     1       5.901  -9.695  -4.229  1.00  0.00     0.010 A 
ATOM     42  C   UNL     1       3.766 -10.808  -4.444  1.00  0.00     0.010 A 
ATOM     43  C   UNL     1       5.116 -10.845  -4.051  1.00  0.00    -0.014 A 
BRANCH  43  44
ATOM     44  C   UNL     1       5.778 -12.136  -3.686  1.00  0.00     0.031 A 
ATOM     45  C   UNL     1       6.211 -13.053  -4.795  1.00  0.00     0.074 A 
ATOM     46  C   UNL     1       6.034 -12.497  -2.414  1.00  0.00     0.049 A 
ATOM     47  N   UNL     1       6.795 -14.219  -4.721  1.00  0.00    -0.248 NA
ATOM     48  C   UNL     1       5.906 -12.613  -6.165  1.00  0.00     0.031 C 
ATOM     49  C   UNL     1       5.594 -11.751  -1.251  1.00  0.00     0.029 A 
ATOM     50  N   UNL     1       6.721 -13.564  -1.880  1.00  0.00    -0.354 N 
ATOM     51  C   UNL     1       6.892 -14.674  -6.028  1.00  0.00     0.074 A 
ATOM     52  C   UNL     1       6.301 -13.659  -6.874  1.00  0.00     0.031 C 
ATOM     53  C   UNL     1       6.102 -12.316  -0.143  1.00  0.00     0.029 A 
ATOM     54  C   UNL     1       6.828 -13.527  -0.506  1.00  0.00     0.049 A 
ATOM     55  H   UNL     1       7.103 -14.287  -2.429  1.00  0.00     0.167 HD
ATOM     56  C   UNL     1       7.413 -15.839  -6.480  1.00  0.00     0.037 A 
ATOM     57  C   UNL     1       7.403 -14.382   0.369  1.00  0.00     0.037 A 
ATOM     58  C   UNL     1       7.991 -16.851  -5.634  1.00  0.00     0.049 A 
ATOM     59  C   UNL     1       7.982 -15.669  -0.161  1.00  0.00     0.074 A 
ATOM     60  C   UNL     1       8.554 -18.059  -6.006  1.00  0.00     0.029 A 
ATOM     61  N   UNL     1       8.074 -16.783  -4.250  1.00  0.00    -0.354 N 
ATOM     62  N   UNL     1       8.080 -16.076  -1.404  1.00  0.00    -0.248 NA
ATOM     63  C   UNL     1       8.482 -16.635   0.828  1.00  0.00     0.031 C 
ATOM     64  C   UNL     1       8.927 -18.745  -4.847  1.00  0.00     0.029 A 
ATOM     65  C   UNL     1       8.661 -17.937  -3.753  1.00  0.00     0.049 A 
ATOM     66  H   UNL     1       7.762 -16.027  -3.702  1.00  0.00     0.167 HD
ATOM     67  C   UNL     1       8.652 -17.343  -1.346  1.00  0.00     0.074 A 
ATOM     68  C   UNL     1       8.911 -17.621   0.051  1.00  0.00     0.031 C 
ATOM     69  C   UNL     1       8.922 -18.202  -2.359  1.00  0.00     0.037 A 
BRANCH  56  70
ATOM     70  C   UNL     1       7.335 -16.099  -7.958  1.00  0.00     0.058 A 
ATOM     71  C   UNL     1       8.104 -15.373  -8.881  1.00  0.00     0.135 A 
ATOM     72  C   UNL     1       6.490 -17.104  -8.456  1.00  0.00     0.135 A 
ATOM     73  F   UNL     1       8.909 -14.384  -8.462  1.00  0.00    -0.206 F 
ATOM     74  C   UNL     1       8.019 -15.617 -10.247  1.00  0.00     0.059 A 
ATOM     75  C   UNL     1       6.413 -17.387  -9.815  1.00  0.00     0.059 A 
ATOM     76  F   UNL     1       5.726 -17.822  -7.618  1.00  0.00    -0.206 F 
ATOM     77  C   UNL     1       7.172 -16.629 -10.704  1.00  0.00     0.060 A 
BRANCH  77  78
ATOM     78  S   UNL     1       7.084 -16.939 -12.479  1.00  0.00     0.124 S 
ATOM     79  O   UNL     1       6.371 -15.755 -12.947  1.00  0.00    -0.237 OA
ATOM     80  O   UNL     1       8.493 -17.018 -12.850  1.00  0.00    -0.237 OA
ATOM     81  O   UNL     1       6.343 -18.194 -12.570  1.00  0.00    -0.744 OA
ENDBRANCH  77  78
ENDBRANCH  56  70
BRANCH  57  82
ATOM     82  C   UNL     1       7.419 -14.096   1.838  1.00  0.00     0.058 A 
ATOM     83  C   UNL     1       8.628 -13.924   2.535  1.00  0.00     0.135 A 
ATOM     84  C   UNL     1       6.233 -14.013   2.585  1.00  0.00     0.135 A 
ATOM     85  F   UNL     1       9.798 -14.018   1.882  1.00  0.00    -0.206 F 
ATOM     86  C   UNL     1       8.661 -13.694   3.909  1.00  0.00     0.059 A 
ATOM     87  C   UNL     1       6.237 -13.741   3.951  1.00  0.00     0.059 A 
ATOM     88  F   UNL     1       5.046 -14.178   1.982  1.00  0.00    -0.206 F 
ATOM     89  C   UNL     1       7.457 -13.596   4.608  1.00  0.00     0.060 A 
BRANCH  89  90
ATOM     90  S   UNL     1       7.504 -13.252   6.382  1.00  0.00     0.124 S 
ATOM     91  O   UNL     1       7.987 -14.521   6.916  1.00  0.00    -0.237 OA
ATOM     92  O   UNL     1       8.439 -12.133   6.453  1.00  0.00    -0.237 OA
ATOM     93  O   UNL     1       6.118 -12.922   6.698  1.00  0.00    -0.744 OA
ENDBRANCH  89  90
ENDBRANCH  57  82
BRANCH  69  94
ATOM     94  C   UNL     1       9.573 -19.512  -2.003  1.00  0.00     0.058 A 
ATOM     95  C   UNL     1       8.878 -20.532  -1.334  1.00  0.00     0.135 A 
ATOM     96  C   UNL     1      10.902 -19.765  -2.381  1.00  0.00     0.135 A 
ATOM     97  F   UNL     1       7.608 -20.341  -0.944  1.00  0.00    -0.206 F 
ATOM     98  C   UNL     1       9.486 -21.746  -1.028  1.00  0.00     0.059 A 
ATOM     99  C   UNL     1      11.520 -20.983  -2.114  1.00  0.00     0.059 A 
ATOM    100  F   UNL     1      11.611 -18.829  -3.032  1.00  0.00    -0.206 F 
ATOM    101  C   UNL     1      10.807 -21.963  -1.424  1.00  0.00     0.060 A 
BRANCH 101 102
ATOM    102  S   UNL     1      11.576 -23.552  -1.045  1.00  0.00     0.124 S 
ATOM    103  O   UNL     1      11.766 -23.451   0.398  1.00  0.00    -0.237 OA
ATOM    104  O   UNL     1      10.560 -24.502  -1.486  1.00  0.00    -0.237 OA
ATOM    105  O   UNL     1      12.799 -23.537  -1.842  1.00  0.00    -0.744 OA
ENDBRANCH 101 102
ENDBRANCH  69  94
ENDBRANCH  43  44
ENDBRANCH  36  38
ENDBRANCH  35  36
ENDBRANCH  34  35
ENDBRANCH  33  34
ENDBRANCH  32  33
ENDBRANCH  31  32
ENDBRANCH  30  31
ENDBRANCH   1  30
TORSDOF 27
