REMARK SMILES O=C(OCCOCCOCCOCCOC(=O)c1ccccc1/N=C/c1coc2ccccc2c1=O)c1ccc(-c2c3nc(c(-c4c(F)cc(S(=O)(=O)[O-])cc4F)c4ccc([nH]4)c(-c4c(F)cc(S(=O)(=O)[O-])cc4F)c4nc(c(-c5c(F)cc(S(=O)(=O)[O-])cc5F)c5ccc2[nH]5)C=C4)C=C3)cc1
REMARK SMILES IDX 8 1 7 2 6 3 5 4 4 5 3 6 2 7 1 8 37 9 38 10 102 11 39 12
REMARK SMILES IDX 101 13 40 14 41 15 42 16 95 17 43 18 100 19 94 20 96 21
REMARK SMILES IDX 44 22 99 23 93 24 92 25 45 27 79 28 58 29 78 30 59 31 62 32
REMARK SMILES IDX 77 33 97 34 60 35 61 36 76 38 98 39 63 40 46 41 47 42 56 43
REMARK SMILES IDX 48 44 49 45 55 46 57 47 50 48 51 49 52 50 53 51 54 52 80 53
REMARK SMILES IDX 81 54 90 55 82 56 83 57 89 58 91 59 84 60 85 61 86 62 87 63
REMARK SMILES IDX 88 64 64 65 65 66 74 67 66 68 67 69 73 70 75 71 68 72 69 73
REMARK SMILES IDX 70 74 71 75 72 76 9 77 10 78 11 79 12 80 13 81 14 82 15 83
REMARK SMILES IDX 16 84 17 85 18 86 19 87 23 88 20 89 22 90 21 91 24 92 25 93
REMARK SMILES IDX 26 94 27 95 35 96 28 97 34 98 36 99 29 100 33 101 30 102
REMARK SMILES IDX 32 103 31 104
REMARK H PARENT 96 26 62 37
REMARK Flexibility Score: inf
ROOT
ATOM      1  C   UNL     1       1.908   2.814   0.065  1.00  0.00     0.188 C 
ENDROOT
BRANCH   1   2
ATOM      2  C   UNL     1       2.237   1.323   0.124  1.00  0.00     0.188 C 
BRANCH   2   3
ATOM      3  O   UNL     1       3.592   1.040  -0.228  1.00  0.00    -0.376 OA
BRANCH   3   4
ATOM      4  C   UNL     1       3.890   0.870  -1.604  1.00  0.00     0.202 C 
BRANCH   4   5
ATOM      5  C   UNL     1       3.912  -0.608  -2.000  1.00  0.00     0.261 C 
BRANCH   5   6
ATOM      6  O   UNL     1       2.640  -1.223  -1.738  1.00  0.00    -0.460 OA
BRANCH   6   7
ATOM      7  C   UNL     1       2.192  -1.835  -0.614  1.00  0.00     0.338 C 
ATOM      8  O   UNL     1       1.005  -2.161  -0.583  1.00  0.00    -0.246 OA
BRANCH   7   9
ATOM      9  C   UNL     1       3.041  -2.191   0.573  1.00  0.00     0.060 A 
ATOM     10  C   UNL     1       4.254  -1.600   0.930  1.00  0.00     0.016 A 
ATOM     11  C   UNL     1       2.533  -3.193   1.425  1.00  0.00     0.016 A 
ATOM     12  C   UNL     1       4.981  -2.038   2.033  1.00  0.00     0.010 A 
ATOM     13  C   UNL     1       3.246  -3.626   2.549  1.00  0.00     0.010 A 
ATOM     14  C   UNL     1       4.498  -3.074   2.828  1.00  0.00    -0.014 A 
BRANCH  14  15
ATOM     15  C   UNL     1       5.419  -3.668   3.816  1.00  0.00     0.031 A 
ATOM     16  C   UNL     1       6.144  -4.926   3.429  1.00  0.00     0.074 A 
ATOM     17  C   UNL     1       5.718  -3.002   4.946  1.00  0.00     0.049 A 
ATOM     18  N   UNL     1       7.038  -5.605   4.093  1.00  0.00    -0.248 NA
ATOM     19  C   UNL     1       5.834  -5.480   2.098  1.00  0.00     0.031 C 
ATOM     20  C   UNL     1       5.138  -1.719   5.347  1.00  0.00     0.029 A 
ATOM     21  N   UNL     1       6.608  -3.295   5.945  1.00  0.00    -0.354 N 
ATOM     22  C   UNL     1       7.402  -6.659   3.263  1.00  0.00     0.074 A 
ATOM     23  C   UNL     1       6.615  -6.547   2.056  1.00  0.00     0.031 C 
ATOM     24  C   UNL     1       5.698  -1.329   6.506  1.00  0.00     0.029 A 
ATOM     25  C   UNL     1       6.644  -2.351   6.945  1.00  0.00     0.049 A 
ATOM     26  H   UNL     1       7.169  -4.104   5.948  1.00  0.00     0.167 HD
ATOM     27  C   UNL     1       8.317  -7.628   3.488  1.00  0.00     0.037 A 
ATOM     28  C   UNL     1       7.350  -2.335   8.091  1.00  0.00     0.037 A 
ATOM     29  C   UNL     1       9.069  -7.735   4.707  1.00  0.00     0.049 A 
ATOM     30  C   UNL     1       8.294  -3.479   8.361  1.00  0.00     0.074 A 
ATOM     31  C   UNL     1       9.944  -8.729   5.104  1.00  0.00     0.029 A 
ATOM     32  N   UNL     1       9.032  -6.797   5.732  1.00  0.00    -0.354 N 
ATOM     33  N   UNL     1       8.576  -4.512   7.600  1.00  0.00    -0.248 NA
ATOM     34  C   UNL     1       9.011  -3.463   9.642  1.00  0.00     0.031 C 
ATOM     35  C   UNL     1      10.415  -8.405   6.382  1.00  0.00     0.029 A 
ATOM     36  C   UNL     1       9.864  -7.190   6.763  1.00  0.00     0.049 A 
ATOM     37  H   UNL     1       8.492  -5.974   5.724  1.00  0.00     0.167 HD
ATOM     38  C   UNL     1       9.504  -5.267   8.307  1.00  0.00     0.074 A 
ATOM     39  C   UNL     1       9.759  -4.554   9.544  1.00  0.00     0.031 C 
ATOM     40  C   UNL     1      10.087  -6.447   7.978  1.00  0.00     0.037 A 
BRANCH  27  41
ATOM     41  C   UNL     1       8.501  -8.657   2.410  1.00  0.00     0.058 A 
ATOM     42  C   UNL     1       9.182  -8.361   1.219  1.00  0.00     0.135 A 
ATOM     43  C   UNL     1       7.955  -9.943   2.551  1.00  0.00     0.135 A 
ATOM     44  F   UNL     1       9.694  -7.136   1.019  1.00  0.00    -0.206 F 
ATOM     45  C   UNL     1       9.295  -9.296   0.194  1.00  0.00     0.059 A 
ATOM     46  C   UNL     1       8.071 -10.899   1.546  1.00  0.00     0.059 A 
ATOM     47  F   UNL     1       7.280 -10.272   3.663  1.00  0.00    -0.206 F 
ATOM     48  C   UNL     1       8.729 -10.561   0.365  1.00  0.00     0.060 A 
BRANCH  48  49
ATOM     49  S   UNL     1       8.860 -11.755  -0.984  1.00  0.00     0.124 S 
ATOM     50  O   UNL     1       7.904 -11.214  -1.945  1.00  0.00    -0.237 OA
ATOM     51  O   UNL     1      10.266 -11.649  -1.361  1.00  0.00    -0.237 OA
ATOM     52  O   UNL     1       8.475 -13.016  -0.359  1.00  0.00    -0.744 OA
ENDBRANCH  48  49
ENDBRANCH  27  41
BRANCH  28  53
ATOM     53  C   UNL     1       7.156  -1.242   9.084  1.00  0.00     0.058 A 
ATOM     54  C   UNL     1       8.180  -0.337   9.399  1.00  0.00     0.135 A 
ATOM     55  C   UNL     1       5.933  -1.099   9.762  1.00  0.00     0.135 A 
ATOM     56  F   UNL     1       9.371  -0.433   8.789  1.00  0.00    -0.206 F 
ATOM     57  C   UNL     1       8.009   0.654  10.364  1.00  0.00     0.059 A 
ATOM     58  C   UNL     1       5.729  -0.101  10.710  1.00  0.00     0.059 A 
ATOM     59  F   UNL     1       4.915  -1.931   9.496  1.00  0.00    -0.206 F 
ATOM     60  C   UNL     1       6.780   0.760  11.018  1.00  0.00     0.060 A 
BRANCH  60  61
ATOM     61  S   UNL     1       6.555   2.053  12.261  1.00  0.00     0.124 S 
ATOM     62  O   UNL     1       7.264   1.487  13.403  1.00  0.00    -0.237 OA
ATOM     63  O   UNL     1       7.184   3.208  11.628  1.00  0.00    -0.237 OA
ATOM     64  O   UNL     1       5.104   2.137  12.396  1.00  0.00    -0.744 OA
ENDBRANCH  60  61
ENDBRANCH  28  53
BRANCH  40  65
ATOM     65  C   UNL     1      11.058  -7.022   8.967  1.00  0.00     0.058 A 
ATOM     66  C   UNL     1      10.617  -7.630  10.152  1.00  0.00     0.135 A 
ATOM     67  C   UNL     1      12.436  -7.001   8.706  1.00  0.00     0.135 A 
ATOM     68  F   UNL     1       9.308  -7.671  10.446  1.00  0.00    -0.206 F 
ATOM     69  C   UNL     1      11.516  -8.177  11.061  1.00  0.00     0.059 A 
ATOM     70  C   UNL     1      13.351  -7.563   9.589  1.00  0.00     0.059 A 
ATOM     71  F   UNL     1      12.903  -6.441   7.578  1.00  0.00    -0.206 F 
ATOM     72  C   UNL     1      12.881  -8.136  10.771  1.00  0.00     0.060 A 
BRANCH  72  73
ATOM     73  S   UNL     1      14.039  -8.870  11.944  1.00  0.00     0.124 S 
ATOM     74  O   UNL     1      14.110  -7.836  12.971  1.00  0.00    -0.237 OA
ATOM     75  O   UNL     1      13.360 -10.102  12.330  1.00  0.00    -0.237 OA
ATOM     76  O   UNL     1      15.252  -9.053  11.151  1.00  0.00    -0.744 OA
ENDBRANCH  72  73
ENDBRANCH  40  65
ENDBRANCH  14  15
ENDBRANCH   7   9
ENDBRANCH   6   7
ENDBRANCH   5   6
ENDBRANCH   4   5
ENDBRANCH   3   4
ENDBRANCH   2   3
ENDBRANCH   1   2
BRANCH   1  77
ATOM     77  O   UNL     1       2.676   3.643   0.930  1.00  0.00    -0.377 OA
BRANCH  77  78
ATOM     78  C   UNL     1       4.080   3.636   0.690  1.00  0.00     0.188 C 
BRANCH  78  79
ATOM     79  C   UNL     1       4.877   2.773   1.692  1.00  0.00     0.188 C 
BRANCH  79  80
ATOM     80  O   UNL     1       4.088   2.266   2.766  1.00  0.00    -0.376 OA
BRANCH  80  81
ATOM     81  C   UNL     1       4.232   2.970   4.001  1.00  0.00     0.202 C 
BRANCH  81  82
ATOM     82  C   UNL     1       3.614   4.369   3.997  1.00  0.00     0.261 C 
BRANCH  82  83
ATOM     83  O   UNL     1       4.259   5.288   3.097  1.00  0.00    -0.460 OA
BRANCH  83  84
ATOM     84  C   UNL     1       5.531   5.669   3.354  1.00  0.00     0.340 C 
ATOM     85  O   UNL     1       6.238   5.319   4.271  1.00  0.00    -0.246 OA
BRANCH  84  86
ATOM     86  C   UNL     1       5.969   6.535   2.242  1.00  0.00     0.085 A 
ATOM     87  C   UNL     1       7.000   6.033   1.425  1.00  0.00     0.018 A 
ATOM     88  C   UNL     1       5.313   7.730   1.913  1.00  0.00     0.077 A 
ATOM     89  C   UNL     1       7.357   6.699   0.253  1.00  0.00     0.001 A 
ATOM     90  C   UNL     1       5.734   8.408   0.756  1.00  0.00     0.029 A 
ATOM     91  C   UNL     1       6.732   7.896  -0.076  1.00  0.00     0.002 A 
BRANCH  88  92
ATOM     92  N   UNL     1       4.087   8.172   2.416  1.00  0.00    -0.255 NA
ATOM     93  C   UNL     1       3.617   7.978   3.602  1.00  0.00     0.127 C 
BRANCH  93  94
ATOM     94  C   UNL     1       2.126   8.046   3.829  1.00  0.00     0.076 A 
ATOM     95  C   UNL     1       1.665   9.311   3.921  1.00  0.00     0.209 A 
ATOM     96  C   UNL     1       1.350   7.395   2.711  1.00  0.00     0.201 A 
ATOM     97  O   UNL     1       1.506  10.146   2.794  1.00  0.00    -0.463 OA
ATOM     98  C   UNL     1       1.450   8.141   1.438  1.00  0.00     0.065 A 
ATOM     99  O   UNL     1       0.722   6.357   2.844  1.00  0.00    -0.288 OA
ATOM    100  C   UNL     1       1.592   9.528   1.560  1.00  0.00     0.137 A 
ATOM    101  C   UNL     1       1.660   7.497   0.220  1.00  0.00     0.016 A 
ATOM    102  C   UNL     1       1.922  10.296   0.451  1.00  0.00     0.048 A 
ATOM    103  C   UNL     1       2.033   8.267  -0.885  1.00  0.00     0.001 A 
ATOM    104  C   UNL     1       2.160   9.659  -0.770  1.00  0.00     0.004 A 
ENDBRANCH  93  94
ENDBRANCH  88  92
ENDBRANCH  84  86
ENDBRANCH  83  84
ENDBRANCH  82  83
ENDBRANCH  81  82
ENDBRANCH  80  81
ENDBRANCH  79  80
ENDBRANCH  78  79
ENDBRANCH  77  78
ENDBRANCH   1  77
TORSDOF 25
