REMARK SMILES CC1(C)CSC[C@@H]([N@H+]2CCC[C@H](CCC(=O)OCCOCCOCCOCCOC(=O)c3ccc(-c4c5nc(c(-c6c(F)cc(S(=O)(=O)[O-])cc6F)c6ccc([nH]6)c(-c6c(F)cc(S(=O)(=O)[O-])cc6F)c6nc(c(-c7c(F)cc(S(=O)(=O)[O-])cc7F)c7ccc4[nH]7)C=C6)C=C5)cc3)C2)C1
REMARK SMILES IDX 23 1 22 2 21 3 20 4 19 5 18 6 17 7 15 8 16 9 14 10 13 11
REMARK SMILES IDX 12 12 8 13 9 14 98 15 10 17 11 18 7 19 1 20 2 21 3 22 4 23
REMARK SMILES IDX 99 24 5 25 6 26 24 27 25 28 26 29 27 30 28 31 29 32 30 33
REMARK SMILES IDX 31 34 32 35 33 36 97 37 34 38 96 39 35 40 36 41 37 42 90 43
REMARK SMILES IDX 38 44 95 45 89 46 91 47 39 48 94 49 88 50 87 51 40 53 74 54
REMARK SMILES IDX 53 55 73 56 54 57 57 58 72 59 92 60 55 61 56 62 71 64 93 65
REMARK SMILES IDX 58 66 41 67 42 68 51 69 43 70 44 71 50 72 52 73 45 74 46 75
REMARK SMILES IDX 47 76 48 77 49 78 75 79 76 80 85 81 77 82 78 83 84 84 86 85
REMARK SMILES IDX 79 86 80 87 81 88 82 89 83 90 59 91 60 92 69 93 61 94 62 95
REMARK SMILES IDX 68 96 70 97 63 98 64 99 65 100 66 101 67 102
REMARK H PARENT 8 16 91 52 57 63
REMARK Flexibility Score: inf
ROOT
ATOM      1  O   UNL     1      -3.676  -0.448   0.771  1.00  0.00    -0.377 OA
ENDROOT
BRANCH   1   2
ATOM      2  C   UNL     1      -4.648  -1.477   0.884  1.00  0.00     0.188 C 
BRANCH   2   3
ATOM      3  C   UNL     1      -5.005  -1.938   2.288  1.00  0.00     0.188 C 
BRANCH   3   4
ATOM      4  O   UNL     1      -4.691  -0.943   3.238  1.00  0.00    -0.376 OA
BRANCH   4   5
ATOM      5  C   UNL     1      -3.588  -1.250   4.075  1.00  0.00     0.202 C 
BRANCH   5   6
ATOM      6  C   UNL     1      -2.217  -1.699   3.506  1.00  0.00     0.261 C 
BRANCH   6   7
ATOM      7  O   UNL     1      -2.096  -2.240   2.166  1.00  0.00    -0.463 OA
BRANCH   7   8
ATOM      8  C   UNL     1      -1.938  -3.578   2.046  1.00  0.00     0.305 C 
ATOM      9  O   UNL     1      -2.183  -4.362   2.960  1.00  0.00    -0.252 OA
BRANCH   8  10
ATOM     10  C   UNL     1      -1.317  -4.071   0.731  1.00  0.00     0.123 C 
BRANCH  10  11
ATOM     11  C   UNL     1      -1.494  -3.355  -0.623  1.00  0.00     0.021 C 
BRANCH  11  12
ATOM     12  C   UNL     1      -0.540  -2.167  -0.834  1.00  0.00     0.045 C 
ATOM     13  N   UNL     1      -0.438   0.236  -1.407  1.00  0.00    -0.332 N 
ATOM     14  C   UNL     1       0.718   0.073  -2.270  1.00  0.00     0.262 C 
ATOM     15  C   UNL     1      -1.278  -0.954  -1.408  1.00  0.00     0.265 C 
ATOM     16  H   UNL     1      -0.947   0.987  -1.873  1.00  0.00     0.348 HD
ATOM     17  C   UNL     1       1.527  -1.169  -1.928  1.00  0.00     0.062 C 
ATOM     18  C   UNL     1       0.689  -2.441  -1.719  1.00  0.00     0.015 C 
BRANCH  13  19
ATOM     19  C   UNL     1      -0.321   0.959  -0.122  1.00  0.00     0.194 C 
ATOM     20  C   UNL     1       2.471  -0.610   1.351  1.00  0.00     0.012 C 
ATOM     21  C   UNL     1       1.389   0.314   1.927  1.00  0.00    -0.021 C 
ATOM     22  C   UNL     1       1.199  -0.167   3.388  1.00  0.00     0.012 C 
ATOM     23  C   UNL     1       1.921   1.746   1.930  1.00  0.00     0.076 C 
ATOM     24  C   UNL     1      -0.024   0.307   1.263  1.00  0.00     0.073 C 
ATOM     25  S   UNL     1       2.091   2.389   0.232  1.00  0.00    -0.155 SA
ATOM     26  C   UNL     1       0.348   2.332  -0.229  1.00  0.00     0.134 C 
ENDBRANCH  13  19
ENDBRANCH  11  12
ENDBRANCH  10  11
ENDBRANCH   8  10
ENDBRANCH   7   8
ENDBRANCH   6   7
ENDBRANCH   5   6
ENDBRANCH   4   5
ENDBRANCH   3   4
ENDBRANCH   2   3
ENDBRANCH   1   2
BRANCH   1  27
ATOM     27  C   UNL     1      -3.972   0.873   1.202  1.00  0.00     0.188 C 
BRANCH  27  28
ATOM     28  C   UNL     1      -5.341   1.491   0.908  1.00  0.00     0.188 C 
BRANCH  28  29
ATOM     29  O   UNL     1      -6.107   1.021  -0.194  1.00  0.00    -0.376 OA
BRANCH  29  30
ATOM     30  C   UNL     1      -5.454   0.733  -1.425  1.00  0.00     0.202 C 
BRANCH  30  31
ATOM     31  C   UNL     1      -5.031   1.922  -2.276  1.00  0.00     0.261 C 
BRANCH  31  32
ATOM     32  O   UNL     1      -3.885   2.597  -1.738  1.00  0.00    -0.460 OA
BRANCH  32  33
ATOM     33  C   UNL     1      -4.114   3.853  -1.284  1.00  0.00     0.338 C 
ATOM     34  O   UNL     1      -5.180   4.425  -1.194  1.00  0.00    -0.246 OA
BRANCH  33  35
ATOM     35  C   UNL     1      -2.840   4.438  -0.824  1.00  0.00     0.060 A 
ATOM     36  C   UNL     1      -2.737   4.895   0.495  1.00  0.00     0.016 A 
ATOM     37  C   UNL     1      -1.782   4.609  -1.715  1.00  0.00     0.016 A 
ATOM     38  C   UNL     1      -1.571   5.542   0.929  1.00  0.00     0.010 A 
ATOM     39  C   UNL     1      -0.617   5.246  -1.274  1.00  0.00     0.010 A 
ATOM     40  C   UNL     1      -0.501   5.735   0.048  1.00  0.00    -0.014 A 
BRANCH  40  41
ATOM     41  C   UNL     1       0.697   6.554   0.399  1.00  0.00     0.031 A 
ATOM     42  C   UNL     1       0.898   7.848  -0.337  1.00  0.00     0.074 A 
ATOM     43  C   UNL     1       1.626   6.183   1.305  1.00  0.00     0.049 A 
ATOM     44  N   UNL     1       1.915   8.665  -0.304  1.00  0.00    -0.248 NA
ATOM     45  C   UNL     1      -0.213   8.294  -1.195  1.00  0.00     0.031 C 
ATOM     46  C   UNL     1       1.520   5.059   2.223  1.00  0.00     0.029 A 
ATOM     47  N   UNL     1       2.887   6.682   1.555  1.00  0.00    -0.354 N 
ATOM     48  C   UNL     1       1.540   9.749  -1.080  1.00  0.00     0.074 A 
ATOM     49  C   UNL     1       0.263   9.430  -1.677  1.00  0.00     0.031 C 
ATOM     50  C   UNL     1       2.711   4.851   2.815  1.00  0.00     0.029 A 
ATOM     51  C   UNL     1       3.658   5.848   2.339  1.00  0.00     0.049 A 
ATOM     52  H   UNL     1       3.206   7.547   1.210  1.00  0.00     0.167 HD
ATOM     53  C   UNL     1       2.165  10.940  -1.216  1.00  0.00     0.037 A 
ATOM     54  C   UNL     1       4.976   5.867   2.627  1.00  0.00     0.037 A 
ATOM     55  C   UNL     1       3.441  11.253  -0.636  1.00  0.00     0.049 A 
ATOM     56  C   UNL     1       5.772   7.085   2.246  1.00  0.00     0.074 A 
ATOM     57  C   UNL     1       4.143  12.442  -0.696  1.00  0.00     0.029 A 
ATOM     58  N   UNL     1       4.220  10.363   0.089  1.00  0.00    -0.354 N 
ATOM     59  N   UNL     1       5.376   8.144   1.583  1.00  0.00    -0.248 NA
ATOM     60  C   UNL     1       7.159   7.160   2.727  1.00  0.00     0.031 C 
ATOM     61  C   UNL     1       5.376  12.251  -0.065  1.00  0.00     0.029 A 
ATOM     62  C   UNL     1       5.417  10.962   0.443  1.00  0.00     0.049 A 
ATOM     63  H   UNL     1       3.960   9.441   0.318  1.00  0.00     0.167 HD
ATOM     64  C   UNL     1       6.426   9.050   1.653  1.00  0.00     0.074 A 
ATOM     65  C   UNL     1       7.492   8.399   2.387  1.00  0.00     0.031 C 
ATOM     66  C   UNL     1       6.475  10.322   1.187  1.00  0.00     0.037 A 
BRANCH  53  67
ATOM     67  C   UNL     1       1.446  11.985  -2.015  1.00  0.00     0.058 A 
ATOM     68  C   UNL     1       0.261  12.578  -1.542  1.00  0.00     0.135 A 
ATOM     69  C   UNL     1       1.927  12.384  -3.269  1.00  0.00     0.135 A 
ATOM     70  F   UNL     1      -0.254  12.211  -0.357  1.00  0.00    -0.206 F 
ATOM     71  C   UNL     1      -0.443  13.499  -2.305  1.00  0.00     0.059 A 
ATOM     72  C   UNL     1       1.255  13.329  -4.036  1.00  0.00     0.059 A 
ATOM     73  F   UNL     1       3.048  11.841  -3.768  1.00  0.00    -0.206 F 
ATOM     74  C   UNL     1       0.062  13.867  -3.553  1.00  0.00     0.060 A 
BRANCH  74  75
ATOM     75  S   UNL     1      -0.872  15.056  -4.537  1.00  0.00     0.124 S 
ATOM     76  O   UNL     1      -2.027  14.259  -4.937  1.00  0.00    -0.237 OA
ATOM     77  O   UNL     1      -1.137  16.117  -3.571  1.00  0.00    -0.237 OA
ATOM     78  O   UNL     1       0.051  15.406  -5.612  1.00  0.00    -0.744 OA
ENDBRANCH  74  75
ENDBRANCH  53  67
BRANCH  54  79
ATOM     79  C   UNL     1       5.623   4.747   3.368  1.00  0.00     0.058 A 
ATOM     80  C   UNL     1       5.978   4.878   4.718  1.00  0.00     0.135 A 
ATOM     81  C   UNL     1       5.944   3.537   2.729  1.00  0.00     0.135 A 
ATOM     82  F   UNL     1       5.711   6.019   5.371  1.00  0.00    -0.206 F 
ATOM     83  C   UNL     1       6.641   3.863   5.404  1.00  0.00     0.059 A 
ATOM     84  C   UNL     1       6.593   2.499   3.399  1.00  0.00     0.059 A 
ATOM     85  F   UNL     1       5.637   3.357   1.435  1.00  0.00    -0.206 F 
ATOM     86  C   UNL     1       6.943   2.675   4.737  1.00  0.00     0.060 A 
BRANCH  86  87
ATOM     87  S   UNL     1       7.775   1.360   5.658  1.00  0.00     0.124 S 
ATOM     88  O   UNL     1       9.083   1.953   5.912  1.00  0.00    -0.237 OA
ATOM     89  O   UNL     1       6.905   1.212   6.821  1.00  0.00    -0.237 OA
ATOM     90  O   UNL     1       7.762   0.234   4.728  1.00  0.00    -0.744 OA
ENDBRANCH  86  87
ENDBRANCH  54  79
BRANCH  66  91
ATOM     91  C   UNL     1       7.696  11.139   1.505  1.00  0.00     0.058 A 
ATOM     92  C   UNL     1       8.937  10.890   0.902  1.00  0.00     0.135 A 
ATOM     93  C   UNL     1       7.598  12.240   2.374  1.00  0.00     0.135 A 
ATOM     94  F   UNL     1       9.089   9.844   0.074  1.00  0.00    -0.206 F 
ATOM     95  C   UNL     1      10.041  11.696   1.156  1.00  0.00     0.059 A 
ATOM     96  C   UNL     1       8.679  13.079   2.616  1.00  0.00     0.059 A 
ATOM     97  F   UNL     1       6.432  12.527   2.975  1.00  0.00    -0.206 F 
ATOM     98  C   UNL     1       9.900  12.795   2.006  1.00  0.00     0.060 A 
BRANCH  98  99
ATOM     99  S   UNL     1      11.325  13.870   2.272  1.00  0.00     0.124 S 
ATOM    100  O   UNL     1      12.180  13.028   3.101  1.00  0.00    -0.237 OA
ATOM    101  O   UNL     1      11.794  14.105   0.910  1.00  0.00    -0.237 OA
ATOM    102  O   UNL     1      10.753  15.036   2.941  1.00  0.00    -0.744 OA
ENDBRANCH  98  99
ENDBRANCH  66  91
ENDBRANCH  40  41
ENDBRANCH  33  35
ENDBRANCH  32  33
ENDBRANCH  31  32
ENDBRANCH  30  31
ENDBRANCH  29  30
ENDBRANCH  28  29
ENDBRANCH  27  28
ENDBRANCH   1  27
TORSDOF 26
