REMARK SMILES C[C@]1(C(=O)NCc2ccc(C(=O)OCCOCCOCCOCCOC(=O)c3ccc(-c4c5nc(c(-c6c(F)cc(S(=O)(=O)[O-])cc6F)c6ccc([nH]6)c(-c6c(F)cc(S(=O)(=O)[O-])cc6F)c6nc(c(-c7c(F)cc(S(=O)(=O)[O-])cc7F)c7ccc4[nH]7)C=C6)C=C5)cc3)o2)CCC[NH2+]C1
REMARK SMILES IDX 19 1 18 2 17 3 16 4 15 5 14 6 13 7 11 8 12 9 10 10 7 11 8 12
REMARK SMILES IDX 94 13 9 14 6 15 5 16 3 17 4 18 2 20 1 21 95 22 99 23 96 24
REMARK SMILES IDX 98 25 97 26 20 29 21 30 22 31 23 32 24 33 25 34 26 35 27 36
REMARK SMILES IDX 28 37 29 38 93 39 30 40 92 41 31 42 32 43 33 44 86 45 34 46
REMARK SMILES IDX 91 47 85 48 87 49 35 50 90 51 84 52 83 53 36 55 70 56 49 57
REMARK SMILES IDX 69 58 50 59 53 60 68 61 88 62 51 63 52 64 67 66 89 67 54 68
REMARK SMILES IDX 37 69 38 70 47 71 39 72 40 73 46 74 48 75 41 76 42 77 43 78
REMARK SMILES IDX 44 79 45 80 71 81 72 82 81 83 73 84 74 85 80 86 82 87 75 88
REMARK SMILES IDX 76 89 77 90 78 91 79 92 55 93 56 94 65 95 57 96 58 97 64 98
REMARK SMILES IDX 66 99 59 100 60 101 61 102 62 103 63 104
REMARK H PARENT 5 19 98 27 98 28 87 54 53 65
REMARK Flexibility Score: inf
ROOT
ATOM      1  O   UNL     1       0.088   0.221   7.704  1.00  0.00    -0.377 OA
ENDROOT
BRANCH   1   2
ATOM      2  C   UNL     1       0.042  -0.386   6.425  1.00  0.00     0.188 C 
BRANCH   2   3
ATOM      3  C   UNL     1       1.163  -1.405   6.170  1.00  0.00     0.188 C 
BRANCH   3   4
ATOM      4  O   UNL     1       1.947  -1.685   7.330  1.00  0.00    -0.376 OA
BRANCH   4   5
ATOM      5  C   UNL     1       3.260  -1.134   7.344  1.00  0.00     0.202 C 
BRANCH   5   6
ATOM      6  C   UNL     1       3.332   0.370   7.647  1.00  0.00     0.261 C 
BRANCH   6   7
ATOM      7  O   UNL     1       2.711   1.213   6.663  1.00  0.00    -0.457 OA
BRANCH   7   8
ATOM      8  C   UNL     1       3.212   1.184   5.400  1.00  0.00     0.374 C 
ATOM      9  O   UNL     1       4.233   0.594   5.070  1.00  0.00    -0.242 OA
BRANCH   8  10
ATOM     10  C   UNL     1       2.270   1.837   4.521  1.00  0.00     0.211 A 
ATOM     11  C   UNL     1       1.126   2.051   2.639  1.00  0.00     0.124 A 
ATOM     12  C   UNL     1       0.569   2.936   3.540  1.00  0.00     0.048 A 
ATOM     13  O   UNL     1       2.185   1.413   3.223  1.00  0.00    -0.452 OA
ATOM     14  C   UNL     1       1.299   2.797   4.746  1.00  0.00     0.058 A 
BRANCH  11  15
ATOM     15  C   UNL     1       0.791   1.698   1.229  1.00  0.00     0.191 C 
BRANCH  15  16
ATOM     16  N   UNL     1       1.789   0.802   0.693  1.00  0.00    -0.348 N 
ATOM     17  C   UNL     1       1.782  -0.451   0.188  1.00  0.00     0.232 C 
ATOM     18  O   UNL     1       2.896  -0.859  -0.174  1.00  0.00    -0.274 OA
ATOM     19  H   UNL     1       2.690   1.199   0.697  1.00  0.00     0.163 HD
BRANCH  17  20
ATOM     20  C   UNL     1       0.514  -1.292  -0.099  1.00  0.00     0.095 C 
ATOM     21  C   UNL     1      -0.168  -0.669  -1.330  1.00  0.00     0.028 C 
ATOM     22  C   UNL     1       0.960  -2.741  -0.463  1.00  0.00     0.028 C 
ATOM     23  C   UNL     1      -0.505  -1.433   1.049  1.00  0.00     0.277 C 
ATOM     24  C   UNL     1       1.473  -3.497   0.769  1.00  0.00     0.063 C 
ATOM     25  N   UNL     1       0.031  -2.107   2.231  1.00  0.00    -0.345 N 
ATOM     26  C   UNL     1       0.464  -3.468   1.914  1.00  0.00     0.260 C 
ATOM     27  H   UNL     1       0.828  -1.578   2.583  1.00  0.00     0.346 HD
ATOM     28  H   UNL     1      -0.706  -2.159   2.935  1.00  0.00     0.346 HD
ENDBRANCH  17  20
ENDBRANCH  15  16
ENDBRANCH  11  15
ENDBRANCH   8  10
ENDBRANCH   7   8
ENDBRANCH   6   7
ENDBRANCH   5   6
ENDBRANCH   4   5
ENDBRANCH   3   4
ENDBRANCH   2   3
ENDBRANCH   1   2
BRANCH   1  29
ATOM     29  C   UNL     1      -0.362  -0.527   8.832  1.00  0.00     0.188 C 
BRANCH  29  30
ATOM     30  C   UNL     1      -0.623  -2.047   8.762  1.00  0.00     0.188 C 
BRANCH  30  31
ATOM     31  O   UNL     1      -1.352  -2.468   7.610  1.00  0.00    -0.376 OA
BRANCH  31  32
ATOM     32  C   UNL     1      -2.694  -2.885   7.835  1.00  0.00     0.202 C 
BRANCH  32  33
ATOM     33  C   UNL     1      -3.676  -1.713   7.933  1.00  0.00     0.261 C 
BRANCH  33  34
ATOM     34  O   UNL     1      -3.490  -0.875   9.083  1.00  0.00    -0.460 OA
BRANCH  34  35
ATOM     35  C   UNL     1      -3.629  -1.467  10.290  1.00  0.00     0.338 C 
ATOM     36  O   UNL     1      -3.943  -2.622  10.513  1.00  0.00    -0.246 OA
BRANCH  35  37
ATOM     37  C   UNL     1      -3.173  -0.514  11.317  1.00  0.00     0.060 A 
ATOM     38  C   UNL     1      -2.199  -0.924  12.234  1.00  0.00     0.016 A 
ATOM     39  C   UNL     1      -3.727   0.767  11.385  1.00  0.00     0.016 A 
ATOM     40  C   UNL     1      -1.811  -0.064  13.261  1.00  0.00     0.010 A 
ATOM     41  C   UNL     1      -3.348   1.620  12.420  1.00  0.00     0.010 A 
ATOM     42  C   UNL     1      -2.419   1.193  13.383  1.00  0.00    -0.014 A 
BRANCH  42  43
ATOM     43  C   UNL     1      -2.257   1.980  14.627  1.00  0.00     0.031 A 
ATOM     44  C   UNL     1      -3.292   1.815  15.706  1.00  0.00     0.074 A 
ATOM     45  C   UNL     1      -1.235   2.837  14.784  1.00  0.00     0.049 A 
ATOM     46  N   UNL     1      -3.414   2.448  16.842  1.00  0.00    -0.248 NA
ATOM     47  C   UNL     1      -4.334   0.803  15.463  1.00  0.00     0.031 C 
ATOM     48  C   UNL     1      -0.161   3.062  13.819  1.00  0.00     0.029 A 
ATOM     49  N   UNL     1      -0.946   3.692  15.817  1.00  0.00    -0.354 N 
ATOM     50  C   UNL     1      -4.546   1.915  17.448  1.00  0.00     0.074 A 
ATOM     51  C   UNL     1      -5.090   0.927  16.543  1.00  0.00     0.031 C 
ATOM     52  C   UNL     1       0.663   4.011  14.299  1.00  0.00     0.029 A 
ATOM     53  C   UNL     1       0.159   4.477  15.590  1.00  0.00     0.049 A 
ATOM     54  H   UNL     1      -1.480   3.740  16.643  1.00  0.00     0.167 HD
ATOM     55  C   UNL     1      -5.081   2.218  18.653  1.00  0.00     0.037 A 
ATOM     56  C   UNL     1       0.685   5.471  16.334  1.00  0.00     0.037 A 
ATOM     57  C   UNL     1      -4.544   3.210  19.545  1.00  0.00     0.049 A 
ATOM     58  C   UNL     1       0.040   5.832  17.648  1.00  0.00     0.074 A 
ATOM     59  C   UNL     1      -5.008   3.589  20.791  1.00  0.00     0.029 A 
ATOM     60  N   UNL     1      -3.427   3.987  19.278  1.00  0.00    -0.354 N 
ATOM     61  N   UNL     1      -1.016   5.305  18.221  1.00  0.00    -0.248 NA
ATOM     62  C   UNL     1       0.658   6.923  18.416  1.00  0.00     0.031 C 
ATOM     63  C   UNL     1      -4.191   4.622  21.264  1.00  0.00     0.029 A 
ATOM     64  C   UNL     1      -3.194   4.856  20.329  1.00  0.00     0.049 A 
ATOM     65  H   UNL     1      -2.880   3.929  18.461  1.00  0.00     0.167 HD
ATOM     66  C   UNL     1      -1.171   5.979  19.429  1.00  0.00     0.074 A 
ATOM     67  C   UNL     1      -0.099   6.950  19.505  1.00  0.00     0.031 C 
ATOM     68  C   UNL     1      -2.112   5.807  20.391  1.00  0.00     0.037 A 
BRANCH  55  69
ATOM     69  C   UNL     1      -6.325   1.481  19.057  1.00  0.00     0.058 A 
ATOM     70  C   UNL     1      -6.286   0.131  19.442  1.00  0.00     0.135 A 
ATOM     71  C   UNL     1      -7.569   2.130  19.057  1.00  0.00     0.135 A 
ATOM     72  F   UNL     1      -5.124  -0.541  19.435  1.00  0.00    -0.206 F 
ATOM     73  C   UNL     1      -7.444  -0.558  19.786  1.00  0.00     0.059 A 
ATOM     74  C   UNL     1      -8.737   1.466  19.421  1.00  0.00     0.059 A 
ATOM     75  F   UNL     1      -7.660   3.417  18.690  1.00  0.00    -0.206 F 
ATOM     76  C   UNL     1      -8.666   0.117  19.767  1.00  0.00     0.060 A 
BRANCH  76  77
ATOM     77  S   UNL     1     -10.163  -0.792  20.204  1.00  0.00     0.124 S 
ATOM     78  O   UNL     1     -10.381  -1.586  18.998  1.00  0.00    -0.237 OA
ATOM     79  O   UNL     1      -9.745  -1.538  21.386  1.00  0.00    -0.237 OA
ATOM     80  O   UNL     1     -11.142   0.263  20.445  1.00  0.00    -0.744 OA
ENDBRANCH  76  77
ENDBRANCH  55  69
BRANCH  56  81
ATOM     81  C   UNL     1       1.886   6.201  15.852  1.00  0.00     0.058 A 
ATOM     82  C   UNL     1       3.133   6.028  16.470  1.00  0.00     0.135 A 
ATOM     83  C   UNL     1       1.811   7.087  14.766  1.00  0.00     0.135 A 
ATOM     84  F   UNL     1       3.252   5.201  17.520  1.00  0.00    -0.206 F 
ATOM     85  C   UNL     1       4.262   6.714  16.036  1.00  0.00     0.059 A 
ATOM     86  C   UNL     1       2.930   7.768  14.300  1.00  0.00     0.059 A 
ATOM     87  F   UNL     1       0.641   7.281  14.136  1.00  0.00    -0.206 F 
ATOM     88  C   UNL     1       4.151   7.582  14.947  1.00  0.00     0.060 A 
BRANCH  88  89
ATOM     89  S   UNL     1       5.633   8.429  14.357  1.00  0.00     0.124 S 
ATOM     90  O   UNL     1       5.809   9.457  15.376  1.00  0.00    -0.237 OA
ATOM     91  O   UNL     1       6.622   7.355  14.356  1.00  0.00    -0.237 OA
ATOM     92  O   UNL     1       5.239   8.908  13.035  1.00  0.00    -0.744 OA
ENDBRANCH  88  89
ENDBRANCH  56  81
BRANCH  68  93
ATOM     93  C   UNL     1      -2.007   6.654  21.627  1.00  0.00     0.058 A 
ATOM     94  C   UNL     1      -2.375   8.008  21.627  1.00  0.00     0.135 A 
ATOM     95  C   UNL     1      -1.601   6.082  22.844  1.00  0.00     0.135 A 
ATOM     96  F   UNL     1      -2.766   8.602  20.489  1.00  0.00    -0.206 F 
ATOM     97  C   UNL     1      -2.331   8.771  22.790  1.00  0.00     0.059 A 
ATOM     98  C   UNL     1      -1.571   6.821  24.023  1.00  0.00     0.059 A 
ATOM     99  F   UNL     1      -1.250   4.788  22.899  1.00  0.00    -0.206 F 
ATOM    100  C   UNL     1      -1.930   8.167  23.984  1.00  0.00     0.060 A 
BRANCH 100 101
ATOM    101  S   UNL     1      -1.922   9.153  25.497  1.00  0.00     0.124 S 
ATOM    102  O   UNL     1      -0.712   9.949  25.322  1.00  0.00    -0.237 OA
ATOM    103  O   UNL     1      -3.182   9.886  25.402  1.00  0.00    -0.237 OA
ATOM    104  O   UNL     1      -1.867   8.150  26.555  1.00  0.00    -0.744 OA
ENDBRANCH 100 101
ENDBRANCH  68  93
ENDBRANCH  42  43
ENDBRANCH  35  37
ENDBRANCH  34  35
ENDBRANCH  33  34
ENDBRANCH  32  33
ENDBRANCH  31  32
ENDBRANCH  30  31
ENDBRANCH  29  30
ENDBRANCH   1  29
TORSDOF 26
