REMARK SMILES CCOC(=O)c1cc(C[NH2+]CC(=O)OCCOCCOCCOCCOC(=O)c2ccc(-c3c4nc(c(-c5c(F)cc(S(=O)(=O)[O-])cc5F)c5ccc([nH]5)c(-c5c(F)cc(S(=O)(=O)[O-])cc5F)c5nc(c(-c6c(F)cc(S(=O)(=O)[O-])cc6F)c6ccc3[nH]6)C=C5)C=C4)cc2)c(C)o1
REMARK SMILES IDX 18 1 17 2 16 3 15 4 14 5 12 6 13 7 11 8 10 9 9 12 8 13 6 14
REMARK SMILES IDX 7 15 97 16 95 17 96 18 4 19 5 20 3 21 2 22 1 23 19 24 20 25
REMARK SMILES IDX 21 26 22 27 23 28 24 29 25 30 26 31 27 32 28 33 29 34 30 35
REMARK SMILES IDX 94 36 31 37 93 38 32 39 33 40 34 41 87 42 35 43 92 44 86 45
REMARK SMILES IDX 88 46 36 47 91 48 85 49 84 50 37 52 71 53 50 54 70 55 51 56
REMARK SMILES IDX 54 57 69 58 89 59 52 60 53 61 68 63 90 64 55 65 38 66 39 67
REMARK SMILES IDX 48 68 40 69 41 70 47 71 49 72 42 73 43 74 44 75 45 76 46 77
REMARK SMILES IDX 72 78 73 79 82 80 74 81 75 82 81 83 83 84 76 85 77 86 78 87
REMARK SMILES IDX 79 88 80 89 56 90 57 91 66 92 58 93 59 94 65 95 67 96 60 97
REMARK SMILES IDX 61 98 62 99 63 100 64 101
REMARK H PARENT 10 10 10 11 88 51 54 62
REMARK Flexibility Score: inf
ROOT
ATOM      1  C   UNL     1       3.108  -1.859  -5.863  1.00  0.00     0.188 C 
ENDROOT
BRANCH   1   2
ATOM      2  O   UNL     1       2.294  -3.003  -6.069  1.00  0.00    -0.376 OA
BRANCH   2   3
ATOM      3  C   UNL     1       2.066  -3.927  -5.015  1.00  0.00     0.202 C 
BRANCH   3   4
ATOM      4  C   UNL     1       3.195  -4.413  -4.088  1.00  0.00     0.261 C 
BRANCH   4   5
ATOM      5  O   UNL     1       4.133  -3.423  -3.623  1.00  0.00    -0.459 OA
BRANCH   5   6
ATOM      6  C   UNL     1       5.396  -3.515  -4.096  1.00  0.00     0.361 C 
ATOM      7  O   UNL     1       5.751  -4.353  -4.925  1.00  0.00    -0.245 OA
BRANCH   6   8
ATOM      8  C   UNL     1       6.408  -2.525  -3.514  1.00  0.00     0.385 C 
BRANCH   8   9
ATOM      9  N   UNL     1       5.978  -1.290  -2.839  1.00  0.00    -0.333 N 
ATOM     10  H   UNL     1       6.814  -0.755  -2.605  1.00  0.00     0.347 HD
ATOM     11  H   UNL     1       5.353  -0.822  -3.496  1.00  0.00     0.347 HD
BRANCH   9  12
ATOM     12  C   UNL     1       5.208  -1.465  -1.624  1.00  0.00     0.301 C 
BRANCH  12  13
ATOM     13  C   UNL     1       4.900  -0.117  -1.047  1.00  0.00     0.048 A 
ATOM     14  C   UNL     1       3.738   1.544  -0.044  1.00  0.00     0.212 A 
ATOM     15  C   UNL     1       3.600   0.423  -0.840  1.00  0.00     0.068 A 
ATOM     16  O   UNL     1       5.068   1.842   0.065  1.00  0.00    -0.454 OA
ATOM     17  C   UNL     1       5.763   0.845  -0.552  1.00  0.00     0.110 A 
ATOM     18  C   UNL     1       7.231   0.988  -0.526  1.00  0.00     0.088 C 
BRANCH  14  19
ATOM     19  C   UNL     1       2.778   2.344   0.681  1.00  0.00     0.374 C 
ATOM     20  O   UNL     1       2.989   3.399   1.270  1.00  0.00    -0.242 OA
BRANCH  19  21
ATOM     21  O   UNL     1       1.537   1.778   0.620  1.00  0.00    -0.460 OA
BRANCH  21  22
ATOM     22  C   UNL     1       1.277   0.843   1.680  1.00  0.00     0.230 C 
ATOM     23  C   UNL     1       1.100  -0.549   1.095  1.00  0.00     0.049 C 
ENDBRANCH  21  22
ENDBRANCH  19  21
ENDBRANCH  14  19
ENDBRANCH  12  13
ENDBRANCH   9  12
ENDBRANCH   8   9
ENDBRANCH   6   8
ENDBRANCH   5   6
ENDBRANCH   4   5
ENDBRANCH   3   4
ENDBRANCH   2   3
ENDBRANCH   1   2
BRANCH   1  24
ATOM     24  C   UNL     1       2.908  -0.966  -4.629  1.00  0.00     0.188 C 
BRANCH  24  25
ATOM     25  O   UNL     1       2.190  -1.559  -3.566  1.00  0.00    -0.377 OA
BRANCH  25  26
ATOM     26  C   UNL     1       0.811  -1.228  -3.451  1.00  0.00     0.188 C 
BRANCH  26  27
ATOM     27  C   UNL     1       0.007  -0.976  -4.742  1.00  0.00     0.188 C 
BRANCH  27  28
ATOM     28  O   UNL     1       0.600  -0.033  -5.628  1.00  0.00    -0.376 OA
BRANCH  28  29
ATOM     29  C   UNL     1       0.181   1.324  -5.544  1.00  0.00     0.202 C 
BRANCH  29  30
ATOM     30  C   UNL     1       0.514   2.085  -4.250  1.00  0.00     0.261 C 
BRANCH  30  31
ATOM     31  O   UNL     1      -0.112   1.607  -3.048  1.00  0.00    -0.460 OA
BRANCH  31  32
ATOM     32  C   UNL     1      -1.455   1.475  -3.032  1.00  0.00     0.338 C 
ATOM     33  O   UNL     1      -2.238   1.766  -3.916  1.00  0.00    -0.246 OA
BRANCH  32  34
ATOM     34  C   UNL     1      -1.809   0.740  -1.804  1.00  0.00     0.060 A 
ATOM     35  C   UNL     1      -2.367  -0.542  -1.894  1.00  0.00     0.016 A 
ATOM     36  C   UNL     1      -1.598   1.333  -0.562  1.00  0.00     0.016 A 
ATOM     37  C   UNL     1      -2.743  -1.227  -0.734  1.00  0.00     0.010 A 
ATOM     38  C   UNL     1      -1.985   0.649   0.592  1.00  0.00     0.010 A 
ATOM     39  C   UNL     1      -2.587  -0.622   0.519  1.00  0.00    -0.014 A 
BRANCH  39  40
ATOM     40  C   UNL     1      -3.236  -1.194   1.731  1.00  0.00     0.031 A 
ATOM     41  C   UNL     1      -4.398  -0.436   2.325  1.00  0.00     0.074 A 
ATOM     42  C   UNL     1      -2.821  -2.341   2.305  1.00  0.00     0.049 A 
ATOM     43  N   UNL     1      -5.065  -0.661   3.426  1.00  0.00    -0.248 NA
ATOM     44  C   UNL     1      -4.844   0.760   1.589  1.00  0.00     0.031 C 
ATOM     45  C   UNL     1      -1.722  -3.183   1.835  1.00  0.00     0.029 A 
ATOM     46  N   UNL     1      -3.278  -2.991   3.427  1.00  0.00    -0.354 N 
ATOM     47  C   UNL     1      -5.983   0.379   3.526  1.00  0.00     0.074 A 
ATOM     48  C   UNL     1      -5.738   1.271   2.417  1.00  0.00     0.031 C 
ATOM     49  C   UNL     1      -1.587  -4.234   2.664  1.00  0.00     0.029 A 
ATOM     50  C   UNL     1      -2.576  -4.134   3.736  1.00  0.00     0.049 A 
ATOM     51  H   UNL     1      -4.040  -2.668   3.961  1.00  0.00     0.167 HD
ATOM     52  C   UNL     1      -6.968   0.562   4.435  1.00  0.00     0.037 A 
ATOM     53  C   UNL     1      -2.713  -4.994   4.767  1.00  0.00     0.037 A 
ATOM     54  C   UNL     1      -7.247  -0.351   5.509  1.00  0.00     0.049 A 
ATOM     55  C   UNL     1      -3.809  -4.765   5.781  1.00  0.00     0.074 A 
ATOM     56  C   UNL     1      -8.253  -0.282   6.456  1.00  0.00     0.029 A 
ATOM     57  N   UNL     1      -6.524  -1.504   5.774  1.00  0.00    -0.354 N 
ATOM     58  N   UNL     1      -4.692  -3.796   5.840  1.00  0.00    -0.248 NA
ATOM     59  C   UNL     1      -3.937  -5.755   6.861  1.00  0.00     0.031 C 
ATOM     60  C   UNL     1      -8.109  -1.369   7.324  1.00  0.00     0.029 A 
ATOM     61  C   UNL     1      -7.053  -2.148   6.880  1.00  0.00     0.049 A 
ATOM     62  H   UNL     1      -5.750  -1.818   5.253  1.00  0.00     0.167 HD
ATOM     63  C   UNL     1      -5.504  -4.084   6.935  1.00  0.00     0.074 A 
ATOM     64  C   UNL     1      -5.012  -5.320   7.504  1.00  0.00     0.031 C 
ATOM     65  C   UNL     1      -6.564  -3.391   7.423  1.00  0.00     0.037 A 
BRANCH  52  66
ATOM     66  C   UNL     1      -7.814   1.799   4.299  1.00  0.00     0.058 A 
ATOM     67  C   UNL     1      -8.698   1.978   3.222  1.00  0.00     0.135 A 
ATOM     68  C   UNL     1      -7.740   2.818   5.261  1.00  0.00     0.135 A 
ATOM     69  F   UNL     1      -8.791   1.045   2.260  1.00  0.00    -0.206 F 
ATOM     70  C   UNL     1      -9.448   3.140   3.083  1.00  0.00     0.059 A 
ATOM     71  C   UNL     1      -8.510   3.973   5.162  1.00  0.00     0.059 A 
ATOM     72  F   UNL     1      -6.910   2.701   6.309  1.00  0.00    -0.206 F 
ATOM     73  C   UNL     1      -9.348   4.132   4.059  1.00  0.00     0.060 A 
BRANCH  73  74
ATOM     74  S   UNL     1     -10.334   5.630   3.865  1.00  0.00     0.124 S 
ATOM     75  O   UNL     1      -9.644   6.291   2.761  1.00  0.00    -0.237 OA
ATOM     76  O   UNL     1     -11.655   5.094   3.555  1.00  0.00    -0.237 OA
ATOM     77  O   UNL     1     -10.214   6.287   5.163  1.00  0.00    -0.744 OA
ENDBRANCH  73  74
ENDBRANCH  52  66
BRANCH  53  78
ATOM     78  C   UNL     1      -1.808  -6.173   4.893  1.00  0.00     0.058 A 
ATOM     79  C   UNL     1      -2.290  -7.480   4.719  1.00  0.00     0.135 A 
ATOM     80  C   UNL     1      -0.450  -6.019   5.214  1.00  0.00     0.135 A 
ATOM     81  F   UNL     1      -3.583  -7.683   4.425  1.00  0.00    -0.206 F 
ATOM     82  C   UNL     1      -1.467  -8.591   4.878  1.00  0.00     0.059 A 
ATOM     83  C   UNL     1       0.400  -7.114   5.351  1.00  0.00     0.059 A 
ATOM     84  F   UNL     1       0.067  -4.792   5.382  1.00  0.00    -0.206 F 
ATOM     85  C   UNL     1      -0.121  -8.398   5.191  1.00  0.00     0.060 A 
BRANCH  85  86
ATOM     86  S   UNL     1       0.948  -9.846   5.345  1.00  0.00     0.124 S 
ATOM     87  O   UNL     1       0.472 -10.433   6.592  1.00  0.00    -0.237 OA
ATOM     88  O   UNL     1       0.632 -10.587   4.128  1.00  0.00    -0.237 OA
ATOM     89  O   UNL     1       2.289  -9.270   5.389  1.00  0.00    -0.744 OA
ENDBRANCH  85  86
ENDBRANCH  53  78
BRANCH  65  90
ATOM     90  C   UNL     1      -7.309  -3.977   8.593  1.00  0.00     0.058 A 
ATOM     91  C   UNL     1      -6.757  -4.022   9.882  1.00  0.00     0.135 A 
ATOM     92  C   UNL     1      -8.623  -4.449   8.428  1.00  0.00     0.135 A 
ATOM     93  F   UNL     1      -5.506  -3.585  10.098  1.00  0.00    -0.206 F 
ATOM     94  C   UNL     1      -7.469  -4.542  10.960  1.00  0.00     0.059 A 
ATOM     95  C   UNL     1      -9.364  -4.941   9.496  1.00  0.00     0.059 A 
ATOM     96  F   UNL     1      -9.207  -4.415   7.219  1.00  0.00    -0.206 F 
ATOM     97  C   UNL     1      -8.773  -4.999  10.756  1.00  0.00     0.060 A 
BRANCH  97  98
ATOM     98  S   UNL     1      -9.692  -5.651  12.166  1.00  0.00     0.124 S 
ATOM     99  O   UNL     1      -9.027  -6.932  12.383  1.00  0.00    -0.237 OA
ATOM    100  O   UNL     1      -9.458  -4.635  13.188  1.00  0.00    -0.237 OA
ATOM    101  O   UNL     1     -11.063  -5.731  11.672  1.00  0.00    -0.744 OA
ENDBRANCH  97  98
ENDBRANCH  65  90
ENDBRANCH  39  40
ENDBRANCH  32  34
ENDBRANCH  31  32
ENDBRANCH  30  31
ENDBRANCH  29  30
ENDBRANCH  28  29
ENDBRANCH  27  28
ENDBRANCH  26  27
ENDBRANCH  25  26
ENDBRANCH  24  25
ENDBRANCH   1  24
TORSDOF 29
