REMARK SMILES CCc1cc(Oc2cncc(C(=O)OCCOCCOCCOCCOC(=O)c3ccc(-c4c5nc(c(-c6c(F)cc(S(=O)(=O)[O-])cc6F)c6ccc([nH]6)c(-c6c(F)cc(S(=O)(=O)[O-])cc6F)c6nc(c(-c7c(F)cc(S(=O)(=O)[O-])cc7F)c7ccc4[nH]7)C=C6)C=C5)cc3)n2)ccc1Cl
REMARK SMILES IDX 20 1 19 2 18 3 17 4 16 5 15 6 14 7 12 8 13 9 11 10 7 11 8 12
REMARK SMILES IDX 95 13 9 14 10 15 6 16 5 17 3 18 4 19 98 20 97 21 99 22 96 23
REMARK SMILES IDX 2 24 1 25 21 26 22 27 23 28 24 29 25 30 26 31 27 32 28 33
REMARK SMILES IDX 29 34 30 35 94 36 31 37 93 38 32 39 33 40 34 41 87 42 35 43
REMARK SMILES IDX 92 44 86 45 88 46 36 47 91 48 85 49 84 50 37 52 71 53 50 54
REMARK SMILES IDX 70 55 51 56 54 57 69 58 89 59 52 60 53 61 68 63 90 64 55 65
REMARK SMILES IDX 38 66 39 67 48 68 40 69 41 70 47 71 49 72 42 73 43 74 44 75
REMARK SMILES IDX 45 76 46 77 72 78 73 79 82 80 74 81 75 82 81 83 83 84 76 85
REMARK SMILES IDX 77 86 78 87 79 88 80 89 56 90 57 91 66 92 58 93 59 94 65 95
REMARK SMILES IDX 67 96 60 97 61 98 62 99 63 100 64 101
REMARK H PARENT 88 51 54 62
REMARK Flexibility Score: inf
ROOT
ATOM      1  O   UNL     1       5.344  -8.204   2.547  1.00  0.00    -0.377 OA
ENDROOT
BRANCH   1   2
ATOM      2  C   UNL     1       4.551  -8.382   3.713  1.00  0.00     0.188 C 
BRANCH   2   3
ATOM      3  C   UNL     1       4.417  -9.754   4.415  1.00  0.00     0.188 C 
BRANCH   3   4
ATOM      4  O   UNL     1       5.153 -10.806   3.823  1.00  0.00    -0.376 OA
BRANCH   4   5
ATOM      5  C   UNL     1       4.476 -11.833   3.126  1.00  0.00     0.202 C 
BRANCH   5   6
ATOM      6  C   UNL     1       3.599 -11.459   1.921  1.00  0.00     0.261 C 
BRANCH   6   7
ATOM      7  O   UNL     1       2.765 -10.307   2.089  1.00  0.00    -0.458 OA
BRANCH   7   8
ATOM      8  C   UNL     1       1.656 -10.449   2.848  1.00  0.00     0.358 C 
ATOM      9  O   UNL     1       1.301 -11.466   3.425  1.00  0.00    -0.244 OA
BRANCH   8  10
ATOM     10  C   UNL     1       1.048  -9.113   3.075  1.00  0.00     0.170 A 
ATOM     11  C   UNL     1       0.653  -6.939   2.437  1.00  0.00     0.238 A 
ATOM     12  C   UNL     1       0.083  -6.695   3.686  1.00  0.00     0.179 A 
ATOM     13  N   UNL     1       1.124  -8.164   2.104  1.00  0.00    -0.203 NA
ATOM     14  N   UNL     1       0.033  -7.628   4.673  1.00  0.00    -0.257 NA
ATOM     15  C   UNL     1       0.531  -8.844   4.335  1.00  0.00     0.147 A 
BRANCH  11  16
ATOM     16  O   UNL     1       0.695  -6.003   1.430  1.00  0.00    -0.437 OA
BRANCH  16  17
ATOM     17  C   UNL     1       1.068  -4.705   1.704  1.00  0.00     0.129 A 
ATOM     18  C   UNL     1       0.966  -2.366   0.900  1.00  0.00    -0.026 A 
ATOM     19  C   UNL     1       0.641  -3.743   0.779  1.00  0.00     0.052 A 
ATOM     20  C   UNL     1       1.719  -1.986   2.021  1.00  0.00     0.044 A 
ATOM     21  C   UNL     1       2.175  -2.955   2.930  1.00  0.00     0.024 A 
ATOM     22  Cl  UNL     1       2.156  -0.362   2.406  1.00  0.00    -0.084 Cl
ATOM     23  C   UNL     1       1.877  -4.308   2.761  1.00  0.00     0.049 A 
BRANCH  18  24
ATOM     24  C   UNL     1       0.451  -1.493  -0.229  1.00  0.00     0.034 C 
ATOM     25  C   UNL     1       0.799  -0.015  -0.325  1.00  0.00     0.009 C 
ENDBRANCH  18  24
ENDBRANCH  16  17
ENDBRANCH  11  16
ENDBRANCH   8  10
ENDBRANCH   7   8
ENDBRANCH   6   7
ENDBRANCH   5   6
ENDBRANCH   4   5
ENDBRANCH   3   4
ENDBRANCH   2   3
ENDBRANCH   1   2
BRANCH   1  26
ATOM     26  C   UNL     1       6.474  -9.033   2.311  1.00  0.00     0.188 C 
BRANCH  26  27
ATOM     27  C   UNL     1       7.443  -9.333   3.474  1.00  0.00     0.188 C 
BRANCH  27  28
ATOM     28  O   UNL     1       7.054  -8.746   4.707  1.00  0.00    -0.376 OA
BRANCH  28  29
ATOM     29  C   UNL     1       7.791  -7.619   5.146  1.00  0.00     0.202 C 
BRANCH  29  30
ATOM     30  C   UNL     1       7.784  -6.367   4.255  1.00  0.00     0.261 C 
BRANCH  30  31
ATOM     31  O   UNL     1       8.144  -6.553   2.878  1.00  0.00    -0.460 OA
BRANCH  31  32
ATOM     32  C   UNL     1       9.413  -6.920   2.604  1.00  0.00     0.338 C 
ATOM     33  O   UNL     1      10.309  -7.123   3.409  1.00  0.00    -0.246 OA
BRANCH  32  34
ATOM     34  C   UNL     1       9.484  -7.222   1.159  1.00  0.00     0.060 A 
ATOM     35  C   UNL     1       9.815  -8.519   0.742  1.00  0.00     0.016 A 
ATOM     36  C   UNL     1       9.199  -6.229   0.220  1.00  0.00     0.016 A 
ATOM     37  C   UNL     1       9.888  -8.816  -0.620  1.00  0.00     0.010 A 
ATOM     38  C   UNL     1       9.295  -6.522  -1.142  1.00  0.00     0.010 A 
ATOM     39  C   UNL     1       9.670  -7.809  -1.569  1.00  0.00    -0.014 A 
BRANCH  39  40
ATOM     40  C   UNL     1      10.024  -8.039  -2.992  1.00  0.00     0.031 A 
ATOM     41  C   UNL     1      11.352  -7.529  -3.483  1.00  0.00     0.074 A 
ATOM     42  C   UNL     1       9.193  -8.686  -3.828  1.00  0.00     0.049 A 
ATOM     43  N   UNL     1      11.854  -7.546  -4.690  1.00  0.00    -0.248 NA
ATOM     44  C   UNL     1      12.229  -6.912  -2.474  1.00  0.00     0.031 C 
ATOM     45  C   UNL     1       7.899  -9.258  -3.461  1.00  0.00     0.029 A 
ATOM     46  N   UNL     1       9.314  -8.958  -5.169  1.00  0.00    -0.354 N 
ATOM     47  C   UNL     1      13.098  -6.934  -4.588  1.00  0.00     0.074 A 
ATOM     48  C   UNL     1      13.262  -6.530  -3.209  1.00  0.00     0.031 C 
ATOM     49  C   UNL     1       7.336  -9.800  -4.556  1.00  0.00     0.029 A 
ATOM     50  C   UNL     1       8.212  -9.581  -5.707  1.00  0.00     0.049 A 
ATOM     51  H   UNL     1      10.113  -8.729  -5.695  1.00  0.00     0.167 HD
ATOM     52  C   UNL     1      14.023  -6.733  -5.556  1.00  0.00     0.037 A 
ATOM     53  C   UNL     1       7.934  -9.910  -6.985  1.00  0.00     0.037 A 
ATOM     54  C   UNL     1      13.850  -7.135  -6.928  1.00  0.00     0.049 A 
ATOM     55  C   UNL     1       8.950  -9.612  -8.061  1.00  0.00     0.074 A 
ATOM     56  C   UNL     1      14.735  -6.995  -7.982  1.00  0.00     0.029 A 
ATOM     57  N   UNL     1      12.713  -7.743  -7.439  1.00  0.00    -0.354 N 
ATOM     58  N   UNL     1      10.134  -9.058  -7.950  1.00  0.00    -0.248 NA
ATOM     59  C   UNL     1       8.592  -9.986  -9.438  1.00  0.00     0.031 C 
ATOM     60  C   UNL     1      14.110  -7.463  -9.142  1.00  0.00     0.029 A 
ATOM     61  C   UNL     1      12.861  -7.958  -8.799  1.00  0.00     0.049 A 
ATOM     62  H   UNL     1      11.917  -7.986  -6.912  1.00  0.00     0.167 HD
ATOM     63  C   UNL     1      10.675  -9.048  -9.233  1.00  0.00     0.074 A 
ATOM     64  C   UNL     1       9.692  -9.659 -10.103  1.00  0.00     0.031 C 
ATOM     65  C   UNL     1      11.877  -8.578  -9.652  1.00  0.00     0.037 A 
BRANCH  52  66
ATOM     66  C   UNL     1      15.291  -6.019  -5.173  1.00  0.00     0.058 A 
ATOM     67  C   UNL     1      16.260  -6.615  -4.350  1.00  0.00     0.135 A 
ATOM     68  C   UNL     1      15.553  -4.728  -5.662  1.00  0.00     0.135 A 
ATOM     69  F   UNL     1      16.054  -7.838  -3.838  1.00  0.00    -0.206 F 
ATOM     70  C   UNL     1      17.431  -5.947  -4.005  1.00  0.00     0.059 A 
ATOM     71  C   UNL     1      16.731  -4.055  -5.355  1.00  0.00     0.059 A 
ATOM     72  F   UNL     1      14.658  -4.109  -6.448  1.00  0.00    -0.206 F 
ATOM     73  C   UNL     1      17.658  -4.668  -4.515  1.00  0.00     0.060 A 
BRANCH  73  74
ATOM     74  S   UNL     1      19.187  -3.820  -4.066  1.00  0.00     0.124 S 
ATOM     75  O   UNL     1      18.950  -3.517  -2.658  1.00  0.00    -0.237 OA
ATOM     76  O   UNL     1      20.197  -4.839  -4.332  1.00  0.00    -0.237 OA
ATOM     77  O   UNL     1      19.213  -2.666  -4.959  1.00  0.00    -0.744 OA
ENDBRANCH  73  74
ENDBRANCH  52  66
BRANCH  53  78
ATOM     78  C   UNL     1       6.631 -10.545  -7.326  1.00  0.00     0.058 A 
ATOM     79  C   UNL     1       6.563 -11.871  -7.777  1.00  0.00     0.135 A 
ATOM     80  C   UNL     1       5.425  -9.834  -7.212  1.00  0.00     0.135 A 
ATOM     81  F   UNL     1       7.688 -12.590  -7.918  1.00  0.00    -0.206 F 
ATOM     82  C   UNL     1       5.352 -12.467  -8.115  1.00  0.00     0.059 A 
ATOM     83  C   UNL     1       4.198 -10.417  -7.516  1.00  0.00     0.059 A 
ATOM     84  F   UNL     1       5.431  -8.563  -6.781  1.00  0.00    -0.206 F 
ATOM     85  C   UNL     1       4.173 -11.732  -7.976  1.00  0.00     0.060 A 
BRANCH  85  86
ATOM     86  S   UNL     1       2.603 -12.534  -8.368  1.00  0.00     0.124 S 
ATOM     87  O   UNL     1       2.679 -12.637  -9.821  1.00  0.00    -0.237 OA
ATOM     88  O   UNL     1       2.710 -13.790  -7.632  1.00  0.00    -0.237 OA
ATOM     89  O   UNL     1       1.609 -11.597  -7.854  1.00  0.00    -0.744 OA
ENDBRANCH  85  86
ENDBRANCH  53  78
BRANCH  65  90
ATOM     90  C   UNL     1      12.225  -8.743 -11.109  1.00  0.00     0.058 A 
ATOM     91  C   UNL     1      11.597  -7.992 -12.114  1.00  0.00     0.135 A 
ATOM     92  C   UNL     1      13.251  -9.623 -11.495  1.00  0.00     0.135 A 
ATOM     93  F   UNL     1      10.607  -7.140 -11.803  1.00  0.00    -0.206 F 
ATOM     94  C   UNL     1      11.955  -8.125 -13.453  1.00  0.00     0.059 A 
ATOM     95  C   UNL     1      13.648  -9.748 -12.823  1.00  0.00     0.059 A 
ATOM     96  F   UNL     1      13.895 -10.357 -10.574  1.00  0.00    -0.206 F 
ATOM     97  C   UNL     1      12.986  -9.003 -13.797  1.00  0.00     0.060 A 
BRANCH  97  98
ATOM     98  S   UNL     1      13.465  -9.137 -15.532  1.00  0.00     0.124 S 
ATOM     99  O   UNL     1      12.328  -9.856 -16.097  1.00  0.00    -0.237 OA
ATOM    100  O   UNL     1      13.592  -7.738 -15.929  1.00  0.00    -0.237 OA
ATOM    101  O   UNL     1      14.718  -9.885 -15.483  1.00  0.00    -0.744 OA
ENDBRANCH  97  98
ENDBRANCH  65  90
ENDBRANCH  39  40
ENDBRANCH  32  34
ENDBRANCH  31  32
ENDBRANCH  30  31
ENDBRANCH  29  30
ENDBRANCH  28  29
ENDBRANCH  27  28
ENDBRANCH  26  27
ENDBRANCH   1  26
TORSDOF 26
