REMARK SMILES O=C(OCCOCCOCCOCCOC(=O)c1[nH]ncc1C[NH+]1CCC([N@H+]2CCC[C@@H](C(=O)N3CCCC3)C2)CC1)c1ccc(-c2c3nc(c(-c4c(F)cc(S(=O)(=O)[O-])cc4F)c4ccc([nH]4)c(-c4c(F)cc(S(=O)(=O)[O-])cc4F)c4nc(c(-c5c(F)cc(S(=O)(=O)[O-])cc5F)c5ccc2[nH]5)C=C4)C=C3)cc1
REMARK SMILES IDX 10 1 9 2 8 3 7 4 6 5 5 6 4 7 3 8 2 9 1 10 43 11 44 12 108 13
REMARK SMILES IDX 45 14 107 15 46 16 47 17 48 18 101 19 49 20 106 21 100 22
REMARK SMILES IDX 102 23 50 24 105 25 99 26 98 27 51 29 85 30 64 31 84 32
REMARK SMILES IDX 65 33 68 34 83 35 103 36 66 37 67 38 82 40 104 41 69 42
REMARK SMILES IDX 52 43 53 44 62 45 54 46 55 47 61 48 63 49 56 50 57 51 58 52
REMARK SMILES IDX 59 53 60 54 86 55 87 56 96 57 88 58 89 59 95 60 97 61 90 62
REMARK SMILES IDX 91 63 92 64 93 65 94 66 70 67 71 68 80 69 72 70 73 71 79 72
REMARK SMILES IDX 81 73 74 74 75 75 76 76 77 77 78 78 11 79 12 80 13 81 14 82
REMARK SMILES IDX 15 83 16 84 17 85 18 86 19 87 22 88 20 89 21 91 23 92 24 93
REMARK SMILES IDX 25 94 42 95 26 97 41 98 27 99 28 100 29 101 40 102 30 104
REMARK SMILES IDX 32 105 31 106 33 107 34 108 35 109 36 110 39 111 37 112
REMARK SMILES IDX 38 113
REMARK H PARENT 102 28 68 39 19 90 24 96 28 103
REMARK Flexibility Score: inf
ROOT
ATOM      1  C   UNL     1       4.054   3.437  -1.221  1.00  0.00     0.188 C 
ENDROOT
BRANCH   1   2
ATOM      2  O   UNL     1       2.648   3.643  -1.152  1.00  0.00    -0.377 OA
BRANCH   2   3
ATOM      3  C   UNL     1       1.914   2.622  -0.479  1.00  0.00     0.188 C 
BRANCH   3   4
ATOM      4  C   UNL     1       2.353   1.183  -0.772  1.00  0.00     0.188 C 
BRANCH   4   5
ATOM      5  O   UNL     1       3.676   0.942  -0.302  1.00  0.00    -0.376 OA
BRANCH   5   6
ATOM      6  C   UNL     1       4.563   0.177  -1.117  1.00  0.00     0.202 C 
BRANCH   6   7
ATOM      7  C   UNL     1       4.244  -1.310  -1.205  1.00  0.00     0.261 C 
BRANCH   7   8
ATOM      8  O   UNL     1       2.883  -1.626  -0.885  1.00  0.00    -0.460 OA
BRANCH   8   9
ATOM      9  C   UNL     1       2.317  -1.790   0.336  1.00  0.00     0.338 C 
ATOM     10  O   UNL     1       1.116  -2.055   0.384  1.00  0.00    -0.246 OA
BRANCH   9  11
ATOM     11  C   UNL     1       3.052  -1.677   1.632  1.00  0.00     0.060 A 
ATOM     12  C   UNL     1       4.158  -0.865   1.870  1.00  0.00     0.016 A 
ATOM     13  C   UNL     1       2.525  -2.388   2.722  1.00  0.00     0.016 A 
ATOM     14  C   UNL     1       4.781  -0.805   3.099  1.00  0.00     0.010 A 
ATOM     15  C   UNL     1       3.126  -2.318   3.982  1.00  0.00     0.010 A 
ATOM     16  C   UNL     1       4.280  -1.548   4.155  1.00  0.00    -0.014 A 
BRANCH  16  17
ATOM     17  C   UNL     1       5.146  -1.654   5.335  1.00  0.00     0.031 A 
ATOM     18  C   UNL     1       5.917  -2.927   5.496  1.00  0.00     0.074 A 
ATOM     19  C   UNL     1       5.384  -0.564   6.086  1.00  0.00     0.049 A 
ATOM     20  N   UNL     1       6.700  -3.301   6.465  1.00  0.00    -0.248 NA
ATOM     21  C   UNL     1       5.801  -3.910   4.400  1.00  0.00     0.031 C 
ATOM     22  C   UNL     1       4.808   0.766   5.854  1.00  0.00     0.029 A 
ATOM     23  N   UNL     1       6.202  -0.386   7.166  1.00  0.00    -0.354 N 
ATOM     24  C   UNL     1       7.141  -4.571   6.114  1.00  0.00     0.074 A 
ATOM     25  C   UNL     1       6.532  -4.914   4.853  1.00  0.00     0.031 C 
ATOM     26  C   UNL     1       5.298   1.623   6.765  1.00  0.00     0.029 A 
ATOM     27  C   UNL     1       6.149   0.884   7.688  1.00  0.00     0.049 A 
ATOM     28  H   UNL     1       6.773  -1.099   7.534  1.00  0.00     0.167 HD
ATOM     29  C   UNL     1       7.984  -5.371   6.802  1.00  0.00     0.037 A 
ATOM     30  C   UNL     1       6.691   1.364   8.823  1.00  0.00     0.037 A 
ATOM     31  C   UNL     1       8.566  -4.976   8.054  1.00  0.00     0.049 A 
ATOM     32  C   UNL     1       7.509   0.405   9.647  1.00  0.00     0.074 A 
ATOM     33  C   UNL     1       9.352  -5.711   8.916  1.00  0.00     0.029 A 
ATOM     34  N   UNL     1       8.418  -3.711   8.615  1.00  0.00    -0.354 N 
ATOM     35  N   UNL     1       7.833  -0.841   9.380  1.00  0.00    -0.248 NA
ATOM     36  C   UNL     1       8.022   0.900  10.928  1.00  0.00     0.031 C 
ATOM     37  C   UNL     1       9.641  -4.905  10.023  1.00  0.00     0.029 A 
ATOM     38  C   UNL     1       9.088  -3.647   9.820  1.00  0.00     0.049 A 
ATOM     39  H   UNL     1       7.910  -2.970   8.211  1.00  0.00     0.167 HD
ATOM     40  C   UNL     1       8.609  -1.272  10.447  1.00  0.00     0.074 A 
ATOM     41  C   UNL     1       8.720  -0.144  11.353  1.00  0.00     0.031 C 
ATOM     42  C   UNL     1       9.176  -2.485  10.671  1.00  0.00     0.037 A 
BRANCH  29  43
ATOM     43  C   UNL     1       8.240  -6.741   6.246  1.00  0.00     0.058 A 
ATOM     44  C   UNL     1       8.998  -6.947   5.082  1.00  0.00     0.135 A 
ATOM     45  C   UNL     1       7.676  -7.868   6.866  1.00  0.00     0.135 A 
ATOM     46  F   UNL     1       9.521  -5.901   4.421  1.00  0.00    -0.206 F 
ATOM     47  C   UNL     1       9.171  -8.218   4.542  1.00  0.00     0.059 A 
ATOM     48  C   UNL     1       7.859  -9.151   6.359  1.00  0.00     0.059 A 
ATOM     49  F   UNL     1       6.920  -7.727   7.966  1.00  0.00    -0.206 F 
ATOM     50  C   UNL     1       8.599  -9.314   5.190  1.00  0.00     0.060 A 
BRANCH  50  51
ATOM     51  S   UNL     1       8.839 -10.957   4.480  1.00  0.00     0.124 S 
ATOM     52  O   UNL     1       8.014 -10.880   3.278  1.00  0.00    -0.237 OA
ATOM     53  O   UNL     1      10.281 -10.989   4.256  1.00  0.00    -0.237 OA
ATOM     54  O   UNL     1       8.348 -11.853   5.521  1.00  0.00    -0.744 OA
ENDBRANCH  50  51
ENDBRANCH  29  43
BRANCH  30  55
ATOM     55  C   UNL     1       6.408   2.753   9.278  1.00  0.00     0.058 A 
ATOM     56  C   UNL     1       7.431   3.699   9.439  1.00  0.00     0.135 A 
ATOM     57  C   UNL     1       5.099   3.159   9.594  1.00  0.00     0.135 A 
ATOM     58  F   UNL     1       8.700   3.368   9.154  1.00  0.00    -0.206 F 
ATOM     59  C   UNL     1       7.176   4.978   9.928  1.00  0.00     0.059 A 
ATOM     60  C   UNL     1       4.813   4.441  10.050  1.00  0.00     0.059 A 
ATOM     61  F   UNL     1       4.074   2.304   9.449  1.00  0.00    -0.206 F 
ATOM     62  C   UNL     1       5.862   5.338  10.236  1.00  0.00     0.060 A 
BRANCH  62  63
ATOM     63  S   UNL     1       5.541   6.995  10.876  1.00  0.00     0.124 S 
ATOM     64  O   UNL     1       6.106   6.905  12.217  1.00  0.00    -0.237 OA
ATOM     65  O   UNL     1       6.268   7.835   9.930  1.00  0.00    -0.237 OA
ATOM     66  O   UNL     1       4.086   7.104  10.810  1.00  0.00    -0.744 OA
ENDBRANCH  62  63
ENDBRANCH  30  55
BRANCH  42  67
ATOM     67  C   UNL     1      10.003  -2.622  11.914  1.00  0.00     0.058 A 
ATOM     68  C   UNL     1       9.418  -2.677  13.188  1.00  0.00     0.135 A 
ATOM     69  C   UNL     1      11.397  -2.759  11.816  1.00  0.00     0.135 A 
ATOM     70  F   UNL     1       8.090  -2.543  13.329  1.00  0.00    -0.206 F 
ATOM     71  C   UNL     1      10.193  -2.837  14.328  1.00  0.00     0.059 A 
ATOM     72  C   UNL     1      12.186  -2.957  12.940  1.00  0.00     0.059 A 
ATOM     73  F   UNL     1      11.998  -2.726  10.615  1.00  0.00    -0.206 F 
ATOM     74  C   UNL     1      11.576  -2.981  14.193  1.00  0.00     0.060 A 
BRANCH  74  75
ATOM     75  S   UNL     1      12.565  -3.229  15.679  1.00  0.00     0.124 S 
ATOM     76  O   UNL     1      12.535  -1.898  16.276  1.00  0.00    -0.237 OA
ATOM     77  O   UNL     1      11.811  -4.259  16.386  1.00  0.00    -0.237 OA
ATOM     78  O   UNL     1      13.861  -3.655  15.158  1.00  0.00    -0.744 OA
ENDBRANCH  74  75
ENDBRANCH  42  67
ENDBRANCH  16  17
ENDBRANCH   9  11
ENDBRANCH   8   9
ENDBRANCH   7   8
ENDBRANCH   6   7
ENDBRANCH   5   6
ENDBRANCH   4   5
ENDBRANCH   3   4
ENDBRANCH   2   3
ENDBRANCH   1   2
BRANCH   1  79
ATOM     79  C   UNL     1       4.872   3.429   0.095  1.00  0.00     0.188 C 
BRANCH  79  80
ATOM     80  O   UNL     1       4.081   3.298   1.257  1.00  0.00    -0.376 OA
BRANCH  80  81
ATOM     81  C   UNL     1       3.725   4.445   2.012  1.00  0.00     0.202 C 
BRANCH  81  82
ATOM     82  C   UNL     1       3.322   5.796   1.381  1.00  0.00     0.261 C 
BRANCH  82  83
ATOM     83  O   UNL     1       3.752   6.069   0.045  1.00  0.00    -0.459 OA
BRANCH  83  84
ATOM     84  C   UNL     1       5.035   6.476  -0.157  1.00  0.00     0.356 C 
ATOM     85  O   UNL     1       5.846   6.724   0.704  1.00  0.00    -0.244 OA
BRANCH  84  86
ATOM     86  C   UNL     1       5.318   6.349  -1.570  1.00  0.00     0.152 A 
ATOM     87  N   UNL     1       6.463   5.787  -2.062  1.00  0.00    -0.271 N 
ATOM     88  C   UNL     1       4.570   6.689  -2.689  1.00  0.00     0.059 A 
ATOM     89  N   UNL     1       6.415   5.542  -3.386  1.00  0.00    -0.183 NA
ATOM     90  H   UNL     1       7.247   5.582  -1.503  1.00  0.00     0.190 HD
ATOM     91  C   UNL     1       5.266   6.103  -3.769  1.00  0.00     0.145 A 
BRANCH  88  92
ATOM     92  C   UNL     1       3.361   7.559  -2.738  1.00  0.00     0.303 C 
BRANCH  92  93
ATOM     93  N   UNL     1       3.763   8.980  -2.666  1.00  0.00    -0.331 N 
ATOM     94  C   UNL     1       4.534   9.274  -1.450  1.00  0.00     0.268 C 
ATOM     95  C   UNL     1       4.503   9.406  -3.861  1.00  0.00     0.268 C 
ATOM     96  H   UNL     1       2.898   9.519  -2.625  1.00  0.00     0.348 HD
ATOM     97  C   UNL     1       4.829  10.743  -1.285  1.00  0.00     0.126 C 
ATOM     98  C   UNL     1       4.774  10.906  -3.817  1.00  0.00     0.126 C 
ATOM     99  C   UNL     1       5.525  11.308  -2.534  1.00  0.00     0.195 C 
BRANCH  99 100
ATOM    100  N   UNL     1       5.754  12.773  -2.483  1.00  0.00    -0.331 N 
ATOM    101  C   UNL     1       4.514  13.521  -2.223  1.00  0.00     0.262 C 
ATOM    102  C   UNL     1       6.771  13.102  -1.465  1.00  0.00     0.275 C 
ATOM    103  H   UNL     1       6.095  13.056  -3.402  1.00  0.00     0.348 HD
ATOM    104  C   UNL     1       4.770  15.019  -2.283  1.00  0.00     0.062 C 
ATOM    105  C   UNL     1       7.072  14.610  -1.355  1.00  0.00     0.134 C 
ATOM    106  C   UNL     1       5.779  15.419  -1.214  1.00  0.00     0.025 C 
BRANCH 105 107
ATOM    107  C   UNL     1       7.960  14.742  -0.121  1.00  0.00     0.231 C 
ATOM    108  O   UNL     1       7.483  14.956   0.994  1.00  0.00    -0.274 OA
ATOM    109  N   UNL     1       9.288  14.413  -0.279  1.00  0.00    -0.342 N 
ATOM    110  C   UNL     1      10.116  14.562  -1.458  1.00  0.00     0.119 C 
ATOM    111  C   UNL     1      10.047  13.876   0.835  1.00  0.00     0.119 C 
ATOM    112  C   UNL     1      11.216  13.538  -1.255  1.00  0.00     0.023 C 
ATOM    113  C   UNL     1      11.412  13.516   0.258  1.00  0.00     0.023 C 
ENDBRANCH 105 107
ENDBRANCH  99 100
ENDBRANCH  92  93
ENDBRANCH  88  92
ENDBRANCH  84  86
ENDBRANCH  83  84
ENDBRANCH  82  83
ENDBRANCH  81  82
ENDBRANCH  80  81
ENDBRANCH  79  80
ENDBRANCH   1  79
TORSDOF 27
