REMARK SMILES CC1(C)CCC[C@H]1NS(=O)(=O)c1cccc(C(=O)OCCOCCOCCOCCOC(=O)c2ccc(-c3c4nc(c(-c5c(F)cc(S(=O)(=O)[O-])cc5F)c5ccc([nH]5)c(-c5c(F)cc(S(=O)(=O)[O-])cc5F)c5nc(c(-c6c(F)cc(S(=O)(=O)[O-])cc6F)c6ccc3[nH]6)C=C5)C=C4)cc2)c1
REMARK SMILES IDX 25 1 24 2 23 3 22 4 21 5 20 6 19 7 17 8 18 9 16 10 12 11
REMARK SMILES IDX 13 12 100 13 14 14 15 15 9 16 10 17 11 18 8 19 7 21 1 22
REMARK SMILES IDX 2 23 3 24 4 25 5 26 6 27 26 28 27 29 28 30 29 31 30 32 31 33
REMARK SMILES IDX 32 34 33 35 34 36 35 37 99 38 36 39 98 40 37 41 38 42 39 43
REMARK SMILES IDX 92 44 40 45 97 46 91 47 93 48 41 49 96 50 90 51 89 52 42 54
REMARK SMILES IDX 76 55 55 56 75 57 56 58 59 59 74 60 94 61 57 62 58 63 73 65
REMARK SMILES IDX 95 66 60 67 43 68 44 69 53 70 45 71 46 72 52 73 54 74 47 75
REMARK SMILES IDX 48 76 49 77 50 78 51 79 77 80 78 81 87 82 79 83 80 84 86 85
REMARK SMILES IDX 88 86 81 87 82 88 83 89 84 90 85 91 61 92 62 93 71 94 63 95
REMARK SMILES IDX 64 96 70 97 72 98 65 99 66 100 67 101 68 102 69 103
REMARK H PARENT 8 20 93 53 59 64
REMARK Flexibility Score: inf
ROOT
ATOM      1  O   UNL     1      -1.142   8.592   3.122  1.00  0.00    -0.377 OA
ENDROOT
BRANCH   1   2
ATOM      2  C   UNL     1      -0.298   8.570   1.987  1.00  0.00     0.188 C 
BRANCH   2   3
ATOM      3  C   UNL     1      -0.711   9.581   0.905  1.00  0.00     0.188 C 
BRANCH   3   4
ATOM      4  O   UNL     1      -1.762  10.455   1.316  1.00  0.00    -0.376 OA
BRANCH   4   5
ATOM      5  C   UNL     1      -3.053  10.186   0.777  1.00  0.00     0.202 C 
BRANCH   5   6
ATOM      6  C   UNL     1      -3.770   8.944   1.326  1.00  0.00     0.261 C 
BRANCH   6   7
ATOM      7  O   UNL     1      -3.111   7.696   1.061  1.00  0.00    -0.460 OA
BRANCH   7   8
ATOM      8  C   UNL     1      -2.935   7.309  -0.220  1.00  0.00     0.338 C 
ATOM      9  O   UNL     1      -3.325   7.869  -1.228  1.00  0.00    -0.246 OA
BRANCH   8  10
ATOM     10  C   UNL     1      -1.946   6.206  -0.189  1.00  0.00     0.061 A 
ATOM     11  C   UNL     1      -0.971   4.295   0.915  1.00  0.00     0.083 A 
ATOM     12  C   UNL     1       0.170   4.401   0.115  1.00  0.00     0.022 A 
ATOM     13  C   UNL     1      -2.028   5.200   0.776  1.00  0.00     0.037 A 
ATOM     14  C   UNL     1       0.226   5.380  -0.879  1.00  0.00     0.002 A 
ATOM     15  C   UNL     1      -0.837   6.274  -1.043  1.00  0.00     0.016 A 
BRANCH  11  16
ATOM     16  S   UNL     1      -1.163   2.991   2.093  1.00  0.00     0.240 S 
ATOM     17  O   UNL     1      -2.552   2.600   2.092  1.00  0.00    -0.207 OA
ATOM     18  O   UNL     1      -0.494   3.406   3.307  1.00  0.00    -0.207 OA
BRANCH  16  19
ATOM     19  N   UNL     1      -0.267   1.691   1.512  1.00  0.00    -0.208 NA
ATOM     20  H   UNL     1       0.707   1.993   1.537  1.00  0.00     0.141 HD
BRANCH  19  21
ATOM     21  C   UNL     1      -0.463   1.084   0.185  1.00  0.00     0.075 C 
ATOM     22  C   UNL     1       1.920   0.120   0.692  1.00  0.00     0.013 C 
ATOM     23  C   UNL     1       0.583  -0.049  -0.047  1.00  0.00    -0.019 C 
ATOM     24  C   UNL     1       0.897  -0.173  -1.552  1.00  0.00     0.013 C 
ATOM     25  C   UNL     1      -0.160  -1.295   0.461  1.00  0.00     0.008 C 
ATOM     26  C   UNL     1      -1.592  -1.101  -0.009  1.00  0.00     0.002 C 
ATOM     27  C   UNL     1      -1.829   0.406   0.015  1.00  0.00     0.020 C 
ENDBRANCH  19  21
ENDBRANCH  16  19
ENDBRANCH  11  16
ENDBRANCH   8  10
ENDBRANCH   7   8
ENDBRANCH   6   7
ENDBRANCH   5   6
ENDBRANCH   4   5
ENDBRANCH   3   4
ENDBRANCH   2   3
ENDBRANCH   1   2
BRANCH   1  28
ATOM     28  C   UNL     1      -0.929   9.609   4.098  1.00  0.00     0.188 C 
BRANCH  28  29
ATOM     29  C   UNL     1      -0.151  10.902   3.766  1.00  0.00     0.188 C 
BRANCH  29  30
ATOM     30  O   UNL     1       1.086  10.692   3.083  1.00  0.00    -0.376 OA
BRANCH  30  31
ATOM     31  C   UNL     1       2.271  10.893   3.844  1.00  0.00     0.202 C 
BRANCH  31  32
ATOM     32  C   UNL     1       2.627   9.702   4.742  1.00  0.00     0.261 C 
BRANCH  32  33
ATOM     33  O   UNL     1       1.699   9.461   5.809  1.00  0.00    -0.460 OA
BRANCH  33  34
ATOM     34  C   UNL     1       1.523  10.461   6.700  1.00  0.00     0.338 C 
ATOM     35  O   UNL     1       2.113  11.525   6.739  1.00  0.00    -0.246 OA
BRANCH  34  36
ATOM     36  C   UNL     1       0.352  10.125   7.530  1.00  0.00     0.060 A 
ATOM     37  C   UNL     1      -0.695  11.049   7.622  1.00  0.00     0.016 A 
ATOM     38  C   UNL     1       0.299   8.911   8.219  1.00  0.00     0.016 A 
ATOM     39  C   UNL     1      -1.784  10.778   8.450  1.00  0.00     0.010 A 
ATOM     40  C   UNL     1      -0.784   8.648   9.057  1.00  0.00     0.010 A 
ATOM     41  C   UNL     1      -1.810   9.597   9.204  1.00  0.00    -0.014 A 
BRANCH  41  42
ATOM     42  C   UNL     1      -2.797   9.442  10.296  1.00  0.00     0.031 A 
ATOM     43  C   UNL     1      -2.387   9.847  11.685  1.00  0.00     0.074 A 
ATOM     44  C   UNL     1      -4.023   8.943  10.063  1.00  0.00     0.049 A 
ATOM     45  N   UNL     1      -3.060   9.775  12.803  1.00  0.00    -0.248 NA
ATOM     46  C   UNL     1      -1.032  10.404  11.831  1.00  0.00     0.031 C 
ATOM     47  C   UNL     1      -4.534   8.528   8.758  1.00  0.00     0.029 A 
ATOM     48  N   UNL     1      -5.056   8.689  10.929  1.00  0.00    -0.354 N 
ATOM     49  C   UNL     1      -2.211  10.272  13.785  1.00  0.00     0.074 A 
ATOM     50  C   UNL     1      -0.965  10.616  13.136  1.00  0.00     0.031 C 
ATOM     51  C   UNL     1      -5.782   8.053   8.913  1.00  0.00     0.029 A 
ATOM     52  C   UNL     1      -6.147   8.111  10.328  1.00  0.00     0.049 A 
ATOM     53  H   UNL     1      -5.019   8.901  11.890  1.00  0.00     0.167 HD
ATOM     54  C   UNL     1      -2.451  10.433  15.107  1.00  0.00     0.037 A 
ATOM     55  C   UNL     1      -7.300   7.664  10.866  1.00  0.00     0.037 A 
ATOM     56  C   UNL     1      -3.687  10.078  15.749  1.00  0.00     0.049 A 
ATOM     57  C   UNL     1      -7.530   7.811  12.348  1.00  0.00     0.074 A 
ATOM     58  C   UNL     1      -4.041  10.227  17.078  1.00  0.00     0.029 A 
ATOM     59  N   UNL     1      -4.768   9.489  15.109  1.00  0.00    -0.354 N 
ATOM     60  N   UNL     1      -6.739   8.328  13.259  1.00  0.00    -0.248 NA
ATOM     61  C   UNL     1      -8.811   7.319  12.875  1.00  0.00     0.031 C 
ATOM     62  C   UNL     1      -5.321   9.688  17.251  1.00  0.00     0.029 A 
ATOM     63  C   UNL     1      -5.782   9.245  16.020  1.00  0.00     0.049 A 
ATOM     64  H   UNL     1      -4.808   9.276  14.149  1.00  0.00     0.167 HD
ATOM     65  C   UNL     1      -7.434   8.244  14.461  1.00  0.00     0.074 A 
ATOM     66  C   UNL     1      -8.714   7.635  14.160  1.00  0.00     0.031 C 
ATOM     67  C   UNL     1      -7.051   8.639  15.701  1.00  0.00     0.037 A 
BRANCH  54  68
ATOM     68  C   UNL     1      -1.335  10.993  15.943  1.00  0.00     0.058 A 
ATOM     69  C   UNL     1      -0.959  12.343  15.861  1.00  0.00     0.135 A 
ATOM     70  C   UNL     1      -0.631  10.167  16.834  1.00  0.00     0.135 A 
ATOM     71  F   UNL     1      -1.585  13.169  15.009  1.00  0.00    -0.206 F 
ATOM     72  C   UNL     1       0.099  12.848  16.610  1.00  0.00     0.059 A 
ATOM     73  C   UNL     1       0.414  10.657  17.610  1.00  0.00     0.059 A 
ATOM     74  F   UNL     1      -0.948   8.868  16.945  1.00  0.00    -0.206 F 
ATOM     75  C   UNL     1       0.783  11.995  17.478  1.00  0.00     0.060 A 
BRANCH  75  76
ATOM     76  S   UNL     1       2.164  12.659  18.432  1.00  0.00     0.124 S 
ATOM     77  O   UNL     1       3.203  12.754  17.412  1.00  0.00    -0.237 OA
ATOM     78  O   UNL     1       1.632  13.930  18.914  1.00  0.00    -0.237 OA
ATOM     79  O   UNL     1       2.384  11.646  19.460  1.00  0.00    -0.744 OA
ENDBRANCH  75  76
ENDBRANCH  54  68
BRANCH  55  80
ATOM     80  C   UNL     1      -8.325   7.034   9.993  1.00  0.00     0.058 A 
ATOM     81  C   UNL     1      -9.525   7.694   9.692  1.00  0.00     0.135 A 
ATOM     82  C   UNL     1      -8.117   5.765   9.431  1.00  0.00     0.135 A 
ATOM     83  F   UNL     1      -9.775   8.904  10.217  1.00  0.00    -0.206 F 
ATOM     84  C   UNL     1     -10.486   7.118   8.868  1.00  0.00     0.059 A 
ATOM     85  C   UNL     1      -9.053   5.177   8.586  1.00  0.00     0.059 A 
ATOM     86  F   UNL     1      -6.982   5.096   9.684  1.00  0.00    -0.206 F 
ATOM     87  C   UNL     1     -10.239   5.860   8.315  1.00  0.00     0.060 A 
BRANCH  87  88
ATOM     88  S   UNL     1     -11.465   5.149   7.195  1.00  0.00     0.124 S 
ATOM     89  O   UNL     1     -12.514   4.747   8.125  1.00  0.00    -0.237 OA
ATOM     90  O   UNL     1     -11.781   6.280   6.328  1.00  0.00    -0.237 OA
ATOM     91  O   UNL     1     -10.740   4.059   6.551  1.00  0.00    -0.744 OA
ENDBRANCH  87  88
ENDBRANCH  55  80
BRANCH  67  92
ATOM     92  C   UNL     1      -8.033   8.453  16.824  1.00  0.00     0.058 A 
ATOM     93  C   UNL     1      -8.293   7.189  17.375  1.00  0.00     0.135 A 
ATOM     94  C   UNL     1      -8.674   9.564  17.398  1.00  0.00     0.135 A 
ATOM     95  F   UNL     1      -7.709   6.095  16.861  1.00  0.00    -0.206 F 
ATOM     96  C   UNL     1      -9.170   7.029  18.443  1.00  0.00     0.059 A 
ATOM     97  C   UNL     1      -9.536   9.430  18.482  1.00  0.00     0.059 A 
ATOM     98  F   UNL     1      -8.451  10.797  16.917  1.00  0.00    -0.206 F 
ATOM     99  C   UNL     1      -9.786   8.156  18.991  1.00  0.00     0.060 A 
BRANCH  99 100
ATOM    100  S   UNL     1     -10.894   7.942  20.401  1.00  0.00     0.124 S 
ATOM    101  O   UNL     1     -12.090   7.410  19.757  1.00  0.00    -0.237 OA
ATOM    102  O   UNL     1     -10.156   7.004  21.242  1.00  0.00    -0.237 OA
ATOM    103  O   UNL     1     -11.019   9.292  20.942  1.00  0.00    -0.744 OA
ENDBRANCH  99 100
ENDBRANCH  67  92
ENDBRANCH  41  42
ENDBRANCH  34  36
ENDBRANCH  33  34
ENDBRANCH  32  33
ENDBRANCH  31  32
ENDBRANCH  30  31
ENDBRANCH  29  30
ENDBRANCH  28  29
ENDBRANCH   1  28
TORSDOF 26
