REMARK SMILES O=C(OCCOCCOCCOCCOC(=O)[C@H]1[C@H]2CC[C@H](CC2)[C@H]1C(=O)Nc1ccc(C(=O)N2CCCC2)cc1)c1ccc(-c2c3nc(c(-c4c(F)cc(S(=O)(=O)[O-])cc4F)c4ccc([nH]4)c(-c4c(F)cc(S(=O)(=O)[O-])cc4F)c4nc(c(-c5c(F)cc(S(=O)(=O)[O-])cc5F)c5ccc2[nH]5)C=C4)C=C3)cc1
REMARK SMILES IDX 9 1 8 2 7 3 6 4 5 5 4 6 3 7 2 8 1 9 42 10 43 11 107 12 44 13
REMARK SMILES IDX 106 14 45 15 46 16 47 17 100 18 48 19 105 20 99 21 101 22
REMARK SMILES IDX 49 23 104 24 98 25 97 26 50 28 84 29 63 30 83 31 64 32 67 33
REMARK SMILES IDX 82 34 102 35 65 36 66 37 81 39 103 40 68 41 51 42 52 43
REMARK SMILES IDX 61 44 53 45 54 46 60 47 62 48 55 49 56 50 57 51 58 52 59 53
REMARK SMILES IDX 85 54 86 55 95 56 87 57 88 58 94 59 96 60 89 61 90 62 91 63
REMARK SMILES IDX 92 64 93 65 69 66 70 67 79 68 71 69 72 70 78 71 80 72 73 73
REMARK SMILES IDX 74 74 75 75 76 76 77 77 10 78 11 79 12 80 13 81 14 82 15 83
REMARK SMILES IDX 16 84 17 85 18 86 19 87 25 88 24 89 20 90 22 91 23 92 21 93
REMARK SMILES IDX 26 94 27 95 28 96 29 98 30 99 41 100 31 101 40 102 32 103
REMARK SMILES IDX 33 104 34 105 35 106 36 107 39 108 37 109 38 110
REMARK H PARENT 101 27 67 38 28 97
REMARK Flexibility Score: inf
ROOT
ATOM      1  O   UNL     1       3.311  -3.131  -1.754  1.00  0.00    -0.377 OA
ENDROOT
BRANCH   1   2
ATOM      2  C   UNL     1       2.392  -2.057  -1.582  1.00  0.00     0.188 C 
BRANCH   2   3
ATOM      3  C   UNL     1       2.594  -1.248  -0.313  1.00  0.00     0.188 C 
BRANCH   3   4
ATOM      4  O   UNL     1       3.917  -0.733  -0.249  1.00  0.00    -0.376 OA
BRANCH   4   5
ATOM      5  C   UNL     1       4.636  -0.977   0.954  1.00  0.00     0.202 C 
BRANCH   5   6
ATOM      6  C   UNL     1       4.259  -0.058   2.110  1.00  0.00     0.261 C 
BRANCH   6   7
ATOM      7  O   UNL     1       2.874   0.309   2.106  1.00  0.00    -0.460 OA
BRANCH   7   8
ATOM      8  C   UNL     1       2.271   1.342   1.470  1.00  0.00     0.338 C 
ATOM      9  O   UNL     1       1.067   1.501   1.676  1.00  0.00    -0.246 OA
BRANCH   8  10
ATOM     10  C   UNL     1       2.927   2.271   0.487  1.00  0.00     0.060 A 
ATOM     11  C   UNL     1       4.114   2.040  -0.216  1.00  0.00     0.016 A 
ATOM     12  C   UNL     1       2.220   3.449   0.184  1.00  0.00     0.016 A 
ATOM     13  C   UNL     1       4.567   2.896  -1.209  1.00  0.00     0.010 A 
ATOM     14  C   UNL     1       2.702   4.361  -0.758  1.00  0.00     0.010 A 
ATOM     15  C   UNL     1       3.894   4.086  -1.437  1.00  0.00    -0.014 A 
BRANCH  15  16
ATOM     16  C   UNL     1       4.648   5.155  -2.103  1.00  0.00     0.031 A 
ATOM     17  C   UNL     1       5.387   6.099  -1.204  1.00  0.00     0.074 A 
ATOM     18  C   UNL     1       4.774   5.185  -3.438  1.00  0.00     0.049 A 
ATOM     19  N   UNL     1       6.015   7.202  -1.489  1.00  0.00    -0.248 NA
ATOM     20  C   UNL     1       5.429   5.734   0.227  1.00  0.00     0.031 C 
ATOM     21  C   UNL     1       4.237   4.183  -4.361  1.00  0.00     0.029 A 
ATOM     22  N   UNL     1       5.402   6.089  -4.248  1.00  0.00    -0.354 N 
ATOM     23  C   UNL     1       6.481   7.687  -0.272  1.00  0.00     0.074 A 
ATOM     24  C   UNL     1       6.079   6.756   0.753  1.00  0.00     0.031 C 
ATOM     25  C   UNL     1       4.540   4.545  -5.619  1.00  0.00     0.029 A 
ATOM     26  C   UNL     1       5.225   5.834  -5.586  1.00  0.00     0.049 A 
ATOM     27  H   UNL     1       5.930   6.847  -3.906  1.00  0.00     0.167 HD
ATOM     28  C   UNL     1       7.164   8.829  -0.044  1.00  0.00     0.037 A 
ATOM     29  C   UNL     1       5.533   6.603  -6.647  1.00  0.00     0.037 A 
ATOM     30  C   UNL     1       7.523   9.725  -1.106  1.00  0.00     0.049 A 
ATOM     31  C   UNL     1       6.195   7.929  -6.373  1.00  0.00     0.074 A 
ATOM     32  C   UNL     1       8.141  10.956  -1.034  1.00  0.00     0.029 A 
ATOM     33  N   UNL     1       7.280   9.469  -2.452  1.00  0.00    -0.354 N 
ATOM     34  N   UNL     1       6.546   8.448  -5.217  1.00  0.00    -0.248 NA
ATOM     35  C   UNL     1       6.492   8.780  -7.530  1.00  0.00     0.031 C 
ATOM     36  C   UNL     1       8.224  11.467  -2.334  1.00  0.00     0.029 A 
ATOM     37  C   UNL     1       7.720  10.525  -3.223  1.00  0.00     0.049 A 
ATOM     38  H   UNL     1       6.855   8.653  -2.803  1.00  0.00     0.167 HD
ATOM     39  C   UNL     1       7.130   9.674  -5.505  1.00  0.00     0.074 A 
ATOM     40  C   UNL     1       7.083   9.817  -6.950  1.00  0.00     0.031 C 
ATOM     41  C   UNL     1       7.662  10.598  -4.665  1.00  0.00     0.037 A 
BRANCH  28  42
ATOM     42  C   UNL     1       7.437   9.188   1.391  1.00  0.00     0.058 A 
ATOM     43  C   UNL     1       8.331   8.460   2.194  1.00  0.00     0.135 A 
ATOM     44  C   UNL     1       6.718  10.230   1.998  1.00  0.00     0.135 A 
ATOM     45  F   UNL     1       9.015   7.425   1.678  1.00  0.00    -0.206 F 
ATOM     46  C   UNL     1       8.468   8.723   3.554  1.00  0.00     0.059 A 
ATOM     47  C   UNL     1       6.862  10.531   3.350  1.00  0.00     0.059 A 
ATOM     48  F   UNL     1       5.835  10.947   1.286  1.00  0.00    -0.206 F 
ATOM     49  C   UNL     1       7.722   9.755   4.125  1.00  0.00     0.060 A 
BRANCH  49  50
ATOM     50  S   UNL     1       7.873  10.056   5.899  1.00  0.00     0.124 S 
ATOM     51  O   UNL     1       7.160   8.907   6.450  1.00  0.00    -0.237 OA
ATOM     52  O   UNL     1       9.320  10.055   6.093  1.00  0.00    -0.237 OA
ATOM     53  O   UNL     1       7.220  11.348   6.083  1.00  0.00    -0.744 OA
ENDBRANCH  49  50
ENDBRANCH  28  42
BRANCH  29  54
ATOM     54  C   UNL     1       5.160   6.162  -8.019  1.00  0.00     0.058 A 
ATOM     55  C   UNL     1       6.131   5.816  -8.969  1.00  0.00     0.135 A 
ATOM     56  C   UNL     1       3.811   6.028  -8.393  1.00  0.00     0.135 A 
ATOM     57  F   UNL     1       7.434   5.934  -8.669  1.00  0.00    -0.206 F 
ATOM     58  C   UNL     1       5.782   5.349 -10.234  1.00  0.00     0.059 A 
ATOM     59  C   UNL     1       3.437   5.539  -9.641  1.00  0.00     0.059 A 
ATOM     60  F   UNL     1       2.838   6.337  -7.521  1.00  0.00    -0.206 F 
ATOM     61  C   UNL     1       4.431   5.205 -10.557  1.00  0.00     0.060 A 
BRANCH  61  62
ATOM     62  S   UNL     1       3.990   4.531 -12.175  1.00  0.00     0.124 S 
ATOM     63  O   UNL     1       4.363   5.626 -13.062  1.00  0.00    -0.237 OA
ATOM     64  O   UNL     1       4.827   3.337 -12.245  1.00  0.00    -0.237 OA
ATOM     65  O   UNL     1       2.558   4.276 -12.055  1.00  0.00    -0.744 OA
ENDBRANCH  61  62
ENDBRANCH  29  54
BRANCH  41  66
ATOM     66  C   UNL     1       8.291  11.808  -5.288  1.00  0.00     0.058 A 
ATOM     67  C   UNL     1       7.520  12.853  -5.814  1.00  0.00     0.135 A 
ATOM     68  C   UNL     1       9.686  11.963  -5.247  1.00  0.00     0.135 A 
ATOM     69  F   UNL     1       6.184  12.744  -5.878  1.00  0.00    -0.206 F 
ATOM     70  C   UNL     1       8.114  14.016  -6.287  1.00  0.00     0.059 A 
ATOM     71  C   UNL     1      10.298  13.129  -5.686  1.00  0.00     0.059 A 
ATOM     72  F   UNL     1      10.461  10.992  -4.739  1.00  0.00    -0.206 F 
ATOM     73  C   UNL     1       9.503  14.148  -6.208  1.00  0.00     0.060 A 
BRANCH  73  74
ATOM     74  S   UNL     1      10.255  15.694  -6.754  1.00  0.00     0.124 S 
ATOM     75  O   UNL     1      10.129  15.584  -8.204  1.00  0.00    -0.237 OA
ATOM     76  O   UNL     1       9.406  16.695  -6.116  1.00  0.00    -0.237 OA
ATOM     77  O   UNL     1      11.617  15.612  -6.234  1.00  0.00    -0.744 OA
ENDBRANCH  73  74
ENDBRANCH  41  66
ENDBRANCH  15  16
ENDBRANCH   8  10
ENDBRANCH   7   8
ENDBRANCH   6   7
ENDBRANCH   5   6
ENDBRANCH   4   5
ENDBRANCH   3   4
ENDBRANCH   2   3
ENDBRANCH   1   2
BRANCH   1  78
ATOM     78  C   UNL     1       4.708  -2.821  -1.736  1.00  0.00     0.188 C 
BRANCH  78  79
ATOM     79  C   UNL     1       5.292  -1.687  -2.608  1.00  0.00     0.188 C 
BRANCH  79  80
ATOM     80  O   UNL     1       4.336  -0.837  -3.226  1.00  0.00    -0.376 OA
BRANCH  80  81
ATOM     81  C   UNL     1       4.295  -0.939  -4.646  1.00  0.00     0.202 C 
BRANCH  81  82
ATOM     82  C   UNL     1       3.660  -2.225  -5.182  1.00  0.00     0.261 C 
BRANCH  82  83
ATOM     83  O   UNL     1       3.904  -3.389  -4.369  1.00  0.00    -0.463 OA
BRANCH  83  84
ATOM     84  C   UNL     1       4.909  -4.222  -4.647  1.00  0.00     0.310 C 
ATOM     85  O   UNL     1       5.786  -3.945  -5.467  1.00  0.00    -0.252 OA
BRANCH  84  86
ATOM     86  C   UNL     1       4.920  -5.584  -3.885  1.00  0.00     0.115 C 
ATOM     87  C   UNL     1       4.256  -6.178  -2.558  1.00  0.00     0.004 C 
ATOM     88  C   UNL     1       4.918  -6.689  -4.919  1.00  0.00     0.096 C 
ATOM     89  C   UNL     1       3.162  -7.305  -2.664  1.00  0.00     0.005 C 
ATOM     90  C   UNL     1       5.404  -6.998  -1.909  1.00  0.00     0.005 C 
ATOM     91  C   UNL     1       4.910  -8.072  -4.207  1.00  0.00     0.002 C 
ATOM     92  C   UNL     1       3.505  -8.359  -3.707  1.00  0.00     0.005 C 
ATOM     93  C   UNL     1       5.846  -8.066  -2.944  1.00  0.00     0.005 C 
BRANCH  88  94
ATOM     94  C   UNL     1       3.967  -6.489  -6.129  1.00  0.00     0.228 C 
ATOM     95  O   UNL     1       4.454  -6.735  -7.248  1.00  0.00    -0.274 OA
ATOM     96  N   UNL     1       2.633  -6.196  -6.169  1.00  0.00    -0.326 N 
ATOM     97  H   UNL     1       2.308  -6.228  -7.098  1.00  0.00     0.169 HD
BRANCH  96  98
ATOM     98  C   UNL     1       1.575  -5.862  -5.296  1.00  0.00     0.041 A 
ATOM     99  C   UNL     1       0.298  -6.345  -5.590  1.00  0.00     0.027 A 
ATOM    100  C   UNL     1       1.677  -5.139  -4.130  1.00  0.00     0.027 A 
ATOM    101  C   UNL     1      -0.723  -6.333  -4.607  1.00  0.00     0.016 A 
ATOM    102  C   UNL     1       0.668  -5.068  -3.166  1.00  0.00     0.016 A 
ATOM    103  C   UNL     1      -0.507  -5.765  -3.340  1.00  0.00     0.040 A 
BRANCH 103 104
ATOM    104  C   UNL     1      -1.302  -6.235  -2.154  1.00  0.00     0.253 C 
ATOM    105  O   UNL     1      -2.080  -7.175  -2.322  1.00  0.00    -0.269 OA
ATOM    106  N   UNL     1      -0.944  -5.820  -0.878  1.00  0.00    -0.339 N 
ATOM    107  C   UNL     1      -0.717  -4.480  -0.359  1.00  0.00     0.120 C 
ATOM    108  C   UNL     1      -0.732  -6.803   0.171  1.00  0.00     0.120 C 
ATOM    109  C   UNL     1       0.354  -4.708   0.698  1.00  0.00     0.023 C 
ATOM    110  C   UNL     1      -0.086  -6.031   1.324  1.00  0.00     0.023 C 
ENDBRANCH 103 104
ENDBRANCH  96  98
ENDBRANCH  88  94
ENDBRANCH  84  86
ENDBRANCH  83  84
ENDBRANCH  82  83
ENDBRANCH  81  82
ENDBRANCH  80  81
ENDBRANCH  79  80
ENDBRANCH  78  79
ENDBRANCH   1  78
TORSDOF 26
