REMARK SMILES COC(=O)c1ccc2c(c1)=N[C@H](c1cn(CCC(=O)OCCOCCOCCOCCOC(=O)c3ccc(-c4c5nc(c(-c6c(F)cc(S(=O)(=O)[O-])cc6F)c6ccc([nH]6)c(-c6c(F)cc(S(=O)(=O)[O-])cc6F)c6nc(c(-c7c(F)cc(S(=O)(=O)[O-])cc7F)c7ccc4[nH]7)C=C6)C=C5)cc3)c3ccccc13)N=2
REMARK SMILES IDX 25 1 24 2 23 3 22 4 21 5 20 6 18 7 19 8 17 9 16 10 15 11
REMARK SMILES IDX 13 12 14 13 106 14 101 15 105 16 102 17 104 18 103 19 12 20
REMARK SMILES IDX 5 21 6 22 10 23 7 24 9 25 8 26 11 27 107 28 3 29 4 30 2 31
REMARK SMILES IDX 1 32 26 33 27 34 28 35 29 36 30 37 31 38 32 39 33 40 34 41
REMARK SMILES IDX 35 42 36 43 100 44 37 45 99 46 38 47 39 48 40 49 93 50 41 51
REMARK SMILES IDX 98 52 92 53 94 54 42 55 97 56 91 57 90 58 43 60 77 61 56 62
REMARK SMILES IDX 76 63 57 64 60 65 75 66 95 67 58 68 59 69 74 71 96 72 61 73
REMARK SMILES IDX 44 74 45 75 54 76 46 77 47 78 53 79 55 80 48 81 49 82 50 83
REMARK SMILES IDX 51 84 52 85 78 86 79 87 88 88 80 89 81 90 87 91 89 92 82 93
REMARK SMILES IDX 83 94 84 95 85 96 86 97 62 98 63 99 72 100 64 101 65 102
REMARK SMILES IDX 71 103 73 104 66 105 67 106 68 107 69 108 70 109
REMARK H PARENT 94 59 60 70
REMARK Flexibility Score: inf
ROOT
ATOM      1  C   UNL     1       0.308   7.958  10.401  1.00  0.00     0.188 C 
ENDROOT
BRANCH   1   2
ATOM      2  C   UNL     1      -0.282   8.750  11.572  1.00  0.00     0.188 C 
BRANCH   2   3
ATOM      3  O   UNL     1      -1.647   9.082  11.706  1.00  0.00    -0.376 OA
BRANCH   3   4
ATOM      4  C   UNL     1      -2.520   9.482  10.669  1.00  0.00     0.202 C 
BRANCH   4   5
ATOM      5  C   UNL     1      -2.168  10.396   9.486  1.00  0.00     0.261 C 
BRANCH   5   6
ATOM      6  O   UNL     1      -0.955  10.120   8.767  1.00  0.00    -0.463 OA
BRANCH   6   7
ATOM      7  C   UNL     1       0.067  10.976   9.006  1.00  0.00     0.307 C 
ATOM      8  O   UNL     1       0.041  11.839   9.881  1.00  0.00    -0.252 OA
BRANCH   7   9
ATOM      9  C   UNL     1       1.280  10.826   8.103  1.00  0.00     0.144 C 
BRANCH   9  10
ATOM     10  C   UNL     1       1.811   9.469   7.626  1.00  0.00     0.134 C 
BRANCH  10  11
ATOM     11  N   UNL     1       1.163   8.953   6.442  1.00  0.00    -0.346 N 
ATOM     12  C   UNL     1       0.528   8.677   4.360  1.00  0.00     0.024 A 
ATOM     13  C   UNL     1       1.640   8.983   5.152  1.00  0.00     0.094 A 
ATOM     14  C   UNL     1      -0.599   8.868   5.257  1.00  0.00     0.007 A 
ATOM     15  C   UNL     1      -0.005   8.242   6.358  1.00  0.00     0.048 A 
ATOM     16  C   UNL     1      -1.976   8.669   5.096  1.00  0.00     0.011 A 
ATOM     17  C   UNL     1      -0.394   6.947   6.699  1.00  0.00     0.027 A 
ATOM     18  C   UNL     1      -2.433   7.401   5.427  1.00  0.00     0.001 A 
ATOM     19  C   UNL     1      -1.576   6.515   6.084  1.00  0.00     0.002 A 
BRANCH  12  20
ATOM     20  C   UNL     1       0.545   8.054   2.986  1.00  0.00     0.255 C 
ATOM     21  C   UNL     1       0.413   3.619   1.975  1.00  0.00     0.062 A 
ATOM     22  C   UNL     1      -0.973   3.979   1.691  1.00  0.00     0.018 A 
ATOM     23  C   UNL     1       1.290   4.509   2.476  1.00  0.00     0.046 A 
ATOM     24  C   UNL     1      -1.472   5.210   1.897  1.00  0.00     0.031 A 
ATOM     25  C   UNL     1       0.846   5.901   2.656  1.00  0.00     0.087 A 
ATOM     26  C   UNL     1      -0.556   6.258   2.377  1.00  0.00     0.086 A 
ATOM     27  N   UNL     1       1.551   6.927   2.984  1.00  0.00    -0.252 NA
ATOM     28  N   UNL     1      -0.777   7.513   2.547  1.00  0.00    -0.252 NA
BRANCH  21  29
ATOM     29  C   UNL     1       0.942   2.242   1.723  1.00  0.00     0.337 C 
ATOM     30  O   UNL     1       1.853   1.728   2.355  1.00  0.00    -0.246 OA
BRANCH  29  31
ATOM     31  O   UNL     1       0.314   1.681   0.654  1.00  0.00    -0.465 OA
ATOM     32  C   UNL     1       0.821   0.397   0.275  1.00  0.00     0.282 C 
ENDBRANCH  29  31
ENDBRANCH  21  29
ENDBRANCH  12  20
ENDBRANCH  10  11
ENDBRANCH   9  10
ENDBRANCH   7   9
ENDBRANCH   6   7
ENDBRANCH   5   6
ENDBRANCH   4   5
ENDBRANCH   3   4
ENDBRANCH   2   3
ENDBRANCH   1   2
BRANCH   1  33
ATOM     33  O   UNL     1      -0.081   6.645  10.073  1.00  0.00    -0.377 OA
BRANCH  33  34
ATOM     34  C   UNL     1      -1.464   6.477   9.829  1.00  0.00     0.188 C 
BRANCH  34  35
ATOM     35  C   UNL     1      -2.128   5.932  11.086  1.00  0.00     0.188 C 
BRANCH  35  36
ATOM     36  O   UNL     1      -1.229   5.555  12.116  1.00  0.00    -0.376 OA
BRANCH  36  37
ATOM     37  C   UNL     1      -0.276   4.516  11.914  1.00  0.00     0.202 C 
BRANCH  37  38
ATOM     38  C   UNL     1       0.005   3.764  10.588  1.00  0.00     0.261 C 
BRANCH  38  39
ATOM     39  O   UNL     1      -1.078   3.666   9.661  1.00  0.00    -0.460 OA
BRANCH  39  40
ATOM     40  C   UNL     1      -1.967   2.641   9.727  1.00  0.00     0.338 C 
ATOM     41  O   UNL     1      -1.894   1.637  10.370  1.00  0.00    -0.246 OA
BRANCH  40  42
ATOM     42  C   UNL     1      -3.176   3.202   9.053  1.00  0.00     0.060 A 
ATOM     43  C   UNL     1      -3.077   3.766   7.785  1.00  0.00     0.016 A 
ATOM     44  C   UNL     1      -4.280   3.483   9.865  1.00  0.00     0.016 A 
ATOM     45  C   UNL     1      -3.994   4.749   7.418  1.00  0.00     0.010 A 
ATOM     46  C   UNL     1      -5.163   4.507   9.505  1.00  0.00     0.010 A 
ATOM     47  C   UNL     1      -4.968   5.208   8.316  1.00  0.00    -0.014 A 
BRANCH  47  48
ATOM     48  C   UNL     1      -5.846   6.313   7.868  1.00  0.00     0.031 A 
ATOM     49  C   UNL     1      -6.552   6.011   6.590  1.00  0.00     0.074 A 
ATOM     50  C   UNL     1      -6.082   7.451   8.564  1.00  0.00     0.049 A 
ATOM     51  N   UNL     1      -6.633   6.725   5.513  1.00  0.00    -0.248 NA
ATOM     52  C   UNL     1      -7.121   4.655   6.457  1.00  0.00     0.031 C 
ATOM     53  C   UNL     1      -5.560   7.761   9.893  1.00  0.00     0.029 A 
ATOM     54  N   UNL     1      -6.896   8.534   8.308  1.00  0.00    -0.354 N 
ATOM     55  C   UNL     1      -7.462   6.001   4.662  1.00  0.00     0.074 A 
ATOM     56  C   UNL     1      -7.578   4.675   5.208  1.00  0.00     0.031 C 
ATOM     57  C   UNL     1      -6.199   8.835  10.399  1.00  0.00     0.029 A 
ATOM     58  C   UNL     1      -7.181   9.305   9.442  1.00  0.00     0.049 A 
ATOM     59  H   UNL     1      -7.243   8.745   7.412  1.00  0.00     0.167 HD
ATOM     60  C   UNL     1      -8.239   6.603   3.725  1.00  0.00     0.037 A 
ATOM     61  C   UNL     1      -8.201  10.186   9.655  1.00  0.00     0.037 A 
ATOM     62  C   UNL     1      -7.729   7.879   3.322  1.00  0.00     0.049 A 
ATOM     63  C   UNL     1      -8.734  10.584   8.329  1.00  0.00     0.074 A 
ATOM     64  C   UNL     1      -6.548   8.301   2.743  1.00  0.00     0.029 A 
ATOM     65  N   UNL     1      -8.345   9.009   3.798  1.00  0.00    -0.354 N 
ATOM     66  N   UNL     1      -8.094  11.335   7.477  1.00  0.00    -0.248 NA
ATOM     67  C   UNL     1      -9.799   9.770   7.763  1.00  0.00     0.031 C 
ATOM     68  C   UNL     1      -6.301   9.590   3.287  1.00  0.00     0.029 A 
ATOM     69  C   UNL     1      -7.365   9.910   4.131  1.00  0.00     0.049 A 
ATOM     70  H   UNL     1      -9.315   9.149   3.885  1.00  0.00     0.167 HD
ATOM     71  C   UNL     1      -8.357  10.764   6.241  1.00  0.00     0.074 A 
ATOM     72  C   UNL     1      -9.479   9.858   6.470  1.00  0.00     0.031 C 
ATOM     73  C   UNL     1      -7.469  10.867   5.211  1.00  0.00     0.037 A 
BRANCH  60  74
ATOM     74  C   UNL     1      -9.645   6.138   3.471  1.00  0.00     0.058 A 
ATOM     75  C   UNL     1     -10.315   6.480   2.287  1.00  0.00     0.135 A 
ATOM     76  C   UNL     1     -10.438   5.548   4.485  1.00  0.00     0.135 A 
ATOM     77  F   UNL     1      -9.660   7.093   1.289  1.00  0.00    -0.206 F 
ATOM     78  C   UNL     1     -11.682   6.254   2.123  1.00  0.00     0.059 A 
ATOM     79  C   UNL     1     -11.783   5.256   4.321  1.00  0.00     0.059 A 
ATOM     80  F   UNL     1      -9.956   5.310   5.713  1.00  0.00    -0.206 F 
ATOM     81  C   UNL     1     -12.405   5.640   3.146  1.00  0.00     0.060 A 
BRANCH  81  82
ATOM     82  S   UNL     1     -14.181   5.404   2.964  1.00  0.00     0.124 S 
ATOM     83  O   UNL     1     -14.662   6.780   3.002  1.00  0.00    -0.237 OA
ATOM     84  O   UNL     1     -14.263   4.730   1.672  1.00  0.00    -0.237 OA
ATOM     85  O   UNL     1     -14.531   4.580   4.117  1.00  0.00    -0.744 OA
ENDBRANCH  81  82
ENDBRANCH  60  74
BRANCH  61  86
ATOM     86  C   UNL     1      -8.934  10.466  10.939  1.00  0.00     0.058 A 
ATOM     87  C   UNL     1      -9.889  11.499  11.055  1.00  0.00     0.135 A 
ATOM     88  C   UNL     1      -8.896   9.566  12.027  1.00  0.00     0.135 A 
ATOM     89  F   UNL     1     -10.037  12.397  10.069  1.00  0.00    -0.206 F 
ATOM     90  C   UNL     1     -10.767  11.601  12.150  1.00  0.00     0.059 A 
ATOM     91  C   UNL     1      -9.736   9.664  13.135  1.00  0.00     0.059 A 
ATOM     92  F   UNL     1      -8.107   8.485  12.017  1.00  0.00    -0.206 F 
ATOM     93  C   UNL     1     -10.695  10.662  13.178  1.00  0.00     0.060 A 
BRANCH  93  94
ATOM     94  S   UNL     1     -11.937  10.646  14.494  1.00  0.00     0.124 S 
ATOM     95  O   UNL     1     -11.656  11.893  15.197  1.00  0.00    -0.237 OA
ATOM     96  O   UNL     1     -13.183  10.605  13.738  1.00  0.00    -0.237 OA
ATOM     97  O   UNL     1     -11.627   9.428  15.239  1.00  0.00    -0.744 OA
ENDBRANCH  93  94
ENDBRANCH  61  86
BRANCH  73  98
ATOM     98  C   UNL     1      -6.369  11.895   5.308  1.00  0.00     0.058 A 
ATOM     99  C   UNL     1      -5.343  11.880   6.269  1.00  0.00     0.135 A 
ATOM    100  C   UNL     1      -6.263  12.837   4.271  1.00  0.00     0.135 A 
ATOM    101  F   UNL     1      -5.318  10.955   7.241  1.00  0.00    -0.206 F 
ATOM    102  C   UNL     1      -4.275  12.781   6.214  1.00  0.00     0.059 A 
ATOM    103  C   UNL     1      -5.193  13.720   4.179  1.00  0.00     0.059 A 
ATOM    104  F   UNL     1      -7.184  12.865   3.292  1.00  0.00    -0.206 F 
ATOM    105  C   UNL     1      -4.206  13.693   5.160  1.00  0.00     0.060 A 
BRANCH 105 106
ATOM    106  S   UNL     1      -2.784  14.803   5.046  1.00  0.00     0.124 S 
ATOM    107  O   UNL     1      -3.001  15.696   6.179  1.00  0.00    -0.237 OA
ATOM    108  O   UNL     1      -1.655  13.886   5.168  1.00  0.00    -0.237 OA
ATOM    109  O   UNL     1      -2.937  15.420   3.730  1.00  0.00    -0.744 OA
ENDBRANCH 105 106
ENDBRANCH  73  98
ENDBRANCH  47  48
ENDBRANCH  40  42
ENDBRANCH  39  40
ENDBRANCH  38  39
ENDBRANCH  37  38
ENDBRANCH  36  37
ENDBRANCH  35  36
ENDBRANCH  34  35
ENDBRANCH  33  34
ENDBRANCH   1  33
TORSDOF 28
