REMARK SMILES Cc1ccccc1NC(=S)NN1C(=O)CS[C@H]1c1ccccc1C(=O)OCCOCCOCCOCCOC(=O)c1ccc(-c2c3nc(c(-c4c(F)cc(S(=O)(=O)[O-])cc4F)c4ccc([nH]4)c(-c4c(F)cc(S(=O)(=O)[O-])cc4F)c4nc(c(-c5c(F)cc(S(=O)(=O)[O-])cc5F)c5ccc2[nH]5)C=C4)C=C3)cc1
REMARK SMILES IDX 31 1 30 2 29 3 28 4 27 5 26 6 24 7 25 8 23 9 18 10 19 11
REMARK SMILES IDX 20 12 22 13 21 14 17 15 12 16 13 17 14 18 15 19 16 20 11 21
REMARK SMILES IDX 9 23 10 24 8 25 7 27 1 28 2 29 3 30 4 31 6 32 5 33 32 34
REMARK SMILES IDX 33 35 34 36 35 37 36 38 37 39 38 40 39 41 40 42 41 43 42 44
REMARK SMILES IDX 106 45 43 46 105 47 44 48 45 49 46 50 99 51 47 52 104 53
REMARK SMILES IDX 98 54 100 55 48 56 103 57 97 58 96 59 49 61 83 62 62 63
REMARK SMILES IDX 82 64 63 65 66 66 81 67 101 68 64 69 65 70 80 72 102 73
REMARK SMILES IDX 67 74 50 75 51 76 60 77 52 78 53 79 59 80 61 81 54 82 55 83
REMARK SMILES IDX 56 84 57 85 58 86 84 87 85 88 94 89 86 90 87 91 93 92 95 93
REMARK SMILES IDX 88 94 89 95 90 96 91 97 92 98 68 99 69 100 78 101 70 102
REMARK SMILES IDX 71 103 77 104 79 105 72 106 73 107 74 108 75 109 76 110
REMARK H PARENT 11 22 8 26 100 60 66 71
REMARK Flexibility Score: inf
ROOT
ATOM      1  C   UNL     1      -3.499   5.181  -3.448  1.00  0.00     0.188 C 
ENDROOT
BRANCH   1   2
ATOM      2  C   UNL     1      -2.311   5.765  -2.694  1.00  0.00     0.188 C 
BRANCH   2   3
ATOM      3  O   UNL     1      -2.406   5.238  -1.379  1.00  0.00    -0.376 OA
BRANCH   3   4
ATOM      4  C   UNL     1      -1.545   4.089  -1.109  1.00  0.00     0.202 C 
BRANCH   4   5
ATOM      5  C   UNL     1      -1.758   3.029   0.336  1.00  0.00     0.261 C 
BRANCH   5   6
ATOM      6  O   UNL     1      -2.242   3.420   2.082  1.00  0.00    -0.460 OA
BRANCH   6   7
ATOM      7  C   UNL     1      -3.091   4.438   2.940  1.00  0.00     0.338 C 
ATOM      8  O   UNL     1      -3.254   4.195   4.140  1.00  0.00    -0.246 OA
BRANCH   7   9
ATOM      9  C   UNL     1      -4.135   5.670   2.402  1.00  0.00     0.066 A 
ATOM     10  C   UNL     1      -5.284   5.281   1.676  1.00  0.00     0.001 A 
ATOM     11  C   UNL     1      -6.171   6.118   0.965  1.00  0.00     0.008 A 
ATOM     12  C   UNL     1      -5.817   7.426   0.783  1.00  0.00     0.000 A 
ATOM     13  C   UNL     1      -3.876   7.043   2.292  1.00  0.00     0.016 A 
ATOM     14  C   UNL     1      -4.669   7.883   1.434  1.00  0.00     0.001 A 
BRANCH  10  15
ATOM     15  C   UNL     1      -5.319   3.885   1.289  1.00  0.00     0.197 C 
ATOM     16  N   UNL     1      -4.035   3.529   0.729  1.00  0.00    -0.236 N 
ATOM     17  C   UNL     1      -4.023   2.078   1.004  1.00  0.00     0.252 C 
ATOM     18  O   UNL     1      -4.046   1.220   0.111  1.00  0.00    -0.272 OA
ATOM     19  C   UNL     1      -4.506   1.714   2.408  1.00  0.00     0.174 C 
ATOM     20  S   UNL     1      -5.890   2.818   2.640  1.00  0.00    -0.120 SA
BRANCH  16  21
ATOM     21  N   UNL     1      -2.707   4.829   0.727  1.00  0.00    -0.270 N 
ATOM     22  H   UNL     1      -3.078   5.655   0.342  1.00  0.00     0.191 HD
BRANCH  21  23
ATOM     23  C   UNL     1      -1.079   5.112   1.149  1.00  0.00     0.189 C 
ATOM     24  S   UNL     1      -0.735   6.799   0.919  1.00  0.00    -0.039 S 
BRANCH  23  25
ATOM     25  N   UNL     1       0.216   4.135   1.325  1.00  0.00    -0.331 N 
ATOM     26  H   UNL     1       0.882   4.850   1.211  1.00  0.00     0.169 HD
BRANCH  25  27
ATOM     27  C   UNL     1       1.418   2.830   1.554  1.00  0.00     0.043 A 
ATOM     28  C   UNL     1       4.078   3.288   0.761  1.00  0.00     0.046 C 
ATOM     29  C   UNL     1       2.916   2.589   1.466  1.00  0.00    -0.028 A 
ATOM     30  C   UNL     1       3.603   1.300   1.831  1.00  0.00     0.005 A 
ATOM     31  C   UNL     1       2.969   0.147   2.145  1.00  0.00     0.000 A 
ATOM     32  C   UNL     1       1.010   1.587   1.896  1.00  0.00     0.026 A 
ATOM     33  C   UNL     1       1.638   0.294   2.124  1.00  0.00     0.002 A 
ENDBRANCH  25  27
ENDBRANCH  23  25
ENDBRANCH  21  23
ENDBRANCH  16  21
ENDBRANCH  10  15
ENDBRANCH   7   9
ENDBRANCH   6   7
ENDBRANCH   5   6
ENDBRANCH   4   5
ENDBRANCH   3   4
ENDBRANCH   2   3
ENDBRANCH   1   2
BRANCH   1  34
ATOM     34  O   UNL     1      -3.243   4.927  -4.825  1.00  0.00    -0.377 OA
BRANCH  34  35
ATOM     35  C   UNL     1      -2.623   3.650  -5.022  1.00  0.00     0.188 C 
BRANCH  35  36
ATOM     36  C   UNL     1      -1.245   3.758  -5.670  1.00  0.00     0.188 C 
BRANCH  36  37
ATOM     37  O   UNL     1      -0.585   4.985  -5.380  1.00  0.00    -0.376 OA
BRANCH  37  38
ATOM     38  C   UNL     1      -0.728   5.981  -6.392  1.00  0.00     0.202 C 
BRANCH  38  39
ATOM     39  C   UNL     1       0.046   5.640  -7.679  1.00  0.00     0.261 C 
BRANCH  39  40
ATOM     40  O   UNL     1       1.468   5.759  -7.481  1.00  0.00    -0.460 OA
BRANCH  40  41
ATOM     41  C   UNL     1       2.105   4.572  -7.287  1.00  0.00     0.338 C 
ATOM     42  O   UNL     1       2.318   3.752  -8.169  1.00  0.00    -0.246 OA
BRANCH  41  43
ATOM     43  C   UNL     1       2.419   4.396  -5.849  1.00  0.00     0.060 A 
ATOM     44  C   UNL     1       2.680   3.117  -5.357  1.00  0.00     0.016 A 
ATOM     45  C   UNL     1       2.211   5.464  -4.969  1.00  0.00     0.016 A 
ATOM     46  C   UNL     1       2.610   2.900  -3.985  1.00  0.00     0.010 A 
ATOM     47  C   UNL     1       1.982   5.212  -3.630  1.00  0.00     0.010 A 
ATOM     48  C   UNL     1       2.160   3.928  -3.128  1.00  0.00    -0.014 A 
BRANCH  48  49
ATOM     49  C   UNL     1       1.824   3.649  -1.707  1.00  0.00     0.031 A 
ATOM     50  C   UNL     1       2.388   4.819  -0.679  1.00  0.00     0.074 A 
ATOM     51  C   UNL     1       1.071   2.476  -1.576  1.00  0.00     0.049 A 
ATOM     52  N   UNL     1       2.081   5.030   0.570  1.00  0.00    -0.248 NA
ATOM     53  C   UNL     1       3.392   5.845  -1.022  1.00  0.00     0.031 C 
ATOM     54  C   UNL     1       0.076   2.032  -2.578  1.00  0.00     0.029 A 
ATOM     55  N   UNL     1       0.772   1.544  -0.593  1.00  0.00    -0.354 N 
ATOM     56  C   UNL     1       2.691   6.086   1.213  1.00  0.00     0.074 A 
ATOM     57  C   UNL     1       3.551   6.543   0.127  1.00  0.00     0.031 C 
ATOM     58  C   UNL     1      -0.806   1.154  -2.048  1.00  0.00     0.029 A 
ATOM     59  C   UNL     1      -0.405   0.778  -0.686  1.00  0.00     0.049 A 
ATOM     60  H   UNL     1       1.382   1.419   0.170  1.00  0.00     0.167 HD
ATOM     61  C   UNL     1       2.337   6.485   2.511  1.00  0.00     0.037 A 
ATOM     62  C   UNL     1      -1.092  -0.108   0.171  1.00  0.00     0.037 A 
ATOM     63  C   UNL     1       1.388   5.578   3.407  1.00  0.00     0.049 A 
ATOM     64  C   UNL     1      -1.311   0.035   1.904  1.00  0.00     0.074 A 
ATOM     65  C   UNL     1       0.200   5.902   4.064  1.00  0.00     0.029 A 
ATOM     66  N   UNL     1       1.512   4.187   3.791  1.00  0.00    -0.354 N 
ATOM     67  N   UNL     1      -1.473   1.173   2.611  1.00  0.00    -0.248 NA
ATOM     68  C   UNL     1      -1.177  -1.037   2.911  1.00  0.00     0.031 C 
ATOM     69  C   UNL     1      -0.475   4.726   4.505  1.00  0.00     0.029 A 
ATOM     70  C   UNL     1       0.226   3.573   4.173  1.00  0.00     0.049 A 
ATOM     71  H   UNL     1       2.368   3.700   3.796  1.00  0.00     0.167 HD
ATOM     72  C   UNL     1      -0.817   1.100   3.899  1.00  0.00     0.074 A 
ATOM     73  C   UNL     1      -0.928  -0.365   4.075  1.00  0.00     0.031 C 
ATOM     74  C   UNL     1      -0.021   2.083   4.620  1.00  0.00     0.037 A 
BRANCH  61  75
ATOM     75  C   UNL     1       2.431   8.033   2.875  1.00  0.00     0.058 A 
ATOM     76  C   UNL     1       1.981   8.518   4.131  1.00  0.00     0.135 A 
ATOM     77  C   UNL     1       2.708   9.084   1.964  1.00  0.00     0.135 A 
ATOM     78  F   UNL     1       1.842   7.690   5.177  1.00  0.00    -0.206 F 
ATOM     79  C   UNL     1       1.646   9.867   4.382  1.00  0.00     0.059 A 
ATOM     80  C   UNL     1       2.453  10.441   2.217  1.00  0.00     0.059 A 
ATOM     81  F   UNL     1       3.226   8.883   0.753  1.00  0.00    -0.206 F 
ATOM     82  C   UNL     1       1.853  10.822   3.399  1.00  0.00     0.060 A 
BRANCH  82  83
ATOM     83  S   UNL     1       1.417  12.557   3.658  1.00  0.00     0.124 S 
ATOM     84  O   UNL     1       0.021  12.590   3.234  1.00  0.00    -0.237 OA
ATOM     85  O   UNL     1       1.652  12.747   5.085  1.00  0.00    -0.237 OA
ATOM     86  O   UNL     1       2.350  13.267   2.783  1.00  0.00    -0.744 OA
ENDBRANCH  82  83
ENDBRANCH  61  75
BRANCH  62  87
ATOM     87  C   UNL     1      -1.089  -1.435  -0.668  1.00  0.00     0.058 A 
ATOM     88  C   UNL     1      -2.081  -1.572  -1.668  1.00  0.00     0.135 A 
ATOM     89  C   UNL     1       0.223  -1.813  -1.089  1.00  0.00     0.135 A 
ATOM     90  F   UNL     1      -3.368  -1.354  -1.363  1.00  0.00    -0.206 F 
ATOM     91  C   UNL     1      -1.746  -1.659  -3.039  1.00  0.00     0.059 A 
ATOM     92  C   UNL     1       0.587  -1.840  -2.450  1.00  0.00     0.059 A 
ATOM     93  F   UNL     1       1.225  -1.792  -0.194  1.00  0.00    -0.206 F 
ATOM     94  C   UNL     1      -0.400  -1.659  -3.418  1.00  0.00     0.060 A 
BRANCH  94  95
ATOM     95  S   UNL     1       0.054  -0.998  -5.071  1.00  0.00     0.124 S 
ATOM     96  O   UNL     1      -0.115  -2.169  -5.921  1.00  0.00    -0.237 OA
ATOM     97  O   UNL     1      -0.921   0.075  -5.270  1.00  0.00    -0.237 OA
ATOM     98  O   UNL     1       1.430  -0.540  -4.890  1.00  0.00    -0.744 OA
ENDBRANCH  94  95
ENDBRANCH  62  87
BRANCH  74  99
ATOM     99  C   UNL     1       0.700   1.831   6.000  1.00  0.00     0.058 A 
ATOM    100  C   UNL     1       1.294   0.636   6.439  1.00  0.00     0.135 A 
ATOM    101  C   UNL     1       0.913   2.924   6.902  1.00  0.00     0.135 A 
ATOM    102  F   UNL     1       1.287  -0.466   5.676  1.00  0.00    -0.206 F 
ATOM    103  C   UNL     1       1.966   0.526   7.681  1.00  0.00     0.059 A 
ATOM    104  C   UNL     1       1.638   2.857   8.089  1.00  0.00     0.059 A 
ATOM    105  F   UNL     1       0.403   4.142   6.700  1.00  0.00    -0.206 F 
ATOM    106  C   UNL     1       2.129   1.642   8.502  1.00  0.00     0.060 A 
BRANCH 106 107
ATOM    107  S   UNL     1       2.974   1.542  10.093  1.00  0.00     0.124 S 
ATOM    108  O   UNL     1       1.909   1.049  10.961  1.00  0.00    -0.237 OA
ATOM    109  O   UNL     1       4.056   0.601   9.824  1.00  0.00    -0.237 OA
ATOM    110  O   UNL     1       3.401   2.915  10.346  1.00  0.00    -0.744 OA
ENDBRANCH 106 107
ENDBRANCH  74  99
ENDBRANCH  48  49
ENDBRANCH  41  43
ENDBRANCH  40  41
ENDBRANCH  39  40
ENDBRANCH  38  39
ENDBRANCH  37  38
ENDBRANCH  36  37
ENDBRANCH  35  36
ENDBRANCH  34  35
ENDBRANCH   1  34
TORSDOF 28
