REMARK SMILES O=C(Cc1ccc(S(=O)(=O)C[C@H]2CCCO2)cc1)OCCOCCOCCOCCOC(=O)c1ccc(-c2c3nc(c(-c4c(F)cc(S(=O)(=O)[O-])cc4F)c4ccc([nH]4)c(-c4c(F)cc(S(=O)(=O)[O-])cc4F)c4nc(c(-c5c(F)cc(S(=O)(=O)[O-])cc5F)c5ccc2[nH]5)C=C4)C=C3)cc1
REMARK SMILES IDX 24 1 23 2 22 3 21 4 20 5 19 6 2 7 1 8 3 9 4 10 5 11 18 12
REMARK SMILES IDX 6 13 17 14 7 15 8 16 9 17 10 18 11 19 12 20 13 21 16 22
REMARK SMILES IDX 14 23 15 24 25 25 26 26 27 27 28 28 29 29 30 30 31 31 32 32
REMARK SMILES IDX 33 33 34 34 35 35 99 36 36 37 98 38 37 39 38 40 39 41 92 42
REMARK SMILES IDX 40 43 97 44 91 45 93 46 41 47 96 48 90 49 89 50 42 52 76 53
REMARK SMILES IDX 55 54 75 55 56 56 59 57 74 58 94 59 57 60 58 61 73 63 95 64
REMARK SMILES IDX 60 65 43 66 44 67 53 68 45 69 46 70 52 71 54 72 47 73 48 74
REMARK SMILES IDX 49 75 50 76 51 77 77 78 78 79 87 80 79 81 80 82 86 83 88 84
REMARK SMILES IDX 81 85 82 86 83 87 84 88 85 89 61 90 62 91 71 92 63 93 64 94
REMARK SMILES IDX 70 95 72 96 65 97 66 98 67 99 68 100 69 101
REMARK H PARENT 93 51 59 62
REMARK Flexibility Score: inf
ROOT
ATOM      1  C   UNL     1       5.372   2.119   2.915  1.00  0.00     0.188 C 
ENDROOT
BRANCH   1   2
ATOM      2  C   UNL     1       4.243   1.584   2.044  1.00  0.00     0.188 C 
BRANCH   2   3
ATOM      3  O   UNL     1       4.261   0.224   1.610  1.00  0.00    -0.376 OA
BRANCH   3   4
ATOM      4  C   UNL     1       5.435  -0.397   1.113  1.00  0.00     0.202 C 
BRANCH   4   5
ATOM      5  C   UNL     1       6.176   0.205  -0.075  1.00  0.00     0.261 C 
BRANCH   5   6
ATOM      6  O   UNL     1       5.970   1.603  -0.277  1.00  0.00    -0.463 OA
BRANCH   6   7
ATOM      7  C   UNL     1       5.087   2.054  -1.203  1.00  0.00     0.310 C 
ATOM      8  O   UNL     1       5.341   3.072  -1.844  1.00  0.00    -0.252 OA
BRANCH   7   9
ATOM      9  C   UNL     1       3.732   1.372  -1.316  1.00  0.00     0.158 C 
BRANCH   9  10
ATOM     10  C   UNL     1       3.671   0.285  -2.346  1.00  0.00    -0.037 A 
ATOM     11  C   UNL     1       3.719   0.617  -3.703  1.00  0.00     0.005 A 
ATOM     12  C   UNL     1       3.639  -1.062  -1.957  1.00  0.00     0.005 A 
ATOM     13  C   UNL     1       3.878  -0.383  -4.656  1.00  0.00     0.020 A 
ATOM     14  C   UNL     1       3.815  -2.065  -2.902  1.00  0.00     0.020 A 
ATOM     15  C   UNL     1       3.998  -1.710  -4.240  1.00  0.00     0.067 A 
BRANCH  15  16
ATOM     16  S   UNL     1       4.537  -2.934  -5.404  1.00  0.00     0.180 S 
ATOM     17  O   UNL     1       3.404  -3.825  -5.588  1.00  0.00    -0.224 OA
ATOM     18  O   UNL     1       5.104  -2.246  -6.550  1.00  0.00    -0.224 OA
BRANCH  16  19
ATOM     19  C   UNL     1       5.828  -3.866  -4.623  1.00  0.00     0.174 C 
BRANCH  19  20
ATOM     20  C   UNL     1       7.083  -3.121  -4.187  1.00  0.00     0.133 C 
ATOM     21  C   UNL     1       8.043  -2.687  -5.284  1.00  0.00     0.035 C 
ATOM     22  O   UNL     1       6.795  -1.977  -3.377  1.00  0.00    -0.377 OA
ATOM     23  C   UNL     1       7.968  -1.181  -5.269  1.00  0.00     0.031 C 
ATOM     24  C   UNL     1       7.587  -0.872  -3.841  1.00  0.00     0.160 C 
ENDBRANCH  19  20
ENDBRANCH  16  19
ENDBRANCH  15  16
ENDBRANCH   9  10
ENDBRANCH   7   9
ENDBRANCH   6   7
ENDBRANCH   5   6
ENDBRANCH   4   5
ENDBRANCH   3   4
ENDBRANCH   2   3
ENDBRANCH   1   2
BRANCH   1  25
ATOM     25  O   UNL     1       5.319   1.650   4.250  1.00  0.00    -0.377 OA
BRANCH  25  26
ATOM     26  C   UNL     1       5.716   0.304   4.412  1.00  0.00     0.188 C 
BRANCH  26  27
ATOM     27  C   UNL     1       4.584  -0.741   4.508  1.00  0.00     0.188 C 
BRANCH  27  28
ATOM     28  O   UNL     1       3.226  -0.388   4.739  1.00  0.00    -0.376 OA
BRANCH  28  29
ATOM     29  C   UNL     1       2.888   0.806   5.421  1.00  0.00     0.202 C 
BRANCH  29  30
ATOM     30  C   UNL     1       3.337   0.999   6.876  1.00  0.00     0.261 C 
BRANCH  30  31
ATOM     31  O   UNL     1       4.713   0.702   7.133  1.00  0.00    -0.460 OA
BRANCH  31  32
ATOM     32  C   UNL     1       4.967  -0.512   7.681  1.00  0.00     0.338 C 
ATOM     33  O   UNL     1       4.150  -1.347   8.033  1.00  0.00    -0.246 OA
BRANCH  32  34
ATOM     34  C   UNL     1       6.422  -0.775   7.581  1.00  0.00     0.060 A 
ATOM     35  C   UNL     1       6.840  -1.991   7.016  1.00  0.00     0.016 A 
ATOM     36  C   UNL     1       7.361   0.192   7.948  1.00  0.00     0.016 A 
ATOM     37  C   UNL     1       8.198  -2.253   6.835  1.00  0.00     0.010 A 
ATOM     38  C   UNL     1       8.721  -0.085   7.803  1.00  0.00     0.010 A 
ATOM     39  C   UNL     1       9.142  -1.321   7.280  1.00  0.00    -0.014 A 
BRANCH  39  40
ATOM     40  C   UNL     1      10.545  -1.739   7.500  1.00  0.00     0.031 A 
ATOM     41  C   UNL     1      10.884  -2.281   8.860  1.00  0.00     0.074 A 
ATOM     42  C   UNL     1      11.496  -1.591   6.563  1.00  0.00     0.049 A 
ATOM     43  N   UNL     1      12.048  -2.556   9.381  1.00  0.00    -0.248 NA
ATOM     44  C   UNL     1       9.744  -2.527   9.760  1.00  0.00     0.031 C 
ATOM     45  C   UNL     1      11.277  -1.116   5.200  1.00  0.00     0.029 A 
ATOM     46  N   UNL     1      12.851  -1.794   6.640  1.00  0.00    -0.354 N 
ATOM     47  C   UNL     1      11.784  -2.978  10.678  1.00  0.00     0.074 A 
ATOM     48  C   UNL     1      10.353  -2.912  10.868  1.00  0.00     0.031 C 
ATOM     49  C   UNL     1      12.467  -1.021   4.579  1.00  0.00     0.029 A 
ATOM     50  C   UNL     1      13.530  -1.390   5.516  1.00  0.00     0.049 A 
ATOM     51  H   UNL     1      13.294  -2.192   7.425  1.00  0.00     0.167 HD
ATOM     52  C   UNL     1      12.657  -3.374  11.632  1.00  0.00     0.037 A 
ATOM     53  C   UNL     1      14.856  -1.286   5.291  1.00  0.00     0.037 A 
ATOM     54  C   UNL     1      14.080  -3.413  11.438  1.00  0.00     0.049 A 
ATOM     55  C   UNL     1      15.823  -1.682   6.378  1.00  0.00     0.074 A 
ATOM     56  C   UNL     1      15.058  -3.816  12.327  1.00  0.00     0.029 A 
ATOM     57  N   UNL     1      14.728  -3.014  10.278  1.00  0.00    -0.354 N 
ATOM     58  N   UNL     1      15.566  -2.108   7.594  1.00  0.00    -0.248 NA
ATOM     59  C   UNL     1      17.256  -1.585   6.068  1.00  0.00     0.031 C 
ATOM     60  C   UNL     1      16.302  -3.610  11.723  1.00  0.00     0.029 A 
ATOM     61  C   UNL     1      16.096  -3.136  10.435  1.00  0.00     0.049 A 
ATOM     62  H   UNL     1      14.280  -2.690   9.463  1.00  0.00     0.167 HD
ATOM     63  C   UNL     1      16.803  -2.356   8.183  1.00  0.00     0.074 A 
ATOM     64  C   UNL     1      17.807  -2.030   7.191  1.00  0.00     0.031 C 
ATOM     65  C   UNL     1      17.080  -2.818   9.428  1.00  0.00     0.037 A 
BRANCH  52  66
ATOM     66  C   UNL     1      12.085  -3.728  12.975  1.00  0.00     0.058 A 
ATOM     67  C   UNL     1      11.297  -4.874  13.170  1.00  0.00     0.135 A 
ATOM     68  C   UNL     1      12.293  -2.880  14.075  1.00  0.00     0.135 A 
ATOM     69  F   UNL     1      11.046  -5.705  12.146  1.00  0.00    -0.206 F 
ATOM     70  C   UNL     1      10.692  -5.139  14.394  1.00  0.00     0.059 A 
ATOM     71  C   UNL     1      11.724  -3.143  15.317  1.00  0.00     0.059 A 
ATOM     72  F   UNL     1      13.032  -1.768  13.942  1.00  0.00    -0.206 F 
ATOM     73  C   UNL     1      10.905  -4.262  15.459  1.00  0.00     0.060 A 
BRANCH  73  74
ATOM     74  S   UNL     1      10.081  -4.593  17.030  1.00  0.00     0.124 S 
ATOM     75  O   UNL     1       8.707  -4.207  16.723  1.00  0.00    -0.237 OA
ATOM     76  O   UNL     1      10.311  -6.023  17.209  1.00  0.00    -0.237 OA
ATOM     77  O   UNL     1      10.781  -3.725  17.971  1.00  0.00    -0.744 OA
ENDBRANCH  73  74
ENDBRANCH  52  66
BRANCH  53  78
ATOM     78  C   UNL     1      15.335  -0.758   3.986  1.00  0.00     0.058 A 
ATOM     79  C   UNL     1      15.924  -1.601   3.034  1.00  0.00     0.135 A 
ATOM     80  C   UNL     1      15.158   0.592   3.643  1.00  0.00     0.135 A 
ATOM     81  F   UNL     1      16.130  -2.896   3.320  1.00  0.00    -0.206 F 
ATOM     82  C   UNL     1      16.305  -1.130   1.781  1.00  0.00     0.059 A 
ATOM     83  C   UNL     1      15.511   1.082   2.389  1.00  0.00     0.059 A 
ATOM     84  F   UNL     1      14.594   1.440   4.518  1.00  0.00    -0.206 F 
ATOM     85  C   UNL     1      16.080   0.210   1.462  1.00  0.00     0.060 A 
BRANCH  85  86
ATOM     86  S   UNL     1      16.469   0.780  -0.208  1.00  0.00     0.124 S 
ATOM     87  O   UNL     1      17.927   0.784  -0.187  1.00  0.00    -0.237 OA
ATOM     88  O   UNL     1      15.844  -0.251  -1.032  1.00  0.00    -0.237 OA
ATOM     89  O   UNL     1      15.832   2.092  -0.272  1.00  0.00    -0.744 OA
ENDBRANCH  85  86
ENDBRANCH  53  78
BRANCH  65  90
ATOM     90  C   UNL     1      18.522  -3.053   9.790  1.00  0.00     0.058 A 
ATOM     91  C   UNL     1      19.395  -1.996  10.084  1.00  0.00     0.135 A 
ATOM     92  C   UNL     1      19.000  -4.364   9.950  1.00  0.00     0.135 A 
ATOM     93  F   UNL     1      18.989  -0.724   9.942  1.00  0.00    -0.206 F 
ATOM     94  C   UNL     1      20.695  -2.230  10.522  1.00  0.00     0.059 A 
ATOM     95  C   UNL     1      20.287  -4.622  10.411  1.00  0.00     0.059 A 
ATOM     96  F   UNL     1      18.200  -5.411   9.692  1.00  0.00    -0.206 F 
ATOM     97  C   UNL     1      21.129  -3.547  10.691  1.00  0.00     0.060 A 
BRANCH  97  98
ATOM     98  S   UNL     1      22.794  -3.838  11.326  1.00  0.00     0.124 S 
ATOM     99  O   UNL     1      23.614  -3.494  10.169  1.00  0.00    -0.237 OA
ATOM    100  O   UNL     1      22.865  -2.912  12.452  1.00  0.00    -0.237 OA
ATOM    101  O   UNL     1      22.778  -5.253  11.686  1.00  0.00    -0.744 OA
ENDBRANCH  97  98
ENDBRANCH  65  90
ENDBRANCH  39  40
ENDBRANCH  32  34
ENDBRANCH  31  32
ENDBRANCH  30  31
ENDBRANCH  29  30
ENDBRANCH  28  29
ENDBRANCH  27  28
ENDBRANCH  26  27
ENDBRANCH  25  26
ENDBRANCH   1  25
TORSDOF 27
