REMARK SMILES O=C(OCCOCCOCCOCCOC(=O)[C@@H]1[C@H](C(=O)Nc2ccc(Cn3cncn3)cc2)[C@@H]2C=C[C@H]1CC2)c1ccc(-c2c3nc(c(-c4c(F)cc(S(=O)(=O)[O-])cc4F)c4ccc([nH]4)c(-c4c(F)cc(S(=O)(=O)[O-])cc4F)c4nc(c(-c5c(F)cc(S(=O)(=O)[O-])cc5F)c5ccc2[nH]5)C=C4)C=C3)cc1
REMARK SMILES IDX 10 1 9 2 8 3 7 4 6 5 5 6 4 7 3 8 2 9 1 10 41 11 42 12 106 13
REMARK SMILES IDX 43 14 105 15 44 16 45 17 46 18 99 19 47 20 104 21 98 22
REMARK SMILES IDX 100 23 48 24 103 25 97 26 96 27 49 29 83 30 62 31 82 32
REMARK SMILES IDX 63 33 66 34 81 35 101 36 64 37 65 38 80 40 102 41 67 42
REMARK SMILES IDX 50 43 51 44 60 45 52 46 53 47 59 48 61 49 54 50 55 51 56 52
REMARK SMILES IDX 57 53 58 54 84 55 85 56 94 57 86 58 87 59 93 60 95 61 88 62
REMARK SMILES IDX 89 63 90 64 91 65 92 66 68 67 69 68 78 69 70 70 71 71 77 72
REMARK SMILES IDX 79 73 72 74 73 75 74 76 75 77 76 78 11 79 12 80 13 81 14 82
REMARK SMILES IDX 15 83 16 84 17 85 18 86 19 87 38 88 35 89 37 90 39 91 36 92
REMARK SMILES IDX 40 93 20 94 21 95 22 96 23 98 24 99 34 100 25 101 33 102
REMARK SMILES IDX 26 103 27 104 28 105 29 106 32 107 30 108 31 109
REMARK H PARENT 100 28 66 39 22 97
REMARK Flexibility Score: inf
ROOT
ATOM      1  C   UNL     1       5.072  -2.651   1.160  1.00  0.00     0.188 C 
ENDROOT
BRANCH   1   2
ATOM      2  O   UNL     1       3.665  -2.586   1.262  1.00  0.00    -0.377 OA
BRANCH   2   3
ATOM      3  C   UNL     1       2.911  -1.888   0.273  1.00  0.00     0.188 C 
BRANCH   3   4
ATOM      4  C   UNL     1       3.577  -1.275  -0.974  1.00  0.00     0.188 C 
BRANCH   4   5
ATOM      5  O   UNL     1       4.921  -0.870  -0.815  1.00  0.00    -0.376 OA
BRANCH   5   6
ATOM      6  C   UNL     1       5.304   0.415  -0.366  1.00  0.00     0.202 C 
BRANCH   6   7
ATOM      7  C   UNL     1       4.514   1.232   0.666  1.00  0.00     0.261 C 
BRANCH   7   8
ATOM      8  O   UNL     1       3.137   0.912   0.834  1.00  0.00    -0.460 OA
BRANCH   8   9
ATOM      9  C   UNL     1       2.029   1.481   0.300  1.00  0.00     0.338 C 
ATOM     10  O   UNL     1       0.994   1.440   0.912  1.00  0.00    -0.246 OA
BRANCH   9  11
ATOM     11  C   UNL     1       2.017   1.979  -1.105  1.00  0.00     0.060 A 
ATOM     12  C   UNL     1       3.114   2.500  -1.782  1.00  0.00     0.016 A 
ATOM     13  C   UNL     1       0.762   1.954  -1.747  1.00  0.00     0.016 A 
ATOM     14  C   UNL     1       2.952   3.071  -3.030  1.00  0.00     0.010 A 
ATOM     15  C   UNL     1       0.591   2.533  -2.997  1.00  0.00     0.010 A 
ATOM     16  C   UNL     1       1.682   3.139  -3.603  1.00  0.00    -0.014 A 
BRANCH  16  17
ATOM     17  C   UNL     1       1.583   3.886  -4.843  1.00  0.00     0.031 A 
ATOM     18  C   UNL     1       2.319   3.303  -5.990  1.00  0.00     0.074 A 
ATOM     19  C   UNL     1       0.918   5.052  -4.928  1.00  0.00     0.049 A 
ATOM     20  N   UNL     1       3.404   3.740  -6.539  1.00  0.00    -0.248 NA
ATOM     21  C   UNL     1       1.872   1.998  -6.494  1.00  0.00     0.031 C 
ATOM     22  C   UNL     1      -0.034   5.623  -3.974  1.00  0.00     0.029 A 
ATOM     23  N   UNL     1       0.902   5.944  -5.955  1.00  0.00    -0.354 N 
ATOM     24  C   UNL     1       3.656   2.888  -7.611  1.00  0.00     0.074 A 
ATOM     25  C   UNL     1       2.789   1.752  -7.431  1.00  0.00     0.031 C 
ATOM     26  C   UNL     1      -0.696   6.642  -4.567  1.00  0.00     0.029 A 
ATOM     27  C   UNL     1      -0.119   6.880  -5.880  1.00  0.00     0.049 A 
ATOM     28  H   UNL     1       1.560   5.928  -6.687  1.00  0.00     0.167 HD
ATOM     29  C   UNL     1       4.391   3.296  -8.683  1.00  0.00     0.037 A 
ATOM     30  C   UNL     1      -0.503   7.731  -6.864  1.00  0.00     0.037 A 
ATOM     31  C   UNL     1       5.203   4.442  -8.354  1.00  0.00     0.049 A 
ATOM     32  C   UNL     1       0.644   7.880  -7.798  1.00  0.00     0.074 A 
ATOM     33  C   UNL     1       6.180   4.700  -7.410  1.00  0.00     0.029 A 
ATOM     34  N   UNL     1       4.812   5.672  -8.825  1.00  0.00    -0.354 N 
ATOM     35  N   UNL     1       1.760   8.485  -7.493  1.00  0.00    -0.248 NA
ATOM     36  C   UNL     1       0.724   6.972  -8.934  1.00  0.00     0.031 C 
ATOM     37  C   UNL     1       5.967   6.053  -7.016  1.00  0.00     0.029 A 
ATOM     38  C   UNL     1       4.917   6.557  -7.783  1.00  0.00     0.049 A 
ATOM     39  H   UNL     1       4.513   5.880  -9.740  1.00  0.00     0.167 HD
ATOM     40  C   UNL     1       2.753   7.727  -8.096  1.00  0.00     0.074 A 
ATOM     41  C   UNL     1       2.050   6.869  -9.047  1.00  0.00     0.031 C 
ATOM     42  C   UNL     1       4.016   7.669  -7.580  1.00  0.00     0.037 A 
BRANCH  29  43
ATOM     43  C   UNL     1       4.090   2.902 -10.113  1.00  0.00     0.058 A 
ATOM     44  C   UNL     1       4.960   3.325 -11.142  1.00  0.00     0.135 A 
ATOM     45  C   UNL     1       2.844   2.396 -10.546  1.00  0.00     0.135 A 
ATOM     46  F   UNL     1       6.175   3.817 -10.853  1.00  0.00    -0.206 F 
ATOM     47  C   UNL     1       4.577   3.345 -12.484  1.00  0.00     0.059 A 
ATOM     48  C   UNL     1       2.464   2.357 -11.882  1.00  0.00     0.059 A 
ATOM     49  F   UNL     1       1.889   2.007  -9.694  1.00  0.00    -0.206 F 
ATOM     50  C   UNL     1       3.315   2.880 -12.839  1.00  0.00     0.060 A 
BRANCH  50  51
ATOM     51  S   UNL     1       2.761   3.028 -14.546  1.00  0.00     0.124 S 
ATOM     52  O   UNL     1       2.586   4.471 -14.666  1.00  0.00    -0.237 OA
ATOM     53  O   UNL     1       3.885   2.455 -15.279  1.00  0.00    -0.237 OA
ATOM     54  O   UNL     1       1.535   2.237 -14.569  1.00  0.00    -0.744 OA
ENDBRANCH  50  51
ENDBRANCH  29  43
BRANCH  30  55
ATOM     55  C   UNL     1      -1.889   8.133  -7.221  1.00  0.00     0.058 A 
ATOM     56  C   UNL     1      -2.129   9.175  -8.134  1.00  0.00     0.135 A 
ATOM     57  C   UNL     1      -2.998   7.323  -6.899  1.00  0.00     0.135 A 
ATOM     58  F   UNL     1      -1.127   9.984  -8.513  1.00  0.00    -0.206 F 
ATOM     59  C   UNL     1      -3.377   9.367  -8.735  1.00  0.00     0.059 A 
ATOM     60  C   UNL     1      -4.254   7.504  -7.473  1.00  0.00     0.059 A 
ATOM     61  F   UNL     1      -2.873   6.264  -6.086  1.00  0.00    -0.206 F 
ATOM     62  C   UNL     1      -4.430   8.511  -8.413  1.00  0.00     0.060 A 
BRANCH  62  63
ATOM     63  S   UNL     1      -5.987   8.631  -9.323  1.00  0.00     0.124 S 
ATOM     64  O   UNL     1      -6.534   9.886  -8.819  1.00  0.00    -0.237 OA
ATOM     65  O   UNL     1      -5.534   8.644 -10.710  1.00  0.00    -0.237 OA
ATOM     66  O   UNL     1      -6.710   7.428  -8.918  1.00  0.00    -0.744 OA
ENDBRANCH  62  63
ENDBRANCH  30  55
BRANCH  42  67
ATOM     67  C   UNL     1       4.426   8.697  -6.559  1.00  0.00     0.058 A 
ATOM     68  C   UNL     1       3.815   8.871  -5.305  1.00  0.00     0.135 A 
ATOM     69  C   UNL     1       5.582   9.451  -6.819  1.00  0.00     0.135 A 
ATOM     70  F   UNL     1       2.777   8.110  -4.929  1.00  0.00    -0.206 F 
ATOM     71  C   UNL     1       4.302   9.793  -4.375  1.00  0.00     0.059 A 
ATOM     72  C   UNL     1       6.105  10.349  -5.894  1.00  0.00     0.059 A 
ATOM     73  F   UNL     1       6.250   9.284  -7.973  1.00  0.00    -0.206 F 
ATOM     74  C   UNL     1       5.448  10.529  -4.680  1.00  0.00     0.060 A 
BRANCH  74  75
ATOM     75  S   UNL     1       6.114  11.673  -3.452  1.00  0.00     0.124 S 
ATOM     76  O   UNL     1       5.133  12.753  -3.475  1.00  0.00    -0.237 OA
ATOM     77  O   UNL     1       6.135  10.860  -2.239  1.00  0.00    -0.237 OA
ATOM     78  O   UNL     1       7.432  12.015  -3.982  1.00  0.00    -0.744 OA
ENDBRANCH  74  75
ENDBRANCH  42  67
ENDBRANCH  16  17
ENDBRANCH   9  11
ENDBRANCH   8   9
ENDBRANCH   7   8
ENDBRANCH   6   7
ENDBRANCH   5   6
ENDBRANCH   4   5
ENDBRANCH   3   4
ENDBRANCH   2   3
ENDBRANCH   1   2
BRANCH   1  79
ATOM     79  C   UNL     1       5.665  -3.589   0.096  1.00  0.00     0.188 C 
BRANCH  79  80
ATOM     80  O   UNL     1       4.820  -4.117  -0.912  1.00  0.00    -0.376 OA
BRANCH  80  81
ATOM     81  C   UNL     1       3.776  -5.018  -0.565  1.00  0.00     0.202 C 
BRANCH  81  82
ATOM     82  C   UNL     1       3.936  -5.953   0.635  1.00  0.00     0.261 C 
BRANCH  82  83
ATOM     83  O   UNL     1       3.959  -5.270   1.903  1.00  0.00    -0.463 OA
BRANCH  83  84
ATOM     84  C   UNL     1       4.973  -5.530   2.746  1.00  0.00     0.310 C 
ATOM     85  O   UNL     1       5.953  -6.202   2.431  1.00  0.00    -0.252 OA
BRANCH  84  86
ATOM     86  C   UNL     1       4.784  -5.066   4.191  1.00  0.00     0.119 C 
ATOM     87  C   UNL     1       4.041  -6.123   5.014  1.00  0.00     0.100 C 
ATOM     88  C   UNL     1       4.484  -3.638   4.784  1.00  0.00     0.026 C 
ATOM     89  C   UNL     1       3.659  -5.527   6.393  1.00  0.00     0.025 C 
ATOM     90  C   UNL     1       3.087  -3.456   5.374  1.00  0.00    -0.027 C 
ATOM     91  C   UNL     1       5.314  -3.568   6.100  1.00  0.00     0.009 C 
ATOM     92  C   UNL     1       2.652  -4.436   6.183  1.00  0.00    -0.027 C 
ATOM     93  C   UNL     1       4.911  -4.791   6.994  1.00  0.00     0.009 C 
BRANCH  87  94
ATOM     94  C   UNL     1       2.985  -6.993   4.305  1.00  0.00     0.228 C 
ATOM     95  O   UNL     1       3.235  -8.211   4.228  1.00  0.00    -0.274 OA
ATOM     96  N   UNL     1       1.758  -6.660   3.826  1.00  0.00    -0.326 N 
ATOM     97  H   UNL     1       1.237  -7.467   3.613  1.00  0.00     0.169 HD
BRANCH  96  98
ATOM     98  C   UNL     1       1.014  -5.500   3.546  1.00  0.00     0.041 A 
ATOM     99  C   UNL     1      -0.379  -5.592   3.628  1.00  0.00     0.026 A 
ATOM    100  C   UNL     1       1.531  -4.280   3.155  1.00  0.00     0.026 A 
ATOM    101  C   UNL     1      -1.188  -4.447   3.518  1.00  0.00     0.008 A 
ATOM    102  C   UNL     1       0.742  -3.136   3.017  1.00  0.00     0.008 A 
ATOM    103  C   UNL     1      -0.621  -3.193   3.267  1.00  0.00    -0.026 A 
BRANCH 103 104
ATOM    104  C   UNL     1      -1.411  -1.913   3.273  1.00  0.00     0.181 C 
BRANCH 104 105
ATOM    105  N   UNL     1      -1.981  -1.620   1.977  1.00  0.00    -0.249 N 
ATOM    106  C   UNL     1      -2.993  -2.273   1.346  1.00  0.00     0.220 A 
ATOM    107  N   UNL     1      -1.597  -0.542   1.276  1.00  0.00    -0.160 NA
ATOM    108  N   UNL     1      -3.276  -1.662   0.220  1.00  0.00    -0.224 NA
ATOM    109  C   UNL     1      -2.401  -0.613   0.215  1.00  0.00     0.246 A 
ENDBRANCH 104 105
ENDBRANCH 103 104
ENDBRANCH  96  98
ENDBRANCH  87  94
ENDBRANCH  84  86
ENDBRANCH  83  84
ENDBRANCH  82  83
ENDBRANCH  81  82
ENDBRANCH  80  81
ENDBRANCH  79  80
ENDBRANCH   1  79
TORSDOF 27
