REMARK SMILES Cc1cc(CC(=O)C(=O)OCCOCCOCCOCCOC(=O)c2ccc(-c3c4nc(c(-c5c(F)cc(S(=O)(=O)[O-])cc5F)c5ccc([nH]5)c(-c5c(F)cc(S(=O)(=O)[O-])cc5F)c5nc(c(-c6c(F)cc(S(=O)(=O)[O-])cc6F)c6ccc3[nH]6)C=C5)C=C4)cc2)cc2cn[nH]c12
REMARK SMILES IDX 17 1 16 2 15 3 14 4 13 5 12 6 11 7 10 8 8 9 9 10 6 11 7 12
REMARK SMILES IDX 5 13 4 14 1 15 2 16 3 17 96 18 92 19 95 20 91 21 93 22 94 23
REMARK SMILES IDX 18 25 19 26 20 27 21 28 22 29 23 30 24 31 25 32 26 33 90 34
REMARK SMILES IDX 27 35 89 36 28 37 29 38 30 39 83 40 31 41 88 42 82 43 84 44
REMARK SMILES IDX 32 45 87 46 81 47 80 48 33 50 67 51 46 52 66 53 47 54 50 55
REMARK SMILES IDX 65 56 85 57 48 58 49 59 64 61 86 62 51 63 34 64 35 65 44 66
REMARK SMILES IDX 36 67 37 68 43 69 45 70 38 71 39 72 40 73 41 74 42 75 68 76
REMARK SMILES IDX 69 77 78 78 70 79 71 80 77 81 79 82 72 83 73 84 74 85 75 86
REMARK SMILES IDX 76 87 52 88 53 89 62 90 54 91 55 92 61 93 63 94 56 95 57 96
REMARK SMILES IDX 58 97 59 98 60 99
REMARK H PARENT 95 24 84 49 50 60
REMARK Flexibility Score: inf
ROOT
ATOM      1  C   UNL     1      -6.710   1.673   3.840  1.00  0.00     0.188 C 
ENDROOT
BRANCH   1   2
ATOM      2  O   UNL     1      -5.617   1.056   4.509  1.00  0.00    -0.377 OA
BRANCH   2   3
ATOM      3  C   UNL     1      -4.311   1.516   4.232  1.00  0.00     0.188 C 
BRANCH   3   4
ATOM      4  C   UNL     1      -3.756   1.079   2.858  1.00  0.00     0.188 C 
BRANCH   4   5
ATOM      5  O   UNL     1      -4.712   0.645   1.910  1.00  0.00    -0.376 OA
BRANCH   5   6
ATOM      6  C   UNL     1      -5.258  -0.662   1.936  1.00  0.00     0.202 C 
BRANCH   6   7
ATOM      7  C   UNL     1      -5.193  -1.632   3.131  1.00  0.00     0.261 C 
BRANCH   7   8
ATOM      8  O   UNL     1      -4.286  -1.302   4.182  1.00  0.00    -0.457 OA
BRANCH   8   9
ATOM      9  C   UNL     1      -3.049  -1.814   4.123  1.00  0.00     0.375 C 
ATOM     10  O   UNL     1      -2.624  -2.598   3.293  1.00  0.00    -0.243 OA
BRANCH   9  11
ATOM     11  C   UNL     1      -2.200  -1.171   5.236  1.00  0.00     0.244 C 
ATOM     12  O   UNL     1      -2.524  -1.330   6.410  1.00  0.00    -0.286 OA
BRANCH  11  13
ATOM     13  C   UNL     1      -1.048  -0.266   4.819  1.00  0.00     0.124 C 
BRANCH  13  14
ATOM     14  C   UNL     1      -0.199  -0.855   3.722  1.00  0.00    -0.039 A 
ATOM     15  C   UNL     1       0.918  -0.042   0.144  1.00  0.00     0.047 C 
ATOM     16  C   UNL     1       0.669  -0.786   1.422  1.00  0.00    -0.025 A 
ATOM     17  C   UNL     1       0.041  -0.166   2.521  1.00  0.00     0.009 A 
ATOM     18  C   UNL     1       1.011  -2.138   1.600  1.00  0.00     0.068 A 
ATOM     19  C   UNL     1       0.831  -2.825   2.792  1.00  0.00     0.020 A 
ATOM     20  N   UNL     1       1.536  -3.070   0.741  1.00  0.00    -0.278 N 
ATOM     21  C   UNL     1       0.276  -2.165   3.891  1.00  0.00     0.016 A 
ATOM     22  C   UNL     1       1.261  -4.141   2.527  1.00  0.00     0.143 A 
ATOM     23  N   UNL     1       1.707  -4.293   1.278  1.00  0.00    -0.183 NA
ATOM     24  H   UNL     1       1.771  -2.861  -0.192  1.00  0.00     0.190 HD
ENDBRANCH  13  14
ENDBRANCH  11  13
ENDBRANCH   9  11
ENDBRANCH   8   9
ENDBRANCH   7   8
ENDBRANCH   6   7
ENDBRANCH   5   6
ENDBRANCH   4   5
ENDBRANCH   3   4
ENDBRANCH   2   3
ENDBRANCH   1   2
BRANCH   1  25
ATOM     25  C   UNL     1      -6.538   2.673   2.658  1.00  0.00     0.188 C 
BRANCH  25  26
ATOM     26  O   UNL     1      -5.261   3.297   2.539  1.00  0.00    -0.376 OA
BRANCH  26  27
ATOM     27  C   UNL     1      -5.127   4.702   2.690  1.00  0.00     0.202 C 
BRANCH  27  28
ATOM     28  C   UNL     1      -5.081   5.173   4.146  1.00  0.00     0.261 C 
BRANCH  28  29
ATOM     29  O   UNL     1      -6.124   4.596   4.913  1.00  0.00    -0.460 OA
BRANCH  29  30
ATOM     30  C   UNL     1      -7.345   4.948   4.473  1.00  0.00     0.338 C 
ATOM     31  O   UNL     1      -7.608   5.730   3.569  1.00  0.00    -0.246 OA
BRANCH  30  32
ATOM     32  C   UNL     1      -8.358   4.229   5.248  1.00  0.00     0.060 A 
ATOM     33  C   UNL     1      -9.648   4.350   4.732  1.00  0.00     0.016 A 
ATOM     34  C   UNL     1      -8.075   4.109   6.610  1.00  0.00     0.016 A 
ATOM     35  C   UNL     1     -10.581   4.871   5.581  1.00  0.00     0.010 A 
ATOM     36  C   UNL     1      -8.984   4.678   7.445  1.00  0.00     0.010 A 
ATOM     37  C   UNL     1     -10.156   5.173   6.875  1.00  0.00    -0.014 A 
BRANCH  37  38
ATOM     38  C   UNL     1     -10.914   6.154   7.600  1.00  0.00     0.031 A 
ATOM     39  C   UNL     1     -11.940   5.543   8.451  1.00  0.00     0.074 A 
ATOM     40  C   UNL     1     -10.589   7.458   7.537  1.00  0.00     0.049 A 
ATOM     41  N   UNL     1     -13.208   5.469   8.228  1.00  0.00    -0.248 NA
ATOM     42  C   UNL     1     -11.461   4.693   9.553  1.00  0.00     0.031 C 
ATOM     43  C   UNL     1      -9.389   8.086   6.971  1.00  0.00     0.029 A 
ATOM     44  N   UNL     1     -11.253   8.505   8.079  1.00  0.00    -0.354 N 
ATOM     45  C   UNL     1     -13.704   4.754   9.306  1.00  0.00     0.074 A 
ATOM     46  C   UNL     1     -12.586   4.076   9.905  1.00  0.00     0.031 C 
ATOM     47  C   UNL     1      -9.313   9.367   7.408  1.00  0.00     0.029 A 
ATOM     48  C   UNL     1     -10.512   9.675   8.167  1.00  0.00     0.049 A 
ATOM     49  H   UNL     1     -12.186   8.442   8.385  1.00  0.00     0.167 HD
ATOM     50  C   UNL     1     -14.928   5.013   9.833  1.00  0.00     0.037 A 
ATOM     51  C   UNL     1     -10.859  10.743   8.930  1.00  0.00     0.037 A 
ATOM     52  C   UNL     1     -15.735   5.810   8.949  1.00  0.00     0.049 A 
ATOM     53  C   UNL     1     -12.311  10.591   9.248  1.00  0.00     0.074 A 
ATOM     54  C   UNL     1     -16.242   5.627   7.678  1.00  0.00     0.029 A 
ATOM     55  N   UNL     1     -15.781   7.165   9.184  1.00  0.00    -0.354 N 
ATOM     56  N   UNL     1     -13.265  10.661   8.359  1.00  0.00    -0.248 NA
ATOM     57  C   UNL     1     -12.666   9.889  10.475  1.00  0.00     0.031 C 
ATOM     58  C   UNL     1     -16.161   6.904   7.050  1.00  0.00     0.029 A 
ATOM     59  C   UNL     1     -15.648   7.811   7.979  1.00  0.00     0.049 A 
ATOM     60  H   UNL     1     -15.890   7.596  10.062  1.00  0.00     0.167 HD
ATOM     61  C   UNL     1     -14.191   9.693   8.734  1.00  0.00     0.074 A 
ATOM     62  C   UNL     1     -13.803   9.305  10.087  1.00  0.00     0.031 C 
ATOM     63  C   UNL     1     -15.006   9.099   7.811  1.00  0.00     0.037 A 
BRANCH  50  64
ATOM     64  C   UNL     1     -15.222   4.831  11.294  1.00  0.00     0.058 A 
ATOM     65  C   UNL     1     -16.550   4.719  11.731  1.00  0.00     0.135 A 
ATOM     66  C   UNL     1     -14.245   4.970  12.309  1.00  0.00     0.135 A 
ATOM     67  F   UNL     1     -17.552   4.627  10.844  1.00  0.00    -0.206 F 
ATOM     68  C   UNL     1     -16.885   4.759  13.084  1.00  0.00     0.059 A 
ATOM     69  C   UNL     1     -14.547   4.934  13.661  1.00  0.00     0.059 A 
ATOM     70  F   UNL     1     -12.962   5.242  12.036  1.00  0.00    -0.206 F 
ATOM     71  C   UNL     1     -15.875   4.868  14.039  1.00  0.00     0.060 A 
BRANCH  71  72
ATOM     72  S   UNL     1     -16.308   5.011  15.780  1.00  0.00     0.124 S 
ATOM     73  O   UNL     1     -16.912   6.338  15.817  1.00  0.00    -0.237 OA
ATOM     74  O   UNL     1     -17.219   3.886  15.959  1.00  0.00    -0.237 OA
ATOM     75  O   UNL     1     -15.021   4.883  16.458  1.00  0.00    -0.744 OA
ENDBRANCH  71  72
ENDBRANCH  50  64
BRANCH  51  76
ATOM     76  C   UNL     1      -9.961  11.608   9.739  1.00  0.00     0.058 A 
ATOM     77  C   UNL     1     -10.435  12.808  10.296  1.00  0.00     0.135 A 
ATOM     78  C   UNL     1      -8.727  11.136  10.232  1.00  0.00     0.135 A 
ATOM     79  F   UNL     1     -11.610  13.319   9.897  1.00  0.00    -0.206 F 
ATOM     80  C   UNL     1      -9.757  13.470  11.325  1.00  0.00     0.059 A 
ATOM     81  C   UNL     1      -8.029  11.784  11.249  1.00  0.00     0.059 A 
ATOM     82  F   UNL     1      -8.208   9.975   9.808  1.00  0.00    -0.206 F 
ATOM     83  C   UNL     1      -8.567  12.934  11.814  1.00  0.00     0.060 A 
BRANCH  83  84
ATOM     84  S   UNL     1      -7.794  13.673  13.272  1.00  0.00     0.124 S 
ATOM     85  O   UNL     1      -7.365  14.970  12.761  1.00  0.00    -0.237 OA
ATOM     86  O   UNL     1      -8.899  13.695  14.224  1.00  0.00    -0.237 OA
ATOM     87  O   UNL     1      -6.716  12.742  13.594  1.00  0.00    -0.744 OA
ENDBRANCH  83  84
ENDBRANCH  51  76
BRANCH  63  88
ATOM     88  C   UNL     1     -15.065   9.722   6.437  1.00  0.00     0.058 A 
ATOM     89  C   UNL     1     -13.979   9.770   5.543  1.00  0.00     0.135 A 
ATOM     90  C   UNL     1     -16.301  10.181   5.963  1.00  0.00     0.135 A 
ATOM     91  F   UNL     1     -12.790   9.251   5.880  1.00  0.00    -0.206 F 
ATOM     92  C   UNL     1     -14.104  10.302   4.257  1.00  0.00     0.059 A 
ATOM     93  C   UNL     1     -16.458  10.686   4.674  1.00  0.00     0.059 A 
ATOM     94  F   UNL     1     -17.392  10.100   6.743  1.00  0.00    -0.206 F 
ATOM     95  C   UNL     1     -15.350  10.761   3.832  1.00  0.00     0.060 A 
BRANCH  95  96
ATOM     96  S   UNL     1     -15.525  11.405   2.153  1.00  0.00     0.124 S 
ATOM     97  O   UNL     1     -14.776  12.655   2.224  1.00  0.00    -0.237 OA
ATOM     98  O   UNL     1     -14.921  10.349   1.345  1.00  0.00    -0.237 OA
ATOM     99  O   UNL     1     -16.969  11.552   1.992  1.00  0.00    -0.744 OA
ENDBRANCH  95  96
ENDBRANCH  63  88
ENDBRANCH  37  38
ENDBRANCH  30  32
ENDBRANCH  29  30
ENDBRANCH  28  29
ENDBRANCH  27  28
ENDBRANCH  26  27
ENDBRANCH  25  26
ENDBRANCH   1  25
TORSDOF 25
