REMARK SMILES Cc1cc(F)cc(-n2nc(C(=O)OCCOCCOCCOCCOC(=O)c3ccc(-c4c5nc(c(-c6c(F)cc(S(=O)(=O)[O-])cc6F)c6ccc([nH]6)c(-c6c(F)cc(S(=O)(=O)[O-])cc6F)c6nc(c(-c7c(F)cc(S(=O)(=O)[O-])cc7F)c7ccc4[nH]7)C=C6)C=C5)cc3)c3c2CC[C@H](C)C3)c1
REMARK SMILES IDX 20 1 19 2 18 3 17 4 16 5 15 6 14 7 13 8 11 9 12 10 10 11
REMARK SMILES IDX 8 12 9 13 95 14 94 15 96 16 100 17 97 18 98 19 99 20 7 21
REMARK SMILES IDX 1 22 2 23 3 24 101 25 4 26 5 27 6 28 21 29 22 30 23 31 24 32
REMARK SMILES IDX 25 33 26 34 27 35 28 36 29 37 93 38 30 39 92 40 31 41 32 42
REMARK SMILES IDX 33 43 86 44 34 45 91 46 85 47 87 48 35 49 90 50 84 51 83 52
REMARK SMILES IDX 36 54 70 55 49 56 69 57 50 58 53 59 68 60 88 61 51 62 52 63
REMARK SMILES IDX 67 65 89 66 54 67 37 68 38 69 47 70 39 71 40 72 46 73 48 74
REMARK SMILES IDX 41 75 42 76 43 77 44 78 45 79 71 80 72 81 81 82 73 83 74 84
REMARK SMILES IDX 80 85 82 86 75 87 76 88 77 89 78 90 79 91 55 92 56 93 65 94
REMARK SMILES IDX 57 95 58 96 64 97 66 98 59 99 60 100 61 101 62 102 63 103
REMARK H PARENT 87 53 53 64
REMARK Flexibility Score: inf
ROOT
ATOM      1  C   UNL     1       3.925  -9.154  -0.327  1.00  0.00     0.188 C 
ENDROOT
BRANCH   1   2
ATOM      2  O   UNL     1       2.835  -8.256  -0.105  1.00  0.00    -0.377 OA
BRANCH   2   3
ATOM      3  C   UNL     1       3.174  -6.931   0.263  1.00  0.00     0.188 C 
BRANCH   3   4
ATOM      4  C   UNL     1       3.209  -6.680   1.790  1.00  0.00     0.188 C 
BRANCH   4   5
ATOM      5  O   UNL     1       3.191  -7.741   2.740  1.00  0.00    -0.376 OA
BRANCH   5   6
ATOM      6  C   UNL     1       2.342  -8.870   2.629  1.00  0.00     0.202 C 
BRANCH   6   7
ATOM      7  C   UNL     1       0.844  -8.742   2.341  1.00  0.00     0.261 C 
BRANCH   7   8
ATOM      8  O   UNL     1       0.479  -7.701   1.446  1.00  0.00    -0.458 OA
BRANCH   8   9
ATOM      9  C   UNL     1       0.137  -6.507   2.006  1.00  0.00     0.359 C 
ATOM     10  O   UNL     1       0.028  -6.313   3.213  1.00  0.00    -0.244 OA
BRANCH   9  11
ATOM     11  C   UNL     1      -0.015  -5.471   0.972  1.00  0.00     0.174 A 
ATOM     12  N   UNL     1      -0.101  -3.534   0.051  1.00  0.00    -0.237 N 
ATOM     13  N   UNL     1       0.244  -4.167   1.198  1.00  0.00    -0.160 NA
ATOM     14  C   UNL     1      -0.563  -4.414  -0.898  1.00  0.00     0.048 A 
ATOM     15  C   UNL     1      -0.362  -5.676  -0.386  1.00  0.00     0.009 A 
ATOM     16  C   UNL     1      -1.067  -4.120  -2.266  1.00  0.00     0.057 C 
ATOM     17  C   UNL     1      -0.581  -6.931  -1.156  1.00  0.00     0.043 C 
ATOM     18  C   UNL     1      -1.715  -5.400  -2.851  1.00  0.00     0.010 C 
ATOM     19  C   UNL     1      -0.814  -6.642  -2.656  1.00  0.00    -0.009 C 
ATOM     20  C   UNL     1      -1.394  -7.885  -3.327  1.00  0.00     0.008 C 
BRANCH  12  21
ATOM     21  C   UNL     1      -0.062  -2.127  -0.010  1.00  0.00     0.068 A 
ATOM     22  C   UNL     1       2.477   0.723   0.121  1.00  0.00     0.044 C 
ATOM     23  C   UNL     1       1.188  -0.046   0.062  1.00  0.00    -0.046 A 
ATOM     24  C   UNL     1      -0.021   0.651  -0.064  1.00  0.00     0.042 A 
ATOM     25  C   UNL     1       1.160  -1.449   0.132  1.00  0.00     0.032 A 
ATOM     26  C   UNL     1      -1.224  -0.042  -0.164  1.00  0.00     0.125 A 
ATOM     27  F   UNL     1      -2.372   0.642  -0.254  1.00  0.00    -0.207 F 
ATOM     28  C   UNL     1      -1.259  -1.428  -0.165  1.00  0.00     0.067 A 
ENDBRANCH  12  21
ENDBRANCH   9  11
ENDBRANCH   8   9
ENDBRANCH   7   8
ENDBRANCH   6   7
ENDBRANCH   5   6
ENDBRANCH   4   5
ENDBRANCH   3   4
ENDBRANCH   2   3
ENDBRANCH   1   2
BRANCH   1  29
ATOM     29  C   UNL     1       5.173  -9.098   0.596  1.00  0.00     0.188 C 
BRANCH  29  30
ATOM     30  O   UNL     1       5.520  -7.802   1.058  1.00  0.00    -0.376 OA
BRANCH  30  31
ATOM     31  C   UNL     1       6.670  -7.103   0.617  1.00  0.00     0.202 C 
BRANCH  31  32
ATOM     32  C   UNL     1       6.718  -6.664  -0.840  1.00  0.00     0.261 C 
BRANCH  32  33
ATOM     33  O   UNL     1       6.168  -7.619  -1.721  1.00  0.00    -0.460 OA
BRANCH  33  34
ATOM     34  C   UNL     1       6.914  -8.721  -1.887  1.00  0.00     0.338 C 
ATOM     35  O   UNL     1       7.888  -9.064  -1.218  1.00  0.00    -0.246 OA
BRANCH  34  36
ATOM     36  C   UNL     1       6.457  -9.394  -3.098  1.00  0.00     0.060 A 
ATOM     37  C   UNL     1       7.146 -10.558  -3.436  1.00  0.00     0.016 A 
ATOM     38  C   UNL     1       5.756  -8.619  -4.036  1.00  0.00     0.016 A 
ATOM     39  C   UNL     1       7.426 -10.752  -4.762  1.00  0.00     0.010 A 
ATOM     40  C   UNL     1       6.074  -8.787  -5.351  1.00  0.00     0.010 A 
ATOM     41  C   UNL     1       6.991  -9.783  -5.670  1.00  0.00    -0.014 A 
BRANCH  41  42
ATOM     42  C   UNL     1       7.489  -9.849  -7.017  1.00  0.00     0.031 A 
ATOM     43  C   UNL     1       6.734 -10.817  -7.828  1.00  0.00     0.074 A 
ATOM     44  C   UNL     1       8.443  -9.015  -7.461  1.00  0.00     0.049 A 
ATOM     45  N   UNL     1       7.107 -11.999  -8.182  1.00  0.00    -0.248 NA
ATOM     46  C   UNL     1       5.303 -10.543  -8.044  1.00  0.00     0.031 C 
ATOM     47  C   UNL     1       9.017  -7.840  -6.801  1.00  0.00     0.029 A 
ATOM     48  N   UNL     1       9.026  -8.993  -8.684  1.00  0.00    -0.354 N 
ATOM     49  C   UNL     1       6.035 -12.502  -8.905  1.00  0.00     0.074 A 
ATOM     50  C   UNL     1       4.894 -11.709  -8.540  1.00  0.00     0.031 C 
ATOM     51  C   UNL     1       9.682  -7.099  -7.719  1.00  0.00     0.029 A 
ATOM     52  C   UNL     1       9.675  -7.804  -8.990  1.00  0.00     0.049 A 
ATOM     53  H   UNL     1       8.992  -9.757  -9.304  1.00  0.00     0.167 HD
ATOM     54  C   UNL     1       6.236 -13.303  -9.985  1.00  0.00     0.037 A 
ATOM     55  C   UNL     1      10.045  -7.429 -10.242  1.00  0.00     0.037 A 
ATOM     56  C   UNL     1       7.574 -13.844  -9.992  1.00  0.00     0.049 A 
ATOM     57  C   UNL     1      10.080  -8.676 -11.069  1.00  0.00     0.074 A 
ATOM     58  C   UNL     1       8.313 -14.589  -9.091  1.00  0.00     0.029 A 
ATOM     59  N   UNL     1       8.489 -13.286 -10.855  1.00  0.00    -0.354 N 
ATOM     60  N   UNL     1      10.938  -9.645 -10.880  1.00  0.00    -0.248 NA
ATOM     61  C   UNL     1       8.855  -9.065 -11.758  1.00  0.00     0.031 C 
ATOM     62  C   UNL     1       9.632 -14.053  -9.160  1.00  0.00     0.029 A 
ATOM     63  C   UNL     1       9.643 -13.065 -10.145  1.00  0.00     0.049 A 
ATOM     64  H   UNL     1       8.342 -13.083 -11.808  1.00  0.00     0.167 HD
ATOM     65  C   UNL     1      10.207 -10.816 -11.045  1.00  0.00     0.074 A 
ATOM     66  C   UNL     1       8.945 -10.394 -11.649  1.00  0.00     0.031 C 
ATOM     67  C   UNL     1      10.558 -11.975 -10.409  1.00  0.00     0.037 A 
BRANCH  54  68
ATOM     68  C   UNL     1       5.360 -13.266 -11.211  1.00  0.00     0.058 A 
ATOM     69  C   UNL     1       5.521 -14.261 -12.192  1.00  0.00     0.135 A 
ATOM     70  C   UNL     1       4.556 -12.164 -11.588  1.00  0.00     0.135 A 
ATOM     71  F   UNL     1       6.275 -15.345 -11.947  1.00  0.00    -0.206 F 
ATOM     72  C   UNL     1       4.983 -14.137 -13.472  1.00  0.00     0.059 A 
ATOM     73  C   UNL     1       3.956 -12.052 -12.832  1.00  0.00     0.059 A 
ATOM     74  F   UNL     1       4.390 -11.086 -10.813  1.00  0.00    -0.206 F 
ATOM     75  C   UNL     1       4.212 -13.021 -13.784  1.00  0.00     0.060 A 
BRANCH  75  76
ATOM     76  S   UNL     1       3.605 -12.798 -15.461  1.00  0.00     0.124 S 
ATOM     77  O   UNL     1       4.843 -12.527 -16.181  1.00  0.00    -0.237 OA
ATOM     78  O   UNL     1       2.976 -14.088 -15.726  1.00  0.00    -0.237 OA
ATOM     79  O   UNL     1       2.684 -11.672 -15.338  1.00  0.00    -0.744 OA
ENDBRANCH  75  76
ENDBRANCH  54  68
BRANCH  55  80
ATOM     80  C   UNL     1       9.969  -6.064 -10.835  1.00  0.00     0.058 A 
ATOM     81  C   UNL     1      10.538  -5.785 -12.091  1.00  0.00     0.135 A 
ATOM     82  C   UNL     1       9.112  -5.072 -10.315  1.00  0.00     0.135 A 
ATOM     83  F   UNL     1      11.350  -6.678 -12.676  1.00  0.00    -0.206 F 
ATOM     84  C   UNL     1      10.236  -4.620 -12.809  1.00  0.00     0.059 A 
ATOM     85  C   UNL     1       8.808  -3.898 -11.003  1.00  0.00     0.059 A 
ATOM     86  F   UNL     1       8.461  -5.248  -9.156  1.00  0.00    -0.206 F 
ATOM     87  C   UNL     1       9.351  -3.690 -12.263  1.00  0.00     0.060 A 
BRANCH  87  88
ATOM     88  S   UNL     1       8.812  -2.275 -13.252  1.00  0.00     0.124 S 
ATOM     89  O   UNL     1      10.027  -1.469 -13.312  1.00  0.00    -0.237 OA
ATOM     90  O   UNL     1       8.404  -2.909 -14.501  1.00  0.00    -0.237 OA
ATOM     91  O   UNL     1       7.724  -1.704 -12.462  1.00  0.00    -0.744 OA
ENDBRANCH  87  88
ENDBRANCH  55  80
BRANCH  67  92
ATOM     92  C   UNL     1      11.903 -12.047  -9.728  1.00  0.00     0.058 A 
ATOM     93  C   UNL     1      12.288 -11.242  -8.641  1.00  0.00     0.135 A 
ATOM     94  C   UNL     1      12.766 -13.097 -10.079  1.00  0.00     0.135 A 
ATOM     95  F   UNL     1      11.472 -10.290  -8.167  1.00  0.00    -0.206 F 
ATOM     96  C   UNL     1      13.493 -11.444  -7.963  1.00  0.00     0.059 A 
ATOM     97  C   UNL     1      13.955 -13.338  -9.398  1.00  0.00     0.059 A 
ATOM     98  F   UNL     1      12.426 -13.944 -11.065  1.00  0.00    -0.206 F 
ATOM     99  C   UNL     1      14.320 -12.499  -8.348  1.00  0.00     0.060 A 
BRANCH  99 100
ATOM    100  S   UNL     1      15.839 -12.810  -7.423  1.00  0.00     0.124 S 
ATOM    101  O   UNL     1      16.678 -11.687  -7.825  1.00  0.00    -0.237 OA
ATOM    102  O   UNL     1      15.377 -12.793  -6.038  1.00  0.00    -0.237 OA
ATOM    103  O   UNL     1      16.273 -14.118  -7.908  1.00  0.00    -0.744 OA
ENDBRANCH  99 100
ENDBRANCH  67  92
ENDBRANCH  41  42
ENDBRANCH  34  36
ENDBRANCH  33  34
ENDBRANCH  32  33
ENDBRANCH  31  32
ENDBRANCH  30  31
ENDBRANCH  29  30
ENDBRANCH   1  29
TORSDOF 24
