REMARK SMILES CCCNC(=O)CN(C)C(=O)C[N@H+]1CCCC[C@H]1C(=O)OCCOCCOCCOCCOC(=O)c1ccc(-c2c3nc(c(-c4c(F)cc(S(=O)(=O)[O-])cc4F)c4ccc([nH]4)c(-c4c(F)cc(S(=O)(=O)[O-])cc4F)c4nc(c(-c5c(F)cc(S(=O)(=O)[O-])cc5F)c5ccc2[nH]5)C=C4)C=C3)cc1
REMARK SMILES IDX 25 1 24 2 23 3 22 4 21 5 19 6 20 7 18 8 13 9 14 10 15 12
REMARK SMILES IDX 17 13 16 14 12 15 10 16 11 17 8 18 9 19 7 20 5 21 4 22 6 24
REMARK SMILES IDX 3 25 2 26 1 27 26 28 27 29 28 30 29 31 30 32 31 33 32 34
REMARK SMILES IDX 33 35 34 36 35 37 36 38 37 39 101 40 38 41 100 42 39 43
REMARK SMILES IDX 40 44 41 45 94 46 42 47 99 48 93 49 95 50 43 51 98 52 92 53
REMARK SMILES IDX 91 54 44 56 78 57 57 58 77 59 58 60 61 61 76 62 96 63 59 64
REMARK SMILES IDX 60 65 75 67 97 68 62 69 45 70 46 71 55 72 47 73 48 74 54 75
REMARK SMILES IDX 56 76 49 77 50 78 51 79 52 80 53 81 79 82 80 83 89 84 81 85
REMARK SMILES IDX 82 86 88 87 90 88 83 89 84 90 85 91 86 92 87 93 63 94 64 95
REMARK SMILES IDX 73 96 65 97 66 98 72 99 74 100 67 101 68 102 69 103 70 104
REMARK SMILES IDX 71 105
REMARK H PARENT 13 11 4 23 95 55 61 66
REMARK Flexibility Score: inf
ROOT
ATOM      1  C   UNL     1      -2.797  -0.496  -2.127  1.00  0.00     0.188 C 
ENDROOT
BRANCH   1   2
ATOM      2  O   UNL     1      -1.847  -0.226  -3.127  1.00  0.00    -0.376 OA
BRANCH   2   3
ATOM      3  C   UNL     1      -1.349   1.088  -3.273  1.00  0.00     0.202 C 
BRANCH   3   4
ATOM      4  C   UNL     1      -0.960   2.003  -2.098  1.00  0.00     0.261 C 
BRANCH   4   5
ATOM      5  O   UNL     1      -0.751   1.477  -0.775  1.00  0.00    -0.459 OA
BRANCH   5   6
ATOM      6  C   UNL     1      -1.817   1.637   0.056  1.00  0.00     0.365 C 
ATOM      7  O   UNL     1      -2.939   1.911  -0.366  1.00  0.00    -0.245 OA
BRANCH   6   8
ATOM      8  C   UNL     1      -1.487   1.586   1.579  1.00  0.00     0.295 C 
ATOM      9  N   UNL     1      -2.680   1.891   2.425  1.00  0.00    -0.315 N 
ATOM     10  C   UNL     1      -3.621   0.753   2.354  1.00  0.00     0.263 C 
ATOM     11  H   UNL     1      -2.326   2.025   3.372  1.00  0.00     0.349 HD
ATOM     12  C   UNL     1      -3.041  -0.549   2.915  1.00  0.00     0.062 C 
ATOM     13  C   UNL     1      -0.765   0.394   2.231  1.00  0.00     0.078 C 
ATOM     14  C   UNL     1      -1.593  -0.836   2.554  1.00  0.00     0.013 C 
BRANCH   9  15
ATOM     15  C   UNL     1      -3.384   3.180   2.113  1.00  0.00     0.364 C 
BRANCH  15  16
ATOM     16  C   UNL     1      -2.631   4.249   1.266  1.00  0.00     0.277 C 
ATOM     17  O   UNL     1      -3.197   4.764   0.297  1.00  0.00    -0.268 OA
BRANCH  16  18
ATOM     18  N   UNL     1      -1.341   4.645   1.631  1.00  0.00    -0.332 N 
ATOM     19  C   UNL     1      -0.993   4.728   3.037  1.00  0.00     0.147 C 
BRANCH  18  20
ATOM     20  C   UNL     1      -0.553   5.451   0.677  1.00  0.00     0.219 C 
BRANCH  20  21
ATOM     21  C   UNL     1       0.156   4.726  -0.491  1.00  0.00     0.239 C 
ATOM     22  N   UNL     1       1.242   3.914  -0.324  1.00  0.00    -0.355 N 
ATOM     23  H   UNL     1       1.558   3.501  -1.160  1.00  0.00     0.163 HD
ATOM     24  O   UNL     1      -0.205   4.920  -1.657  1.00  0.00    -0.273 OA
BRANCH  22  25
ATOM     25  C   UNL     1       2.023   3.541   0.842  1.00  0.00     0.115 C 
BRANCH  25  26
ATOM     26  C   UNL     1       2.030   2.031   1.072  1.00  0.00     0.018 C 
ATOM     27  C   UNL     1       2.819   1.168   0.099  1.00  0.00     0.006 C 
ENDBRANCH  25  26
ENDBRANCH  22  25
ENDBRANCH  20  21
ENDBRANCH  18  20
ENDBRANCH  16  18
ENDBRANCH  15  16
ENDBRANCH   9  15
ENDBRANCH   6   8
ENDBRANCH   5   6
ENDBRANCH   4   5
ENDBRANCH   3   4
ENDBRANCH   2   3
ENDBRANCH   1   2
BRANCH   1  28
ATOM     28  C   UNL     1      -2.207  -1.175  -0.888  1.00  0.00     0.188 C 
BRANCH  28  29
ATOM     29  O   UNL     1      -0.799  -1.198  -0.683  1.00  0.00    -0.377 OA
BRANCH  29  30
ATOM     30  C   UNL     1       0.040  -1.618  -1.750  1.00  0.00     0.188 C 
BRANCH  30  31
ATOM     31  C   UNL     1      -0.451  -2.779  -2.624  1.00  0.00     0.188 C 
BRANCH  31  32
ATOM     32  O   UNL     1      -1.348  -3.720  -2.076  1.00  0.00    -0.376 OA
BRANCH  32  33
ATOM     33  C   UNL     1      -1.115  -4.419  -0.872  1.00  0.00     0.202 C 
BRANCH  33  34
ATOM     34  C   UNL     1       0.223  -4.574  -0.135  1.00  0.00     0.261 C 
BRANCH  34  35
ATOM     35  O   UNL     1       1.393  -3.957  -0.652  1.00  0.00    -0.460 OA
BRANCH  35  36
ATOM     36  C   UNL     1       1.986  -4.575  -1.695  1.00  0.00     0.338 C 
ATOM     37  O   UNL     1       1.599  -5.558  -2.289  1.00  0.00    -0.246 OA
BRANCH  36  38
ATOM     38  C   UNL     1       3.166  -3.767  -2.056  1.00  0.00     0.060 A 
ATOM     39  C   UNL     1       3.198  -3.081  -3.276  1.00  0.00     0.016 A 
ATOM     40  C   UNL     1       4.262  -3.742  -1.192  1.00  0.00     0.016 A 
ATOM     41  C   UNL     1       4.360  -2.420  -3.667  1.00  0.00     0.010 A 
ATOM     42  C   UNL     1       5.429  -3.094  -1.591  1.00  0.00     0.010 A 
ATOM     43  C   UNL     1       5.496  -2.474  -2.851  1.00  0.00    -0.014 A 
BRANCH  43  44
ATOM     44  C   UNL     1       6.815  -2.084  -3.397  1.00  0.00     0.031 A 
ATOM     45  C   UNL     1       7.726  -3.174  -3.894  1.00  0.00     0.074 A 
ATOM     46  C   UNL     1       7.193  -0.796  -3.445  1.00  0.00     0.049 A 
ATOM     47  N   UNL     1       8.956  -3.096  -4.326  1.00  0.00    -0.248 NA
ATOM     48  C   UNL     1       7.173  -4.540  -3.897  1.00  0.00     0.031 C 
ATOM     49  C   UNL     1       6.374   0.342  -3.031  1.00  0.00     0.029 A 
ATOM     50  N   UNL     1       8.376  -0.234  -3.851  1.00  0.00    -0.354 N 
ATOM     51  C   UNL     1       9.329  -4.398  -4.638  1.00  0.00     0.074 A 
ATOM     52  C   UNL     1       8.207  -5.252  -4.318  1.00  0.00     0.031 C 
ATOM     53  C   UNL     1       7.089   1.470  -3.187  1.00  0.00     0.029 A 
ATOM     54  C   UNL     1       8.425   1.128  -3.674  1.00  0.00     0.049 A 
ATOM     55  H   UNL     1       9.118  -0.755  -4.233  1.00  0.00     0.167 HD
ATOM     56  C   UNL     1      10.501  -4.839  -5.152  1.00  0.00     0.037 A 
ATOM     57  C   UNL     1       9.445   1.990  -3.856  1.00  0.00     0.037 A 
ATOM     58  C   UNL     1      11.611  -3.977  -5.464  1.00  0.00     0.049 A 
ATOM     59  C   UNL     1      10.766   1.467  -4.362  1.00  0.00     0.074 A 
ATOM     60  C   UNL     1      12.838  -4.317  -6.004  1.00  0.00     0.029 A 
ATOM     61  N   UNL     1      11.631  -2.606  -5.255  1.00  0.00    -0.354 N 
ATOM     62  N   UNL     1      11.103   0.237  -4.673  1.00  0.00    -0.248 NA
ATOM     63  C   UNL     1      11.843   2.449  -4.546  1.00  0.00     0.031 C 
ATOM     64  C   UNL     1      13.621  -3.160  -6.065  1.00  0.00     0.029 A 
ATOM     65  C   UNL     1      12.859  -2.088  -5.628  1.00  0.00     0.049 A 
ATOM     66  H   UNL     1      10.882  -2.078  -4.894  1.00  0.00     0.167 HD
ATOM     67  C   UNL     1      12.420   0.303  -5.120  1.00  0.00     0.074 A 
ATOM     68  C   UNL     1      12.813   1.695  -5.047  1.00  0.00     0.031 C 
ATOM     69  C   UNL     1      13.229  -0.695  -5.555  1.00  0.00     0.037 A 
BRANCH  56  70
ATOM     70  C   UNL     1      10.654  -6.319  -5.378  1.00  0.00     0.058 A 
ATOM     71  C   UNL     1       9.943  -6.995  -6.382  1.00  0.00     0.135 A 
ATOM     72  C   UNL     1      11.548  -7.067  -4.595  1.00  0.00     0.135 A 
ATOM     73  F   UNL     1       9.059  -6.335  -7.147  1.00  0.00    -0.206 F 
ATOM     74  C   UNL     1      10.095  -8.363  -6.587  1.00  0.00     0.059 A 
ATOM     75  C   UNL     1      11.739  -8.430  -4.802  1.00  0.00     0.059 A 
ATOM     76  F   UNL     1      12.249  -6.474  -3.616  1.00  0.00    -0.206 F 
ATOM     77  C   UNL     1      10.998  -9.072  -5.792  1.00  0.00     0.060 A 
BRANCH  77  78
ATOM     78  S   UNL     1      11.192 -10.844  -6.078  1.00  0.00     0.124 S 
ATOM     79  O   UNL     1       9.923 -11.361  -5.575  1.00  0.00    -0.237 OA
ATOM     80  O   UNL     1      11.373 -10.907  -7.524  1.00  0.00    -0.237 OA
ATOM     81  O   UNL     1      12.368 -11.190  -5.285  1.00  0.00    -0.744 OA
ENDBRANCH  77  78
ENDBRANCH  56  70
BRANCH  57  82
ATOM     82  C   UNL     1       9.263   3.433  -3.543  1.00  0.00     0.058 A 
ATOM     83  C   UNL     1       9.265   4.401  -4.557  1.00  0.00     0.135 A 
ATOM     84  C   UNL     1       9.082   3.872  -2.221  1.00  0.00     0.135 A 
ATOM     85  F   UNL     1       9.445   4.033  -5.835  1.00  0.00    -0.206 F 
ATOM     86  C   UNL     1       9.109   5.755  -4.274  1.00  0.00     0.059 A 
ATOM     87  C   UNL     1       8.896   5.216  -1.916  1.00  0.00     0.059 A 
ATOM     88  F   UNL     1       9.060   2.986  -1.214  1.00  0.00    -0.206 F 
ATOM     89  C   UNL     1       8.920   6.151  -2.949  1.00  0.00     0.060 A 
BRANCH  89  90
ATOM     90  S   UNL     1       8.667   7.904  -2.596  1.00  0.00     0.124 S 
ATOM     91  O   UNL     1      10.000   8.447  -2.830  1.00  0.00    -0.237 OA
ATOM     92  O   UNL     1       7.646   8.267  -3.574  1.00  0.00    -0.237 OA
ATOM     93  O   UNL     1       8.220   7.904  -1.206  1.00  0.00    -0.744 OA
ENDBRANCH  89  90
ENDBRANCH  57  82
BRANCH  69  94
ATOM     94  C   UNL     1      14.607  -0.318  -6.031  1.00  0.00     0.058 A 
ATOM     95  C   UNL     1      15.613   0.093  -5.143  1.00  0.00     0.135 A 
ATOM     96  C   UNL     1      14.941  -0.428  -7.391  1.00  0.00     0.135 A 
ATOM     97  F   UNL     1      15.348   0.220  -3.833  1.00  0.00    -0.206 F 
ATOM     98  C   UNL     1      16.893   0.406  -5.590  1.00  0.00     0.059 A 
ATOM     99  C   UNL     1      16.223  -0.152  -7.856  1.00  0.00     0.059 A 
ATOM    100  F   UNL     1      14.021  -0.829  -8.283  1.00  0.00    -0.206 F 
ATOM    101  C   UNL     1      17.189   0.277  -6.948  1.00  0.00     0.060 A 
BRANCH 101 102
ATOM    102  S   UNL     1      18.863   0.654  -7.508  1.00  0.00     0.124 S 
ATOM    103  O   UNL     1      18.893   2.108  -7.389  1.00  0.00    -0.237 OA
ATOM    104  O   UNL     1      19.685  -0.077  -6.548  1.00  0.00    -0.237 OA
ATOM    105  O   UNL     1      18.892   0.135  -8.872  1.00  0.00    -0.744 OA
ENDBRANCH 101 102
ENDBRANCH  69  94
ENDBRANCH  43  44
ENDBRANCH  36  38
ENDBRANCH  35  36
ENDBRANCH  34  35
ENDBRANCH  33  34
ENDBRANCH  32  33
ENDBRANCH  31  32
ENDBRANCH  30  31
ENDBRANCH  29  30
ENDBRANCH  28  29
ENDBRANCH   1  28
TORSDOF 30
