REMARK SMILES O=C(CCC[N@@H+]1CCC[C@]2(CCC(=O)N(CCc3ccccc3)C2)C1)OCCOCCOCCOCCOC(=O)c1ccc(-c2c3nc(c(-c4c(F)cc(S(=O)(=O)[O-])cc4F)c4ccc([nH]4)c(-c4c(F)cc(S(=O)(=O)[O-])cc4F)c4nc(c(-c5c(F)cc(S(=O)(=O)[O-])cc5F)c5ccc2[nH]5)C=C4)C=C3)cc1
REMARK SMILES IDX 30 1 29 2 28 3 27 4 26 5 2 6 1 7 3 8 4 9 5 10 6 11 7 12
REMARK SMILES IDX 25 13 8 15 10 16 9 17 11 18 24 19 12 20 15 21 13 22 14 23
REMARK SMILES IDX 16 24 17 25 18 26 19 27 23 28 20 29 22 30 21 31 31 32 32 33
REMARK SMILES IDX 33 34 34 35 35 36 36 37 37 38 38 39 39 40 40 41 41 42 42 43
REMARK SMILES IDX 106 44 43 45 105 46 44 47 45 48 46 49 99 50 47 51 104 52
REMARK SMILES IDX 98 53 100 54 48 55 103 56 97 57 96 58 49 60 83 61 62 62
REMARK SMILES IDX 82 63 63 64 66 65 81 66 101 67 64 68 65 69 80 71 102 72
REMARK SMILES IDX 67 73 50 74 51 75 60 76 52 77 53 78 59 79 61 80 54 81 55 82
REMARK SMILES IDX 56 83 57 84 58 85 84 86 85 87 94 88 86 89 87 90 93 91 95 92
REMARK SMILES IDX 88 93 89 94 90 95 91 96 92 97 68 98 69 99 78 100 70 101
REMARK SMILES IDX 71 102 77 103 79 104 72 105 73 106 74 107 75 108 76 109
REMARK H PARENT 6 14 100 59 66 70
REMARK Flexibility Score: inf
ROOT
ATOM      1  C   UNL     1       1.004  -1.789   0.936  1.00  0.00     0.188 C 
ENDROOT
BRANCH   1   2
ATOM      2  O   UNL     1       2.114  -1.915   0.055  1.00  0.00    -0.376 OA
BRANCH   2   3
ATOM      3  C   UNL     1       3.108  -0.907   0.182  1.00  0.00     0.202 C 
BRANCH   3   4
ATOM      4  C   UNL     1       2.631   0.547   0.209  1.00  0.00     0.261 C 
BRANCH   4   5
ATOM      5  O   UNL     1       2.408   1.171  -1.068  1.00  0.00    -0.463 OA
BRANCH   5   6
ATOM      6  C   UNL     1       2.057   0.398  -2.110  1.00  0.00     0.306 C 
ATOM      7  O   UNL     1       0.903   0.388  -2.529  1.00  0.00    -0.252 OA
BRANCH   6   8
ATOM      8  C   UNL     1       3.167  -0.415  -2.756  1.00  0.00     0.128 C 
BRANCH   8   9
ATOM      9  C   UNL     1       4.630   0.089  -2.831  1.00  0.00     0.073 C 
BRANCH   9  10
ATOM     10  C   UNL     1       5.388   0.824  -1.684  1.00  0.00     0.262 C 
BRANCH  10  11
ATOM     11  N   UNL     1       6.581   0.205  -1.051  1.00  0.00    -0.334 N 
ATOM     12  C   UNL     1       6.424  -0.501   0.230  1.00  0.00     0.262 C 
ATOM     13  C   UNL     1       7.690   1.167  -0.858  1.00  0.00     0.271 C 
ATOM     14  H   UNL     1       6.777  -0.510  -1.752  1.00  0.00     0.348 HD
ATOM     15  C   UNL     1       6.210   0.380   1.474  1.00  0.00     0.062 C 
ATOM     16  C   UNL     1       7.539   2.218   0.293  1.00  0.00     0.038 C 
ATOM     17  C   UNL     1       7.254   1.482   1.621  1.00  0.00     0.020 C 
ATOM     18  C   UNL     1       6.387   3.227  -0.031  1.00  0.00     0.024 C 
ATOM     19  C   UNL     1       8.911   2.957   0.404  1.00  0.00     0.132 C 
ATOM     20  C   UNL     1       6.497   4.573   0.673  1.00  0.00     0.101 C 
ATOM     21  N   UNL     1       8.825   4.243   1.066  1.00  0.00    -0.342 N 
ATOM     22  C   UNL     1       7.899   5.071   0.432  1.00  0.00     0.222 C 
ATOM     23  O   UNL     1       8.187   5.833  -0.485  1.00  0.00    -0.275 OA
BRANCH  21  24
ATOM     24  C   UNL     1       9.028   4.328   2.519  1.00  0.00     0.124 C 
BRANCH  24  25
ATOM     25  C   UNL     1       9.552   5.694   3.008  1.00  0.00     0.057 C 
BRANCH  25  26
ATOM     26  C   UNL     1       8.626   6.871   2.804  1.00  0.00    -0.046 A 
ATOM     27  C   UNL     1       9.159   8.094   2.377  1.00  0.00     0.004 A 
ATOM     28  C   UNL     1       7.246   6.789   3.029  1.00  0.00     0.004 A 
ATOM     29  C   UNL     1       8.323   9.171   2.084  1.00  0.00     0.000 A 
ATOM     30  C   UNL     1       6.405   7.851   2.692  1.00  0.00     0.000 A 
ATOM     31  C   UNL     1       6.944   9.038   2.209  1.00  0.00     0.000 A 
ENDBRANCH  25  26
ENDBRANCH  24  25
ENDBRANCH  21  24
ENDBRANCH  10  11
ENDBRANCH   9  10
ENDBRANCH   8   9
ENDBRANCH   6   8
ENDBRANCH   5   6
ENDBRANCH   4   5
ENDBRANCH   3   4
ENDBRANCH   2   3
ENDBRANCH   1   2
BRANCH   1  32
ATOM     32  C   UNL     1       1.305  -1.696   2.444  1.00  0.00     0.188 C 
BRANCH  32  33
ATOM     33  O   UNL     1       2.475  -0.947   2.754  1.00  0.00    -0.377 OA
BRANCH  33  34
ATOM     34  C   UNL     1       3.427  -1.641   3.563  1.00  0.00     0.188 C 
BRANCH  34  35
ATOM     35  C   UNL     1       4.399  -2.636   2.868  1.00  0.00     0.188 C 
BRANCH  35  36
ATOM     36  O   UNL     1       3.931  -3.708   2.075  1.00  0.00    -0.376 OA
BRANCH  36  37
ATOM     37  C   UNL     1       3.010  -4.666   2.555  1.00  0.00     0.202 C 
BRANCH  37  38
ATOM     38  C   UNL     1       2.978  -5.151   4.017  1.00  0.00     0.261 C 
BRANCH  38  39
ATOM     39  O   UNL     1       3.269  -4.164   5.017  1.00  0.00    -0.460 OA
BRANCH  39  40
ATOM     40  C   UNL     1       4.502  -4.267   5.584  1.00  0.00     0.338 C 
ATOM     41  O   UNL     1       5.309  -5.152   5.392  1.00  0.00    -0.246 OA
BRANCH  40  42
ATOM     42  C   UNL     1       4.855  -3.003   6.288  1.00  0.00     0.060 A 
ATOM     43  C   UNL     1       6.110  -2.442   6.001  1.00  0.00     0.016 A 
ATOM     44  C   UNL     1       4.018  -2.397   7.226  1.00  0.00     0.016 A 
ATOM     45  C   UNL     1       6.574  -1.341   6.717  1.00  0.00     0.010 A 
ATOM     46  C   UNL     1       4.494  -1.300   7.962  1.00  0.00     0.010 A 
ATOM     47  C   UNL     1       5.802  -0.817   7.759  1.00  0.00    -0.014 A 
BRANCH  47  48
ATOM     48  C   UNL     1       6.493  -0.021   8.811  1.00  0.00     0.031 A 
ATOM     49  C   UNL     1       6.946  -0.755  10.053  1.00  0.00     0.074 A 
ATOM     50  C   UNL     1       6.800   1.279   8.650  1.00  0.00     0.049 A 
ATOM     51  N   UNL     1       7.585  -0.307  11.102  1.00  0.00    -0.248 NA
ATOM     52  C   UNL     1       6.631  -2.193  10.114  1.00  0.00     0.031 C 
ATOM     53  C   UNL     1       6.478   2.090   7.478  1.00  0.00     0.029 A 
ATOM     54  N   UNL     1       7.464   2.146   9.486  1.00  0.00    -0.354 N 
ATOM     55  C   UNL     1       7.733  -1.401  11.950  1.00  0.00     0.074 A 
ATOM     56  C   UNL     1       7.087  -2.525  11.311  1.00  0.00     0.031 C 
ATOM     57  C   UNL     1       6.941   3.339   7.672  1.00  0.00     0.029 A 
ATOM     58  C   UNL     1       7.571   3.424   8.990  1.00  0.00     0.049 A 
ATOM     59  H   UNL     1       7.829   1.876  10.359  1.00  0.00     0.167 HD
ATOM     60  C   UNL     1       8.360  -1.473  13.148  1.00  0.00     0.037 A 
ATOM     61  C   UNL     1       8.104   4.533   9.543  1.00  0.00     0.037 A 
ATOM     62  C   UNL     1       9.014  -0.358  13.779  1.00  0.00     0.049 A 
ATOM     63  C   UNL     1       8.741   4.446  10.911  1.00  0.00     0.074 A 
ATOM     64  C   UNL     1       9.694  -0.330  14.984  1.00  0.00     0.029 A 
ATOM     65  N   UNL     1       9.063   0.928  13.262  1.00  0.00    -0.354 N 
ATOM     66  N   UNL     1       8.888   3.401  11.693  1.00  0.00    -0.248 NA
ATOM     67  C   UNL     1       9.294   5.690  11.468  1.00  0.00     0.031 C 
ATOM     68  C   UNL     1      10.100   0.987  15.225  1.00  0.00     0.029 A 
ATOM     69  C   UNL     1       9.739   1.763  14.135  1.00  0.00     0.049 A 
ATOM     70  H   UNL     1       8.675   1.206  12.401  1.00  0.00     0.167 HD
ATOM     71  C   UNL     1       9.589   3.854  12.810  1.00  0.00     0.074 A 
ATOM     72  C   UNL     1       9.839   5.264  12.598  1.00  0.00     0.031 C 
ATOM     73  C   UNL     1       9.996   3.164  13.906  1.00  0.00     0.037 A 
BRANCH  60  74
ATOM     74  C   UNL     1       8.333  -2.792  13.873  1.00  0.00     0.058 A 
ATOM     75  C   UNL     1       9.045  -3.913  13.414  1.00  0.00     0.135 A 
ATOM     76  C   UNL     1       7.593  -2.930  15.059  1.00  0.00     0.135 A 
ATOM     77  F   UNL     1       9.750  -3.846  12.273  1.00  0.00    -0.206 F 
ATOM     78  C   UNL     1       9.001  -5.129  14.089  1.00  0.00     0.059 A 
ATOM     79  C   UNL     1       7.562  -4.127  15.768  1.00  0.00     0.059 A 
ATOM     80  F   UNL     1       6.888  -1.894  15.540  1.00  0.00    -0.206 F 
ATOM     81  C   UNL     1       8.257  -5.226  15.266  1.00  0.00     0.060 A 
BRANCH  81  82
ATOM     82  S   UNL     1       8.211  -6.809  16.131  1.00  0.00     0.124 S 
ATOM     83  O   UNL     1       7.390  -7.610  15.228  1.00  0.00    -0.237 OA
ATOM     84  O   UNL     1       9.623  -7.170  16.192  1.00  0.00    -0.237 OA
ATOM     85  O   UNL     1       7.594  -6.480  17.412  1.00  0.00    -0.744 OA
ENDBRANCH  81  82
ENDBRANCH  60  74
BRANCH  61  86
ATOM     86  C   UNL     1       8.069   5.831   8.810  1.00  0.00     0.058 A 
ATOM     87  C   UNL     1       9.248   6.439   8.351  1.00  0.00     0.135 A 
ATOM     88  C   UNL     1       6.859   6.505   8.580  1.00  0.00     0.135 A 
ATOM     89  F   UNL     1      10.432   5.841   8.552  1.00  0.00    -0.206 F 
ATOM     90  C   UNL     1       9.234   7.681   7.721  1.00  0.00     0.059 A 
ATOM     91  C   UNL     1       6.816   7.733   7.926  1.00  0.00     0.059 A 
ATOM     92  F   UNL     1       5.700   5.963   8.986  1.00  0.00    -0.206 F 
ATOM     93  C   UNL     1       8.012   8.323   7.519  1.00  0.00     0.060 A 
BRANCH  93  94
ATOM     94  S   UNL     1       7.997   9.938   6.707  1.00  0.00     0.124 S 
ATOM     95  O   UNL     1       8.397  10.814   7.803  1.00  0.00    -0.237 OA
ATOM     96  O   UNL     1       8.983   9.764   5.646  1.00  0.00    -0.237 OA
ATOM     97  O   UNL     1       6.612  10.073   6.266  1.00  0.00    -0.744 OA
ENDBRANCH  93  94
ENDBRANCH  61  86
BRANCH  73  98
ATOM     98  C   UNL     1      10.815   3.901  14.935  1.00  0.00     0.058 A 
ATOM     99  C   UNL     1      10.268   4.898  15.757  1.00  0.00     0.135 A 
ATOM    100  C   UNL     1      12.168   3.570  15.126  1.00  0.00     0.135 A 
ATOM    101  F   UNL     1       8.980   5.254  15.622  1.00  0.00    -0.206 F 
ATOM    102  C   UNL     1      11.041   5.571  16.699  1.00  0.00     0.059 A 
ATOM    103  C   UNL     1      12.951   4.204  16.086  1.00  0.00     0.059 A 
ATOM    104  F   UNL     1      12.742   2.610  14.382  1.00  0.00    -0.206 F 
ATOM    105  C   UNL     1      12.383   5.218  16.854  1.00  0.00     0.060 A 
BRANCH 105 106
ATOM    106  S   UNL     1      13.376   6.097  18.080  1.00  0.00     0.124 S 
ATOM    107  O   UNL     1      13.551   7.396  17.439  1.00  0.00    -0.237 OA
ATOM    108  O   UNL     1      12.508   6.080  19.254  1.00  0.00    -0.237 OA
ATOM    109  O   UNL     1      14.583   5.282  18.188  1.00  0.00    -0.744 OA
ENDBRANCH 105 106
ENDBRANCH  73  98
ENDBRANCH  47  48
ENDBRANCH  40  42
ENDBRANCH  39  40
ENDBRANCH  38  39
ENDBRANCH  37  38
ENDBRANCH  36  37
ENDBRANCH  35  36
ENDBRANCH  34  35
ENDBRANCH  33  34
ENDBRANCH  32  33
ENDBRANCH   1  32
TORSDOF 29
