REMARK SMILES CC1CC[NH+](CC(=O)N[C@H](Cc2cccc(F)c2)C(=O)OCCOCCOCCOCCOC(=O)c2ccc(-c3c4nc(c(-c5c(F)cc(S(=O)(=O)[O-])cc5F)c5ccc([nH]5)c(-c5c(F)cc(S(=O)(=O)[O-])cc5F)c5nc(c(-c6c(F)cc(S(=O)(=O)[O-])cc6F)c6ccc3[nH]6)C=C5)C=C4)cc2)CC1
REMARK SMILES IDX 27 1 26 2 25 3 24 4 23 5 22 6 21 7 19 8 20 9 10 10 9 11 7 12
REMARK SMILES IDX 8 13 6 15 5 16 1 17 2 18 3 19 103 20 4 21 102 22 11 24 12 25
REMARK SMILES IDX 13 26 18 27 14 28 16 29 15 30 17 31 28 32 29 33 30 34 31 35
REMARK SMILES IDX 32 36 33 37 34 38 35 39 36 40 37 41 101 42 38 43 100 44
REMARK SMILES IDX 39 45 40 46 41 47 94 48 42 49 99 50 93 51 95 52 43 53 98 54
REMARK SMILES IDX 92 55 91 56 44 58 78 59 57 60 77 61 58 62 61 63 76 64 96 65
REMARK SMILES IDX 59 66 60 67 75 69 97 70 62 71 45 72 46 73 55 74 47 75 48 76
REMARK SMILES IDX 54 77 56 78 49 79 50 80 51 81 52 82 53 83 79 84 80 85 89 86
REMARK SMILES IDX 81 87 82 88 88 89 90 90 83 91 84 92 85 93 86 94 87 95 63 96
REMARK SMILES IDX 64 97 73 98 65 99 66 100 72 101 74 102 67 103 68 104 69 105
REMARK SMILES IDX 70 106 71 107
REMARK H PARENT 9 14 5 23 95 57 61 68
REMARK Flexibility Score: inf
ROOT
ATOM      1  O   UNL     1      -0.781  -2.689  -4.282  1.00  0.00    -0.377 OA
ENDROOT
BRANCH   1   2
ATOM      2  C   UNL     1       0.494  -2.920  -3.719  1.00  0.00     0.188 C 
BRANCH   2   3
ATOM      3  C   UNL     1       0.847  -4.274  -3.102  1.00  0.00     0.188 C 
BRANCH   3   4
ATOM      4  O   UNL     1       0.317  -5.414  -3.732  1.00  0.00    -0.376 OA
BRANCH   4   5
ATOM      5  C   UNL     1      -0.978  -5.883  -3.378  1.00  0.00     0.202 C 
BRANCH   5   6
ATOM      6  C   UNL     1      -1.872  -5.221  -2.306  1.00  0.00     0.261 C 
BRANCH   6   7
ATOM      7  O   UNL     1      -1.942  -3.771  -2.296  1.00  0.00    -0.462 OA
BRANCH   7   8
ATOM      8  C   UNL     1      -1.599  -3.196  -1.119  1.00  0.00     0.329 C 
ATOM      9  O   UNL     1      -1.298  -3.876  -0.133  1.00  0.00    -0.250 OA
BRANCH   8  10
ATOM     10  C   UNL     1      -1.492  -1.637  -1.033  1.00  0.00     0.196 C 
BRANCH  10  11
ATOM     11  N   UNL     1      -2.067  -1.377   0.310  1.00  0.00    -0.338 N 
ATOM     12  C   UNL     1      -1.410  -0.919   1.424  1.00  0.00     0.275 C 
ATOM     13  O   UNL     1      -1.739  -1.387   2.516  1.00  0.00    -0.268 OA
ATOM     14  H   UNL     1      -3.030  -1.553   0.413  1.00  0.00     0.164 HD
BRANCH  12  15
ATOM     15  C   UNL     1      -0.485   0.282   1.300  1.00  0.00     0.363 C 
BRANCH  15  16
ATOM     16  N   UNL     1       0.970   0.143   1.405  1.00  0.00    -0.327 N 
ATOM     17  C   UNL     1       1.421  -3.879   2.555  1.00  0.00     0.008 C 
ATOM     18  C   UNL     1       1.972  -2.490   2.223  1.00  0.00    -0.003 C 
ATOM     19  C   UNL     1       1.421  -1.469   3.231  1.00  0.00     0.065 C 
ATOM     20  C   UNL     1       1.646  -2.162   0.763  1.00  0.00     0.065 C 
ATOM     21  C   UNL     1       1.490  -0.030   2.747  1.00  0.00     0.262 C 
ATOM     22  C   UNL     1       1.677  -0.676   0.440  1.00  0.00     0.262 C 
ATOM     23  H   UNL     1       1.205   1.088   1.102  1.00  0.00     0.348 HD
ENDBRANCH  15  16
ENDBRANCH  12  15
ENDBRANCH  10  11
BRANCH  10  24
ATOM     24  C   UNL     1      -1.973  -0.636  -2.119  1.00  0.00     0.072 C 
BRANCH  24  25
ATOM     25  C   UNL     1      -1.087   0.631  -2.202  1.00  0.00    -0.042 A 
ATOM     26  C   UNL     1       0.190   0.606  -2.798  1.00  0.00     0.004 A 
ATOM     27  C   UNL     1      -1.460   1.819  -1.551  1.00  0.00     0.043 A 
ATOM     28  C   UNL     1       1.121   1.639  -2.598  1.00  0.00     0.003 A 
ATOM     29  C   UNL     1      -0.523   2.842  -1.348  1.00  0.00     0.123 A 
ATOM     30  C   UNL     1       0.774   2.746  -1.833  1.00  0.00     0.039 A 
ATOM     31  F   UNL     1      -0.856   3.899  -0.593  1.00  0.00    -0.207 F 
ENDBRANCH  24  25
ENDBRANCH  10  24
ENDBRANCH   8  10
ENDBRANCH   7   8
ENDBRANCH   6   7
ENDBRANCH   5   6
ENDBRANCH   4   5
ENDBRANCH   3   4
ENDBRANCH   2   3
ENDBRANCH   1   2
BRANCH   1  32
ATOM     32  C   UNL     1      -1.236  -3.417  -5.416  1.00  0.00     0.188 C 
BRANCH  32  33
ATOM     33  C   UNL     1      -0.212  -4.026  -6.383  1.00  0.00     0.188 C 
BRANCH  33  34
ATOM     34  O   UNL     1       1.047  -3.376  -6.365  1.00  0.00    -0.376 OA
BRANCH  34  35
ATOM     35  C   UNL     1       1.268  -2.343  -7.313  1.00  0.00     0.202 C 
BRANCH  35  36
ATOM     36  C   UNL     1       0.362  -1.102  -7.247  1.00  0.00     0.261 C 
BRANCH  36  37
ATOM     37  O   UNL     1      -1.043  -1.298  -7.488  1.00  0.00    -0.460 OA
BRANCH  37  38
ATOM     38  C   UNL     1      -1.426  -1.929  -8.622  1.00  0.00     0.338 C 
ATOM     39  O   UNL     1      -0.713  -2.320  -9.520  1.00  0.00    -0.246 OA
BRANCH  38  40
ATOM     40  C   UNL     1      -2.870  -2.239  -8.498  1.00  0.00     0.060 A 
ATOM     41  C   UNL     1      -3.285  -3.578  -8.529  1.00  0.00     0.016 A 
ATOM     42  C   UNL     1      -3.808  -1.214  -8.359  1.00  0.00     0.016 A 
ATOM     43  C   UNL     1      -4.645  -3.892  -8.464  1.00  0.00     0.010 A 
ATOM     44  C   UNL     1      -5.170  -1.530  -8.315  1.00  0.00     0.010 A 
ATOM     45  C   UNL     1      -5.598  -2.866  -8.404  1.00  0.00    -0.014 A 
BRANCH  45  46
ATOM     46  C   UNL     1      -7.034  -3.170  -8.637  1.00  0.00     0.031 A 
ATOM     47  C   UNL     1      -7.596  -2.937 -10.015  1.00  0.00     0.074 A 
ATOM     48  C   UNL     1      -7.823  -3.658  -7.661  1.00  0.00     0.049 A 
ATOM     49  N   UNL     1      -8.826  -3.052 -10.441  1.00  0.00    -0.248 NA
ATOM     50  C   UNL     1      -6.639  -2.516 -11.054  1.00  0.00     0.031 C 
ATOM     51  C   UNL     1      -7.390  -3.976  -6.302  1.00  0.00     0.029 A 
ATOM     52  N   UNL     1      -9.163  -3.963  -7.665  1.00  0.00    -0.354 N 
ATOM     53  C   UNL     1      -8.793  -2.714 -11.789  1.00  0.00     0.074 A 
ATOM     54  C   UNL     1      -7.428  -2.361 -12.107  1.00  0.00     0.031 C 
ATOM     55  C   UNL     1      -8.448  -4.419  -5.599  1.00  0.00     0.029 A 
ATOM     56  C   UNL     1      -9.641  -4.381  -6.445  1.00  0.00     0.049 A 
ATOM     57  H   UNL     1      -9.729  -3.889  -8.468  1.00  0.00     0.167 HD
ATOM     58  C   UNL     1      -9.808  -2.711 -12.684  1.00  0.00     0.037 A 
ATOM     59  C   UNL     1     -10.899  -4.673  -6.051  1.00  0.00     0.037 A 
ATOM     60  C   UNL     1     -11.164  -3.072 -12.367  1.00  0.00     0.049 A 
ATOM     61  C   UNL     1     -12.029  -4.581  -7.048  1.00  0.00     0.074 A 
ATOM     62  C   UNL     1     -12.260  -3.110 -13.212  1.00  0.00     0.029 A 
ATOM     63  N   UNL     1     -11.613  -3.456 -11.112  1.00  0.00    -0.354 N 
ATOM     64  N   UNL     1     -11.981  -4.269  -8.322  1.00  0.00    -0.248 NA
ATOM     65  C   UNL     1     -13.383  -4.878  -6.556  1.00  0.00     0.031 C 
ATOM     66  C   UNL     1     -13.381  -3.462 -12.457  1.00  0.00     0.029 A 
ATOM     67  C   UNL     1     -12.973  -3.707 -11.155  1.00  0.00     0.049 A 
ATOM     68  H   UNL     1     -11.047  -3.538 -10.310  1.00  0.00     0.167 HD
ATOM     69  C   UNL     1     -13.291  -4.363  -8.787  1.00  0.00     0.074 A 
ATOM     70  C   UNL     1     -14.106  -4.770  -7.664  1.00  0.00     0.031 C 
ATOM     71  C   UNL     1     -13.773  -4.131 -10.034  1.00  0.00     0.037 A 
BRANCH  58  72
ATOM     72  C   UNL     1      -9.508  -2.301 -14.098  1.00  0.00     0.058 A 
ATOM     73  C   UNL     1     -10.020  -1.098 -14.612  1.00  0.00     0.135 A 
ATOM     74  C   UNL     1      -8.806  -3.143 -14.974  1.00  0.00     0.135 A 
ATOM     75  F   UNL     1     -10.689  -0.252 -13.814  1.00  0.00    -0.206 F 
ATOM     76  C   UNL     1      -9.879  -0.763 -15.954  1.00  0.00     0.059 A 
ATOM     77  C   UNL     1      -8.629  -2.814 -16.315  1.00  0.00     0.059 A 
ATOM     78  F   UNL     1      -8.273  -4.290 -14.526  1.00  0.00    -0.206 F 
ATOM     79  C   UNL     1      -9.189  -1.633 -16.800  1.00  0.00     0.060 A 
BRANCH  79  80
ATOM     80  S   UNL     1      -9.032  -1.189 -18.543  1.00  0.00     0.124 S 
ATOM     81  O   UNL     1     -10.413  -1.279 -19.002  1.00  0.00    -0.237 OA
ATOM     82  O   UNL     1      -8.472   0.157 -18.464  1.00  0.00    -0.237 OA
ATOM     83  O   UNL     1      -8.126  -2.206 -19.070  1.00  0.00    -0.744 OA
ENDBRANCH  79  80
ENDBRANCH  58  72
BRANCH  59  84
ATOM     84  C   UNL     1     -11.169  -5.066  -4.639  1.00  0.00     0.058 A 
ATOM     85  C   UNL     1     -11.010  -4.151  -3.586  1.00  0.00     0.135 A 
ATOM     86  C   UNL     1     -11.606  -6.360  -4.315  1.00  0.00     0.135 A 
ATOM     87  F   UNL     1     -10.593  -2.900  -3.836  1.00  0.00    -0.206 F 
ATOM     88  C   UNL     1     -11.254  -4.509  -2.264  1.00  0.00     0.059 A 
ATOM     89  C   UNL     1     -11.887  -6.733  -3.002  1.00  0.00     0.059 A 
ATOM     90  F   UNL     1     -11.793  -7.266  -5.286  1.00  0.00    -0.206 F 
ATOM     91  C   UNL     1     -11.693  -5.803  -1.982  1.00  0.00     0.060 A 
BRANCH  91  92
ATOM     92  S   UNL     1     -12.011  -6.242  -0.260  1.00  0.00     0.124 S 
ATOM     93  O   UNL     1     -10.661  -6.235   0.294  1.00  0.00    -0.237 OA
ATOM     94  O   UNL     1     -12.883  -5.156   0.175  1.00  0.00    -0.237 OA
ATOM     95  O   UNL     1     -12.644  -7.553  -0.357  1.00  0.00    -0.744 OA
ENDBRANCH  91  92
ENDBRANCH  59  84
BRANCH  71  96
ATOM     96  C   UNL     1     -15.244  -4.342 -10.278  1.00  0.00     0.058 A 
ATOM     97  C   UNL     1     -15.682  -5.391 -11.104  1.00  0.00     0.135 A 
ATOM     98  C   UNL     1     -16.210  -3.452  -9.784  1.00  0.00     0.135 A 
ATOM     99  F   UNL     1     -14.800  -6.266 -11.612  1.00  0.00    -0.206 F 
ATOM    100  C   UNL     1     -17.020  -5.535 -11.451  1.00  0.00     0.059 A 
ATOM    101  C   UNL     1     -17.560  -3.596 -10.093  1.00  0.00     0.059 A 
ATOM    102  F   UNL     1     -15.846  -2.437  -8.985  1.00  0.00    -0.206 F 
ATOM    103  C   UNL     1     -17.953  -4.630 -10.943  1.00  0.00     0.060 A 
BRANCH 103 104
ATOM    104  S   UNL     1     -19.686  -4.835 -11.402  1.00  0.00     0.124 S 
ATOM    105  O   UNL     1     -19.664  -4.493 -12.820  1.00  0.00    -0.237 OA
ATOM    106  O   UNL     1     -19.922  -6.242 -11.093  1.00  0.00    -0.237 OA
ATOM    107  O   UNL     1     -20.382  -3.886 -10.539  1.00  0.00    -0.744 OA
ENDBRANCH 103 104
ENDBRANCH  71  96
ENDBRANCH  45  46
ENDBRANCH  38  40
ENDBRANCH  37  38
ENDBRANCH  36  37
ENDBRANCH  35  36
ENDBRANCH  34  35
ENDBRANCH  33  34
ENDBRANCH  32  33
ENDBRANCH   1  32
TORSDOF 28
