REMARK SMILES O=C(OCCOCCOCCOCCOC(=O)c1ccc(-c2c3nc(c(-c4c(F)cc(S(=O)(=O)[O-])cc4F)c4ccc([nH]4)c(-c4c(F)cc(S(=O)(=O)[O-])cc4F)c4nc(c(-c5c(F)cc(S(=O)(=O)[O-])cc5F)c5ccc2[nH]5)C=C4)C=C3)cc1)c1ccc(NC(=O)[C@@H]2CC=CC[C@H]2C(=O)Nc2cccc([N+](=O)[O-])c2)cc1
REMARK SMILES IDX 8 1 7 2 6 3 5 4 4 5 3 6 2 7 1 8 84 9 85 10 110 11 86 12
REMARK SMILES IDX 109 13 87 14 88 15 89 16 90 18 91 19 92 20 96 21 93 22 95 23
REMARK SMILES IDX 94 24 97 25 98 26 99 27 100 29 101 30 108 31 102 32 104 33
REMARK SMILES IDX 103 34 105 35 106 36 107 37 9 38 10 39 11 40 12 41 13 42
REMARK SMILES IDX 14 43 15 44 16 45 17 46 18 47 19 48 83 49 20 50 82 51 21 52
REMARK SMILES IDX 22 53 23 54 76 55 24 56 81 57 75 58 77 59 25 60 80 61 74 62
REMARK SMILES IDX 73 63 26 65 60 66 39 67 59 68 40 69 43 70 58 71 78 72 41 73
REMARK SMILES IDX 42 74 57 76 79 77 44 78 27 79 28 80 37 81 29 82 30 83 36 84
REMARK SMILES IDX 38 85 31 86 32 87 33 88 34 89 35 90 61 91 62 92 71 93 63 94
REMARK SMILES IDX 64 95 70 96 72 97 65 98 66 99 67 100 68 101 69 102 45 103
REMARK SMILES IDX 46 104 55 105 47 106 48 107 54 108 56 109 49 110 50 111
REMARK SMILES IDX 51 112 52 113 53 114
REMARK H PARENT 88 17 99 28 77 64 43 75
REMARK Flexibility Score: inf
ROOT
ATOM      1  C   UNL     1       4.622  11.052  -2.358  1.00  0.00     0.188 C 
ENDROOT
BRANCH   1   2
ATOM      2  C   UNL     1       4.794  10.136  -1.148  1.00  0.00     0.188 C 
BRANCH   2   3
ATOM      3  O   UNL     1       4.602   8.756  -1.465  1.00  0.00    -0.376 OA
BRANCH   3   4
ATOM      4  C   UNL     1       4.003   7.919  -0.478  1.00  0.00     0.202 C 
BRANCH   4   5
ATOM      5  C   UNL     1       4.232   8.228   1.001  1.00  0.00     0.261 C 
BRANCH   5   6
ATOM      6  O   UNL     1       5.391   9.026   1.331  1.00  0.00    -0.460 OA
BRANCH   6   7
ATOM      7  C   UNL     1       6.714   8.794   1.247  1.00  0.00     0.338 C 
ATOM      8  O   UNL     1       7.514   9.654   1.606  1.00  0.00    -0.246 OA
BRANCH   7   9
ATOM      9  C   UNL     1       7.264   7.516   0.758  1.00  0.00     0.060 A 
ATOM     10  C   UNL     1       7.068   7.083  -0.542  1.00  0.00     0.018 A 
ATOM     11  C   UNL     1       8.244   6.868   1.518  1.00  0.00     0.018 A 
ATOM     12  C   UNL     1       7.715   5.943  -1.016  1.00  0.00     0.027 A 
ATOM     13  C   UNL     1       8.917   5.735   1.017  1.00  0.00     0.027 A 
ATOM     14  C   UNL     1       8.606   5.218  -0.244  1.00  0.00     0.041 A 
BRANCH  14  15
ATOM     15  N   UNL     1       9.293   4.082  -0.723  1.00  0.00    -0.326 N 
ATOM     16  C   UNL     1       9.046   3.187  -1.743  1.00  0.00     0.228 C 
ATOM     17  H   UNL     1      10.120   3.888  -0.226  1.00  0.00     0.169 HD
ATOM     18  O   UNL     1       9.964   2.428  -2.072  1.00  0.00    -0.274 OA
BRANCH  16  19
ATOM     19  C   UNL     1       7.643   3.014  -2.340  1.00  0.00     0.095 C 
ATOM     20  C   UNL     1       7.153   1.583  -2.034  1.00  0.00     0.041 C 
ATOM     21  C   UNL     1       7.555   3.375  -3.838  1.00  0.00     0.095 C 
ATOM     22  C   UNL     1       5.912   1.203  -2.786  1.00  0.00    -0.030 C 
ATOM     23  C   UNL     1       6.686   2.483  -4.750  1.00  0.00     0.041 C 
ATOM     24  C   UNL     1       5.699   1.621  -4.037  1.00  0.00    -0.030 C 
BRANCH  21  25
ATOM     25  C   UNL     1       7.168   4.824  -4.127  1.00  0.00     0.228 C 
ATOM     26  O   UNL     1       8.046   5.594  -4.541  1.00  0.00    -0.274 OA
ATOM     27  N   UNL     1       5.908   5.340  -4.050  1.00  0.00    -0.326 N 
ATOM     28  H   UNL     1       5.840   6.194  -4.535  1.00  0.00     0.169 HD
BRANCH  27  29
ATOM     29  C   UNL     1       4.681   4.983  -3.465  1.00  0.00     0.048 A 
ATOM     30  C   UNL     1       3.522   5.415  -4.122  1.00  0.00     0.026 A 
ATOM     31  C   UNL     1       4.530   4.400  -2.213  1.00  0.00     0.111 A 
ATOM     32  C   UNL     1       2.250   5.224  -3.565  1.00  0.00     0.009 A 
ATOM     33  C   UNL     1       3.259   4.212  -1.647  1.00  0.00     0.271 A 
ATOM     34  C   UNL     1       2.110   4.618  -2.321  1.00  0.00     0.086 A 
BRANCH  33  35
ATOM     35  N   UNL     1       3.161   3.664  -0.290  1.00  0.00     0.062 N 
ATOM     36  O   UNL     1       2.104   3.845   0.328  1.00  0.00    -0.258 OA
ATOM     37  O   UNL     1       4.155   3.080   0.168  1.00  0.00    -0.258 OA
ENDBRANCH  33  35
ENDBRANCH  27  29
ENDBRANCH  21  25
ENDBRANCH  16  19
ENDBRANCH  14  15
ENDBRANCH   7   9
ENDBRANCH   6   7
ENDBRANCH   5   6
ENDBRANCH   4   5
ENDBRANCH   3   4
ENDBRANCH   2   3
ENDBRANCH   1   2
BRANCH   1  38
ATOM     38  O   UNL     1       3.268  11.162  -2.799  1.00  0.00    -0.377 OA
BRANCH  38  39
ATOM     39  C   UNL     1       2.660   9.932  -3.186  1.00  0.00     0.188 C 
BRANCH  39  40
ATOM     40  C   UNL     1       3.280   9.304  -4.431  1.00  0.00     0.188 C 
BRANCH  40  41
ATOM     41  O   UNL     1       4.682   9.065  -4.416  1.00  0.00    -0.376 OA
BRANCH  41  42
ATOM     42  C   UNL     1       5.266   8.691  -5.671  1.00  0.00     0.202 C 
BRANCH  42  43
ATOM     43  C   UNL     1       4.944   9.580  -6.891  1.00  0.00     0.261 C 
BRANCH  43  44
ATOM     44  O   UNL     1       3.551   9.623  -7.285  1.00  0.00    -0.460 OA
BRANCH  44  45
ATOM     45  C   UNL     1       2.874   8.447  -7.381  1.00  0.00     0.338 C 
ATOM     46  O   UNL     1       3.366   7.353  -7.521  1.00  0.00    -0.246 OA
BRANCH  45  47
ATOM     47  C   UNL     1       1.449   8.681  -6.966  1.00  0.00     0.060 A 
ATOM     48  C   UNL     1       0.754   7.603  -6.400  1.00  0.00     0.016 A 
ATOM     49  C   UNL     1       0.850   9.949  -6.975  1.00  0.00     0.016 A 
ATOM     50  C   UNL     1      -0.534   7.776  -5.879  1.00  0.00     0.010 A 
ATOM     51  C   UNL     1      -0.442  10.122  -6.458  1.00  0.00     0.010 A 
ATOM     52  C   UNL     1      -1.157   9.029  -5.938  1.00  0.00    -0.014 A 
BRANCH  52  53
ATOM     53  C   UNL     1      -2.623   9.130  -5.702  1.00  0.00     0.031 A 
ATOM     54  C   UNL     1      -3.527   9.075  -6.908  1.00  0.00     0.074 A 
ATOM     55  C   UNL     1      -3.162   9.215  -4.469  1.00  0.00     0.049 A 
ATOM     56  N   UNL     1      -4.831   9.136  -6.976  1.00  0.00    -0.248 NA
ATOM     57  C   UNL     1      -2.864   8.926  -8.215  1.00  0.00     0.031 C 
ATOM     58  C   UNL     1      -2.417   9.242  -3.212  1.00  0.00     0.029 A 
ATOM     59  N   UNL     1      -4.479   9.296  -4.078  1.00  0.00    -0.354 N 
ATOM     60  C   UNL     1      -5.143   9.027  -8.326  1.00  0.00     0.074 A 
ATOM     61  C   UNL     1      -3.893   8.935  -9.046  1.00  0.00     0.031 C 
ATOM     62  C   UNL     1      -3.288   9.343  -2.190  1.00  0.00     0.029 A 
ATOM     63  C   UNL     1      -4.651   9.413  -2.717  1.00  0.00     0.049 A 
ATOM     64  H   UNL     1      -5.230   9.273  -4.714  1.00  0.00     0.167 HD
ATOM     65  C   UNL     1      -6.359   8.989  -8.918  1.00  0.00     0.037 A 
ATOM     66  C   UNL     1      -5.776   9.576  -1.987  1.00  0.00     0.037 A 
ATOM     67  C   UNL     1      -7.609   9.089  -8.214  1.00  0.00     0.049 A 
ATOM     68  C   UNL     1      -7.119   9.617  -2.681  1.00  0.00     0.074 A 
ATOM     69  C   UNL     1      -8.891   9.061  -8.735  1.00  0.00     0.029 A 
ATOM     70  N   UNL     1      -7.737   9.245  -6.844  1.00  0.00    -0.354 N 
ATOM     71  N   UNL     1      -7.398   9.484  -3.956  1.00  0.00    -0.248 NA
ATOM     72  C   UNL     1      -8.303   9.827  -1.832  1.00  0.00     0.031 C 
ATOM     73  C   UNL     1      -9.793   9.250  -7.684  1.00  0.00     0.029 A 
ATOM     74  C   UNL     1      -9.076   9.338  -6.503  1.00  0.00     0.049 A 
ATOM     75  H   UNL     1      -6.987   9.284  -6.207  1.00  0.00     0.167 HD
ATOM     76  C   UNL     1      -8.786   9.564  -4.055  1.00  0.00     0.074 A 
ATOM     77  C   UNL     1      -9.291   9.739  -2.711  1.00  0.00     0.031 C 
ATOM     78  C   UNL     1      -9.572   9.501  -5.160  1.00  0.00     0.037 A 
BRANCH  65  79
ATOM     79  C   UNL     1      -6.396   8.850 -10.414  1.00  0.00     0.058 A 
ATOM     80  C   UNL     1      -6.072   7.640 -11.047  1.00  0.00     0.135 A 
ATOM     81  C   UNL     1      -6.802   9.927 -11.218  1.00  0.00     0.135 A 
ATOM     82  F   UNL     1      -5.652   6.589 -10.326  1.00  0.00    -0.206 F 
ATOM     83  C   UNL     1      -6.137   7.506 -12.430  1.00  0.00     0.059 A 
ATOM     84  C   UNL     1      -6.900   9.807 -12.600  1.00  0.00     0.059 A 
ATOM     85  F   UNL     1      -7.112  11.108 -10.661  1.00  0.00    -0.206 F 
ATOM     86  C   UNL     1      -6.557   8.595 -13.197  1.00  0.00     0.060 A 
BRANCH  86  87
ATOM     87  S   UNL     1      -6.661   8.394 -14.987  1.00  0.00     0.124 S 
ATOM     88  O   UNL     1      -5.250   8.339 -15.356  1.00  0.00    -0.237 OA
ATOM     89  O   UNL     1      -7.399   7.142 -15.117  1.00  0.00    -0.237 OA
ATOM     90  O   UNL     1      -7.377   9.589 -15.423  1.00  0.00    -0.744 OA
ENDBRANCH  86  87
ENDBRANCH  65  79
BRANCH  66  91
ATOM     91  C   UNL     1      -5.702   9.742  -0.506  1.00  0.00     0.058 A 
ATOM     92  C   UNL     1      -6.241   8.783   0.366  1.00  0.00     0.135 A 
ATOM     93  C   UNL     1      -5.146  10.898   0.064  1.00  0.00     0.135 A 
ATOM     94  F   UNL     1      -6.803   7.669  -0.128  1.00  0.00    -0.206 F 
ATOM     95  C   UNL     1      -6.256   8.974   1.745  1.00  0.00     0.059 A 
ATOM     96  C   UNL     1      -5.122  11.098   1.442  1.00  0.00     0.059 A 
ATOM     97  F   UNL     1      -4.614  11.847  -0.722  1.00  0.00    -0.206 F 
ATOM     98  C   UNL     1      -5.694  10.137   2.273  1.00  0.00     0.060 A 
BRANCH  98  99
ATOM     99  S   UNL     1      -5.694  10.365   4.066  1.00  0.00     0.124 S 
ATOM    100  O   UNL     1      -7.096  10.668   4.324  1.00  0.00    -0.237 OA
ATOM    101  O   UNL     1      -5.222   9.067   4.538  1.00  0.00    -0.237 OA
ATOM    102  O   UNL     1      -4.761  11.471   4.261  1.00  0.00    -0.744 OA
ENDBRANCH  98  99
ENDBRANCH  66  91
BRANCH  78 103
ATOM    103  C   UNL     1     -11.064   9.578  -4.966  1.00  0.00     0.058 A 
ATOM    104  C   UNL     1     -11.703  10.771  -4.592  1.00  0.00     0.135 A 
ATOM    105  C   UNL     1     -11.872   8.453  -5.205  1.00  0.00     0.135 A 
ATOM    106  F   UNL     1     -10.981  11.877  -4.352  1.00  0.00    -0.206 F 
ATOM    107  C   UNL     1     -13.084  10.836  -4.427  1.00  0.00     0.059 A 
ATOM    108  C   UNL     1     -13.257   8.504  -5.076  1.00  0.00     0.059 A 
ATOM    109  F   UNL     1     -11.317   7.290  -5.581  1.00  0.00    -0.206 F 
ATOM    110  C   UNL     1     -13.852   9.697  -4.670  1.00  0.00     0.060 A 
BRANCH 110 111
ATOM    111  S   UNL     1     -15.644   9.799  -4.467  1.00  0.00     0.124 S 
ATOM    112  O   UNL     1     -15.773   9.835  -3.014  1.00  0.00    -0.237 OA
ATOM    113  O   UNL     1     -15.968  11.040  -5.163  1.00  0.00    -0.237 OA
ATOM    114  O   UNL     1     -16.129   8.582  -5.111  1.00  0.00    -0.744 OA
ENDBRANCH 110 111
ENDBRANCH  78 103
ENDBRANCH  52  53
ENDBRANCH  45  47
ENDBRANCH  44  45
ENDBRANCH  43  44
ENDBRANCH  42  43
ENDBRANCH  41  42
ENDBRANCH  40  41
ENDBRANCH  39  40
ENDBRANCH  38  39
ENDBRANCH   1  38
TORSDOF 28
