REMARK SMILES O=C(OCCOCCOCCOCCOC(=O)c1ccccc1C(=O)Nc1ccc(N2C(=O)[C@H]3[C@@H]4CC[C@@H](C4)[C@@H]3C2=O)cc1)c1ccc(-c2c3nc(c(-c4c(F)cc(S(=O)(=O)[O-])cc4F)c4ccc([nH]4)c(-c4c(F)cc(S(=O)(=O)[O-])cc4F)c4nc(c(-c5c(F)cc(S(=O)(=O)[O-])cc5F)c5ccc2[nH]5)C=C4)C=C3)cc1
REMARK SMILES IDX 9 1 8 2 7 3 6 4 5 5 4 6 3 7 2 8 1 9 45 10 46 11 110 12 47 13
REMARK SMILES IDX 109 14 48 15 49 16 50 17 103 18 51 19 108 20 102 21 104 22
REMARK SMILES IDX 52 23 107 24 101 25 100 26 53 28 87 29 66 30 86 31 67 32
REMARK SMILES IDX 70 33 85 34 105 35 68 36 69 37 84 39 106 40 71 41 54 42
REMARK SMILES IDX 55 43 64 44 56 45 57 46 63 47 65 48 58 49 59 50 60 51 61 52
REMARK SMILES IDX 62 53 88 54 89 55 98 56 90 57 91 58 97 59 99 60 92 61 93 62
REMARK SMILES IDX 94 63 95 64 96 65 72 66 73 67 82 68 74 69 75 70 81 71 83 72
REMARK SMILES IDX 76 73 77 74 78 75 79 76 80 77 10 78 11 79 12 80 13 81 14 82
REMARK SMILES IDX 15 83 16 84 17 85 18 86 19 87 23 88 20 89 22 90 21 91 24 92
REMARK SMILES IDX 25 93 26 94 27 96 28 97 44 98 29 99 43 100 30 101 31 102
REMARK SMILES IDX 32 103 41 104 33 105 34 106 40 107 42 108 35 109 38 110
REMARK SMILES IDX 36 111 39 112 37 113
REMARK H PARENT 104 27 70 38 26 95
REMARK Flexibility Score: inf
ROOT
ATOM      1  O   UNL     1       1.003  -1.687   2.193  1.00  0.00    -0.377 OA
ENDROOT
BRANCH   1   2
ATOM      2  C   UNL     1       0.365  -0.670   1.414  1.00  0.00     0.188 C 
BRANCH   2   3
ATOM      3  C   UNL     1       0.961   0.723   1.632  1.00  0.00     0.188 C 
BRANCH   3   4
ATOM      4  O   UNL     1       2.218   0.841   0.947  1.00  0.00    -0.376 OA
BRANCH   4   5
ATOM      5  C   UNL     1       2.914   2.044   1.283  1.00  0.00     0.202 C 
BRANCH   5   6
ATOM      6  C   UNL     1       3.220   2.856   0.025  1.00  0.00     0.261 C 
BRANCH   6   7
ATOM      7  O   UNL     1       1.995   3.183  -0.664  1.00  0.00    -0.460 OA
BRANCH   7   8
ATOM      8  C   UNL     1       1.314   2.308  -1.450  1.00  0.00     0.338 C 
ATOM      9  O   UNL     1       0.088   2.313  -1.487  1.00  0.00    -0.246 OA
BRANCH   8  10
ATOM     10  C   UNL     1       2.071   1.550  -2.479  1.00  0.00     0.060 A 
ATOM     11  C   UNL     1       3.051   0.602  -2.177  1.00  0.00     0.016 A 
ATOM     12  C   UNL     1       1.736   1.786  -3.819  1.00  0.00     0.016 A 
ATOM     13  C   UNL     1       3.796   0.011  -3.199  1.00  0.00     0.010 A 
ATOM     14  C   UNL     1       2.453   1.162  -4.844  1.00  0.00     0.010 A 
ATOM     15  C   UNL     1       3.530   0.317  -4.538  1.00  0.00    -0.014 A 
BRANCH  15  16
ATOM     16  C   UNL     1       4.482  -0.078  -5.605  1.00  0.00     0.031 A 
ATOM     17  C   UNL     1       5.368   0.986  -6.195  1.00  0.00     0.074 A 
ATOM     18  C   UNL     1       4.622  -1.356  -6.000  1.00  0.00     0.049 A 
ATOM     19  N   UNL     1       6.159   0.927  -7.233  1.00  0.00    -0.248 NA
ATOM     20  C   UNL     1       5.365   2.292  -5.513  1.00  0.00     0.031 C 
ATOM     21  C   UNL     1       3.921  -2.506  -5.431  1.00  0.00     0.029 A 
ATOM     22  N   UNL     1       5.430  -1.900  -6.967  1.00  0.00    -0.354 N 
ATOM     23  C   UNL     1       6.712   2.196  -7.357  1.00  0.00     0.074 A 
ATOM     24  C   UNL     1       6.181   3.000  -6.278  1.00  0.00     0.031 C 
ATOM     25  C   UNL     1       4.357  -3.626  -6.037  1.00  0.00     0.029 A 
ATOM     26  C   UNL     1       5.314  -3.265  -7.081  1.00  0.00     0.049 A 
ATOM     27  H   UNL     1       6.036  -1.363  -7.526  1.00  0.00     0.167 HD
ATOM     28  C   UNL     1       7.572   2.658  -8.294  1.00  0.00     0.037 A 
ATOM     29  C   UNL     1       5.893  -4.115  -7.953  1.00  0.00     0.037 A 
ATOM     30  C   UNL     1       8.098   1.863  -9.367  1.00  0.00     0.049 A 
ATOM     31  C   UNL     1       6.779  -3.568  -9.043  1.00  0.00     0.074 A 
ATOM     32  C   UNL     1       8.885   2.257 -10.434  1.00  0.00     0.029 A 
ATOM     33  N   UNL     1       7.900   0.498  -9.496  1.00  0.00    -0.354 N 
ATOM     34  N   UNL     1       7.184  -2.335  -9.238  1.00  0.00    -0.248 NA
ATOM     35  C   UNL     1       7.250  -4.523 -10.057  1.00  0.00     0.031 C 
ATOM     36  C   UNL     1       9.154   1.127 -11.216  1.00  0.00     0.029 A 
ATOM     37  C   UNL     1       8.550   0.030 -10.622  1.00  0.00     0.049 A 
ATOM     38  H   UNL     1       7.373  -0.057  -8.876  1.00  0.00     0.167 HD
ATOM     39  C   UNL     1       7.948  -2.367 -10.400  1.00  0.00     0.074 A 
ATOM     40  C   UNL     1       7.972  -3.743 -10.850  1.00  0.00     0.031 C 
ATOM     41  C   UNL     1       8.560  -1.346 -11.048  1.00  0.00     0.037 A 
BRANCH  28  42
ATOM     42  C   UNL     1       7.934   4.109  -8.214  1.00  0.00     0.058 A 
ATOM     43  C   UNL     1       8.896   4.574  -7.305  1.00  0.00     0.135 A 
ATOM     44  C   UNL     1       7.265   5.051  -9.010  1.00  0.00     0.135 A 
ATOM     45  F   UNL     1       9.539   3.712  -6.501  1.00  0.00    -0.206 F 
ATOM     46  C   UNL     1       9.159   5.932  -7.163  1.00  0.00     0.059 A 
ATOM     47  C   UNL     1       7.520   6.413  -8.894  1.00  0.00     0.059 A 
ATOM     48  F   UNL     1       6.327   4.652  -9.883  1.00  0.00    -0.206 F 
ATOM     49  C   UNL     1       8.453   6.845  -7.950  1.00  0.00     0.060 A 
BRANCH  49  50
ATOM     50  S   UNL     1       8.746   8.609  -7.711  1.00  0.00     0.124 S 
ATOM     51  O   UNL     1       7.961   8.869  -6.508  1.00  0.00    -0.237 OA
ATOM     52  O   UNL     1      10.195   8.671  -7.547  1.00  0.00    -0.237 OA
ATOM     53  O   UNL     1       8.231   9.206  -8.939  1.00  0.00    -0.744 OA
ENDBRANCH  49  50
ENDBRANCH  28  42
BRANCH  29  54
ATOM     54  C   UNL     1       5.628  -5.574  -7.870  1.00  0.00     0.058 A 
ATOM     55  C   UNL     1       6.631  -6.457  -7.446  1.00  0.00     0.135 A 
ATOM     56  C   UNL     1       4.388  -6.117  -8.238  1.00  0.00     0.135 A 
ATOM     57  F   UNL     1       7.838  -5.983  -7.102  1.00  0.00    -0.206 F 
ATOM     58  C   UNL     1       6.419  -7.832  -7.396  1.00  0.00     0.059 A 
ATOM     59  C   UNL     1       4.146  -7.486  -8.182  1.00  0.00     0.059 A 
ATOM     60  F   UNL     1       3.396  -5.312  -8.648  1.00  0.00    -0.206 F 
ATOM     61  C   UNL     1       5.173  -8.337  -7.772  1.00  0.00     0.060 A 
BRANCH  61  62
ATOM     62  S   UNL     1       4.874 -10.116  -7.681  1.00  0.00     0.124 S 
ATOM     63  O   UNL     1       5.364 -10.560  -8.980  1.00  0.00    -0.237 OA
ATOM     64  O   UNL     1       5.673 -10.516  -6.527  1.00  0.00    -0.237 OA
ATOM     65  O   UNL     1       3.429 -10.193  -7.486  1.00  0.00    -0.744 OA
ENDBRANCH  61  62
ENDBRANCH  29  54
BRANCH  41  66
ATOM     66  C   UNL     1       9.299  -1.670 -12.312  1.00  0.00     0.058 A 
ATOM     67  C   UNL     1       8.616  -1.823 -13.528  1.00  0.00     0.135 A 
ATOM     68  C   UNL     1      10.699  -1.747 -12.325  1.00  0.00     0.135 A 
ATOM     69  F   UNL     1       7.276  -1.760 -13.562  1.00  0.00    -0.206 F 
ATOM     70  C   UNL     1       9.299  -2.041 -14.719  1.00  0.00     0.059 A 
ATOM     71  C   UNL     1      11.404  -1.952 -13.507  1.00  0.00     0.059 A 
ATOM     72  F   UNL     1      11.395  -1.599 -11.186  1.00  0.00    -0.206 F 
ATOM     73  C   UNL     1      10.694  -2.102 -14.699  1.00  0.00     0.060 A 
BRANCH  73  74
ATOM     74  S   UNL     1      11.581  -2.316 -16.258  1.00  0.00     0.124 S 
ATOM     75  O   UNL     1      11.495  -3.759 -16.449  1.00  0.00    -0.237 OA
ATOM     76  O   UNL     1      10.796  -1.506 -17.185  1.00  0.00    -0.237 OA
ATOM     77  O   UNL     1      12.913  -1.797 -15.959  1.00  0.00    -0.744 OA
ENDBRANCH  73  74
ENDBRANCH  41  66
ENDBRANCH  15  16
ENDBRANCH   8  10
ENDBRANCH   7   8
ENDBRANCH   6   7
ENDBRANCH   5   6
ENDBRANCH   4   5
ENDBRANCH   3   4
ENDBRANCH   2   3
ENDBRANCH   1   2
BRANCH   1  78
ATOM     78  C   UNL     1       2.395  -1.880   1.933  1.00  0.00     0.188 C 
BRANCH  78  79
ATOM     79  C   UNL     1       2.730  -2.336   0.506  1.00  0.00     0.188 C 
BRANCH  79  80
ATOM     80  O   UNL     1       2.428  -3.731   0.393  1.00  0.00    -0.376 OA
BRANCH  80  81
ATOM     81  C   UNL     1       3.300  -4.446  -0.490  1.00  0.00     0.202 C 
BRANCH  81  82
ATOM     82  C   UNL     1       3.747  -5.902   0.104  1.00  0.00     0.261 C 
BRANCH  82  83
ATOM     83  O   UNL     1       5.075  -6.344   1.550  1.00  0.00    -0.460 OA
BRANCH  83  84
ATOM     84  C   UNL     1       6.109  -6.745   2.408  1.00  0.00     0.339 C 
ATOM     85  O   UNL     1       7.171  -7.274   2.115  1.00  0.00    -0.246 OA
BRANCH  84  86
ATOM     86  C   UNL     1       5.795  -6.382   3.817  1.00  0.00     0.072 A 
ATOM     87  C   UNL     1       6.568  -5.322   4.328  1.00  0.00     0.016 A 
ATOM     88  C   UNL     1       4.745  -6.928   4.587  1.00  0.00     0.054 A 
ATOM     89  C   UNL     1       6.278  -4.770   5.574  1.00  0.00     0.001 A 
ATOM     90  C   UNL     1       4.485  -6.367   5.853  1.00  0.00     0.015 A 
ATOM     91  C   UNL     1       5.231  -5.286   6.332  1.00  0.00     0.001 A 
BRANCH  88  92
ATOM     92  C   UNL     1       3.850  -8.073   4.214  1.00  0.00     0.256 C 
ATOM     93  O   UNL     1       3.612  -8.924   5.074  1.00  0.00    -0.269 OA
ATOM     94  N   UNL     1       3.296  -8.215   2.958  1.00  0.00    -0.322 N 
ATOM     95  H   UNL     1       2.727  -9.002   2.791  1.00  0.00     0.170 HD
BRANCH  94  96
ATOM     96  C   UNL     1       3.490  -7.314   1.912  1.00  0.00     0.041 A 
ATOM     97  C   UNL     1       3.526  -5.554   2.337  1.00  0.00     0.028 A 
ATOM     98  C   UNL     1       4.565  -7.951   0.605  1.00  0.00     0.028 A 
ATOM     99  C   UNL     1       4.754  -4.475   1.565  1.00  0.00     0.029 A 
ATOM    100  C   UNL     1       5.761  -6.849  -0.201  1.00  0.00     0.029 A 
ATOM    101  C   UNL     1       5.855  -5.112   0.277  1.00  0.00     0.052 A 
BRANCH 101 102
ATOM    102  N   UNL     1       6.686  -4.205  -0.419  1.00  0.00    -0.250 N 
ATOM    103  C   UNL     1       7.348  -4.485  -1.629  1.00  0.00     0.237 C 
ATOM    104  C   UNL     1       6.756  -2.833  -0.121  1.00  0.00     0.237 C 
ATOM    105  O   UNL     1       7.329  -5.476  -2.331  1.00  0.00    -0.274 OA
ATOM    106  C   UNL     1       8.137  -3.232  -1.890  1.00  0.00     0.095 C 
ATOM    107  C   UNL     1       7.064  -2.247  -1.453  1.00  0.00     0.095 C 
ATOM    108  O   UNL     1       6.500  -2.205   0.889  1.00  0.00    -0.274 OA
ATOM    109  C   UNL     1       8.692  -2.529  -3.134  1.00  0.00     0.002 C 
ATOM    110  C   UNL     1       7.560  -0.929  -2.002  1.00  0.00     0.002 C 
ATOM    111  C   UNL     1       9.816  -1.608  -2.594  1.00  0.00     0.005 C 
ATOM    112  C   UNL     1       7.676  -1.414  -3.468  1.00  0.00     0.009 C 
ATOM    113  C   UNL     1       9.035  -0.637  -1.669  1.00  0.00     0.005 C 
ENDBRANCH 101 102
ENDBRANCH  94  96
ENDBRANCH  88  92
ENDBRANCH  84  86
ENDBRANCH  83  84
ENDBRANCH  82  83
ENDBRANCH  81  82
ENDBRANCH  80  81
ENDBRANCH  79  80
ENDBRANCH  78  79
ENDBRANCH   1  78
TORSDOF 26
