REMARK SMILES Cc1cc(Cl)cc2c1O[C@H](C(F)(F)F)C(C(=O)OCCOCCOCCOCCOC(=O)c1ccc(-c3c4nc(c(-c5c(F)cc(S(=O)(=O)[O-])cc5F)c5ccc([nH]5)c(-c5c(F)cc(S(=O)(=O)[O-])cc5F)c5nc(c(-c6c(F)cc(S(=O)(=O)[O-])cc6F)c6ccc3[nH]6)C=C5)C=C4)cc1)=C2
REMARK SMILES IDX 25 1 24 2 23 3 22 4 21 5 20 6 19 7 18 8 16 9 17 10 15 11
REMARK SMILES IDX 1 12 2 13 3 14 8 15 4 16 7 17 9 18 5 19 6 20 99 21 10 22
REMARK SMILES IDX 11 23 12 24 13 25 14 26 26 27 27 28 28 29 29 30 30 31 31 32
REMARK SMILES IDX 32 33 33 34 34 35 98 36 35 37 97 38 36 39 37 40 38 41 91 42
REMARK SMILES IDX 39 43 96 44 90 45 92 46 40 47 95 48 89 49 88 50 41 52 75 53
REMARK SMILES IDX 54 54 74 55 55 56 58 57 73 58 93 59 56 60 57 61 72 63 94 64
REMARK SMILES IDX 59 65 42 66 43 67 52 68 44 69 45 70 51 71 53 72 46 73 47 74
REMARK SMILES IDX 48 75 49 76 50 77 76 78 77 79 86 80 78 81 79 82 85 83 87 84
REMARK SMILES IDX 80 85 81 86 82 87 83 88 84 89 60 90 61 91 70 92 62 93 63 94
REMARK SMILES IDX 69 95 71 96 64 97 65 98 66 99 67 100 68 101
REMARK H PARENT 92 51 58 62
REMARK Flexibility Score: inf
ROOT
ATOM      1  C   UNL     1      -3.817   1.040   7.420  1.00  0.00     0.188 C 
ENDROOT
BRANCH   1   2
ATOM      2  O   UNL     1      -3.484   1.141   6.034  1.00  0.00    -0.377 OA
BRANCH   2   3
ATOM      3  C   UNL     1      -2.827   2.314   5.586  1.00  0.00     0.188 C 
BRANCH   3   4
ATOM      4  C   UNL     1      -3.768   3.522   5.426  1.00  0.00     0.188 C 
BRANCH   4   5
ATOM      5  O   UNL     1      -5.022   3.338   6.070  1.00  0.00    -0.376 OA
BRANCH   5   6
ATOM      6  C   UNL     1      -6.145   2.970   5.282  1.00  0.00     0.202 C 
BRANCH   6   7
ATOM      7  C   UNL     1      -6.108   1.670   4.461  1.00  0.00     0.261 C 
BRANCH   7   8
ATOM      8  O   UNL     1      -4.938   1.465   3.657  1.00  0.00    -0.460 OA
BRANCH   8   9
ATOM      9  C   UNL     1      -4.757   2.256   2.585  1.00  0.00     0.338 C 
ATOM     10  O   UNL     1      -5.500   3.138   2.190  1.00  0.00    -0.246 OA
BRANCH   9  11
ATOM     11  C   UNL     1      -3.394   1.999   2.063  1.00  0.00     0.087 C 
ATOM     12  C   UNL     1       0.906  -0.076   0.184  1.00  0.00     0.048 C 
ATOM     13  C   UNL     1       0.433   1.313   0.511  1.00  0.00    -0.007 A 
ATOM     14  C   UNL     1       1.223   2.413   0.146  1.00  0.00     0.027 A 
ATOM     15  C   UNL     1      -0.829   1.539   1.088  1.00  0.00     0.131 A 
ATOM     16  C   UNL     1       0.774   3.710   0.386  1.00  0.00     0.042 A 
ATOM     17  C   UNL     1      -1.294   2.844   1.283  1.00  0.00     0.019 A 
ATOM     18  O   UNL     1      -1.559   0.433   1.419  1.00  0.00    -0.475 OA
ATOM     19  Cl  UNL     1       1.758   5.051  -0.060  1.00  0.00    -0.084 Cl
ATOM     20  C   UNL     1      -0.477   3.931   0.956  1.00  0.00     0.032 A 
ATOM     21  C   UNL     1      -2.646   3.070   1.768  1.00  0.00     0.027 C 
ATOM     22  C   UNL     1      -2.894   0.580   1.976  1.00  0.00     0.316 C 
BRANCH  22  23
ATOM     23  C   UNL     1      -3.835  -0.321   1.163  1.00  0.00     0.430 C 
ATOM     24  F   UNL     1      -3.333  -1.573   1.045  1.00  0.00    -0.167 F 
ATOM     25  F   UNL     1      -5.054  -0.435   1.734  1.00  0.00    -0.167 F 
ATOM     26  F   UNL     1      -4.017   0.162  -0.089  1.00  0.00    -0.167 F 
ENDBRANCH  22  23
ENDBRANCH   9  11
ENDBRANCH   8   9
ENDBRANCH   7   8
ENDBRANCH   6   7
ENDBRANCH   5   6
ENDBRANCH   4   5
ENDBRANCH   3   4
ENDBRANCH   2   3
ENDBRANCH   1   2
BRANCH   1  27
ATOM     27  C   UNL     1      -3.796   2.262   8.370  1.00  0.00     0.188 C 
BRANCH  27  28
ATOM     28  O   UNL     1      -2.696   3.146   8.171  1.00  0.00    -0.376 OA
BRANCH  28  29
ATOM     29  C   UNL     1      -1.677   3.130   9.160  1.00  0.00     0.202 C 
BRANCH  29  30
ATOM     30  C   UNL     1      -0.757   1.904   9.101  1.00  0.00     0.261 C 
BRANCH  30  31
ATOM     31  O   UNL     1      -1.403   0.642   9.334  1.00  0.00    -0.460 OA
BRANCH  31  32
ATOM     32  C   UNL     1      -2.020   0.471  10.524  1.00  0.00     0.338 C 
ATOM     33  O   UNL     1      -2.042   1.251  11.460  1.00  0.00    -0.246 OA
BRANCH  32  34
ATOM     34  C   UNL     1      -2.844  -0.750  10.423  1.00  0.00     0.060 A 
ATOM     35  C   UNL     1      -4.227  -0.655  10.624  1.00  0.00     0.016 A 
ATOM     36  C   UNL     1      -2.254  -1.977  10.108  1.00  0.00     0.016 A 
ATOM     37  C   UNL     1      -5.022  -1.798  10.539  1.00  0.00     0.010 A 
ATOM     38  C   UNL     1      -3.047  -3.124  10.049  1.00  0.00     0.010 A 
ATOM     39  C   UNL     1      -4.429  -3.044  10.296  1.00  0.00    -0.014 A 
BRANCH  39  40
ATOM     40  C   UNL     1      -5.210  -4.281  10.532  1.00  0.00     0.031 A 
ATOM     41  C   UNL     1      -5.133  -4.910  11.897  1.00  0.00     0.074 A 
ATOM     42  C   UNL     1      -5.995  -4.815   9.579  1.00  0.00     0.049 A 
ATOM     43  N   UNL     1      -5.711  -5.992  12.346  1.00  0.00    -0.248 NA
ATOM     44  C   UNL     1      -4.291  -4.219  12.889  1.00  0.00     0.031 C 
ATOM     45  C   UNL     1      -6.188  -4.271   8.237  1.00  0.00     0.029 A 
ATOM     46  N   UNL     1      -6.779  -5.942   9.603  1.00  0.00    -0.354 N 
ATOM     47  C   UNL     1      -5.315  -6.104  13.673  1.00  0.00     0.074 A 
ATOM     48  C   UNL     1      -4.416  -5.006  13.946  1.00  0.00     0.031 C 
ATOM     49  C   UNL     1      -7.039  -5.067   7.563  1.00  0.00     0.029 A 
ATOM     50  C   UNL     1      -7.427  -6.191   8.416  1.00  0.00     0.049 A 
ATOM     51  H   UNL     1      -6.870  -6.518  10.396  1.00  0.00     0.167 HD
ATOM     52  C   UNL     1      -5.681  -7.031  14.588  1.00  0.00     0.037 A 
ATOM     53  C   UNL     1      -8.229  -7.215   8.061  1.00  0.00     0.037 A 
ATOM     54  C   UNL     1      -6.564  -8.131  14.310  1.00  0.00     0.049 A 
ATOM     55  C   UNL     1      -8.537  -8.297   9.067  1.00  0.00     0.074 A 
ATOM     56  C   UNL     1      -6.993  -9.126  15.170  1.00  0.00     0.029 A 
ATOM     57  N   UNL     1      -7.145  -8.387  13.077  1.00  0.00    -0.354 N 
ATOM     58  N   UNL     1      -8.170  -8.384  10.324  1.00  0.00    -0.248 NA
ATOM     59  C   UNL     1      -9.363  -9.423   8.605  1.00  0.00     0.031 C 
ATOM     60  C   UNL     1      -7.794 -10.012  14.444  1.00  0.00     0.029 A 
ATOM     61  C   UNL     1      -7.905  -9.542  13.145  1.00  0.00     0.049 A 
ATOM     62  H   UNL     1      -7.033  -7.830  12.273  1.00  0.00     0.167 HD
ATOM     63  C   UNL     1      -8.734  -9.563  10.806  1.00  0.00     0.074 A 
ATOM     64  C   UNL     1      -9.479 -10.147   9.711  1.00  0.00     0.031 C 
ATOM     65  C   UNL     1      -8.640 -10.112  12.043  1.00  0.00     0.037 A 
BRANCH  52  66
ATOM     66  C   UNL     1      -5.115  -6.899  15.973  1.00  0.00     0.058 A 
ATOM     67  C   UNL     1      -5.546  -5.889  16.848  1.00  0.00     0.135 A 
ATOM     68  C   UNL     1      -4.155  -7.809  16.442  1.00  0.00     0.135 A 
ATOM     69  F   UNL     1      -6.444  -4.978  16.439  1.00  0.00    -0.206 F 
ATOM     70  C   UNL     1      -5.033  -5.777  18.135  1.00  0.00     0.059 A 
ATOM     71  C   UNL     1      -3.647  -7.732  17.735  1.00  0.00     0.059 A 
ATOM     72  F   UNL     1      -3.702  -8.787  15.641  1.00  0.00    -0.206 F 
ATOM     73  C   UNL     1      -4.086  -6.706  18.571  1.00  0.00     0.060 A 
BRANCH  73  74
ATOM     74  S   UNL     1      -3.444  -6.552  20.250  1.00  0.00     0.124 S 
ATOM     75  O   UNL     1      -2.646  -5.334  20.147  1.00  0.00    -0.237 OA
ATOM     76  O   UNL     1      -4.666  -6.444  21.040  1.00  0.00    -0.237 OA
ATOM     77  O   UNL     1      -2.684  -7.784  20.439  1.00  0.00    -0.744 OA
ENDBRANCH  73  74
ENDBRANCH  52  66
BRANCH  53  78
ATOM     78  C   UNL     1      -8.799  -7.275   6.687  1.00  0.00     0.058 A 
ATOM     79  C   UNL     1     -10.173  -7.100   6.466  1.00  0.00     0.135 A 
ATOM     80  C   UNL     1      -7.984  -7.511   5.568  1.00  0.00     0.135 A 
ATOM     81  F   UNL     1     -10.998  -6.890   7.504  1.00  0.00    -0.206 F 
ATOM     82  C   UNL     1     -10.721  -7.160   5.188  1.00  0.00     0.059 A 
ATOM     83  C   UNL     1      -8.504  -7.551   4.278  1.00  0.00     0.059 A 
ATOM     84  F   UNL     1      -6.662  -7.684   5.724  1.00  0.00    -0.206 F 
ATOM     85  C   UNL     1      -9.876  -7.380   4.099  1.00  0.00     0.060 A 
BRANCH  85  86
ATOM     86  S   UNL     1     -10.593  -7.398   2.441  1.00  0.00     0.124 S 
ATOM     87  O   UNL     1     -11.367  -8.634   2.467  1.00  0.00    -0.237 OA
ATOM     88  O   UNL     1     -11.367  -6.161   2.432  1.00  0.00    -0.237 OA
ATOM     89  O   UNL     1      -9.423  -7.405   1.568  1.00  0.00    -0.744 OA
ENDBRANCH  85  86
ENDBRANCH  53  78
BRANCH  65  90
ATOM     90  C   UNL     1      -9.360 -11.409  12.293  1.00  0.00     0.058 A 
ATOM     91  C   UNL     1      -8.884 -12.622  11.772  1.00  0.00     0.135 A 
ATOM     92  C   UNL     1     -10.481 -11.454  13.139  1.00  0.00     0.135 A 
ATOM     93  F   UNL     1      -7.820 -12.635  10.954  1.00  0.00    -0.206 F 
ATOM     94  C   UNL     1      -9.499 -13.833  12.073  1.00  0.00     0.059 A 
ATOM     95  C   UNL     1     -11.095 -12.657  13.476  1.00  0.00     0.059 A 
ATOM     96  F   UNL     1     -10.969 -10.324  13.675  1.00  0.00    -0.206 F 
ATOM     97  C   UNL     1     -10.599 -13.841  12.933  1.00  0.00     0.060 A 
BRANCH  97  98
ATOM     98  S   UNL     1     -11.349 -15.428  13.358  1.00  0.00     0.124 S 
ATOM     99  O   UNL     1     -11.984 -15.801  12.098  1.00  0.00    -0.237 OA
ATOM    100  O   UNL     1     -10.189 -16.226  13.744  1.00  0.00    -0.237 OA
ATOM    101  O   UNL     1     -12.263 -15.094  14.446  1.00  0.00    -0.744 OA
ENDBRANCH  97  98
ENDBRANCH  65  90
ENDBRANCH  39  40
ENDBRANCH  32  34
ENDBRANCH  31  32
ENDBRANCH  30  31
ENDBRANCH  29  30
ENDBRANCH  28  29
ENDBRANCH  27  28
ENDBRANCH   1  27
TORSDOF 24
