REMARK SMILES O=C(OCCOCCOCCOCCOC(=O)c1sccc1[S@](=O)[O-])c1ccc(-c2c3nc(c(-c4c(F)cc(S(=O)(=O)[O-])cc4F)c4ccc([nH]4)c(-c4c(F)cc(S(=O)(=O)[O-])cc4F)c4nc(c(-c5c(F)cc(S(=O)(=O)[O-])cc5F)c5ccc2[nH]5)C=C4)C=C3)cc1
REMARK SMILES IDX 8 1 7 2 6 3 5 4 4 5 3 6 2 7 1 8 26 9 27 10 91 11 28 12 90 13
REMARK SMILES IDX 29 14 30 15 31 16 84 17 32 18 89 19 83 20 85 21 33 22 88 23
REMARK SMILES IDX 82 24 81 25 34 27 68 28 47 29 67 30 48 31 51 32 66 33 86 34
REMARK SMILES IDX 49 35 50 36 65 38 87 39 52 40 35 41 36 42 45 43 37 44 38 45
REMARK SMILES IDX 44 46 46 47 39 48 40 49 41 50 42 51 43 52 69 53 70 54 79 55
REMARK SMILES IDX 71 56 72 57 78 58 80 59 73 60 74 61 75 62 76 63 77 64 53 65
REMARK SMILES IDX 54 66 63 67 55 68 56 69 62 70 64 71 57 72 58 73 59 74 60 75
REMARK SMILES IDX 61 76 9 77 10 78 11 79 12 80 13 81 14 82 15 83 16 84 17 85
REMARK SMILES IDX 18 86 19 87 22 88 20 89 21 90 23 91 25 92 24 93
REMARK H PARENT 85 26 51 37
REMARK Flexibility Score: inf
ROOT
ATOM      1  C   UNL     1       2.779  -4.827  -2.069  1.00  0.00     0.188 C 
ENDROOT
BRANCH   1   2
ATOM      2  C   UNL     1       1.742  -5.295  -1.052  1.00  0.00     0.188 C 
BRANCH   2   3
ATOM      3  O   UNL     1       1.250  -6.598  -1.365  1.00  0.00    -0.376 OA
BRANCH   3   4
ATOM      4  C   UNL     1      -0.148  -6.803  -1.167  1.00  0.00     0.202 C 
BRANCH   4   5
ATOM      5  C   UNL     1      -0.583  -6.957   0.293  1.00  0.00     0.261 C 
BRANCH   5   6
ATOM      6  O   UNL     1       0.226  -6.200   1.205  1.00  0.00    -0.460 OA
BRANCH   6   7
ATOM      7  C   UNL     1       1.320  -6.622   1.888  1.00  0.00     0.338 C 
ATOM      8  O   UNL     1       1.826  -5.851   2.704  1.00  0.00    -0.246 OA
BRANCH   7   9
ATOM      9  C   UNL     1       1.957  -7.965   1.709  1.00  0.00     0.060 A 
ATOM     10  C   UNL     1       1.878  -8.751   0.558  1.00  0.00     0.016 A 
ATOM     11  C   UNL     1       2.757  -8.438   2.763  1.00  0.00     0.016 A 
ATOM     12  C   UNL     1       2.496  -9.986   0.466  1.00  0.00     0.010 A 
ATOM     13  C   UNL     1       3.406  -9.673   2.676  1.00  0.00     0.010 A 
ATOM     14  C   UNL     1       3.245 -10.463   1.532  1.00  0.00    -0.014 A 
BRANCH  14  15
ATOM     15  C   UNL     1       3.657 -11.874   1.484  1.00  0.00     0.031 A 
ATOM     16  C   UNL     1       2.858 -12.851   2.292  1.00  0.00     0.074 A 
ATOM     17  C   UNL     1       4.598 -12.270   0.609  1.00  0.00     0.049 A 
ATOM     18  N   UNL     1       3.039 -14.130   2.462  1.00  0.00    -0.248 NA
ATOM     19  C   UNL     1       1.679 -12.310   2.994  1.00  0.00     0.031 C 
ATOM     20  C   UNL     1       5.301 -11.391  -0.331  1.00  0.00     0.029 A 
ATOM     21  N   UNL     1       5.102 -13.513   0.342  1.00  0.00    -0.354 N 
ATOM     22  C   UNL     1       2.026 -14.537   3.321  1.00  0.00     0.074 A 
ATOM     23  C   UNL     1       1.232 -13.374   3.639  1.00  0.00     0.031 C 
ATOM     24  C   UNL     1       6.137 -12.128  -1.079  1.00  0.00     0.029 A 
ATOM     25  C   UNL     1       6.082 -13.512  -0.622  1.00  0.00     0.049 A 
ATOM     26  H   UNL     1       4.792 -14.330   0.795  1.00  0.00     0.167 HD
ATOM     27  C   UNL     1       1.796 -15.779   3.804  1.00  0.00     0.037 A 
ATOM     28  C   UNL     1       6.872 -14.517  -1.044  1.00  0.00     0.037 A 
ATOM     29  C   UNL     1       2.613 -16.907   3.454  1.00  0.00     0.049 A 
ATOM     30  C   UNL     1       6.671 -15.869  -0.410  1.00  0.00     0.074 A 
ATOM     31  C   UNL     1       2.544 -18.206   3.918  1.00  0.00     0.029 A 
ATOM     32  N   UNL     1       3.660 -16.859   2.539  1.00  0.00    -0.354 N 
ATOM     33  N   UNL     1       5.771 -16.237   0.475  1.00  0.00    -0.248 NA
ATOM     34  C   UNL     1       7.596 -16.934  -0.808  1.00  0.00     0.031 C 
ATOM     35  C   UNL     1       3.582 -18.930   3.321  1.00  0.00     0.029 A 
ATOM     36  C   UNL     1       4.261 -18.099   2.440  1.00  0.00     0.049 A 
ATOM     37  H   UNL     1       3.933 -16.058   2.036  1.00  0.00     0.167 HD
ATOM     38  C   UNL     1       6.010 -17.581   0.729  1.00  0.00     0.074 A 
ATOM     39  C   UNL     1       7.130 -17.963  -0.111  1.00  0.00     0.031 C 
ATOM     40  C   UNL     1       5.373 -18.426   1.579  1.00  0.00     0.037 A 
BRANCH  27  41
ATOM     41  C   UNL     1       0.690 -15.929   4.810  1.00  0.00     0.058 A 
ATOM     42  C   UNL     1      -0.666 -15.816   4.461  1.00  0.00     0.135 A 
ATOM     43  C   UNL     1       0.999 -16.132   6.165  1.00  0.00     0.135 A 
ATOM     44  F   UNL     1      -1.019 -15.583   3.187  1.00  0.00    -0.206 F 
ATOM     45  C   UNL     1      -1.672 -15.862   5.423  1.00  0.00     0.059 A 
ATOM     46  C   UNL     1       0.008 -16.209   7.140  1.00  0.00     0.059 A 
ATOM     47  F   UNL     1       2.278 -16.230   6.559  1.00  0.00    -0.206 F 
ATOM     48  C   UNL     1      -1.324 -16.054   6.761  1.00  0.00     0.060 A 
BRANCH  48  49
ATOM     49  S   UNL     1      -2.635 -16.083   8.002  1.00  0.00     0.124 S 
ATOM     50  O   UNL     1      -3.026 -14.677   8.046  1.00  0.00    -0.237 OA
ATOM     51  O   UNL     1      -3.609 -16.991   7.404  1.00  0.00    -0.237 OA
ATOM     52  O   UNL     1      -1.964 -16.585   9.196  1.00  0.00    -0.744 OA
ENDBRANCH  48  49
ENDBRANCH  27  41
BRANCH  28  53
ATOM     53  C   UNL     1       7.940 -14.268  -2.051  1.00  0.00     0.058 A 
ATOM     54  C   UNL     1       7.906 -14.861  -3.321  1.00  0.00     0.135 A 
ATOM     55  C   UNL     1       9.020 -13.414  -1.766  1.00  0.00     0.135 A 
ATOM     56  F   UNL     1       6.904 -15.693  -3.646  1.00  0.00    -0.206 F 
ATOM     57  C   UNL     1       8.905 -14.629  -4.265  1.00  0.00     0.059 A 
ATOM     58  C   UNL     1      10.014 -13.143  -2.701  1.00  0.00     0.059 A 
ATOM     59  F   UNL     1       9.103 -12.812  -0.569  1.00  0.00    -0.206 F 
ATOM     60  C   UNL     1       9.954 -13.765  -3.946  1.00  0.00     0.060 A 
BRANCH  60  61
ATOM     61  S   UNL     1      11.226 -13.442  -5.187  1.00  0.00     0.124 S 
ATOM     62  O   UNL     1      11.943 -14.712  -5.210  1.00  0.00    -0.237 OA
ATOM     63  O   UNL     1      10.429 -13.138  -6.371  1.00  0.00    -0.237 OA
ATOM     64  O   UNL     1      11.963 -12.312  -4.629  1.00  0.00    -0.744 OA
ENDBRANCH  60  61
ENDBRANCH  28  53
BRANCH  40  65
ATOM     65  C   UNL     1       5.854 -19.846   1.609  1.00  0.00     0.058 A 
ATOM     66  C   UNL     1       7.062 -20.200   2.228  1.00  0.00     0.135 A 
ATOM     67  C   UNL     1       5.057 -20.870   1.073  1.00  0.00     0.135 A 
ATOM     68  F   UNL     1       7.859 -19.253   2.748  1.00  0.00    -0.206 F 
ATOM     69  C   UNL     1       7.474 -21.525   2.299  1.00  0.00     0.059 A 
ATOM     70  C   UNL     1       5.435 -22.204   1.161  1.00  0.00     0.059 A 
ATOM     71  F   UNL     1       3.887 -20.579   0.483  1.00  0.00    -0.206 F 
ATOM     72  C   UNL     1       6.650 -22.520   1.767  1.00  0.00     0.060 A 
BRANCH  72  73
ATOM     73  S   UNL     1       7.173 -24.240   1.910  1.00  0.00     0.124 S 
ATOM     74  O   UNL     1       8.240 -24.305   0.917  1.00  0.00    -0.237 OA
ATOM     75  O   UNL     1       7.598 -24.322   3.304  1.00  0.00    -0.237 OA
ATOM     76  O   UNL     1       5.964 -24.990   1.584  1.00  0.00    -0.744 OA
ENDBRANCH  72  73
ENDBRANCH  40  65
ENDBRANCH  14  15
ENDBRANCH   7   9
ENDBRANCH   6   7
ENDBRANCH   5   6
ENDBRANCH   4   5
ENDBRANCH   3   4
ENDBRANCH   2   3
ENDBRANCH   1   2
BRANCH   1  77
ATOM     77  O   UNL     1       2.287  -4.637  -3.392  1.00  0.00    -0.377 OA
BRANCH  77  78
ATOM     78  C   UNL     1       1.545  -5.708  -3.963  1.00  0.00     0.188 C 
BRANCH  78  79
ATOM     79  C   UNL     1       2.180  -7.115  -4.069  1.00  0.00     0.188 C 
BRANCH  79  80
ATOM     80  O   UNL     1       3.431  -7.271  -3.414  1.00  0.00    -0.376 OA
BRANCH  80  81
ATOM     81  C   UNL     1       4.558  -7.387  -4.283  1.00  0.00     0.202 C 
BRANCH  81  82
ATOM     82  C   UNL     1       4.956  -6.087  -4.996  1.00  0.00     0.261 C 
BRANCH  82  83
ATOM     83  O   UNL     1       3.897  -5.490  -5.763  1.00  0.00    -0.459 OA
BRANCH  83  84
ATOM     84  C   UNL     1       3.569  -6.032  -6.962  1.00  0.00     0.349 C 
ATOM     85  O   UNL     1       4.130  -6.998  -7.468  1.00  0.00    -0.245 OA
BRANCH  84  86
ATOM     86  C   UNL     1       2.326  -5.437  -7.411  1.00  0.00     0.127 A 
ATOM     87  S   UNL     1       0.976  -6.484  -7.669  1.00  0.00    -0.136 S 
ATOM     88  C   UNL     1       1.960  -4.123  -7.631  1.00  0.00     0.050 A 
ATOM     89  C   UNL     1      -0.113  -5.170  -7.772  1.00  0.00     0.067 A 
ATOM     90  C   UNL     1       0.549  -3.966  -7.807  1.00  0.00     0.029 A 
BRANCH  88  91
ATOM     91  S   UNL     1       3.035  -2.763  -7.745  1.00  0.00    -0.020 S 
ATOM     92  O   UNL     1       2.226  -1.881  -6.680  1.00  0.00    -0.768 OA
ATOM     93  O   UNL     1       4.363  -3.135  -7.176  1.00  0.00    -0.269 OA
ENDBRANCH  88  91
ENDBRANCH  84  86
ENDBRANCH  83  84
ENDBRANCH  82  83
ENDBRANCH  81  82
ENDBRANCH  80  81
ENDBRANCH  79  80
ENDBRANCH  78  79
ENDBRANCH  77  78
ENDBRANCH   1  77
TORSDOF 24
