REMARK SMILES COc1ccc(-c2cc(Cl)cc3c2O[C@@H](C(F)(F)F)C(C(=O)OCCOCCOCCOCCOC(=O)c2ccc(-c4c5nc(c(-c6c(F)cc(S(=O)(=O)[O-])cc6F)c6ccc([nH]6)c(-c6c(F)cc(S(=O)(=O)[O-])cc6F)c6nc(c(-c7c(F)cc(S(=O)(=O)[O-])cc7F)c7ccc4[nH]7)C=C6)C=C5)cc2)=C3)cc1C
REMARK SMILES IDX 30 1 29 2 28 3 27 4 26 5 25 6 24 7 23 8 21 9 22 10 20 11
REMARK SMILES IDX 7 12 8 13 13 14 9 15 12 16 14 17 10 18 11 19 104 20 15 21
REMARK SMILES IDX 6 22 3 23 4 24 106 25 5 26 105 27 107 28 2 29 1 30 16 31
REMARK SMILES IDX 17 32 18 33 19 34 31 35 32 36 33 37 34 38 35 39 36 40 37 41
REMARK SMILES IDX 38 42 39 43 103 44 40 45 102 46 41 47 42 48 43 49 96 50
REMARK SMILES IDX 44 51 101 52 95 53 97 54 45 55 100 56 94 57 93 58 46 60
REMARK SMILES IDX 80 61 59 62 79 63 60 64 63 65 78 66 98 67 61 68 62 69 77 71
REMARK SMILES IDX 99 72 64 73 47 74 48 75 57 76 49 77 50 78 56 79 58 80 51 81
REMARK SMILES IDX 52 82 53 83 54 84 55 85 81 86 82 87 91 88 83 89 84 90 90 91
REMARK SMILES IDX 92 92 85 93 86 94 87 95 88 96 89 97 65 98 66 99 75 100
REMARK SMILES IDX 67 101 68 102 74 103 76 104 69 105 70 106 71 107 72 108
REMARK SMILES IDX 73 109
REMARK H PARENT 97 59 63 70
REMARK Flexibility Score: inf
ROOT
ATOM      1  C   UNL     1      -3.725  -1.903  -7.963  1.00  0.00     0.188 C 
ENDROOT
BRANCH   1   2
ATOM      2  O   UNL     1      -2.948  -2.104  -9.138  1.00  0.00    -0.377 OA
BRANCH   2   3
ATOM      3  C   UNL     1      -2.249  -3.330  -9.133  1.00  0.00     0.188 C 
BRANCH   3   4
ATOM      4  C   UNL     1      -1.046  -3.336  -8.243  1.00  0.00     0.188 C 
BRANCH   4   5
ATOM      5  O   UNL     1      -0.948  -2.760  -6.975  1.00  0.00    -0.376 OA
BRANCH   5   6
ATOM      6  C   UNL     1      -0.477  -1.421  -7.015  1.00  0.00     0.202 C 
BRANCH   6   7
ATOM      7  C   UNL     1       1.024  -0.869  -6.849  1.00  0.00     0.261 C 
BRANCH   7   8
ATOM      8  O   UNL     1       1.775  -0.608  -8.056  1.00  0.00    -0.460 OA
BRANCH   8   9
ATOM      9  C   UNL     1       2.987  -1.233  -8.223  1.00  0.00     0.338 C 
ATOM     10  O   UNL     1       3.802  -1.532  -7.365  1.00  0.00    -0.246 OA
BRANCH   9  11
ATOM     11  C   UNL     1       2.929  -2.030  -9.522  1.00  0.00     0.087 C 
ATOM     12  C   UNL     1       2.470  -4.056  -5.974  1.00  0.00     0.026 A 
ATOM     13  C   UNL     1       3.441  -5.035  -5.775  1.00  0.00     0.033 A 
ATOM     14  C   UNL     1       2.275  -3.724  -7.473  1.00  0.00     0.135 A 
ATOM     15  C   UNL     1       4.191  -5.579  -6.846  1.00  0.00     0.042 A 
ATOM     16  C   UNL     1       3.253  -4.098  -8.439  1.00  0.00     0.019 A 
ATOM     17  O   UNL     1       1.283  -2.929  -8.138  1.00  0.00    -0.475 OA
ATOM     18  Cl  UNL     1       5.316  -6.842  -6.530  1.00  0.00    -0.084 Cl
ATOM     19  C   UNL     1       4.136  -5.099  -8.153  1.00  0.00     0.032 A 
ATOM     20  C   UNL     1       3.513  -3.240  -9.643  1.00  0.00     0.027 C 
ATOM     21  C   UNL     1       1.492  -2.310  -9.641  1.00  0.00     0.316 C 
BRANCH  12  22
ATOM     22  C   UNL     1       1.842  -3.398  -4.568  1.00  0.00    -0.014 A 
ATOM     23  C   UNL     1       0.723  -0.590  -2.377  1.00  0.00     0.121 A 
ATOM     24  C   UNL     1      -0.027  -1.499  -4.089  1.00  0.00     0.047 A 
ATOM     25  C   UNL     1       2.205  -1.504  -1.893  1.00  0.00    -0.008 A 
ATOM     26  C   UNL     1       0.544  -2.866  -4.841  1.00  0.00     0.013 A 
ATOM     27  C   UNL     1       2.595  -2.899  -3.055  1.00  0.00     0.016 A 
ATOM     28  C   UNL     1       3.120  -0.822  -0.897  1.00  0.00     0.048 C 
BRANCH  23  29
ATOM     29  O   UNL     1       0.034   0.154  -1.381  1.00  0.00    -0.496 OA
ATOM     30  C   UNL     1       0.589   0.650  -0.164  1.00  0.00     0.278 C 
ENDBRANCH  23  29
ENDBRANCH  12  22
BRANCH  21  31
ATOM     31  C   UNL     1       0.877  -0.997 -10.427  1.00  0.00     0.430 C 
ATOM     32  F   UNL     1       1.544  -0.924 -11.637  1.00  0.00    -0.167 F 
ATOM     33  F   UNL     1      -0.423  -1.121 -10.775  1.00  0.00    -0.167 F 
ATOM     34  F   UNL     1       1.036   0.244  -9.925  1.00  0.00    -0.167 F 
ENDBRANCH  21  31
ENDBRANCH   9  11
ENDBRANCH   8   9
ENDBRANCH   7   8
ENDBRANCH   6   7
ENDBRANCH   5   6
ENDBRANCH   4   5
ENDBRANCH   3   4
ENDBRANCH   2   3
ENDBRANCH   1   2
BRANCH   1  35
ATOM     35  C   UNL     1      -4.338  -3.141  -7.383  1.00  0.00     0.188 C 
BRANCH  35  36
ATOM     36  O   UNL     1      -3.278  -3.854  -6.730  1.00  0.00    -0.376 OA
BRANCH  36  37
ATOM     37  C   UNL     1      -3.288  -5.251  -6.609  1.00  0.00     0.202 C 
BRANCH  37  38
ATOM     38  C   UNL     1      -4.685  -5.780  -6.657  1.00  0.00     0.261 C 
BRANCH  38  39
ATOM     39  O   UNL     1      -5.566  -5.378  -5.522  1.00  0.00    -0.460 OA
BRANCH  39  40
ATOM     40  C   UNL     1      -6.021  -4.245  -4.867  1.00  0.00     0.338 C 
ATOM     41  O   UNL     1      -7.229  -4.186  -4.636  1.00  0.00    -0.246 OA
BRANCH  40  42
ATOM     42  C   UNL     1      -5.151  -3.130  -4.274  1.00  0.00     0.060 A 
ATOM     43  C   UNL     1      -5.585  -1.824  -3.938  1.00  0.00     0.016 A 
ATOM     44  C   UNL     1      -3.813  -3.265  -4.222  1.00  0.00     0.016 A 
ATOM     45  C   UNL     1      -4.705  -0.646  -3.969  1.00  0.00     0.010 A 
ATOM     46  C   UNL     1      -3.098  -2.120  -4.611  1.00  0.00     0.010 A 
ATOM     47  C   UNL     1      -3.439  -0.749  -4.527  1.00  0.00    -0.014 A 
BRANCH  47  48
ATOM     48  C   UNL     1      -2.257   0.320  -4.901  1.00  0.00     0.031 A 
ATOM     49  C   UNL     1      -0.995   0.107  -3.588  1.00  0.00     0.074 A 
ATOM     50  C   UNL     1      -2.115   0.836  -6.282  1.00  0.00     0.049 A 
ATOM     51  N   UNL     1       0.474   0.367  -4.139  1.00  0.00    -0.248 NA
ATOM     52  C   UNL     1      -1.059  -1.558  -2.442  1.00  0.00     0.031 C 
ATOM     53  C   UNL     1      -0.944   1.162  -7.281  1.00  0.00     0.029 A 
ATOM     54  N   UNL     1      -3.096   1.082  -7.299  1.00  0.00    -0.354 N 
ATOM     55  C   UNL     1       1.675  -1.011  -3.826  1.00  0.00     0.074 A 
ATOM     56  C   UNL     1       0.476  -2.337  -2.637  1.00  0.00     0.031 C 
ATOM     57  C   UNL     1      -1.283   1.684  -8.474  1.00  0.00     0.029 A 
ATOM     58  C   UNL     1      -2.609   2.037  -8.282  1.00  0.00     0.049 A 
ATOM     59  H   UNL     1      -3.984   0.659  -7.329  1.00  0.00     0.167 HD
ATOM     60  C   UNL     1       3.094  -0.578  -4.155  1.00  0.00     0.037 A 
ATOM     61  C   UNL     1      -2.946   3.350  -8.288  1.00  0.00     0.037 A 
ATOM     62  C   UNL     1       3.056   0.626  -5.116  1.00  0.00     0.049 A 
ATOM     63  C   UNL     1      -1.711   4.106  -7.623  1.00  0.00     0.074 A 
ATOM     64  C   UNL     1       3.670   0.913  -6.329  1.00  0.00     0.029 A 
ATOM     65  N   UNL     1       2.191   1.736  -4.969  1.00  0.00    -0.354 N 
ATOM     66  N   UNL     1      -0.869   3.607  -6.719  1.00  0.00    -0.248 NA
ATOM     67  C   UNL     1      -1.127   5.293  -8.257  1.00  0.00     0.031 C 
ATOM     68  C   UNL     1       2.955   1.927  -7.027  1.00  0.00     0.029 A 
ATOM     69  C   UNL     1       2.071   2.511  -6.135  1.00  0.00     0.049 A 
ATOM     70  H   UNL     1       1.718   1.945  -4.131  1.00  0.00     0.167 HD
ATOM     71  C   UNL     1       0.369   4.243  -6.776  1.00  0.00     0.074 A 
ATOM     72  C   UNL     1       0.118   5.312  -7.742  1.00  0.00     0.031 C 
ATOM     73  C   UNL     1       1.556   3.894  -6.139  1.00  0.00     0.037 A 
BRANCH  60  74
ATOM     74  C   UNL     1       4.689  -1.189  -3.741  1.00  0.00     0.058 A 
ATOM     75  C   UNL     1       5.849  -0.746  -4.430  1.00  0.00     0.135 A 
ATOM     76  C   UNL     1       5.153  -2.088  -2.680  1.00  0.00     0.135 A 
ATOM     77  F   UNL     1       5.820   0.239  -5.323  1.00  0.00    -0.206 F 
ATOM     78  C   UNL     1       7.184  -1.204  -4.198  1.00  0.00     0.059 A 
ATOM     79  C   UNL     1       6.449  -2.546  -2.429  1.00  0.00     0.059 A 
ATOM     80  F   UNL     1       4.421  -2.595  -1.674  1.00  0.00    -0.206 F 
ATOM     81  C   UNL     1       7.475  -2.115  -3.202  1.00  0.00     0.060 A 
BRANCH  81  82
ATOM     82  S   UNL     1       9.135  -2.680  -2.829  1.00  0.00     0.124 S 
ATOM     83  O   UNL     1       9.490  -3.396  -4.048  1.00  0.00    -0.237 OA
ATOM     84  O   UNL     1       9.843  -1.430  -2.582  1.00  0.00    -0.237 OA
ATOM     85  O   UNL     1       8.957  -3.528  -1.650  1.00  0.00    -0.744 OA
ENDBRANCH  81  82
ENDBRANCH  60  74
BRANCH  61  86
ATOM     86  C   UNL     1      -4.454   3.234  -8.179  1.00  0.00     0.058 A 
ATOM     87  C   UNL     1      -5.074   2.544  -9.295  1.00  0.00     0.135 A 
ATOM     88  C   UNL     1      -4.966   2.931  -6.909  1.00  0.00     0.135 A 
ATOM     89  F   UNL     1      -4.604   2.737 -10.544  1.00  0.00    -0.206 F 
ATOM     90  C   UNL     1      -5.941   1.451  -9.124  1.00  0.00     0.059 A 
ATOM     91  C   UNL     1      -5.813   1.816  -6.731  1.00  0.00     0.059 A 
ATOM     92  F   UNL     1      -4.343   3.431  -5.830  1.00  0.00    -0.206 F 
ATOM     93  C   UNL     1      -6.285   1.075  -7.830  1.00  0.00     0.060 A 
BRANCH  93  94
ATOM     94  S   UNL     1      -7.230  -0.462  -7.575  1.00  0.00     0.124 S 
ATOM     95  O   UNL     1      -8.594  -0.011  -7.809  1.00  0.00    -0.237 OA
ATOM     96  O   UNL     1      -6.699  -1.386  -8.575  1.00  0.00    -0.237 OA
ATOM     97  O   UNL     1      -6.909  -0.813  -6.201  1.00  0.00    -0.744 OA
ENDBRANCH  93  94
ENDBRANCH  61  86
BRANCH  73  98
ATOM     98  C   UNL     1       2.575   4.916  -5.599  1.00  0.00     0.058 A 
ATOM     99  C   UNL     1       2.364   6.297  -5.625  1.00  0.00     0.135 A 
ATOM    100  C   UNL     1       3.738   4.519  -4.859  1.00  0.00     0.135 A 
ATOM    101  F   UNL     1       1.272   6.849  -6.162  1.00  0.00    -0.206 F 
ATOM    102  C   UNL     1       3.236   7.201  -5.031  1.00  0.00     0.059 A 
ATOM    103  C   UNL     1       4.579   5.403  -4.193  1.00  0.00     0.059 A 
ATOM    104  F   UNL     1       4.111   3.247  -4.688  1.00  0.00    -0.206 F 
ATOM    105  C   UNL     1       4.322   6.749  -4.297  1.00  0.00     0.060 A 
BRANCH 105 106
ATOM    106  S   UNL     1       5.324   7.959  -3.443  1.00  0.00     0.124 S 
ATOM    107  O   UNL     1       5.904   8.695  -4.562  1.00  0.00    -0.237 OA
ATOM    108  O   UNL     1       4.319   8.679  -2.665  1.00  0.00    -0.237 OA
ATOM    109  O   UNL     1       6.258   7.155  -2.663  1.00  0.00    -0.744 OA
ENDBRANCH 105 106
ENDBRANCH  73  98
ENDBRANCH  47  48
ENDBRANCH  40  42
ENDBRANCH  39  40
ENDBRANCH  38  39
ENDBRANCH  37  38
ENDBRANCH  36  37
ENDBRANCH  35  36
ENDBRANCH   1  35
TORSDOF 26
