REMARK SMILES COc1ccc(/C=C/C(=O)OCCOCCOCCOCCOC(=O)c2ccc(-c3c4nc(c(-c5c(F)cc(S(=O)(=O)[O-])cc5F)c5ccc([nH]5)c(-c5c(F)cc(S(=O)(=O)[O-])cc5F)c5nc(c(-c6c(F)cc(S(=O)(=O)[O-])cc6F)c6ccc3[nH]6)C=C5)C=C4)cc2)cc1S(=O)(=O)Nc1ccc(F)cc1F
REMARK SMILES IDX 16 1 15 2 14 3 13 4 12 5 11 6 9 7 10 8 8 9 7 10 6 11 3 12
REMARK SMILES IDX 4 13 93 14 5 15 92 16 2 17 1 18 94 19 95 20 96 21 97 22
REMARK SMILES IDX 98 24 99 25 104 26 100 27 103 28 105 29 101 30 102 31 17 32
REMARK SMILES IDX 18 33 19 34 20 35 21 36 22 37 23 38 24 39 25 40 26 41 27 42
REMARK SMILES IDX 91 43 28 44 90 45 29 46 30 47 31 48 84 49 32 50 89 51 83 52
REMARK SMILES IDX 85 53 33 54 88 55 82 56 81 57 34 59 68 60 47 61 67 62 48 63
REMARK SMILES IDX 51 64 66 65 86 66 49 67 50 68 65 70 87 71 52 72 35 73 36 74
REMARK SMILES IDX 45 75 37 76 38 77 44 78 46 79 39 80 40 81 41 82 42 83 43 84
REMARK SMILES IDX 69 85 70 86 79 87 71 88 72 89 78 90 80 91 73 92 74 93 75 94
REMARK SMILES IDX 76 95 77 96 53 97 54 98 63 99 55 100 56 101 62 102 64 103
REMARK SMILES IDX 57 104 58 105 59 106 60 107 61 108
REMARK H PARENT 97 23 85 58 51 69
REMARK Flexibility Score: inf
ROOT
ATOM      1  C   UNL     1       1.664  -4.727  -8.027  1.00  0.00     0.188 C 
ENDROOT
BRANCH   1   2
ATOM      2  C   UNL     1       0.641  -4.264  -9.080  1.00  0.00     0.188 C 
BRANCH   2   3
ATOM      3  O   UNL     1       1.138  -4.231 -10.401  1.00  0.00    -0.376 OA
BRANCH   3   4
ATOM      4  C   UNL     1       1.657  -3.045 -10.975  1.00  0.00     0.202 C 
BRANCH   4   5
ATOM      5  C   UNL     1       2.424  -1.952 -10.206  1.00  0.00     0.261 C 
BRANCH   5   6
ATOM      6  O   UNL     1       2.247  -1.888  -8.793  1.00  0.00    -0.460 OA
BRANCH   6   7
ATOM      7  C   UNL     1       1.197  -1.167  -8.367  1.00  0.00     0.330 C 
ATOM      8  O   UNL     1       0.380  -0.589  -9.070  1.00  0.00    -0.247 OA
BRANCH   7   9
ATOM      9  C   UNL     1       1.022  -1.264  -6.907  1.00  0.00     0.094 C 
ATOM     10  C   UNL     1       1.861  -1.768  -5.981  1.00  0.00     0.015 C 
BRANCH  10  11
ATOM     11  C   UNL     1       1.476  -1.715  -4.559  1.00  0.00    -0.024 A 
ATOM     12  C   UNL     1       0.630  -0.754  -2.104  1.00  0.00     0.139 A 
ATOM     13  C   UNL     1      -0.301  -1.292  -2.985  1.00  0.00     0.048 A 
ATOM     14  C   UNL     1       1.980  -1.026  -2.284  1.00  0.00     0.130 A 
ATOM     15  C   UNL     1       0.127  -1.815  -4.196  1.00  0.00     0.012 A 
ATOM     16  C   UNL     1       2.413  -1.456  -3.554  1.00  0.00     0.034 A 
BRANCH  12  17
ATOM     17  O   UNL     1       0.107   0.066  -1.150  1.00  0.00    -0.495 OA
ATOM     18  C   UNL     1       0.572   1.411  -1.298  1.00  0.00     0.278 C 
ENDBRANCH  12  17
BRANCH  14  19
ATOM     19  S   UNL     1       3.208  -0.942  -1.005  1.00  0.00     0.265 S 
ATOM     20  O   UNL     1       3.905  -2.211  -1.000  1.00  0.00    -0.201 OA
ATOM     21  O   UNL     1       3.931   0.293  -1.245  1.00  0.00    -0.201 OA
BRANCH  19  22
ATOM     22  N   UNL     1       2.562  -0.722   0.534  1.00  0.00    -0.277 N 
ATOM     23  H   UNL     1       3.100  -0.211   1.181  1.00  0.00     0.180 HD
BRANCH  22  24
ATOM     24  C   UNL     1       1.299  -1.214   0.979  1.00  0.00     0.085 A 
ATOM     25  C   UNL     1       0.553  -0.339   1.788  1.00  0.00     0.033 A 
ATOM     26  C   UNL     1       0.726  -2.427   0.587  1.00  0.00     0.150 A 
ATOM     27  C   UNL     1      -0.793  -0.599   2.049  1.00  0.00     0.041 A 
ATOM     28  C   UNL     1      -0.616  -2.695   0.853  1.00  0.00     0.080 A 
ATOM     29  F   UNL     1       1.416  -3.310  -0.146  1.00  0.00    -0.205 F 
ATOM     30  C   UNL     1      -1.371  -1.761   1.552  1.00  0.00     0.126 A 
ATOM     31  F   UNL     1      -2.681  -1.970   1.736  1.00  0.00    -0.207 F 
ENDBRANCH  22  24
ENDBRANCH  19  22
ENDBRANCH  14  19
ENDBRANCH  10  11
ENDBRANCH   7   9
ENDBRANCH   6   7
ENDBRANCH   5   6
ENDBRANCH   4   5
ENDBRANCH   3   4
ENDBRANCH   2   3
ENDBRANCH   1   2
BRANCH   1  32
ATOM     32  O   UNL     1       3.028  -4.526  -8.348  1.00  0.00    -0.377 OA
BRANCH  32  33
ATOM     33  C   UNL     1       3.636  -5.298  -9.383  1.00  0.00     0.188 C 
BRANCH  33  34
ATOM     34  C   UNL     1       2.879  -6.387 -10.182  1.00  0.00     0.188 C 
BRANCH  34  35
ATOM     35  O   UNL     1       1.754  -6.947  -9.524  1.00  0.00    -0.376 OA
BRANCH  35  36
ATOM     36  C   UNL     1       1.876  -8.260  -9.006  1.00  0.00     0.202 C 
BRANCH  36  37
ATOM     37  C   UNL     1       2.862  -8.449  -7.845  1.00  0.00     0.261 C 
BRANCH  37  38
ATOM     38  O   UNL     1       4.212  -8.030  -8.093  1.00  0.00    -0.460 OA
BRANCH  38  39
ATOM     39  C   UNL     1       4.903  -8.698  -9.041  1.00  0.00     0.338 C 
ATOM     40  O   UNL     1       4.504  -9.636  -9.716  1.00  0.00    -0.246 OA
BRANCH  39  41
ATOM     41  C   UNL     1       6.174  -7.980  -9.261  1.00  0.00     0.060 A 
ATOM     42  C   UNL     1       6.451  -7.452 -10.529  1.00  0.00     0.016 A 
ATOM     43  C   UNL     1       7.082  -7.817  -8.212  1.00  0.00     0.016 A 
ATOM     44  C   UNL     1       7.657  -6.789 -10.760  1.00  0.00     0.010 A 
ATOM     45  C   UNL     1       8.297  -7.170  -8.450  1.00  0.00     0.010 A 
ATOM     46  C   UNL     1       8.605  -6.683  -9.733  1.00  0.00    -0.014 A 
BRANCH  46  47
ATOM     47  C   UNL     1       9.988  -6.240 -10.042  1.00  0.00     0.031 A 
ATOM     48  C   UNL     1      11.050  -7.292 -10.218  1.00  0.00     0.074 A 
ATOM     49  C   UNL     1      10.297  -4.937 -10.169  1.00  0.00     0.049 A 
ATOM     50  N   UNL     1      12.333  -7.152 -10.425  1.00  0.00    -0.248 NA
ATOM     51  C   UNL     1      10.602  -8.693 -10.146  1.00  0.00     0.031 C 
ATOM     52  C   UNL     1       9.351  -3.828 -10.057  1.00  0.00     0.029 A 
ATOM     53  N   UNL     1      11.504  -4.327 -10.408  1.00  0.00    -0.354 N 
ATOM     54  C   UNL     1      12.848  -8.441 -10.493  1.00  0.00     0.074 A 
ATOM     55  C   UNL     1      11.743  -9.351 -10.279  1.00  0.00     0.031 C 
ATOM     56  C   UNL     1      10.018  -2.670 -10.209  1.00  0.00     0.029 A 
ATOM     57  C   UNL     1      11.441  -2.954 -10.393  1.00  0.00     0.049 A 
ATOM     58  H   UNL     1      12.336  -4.826 -10.574  1.00  0.00     0.167 HD
ATOM     59  C   UNL     1      14.124  -8.832 -10.720  1.00  0.00     0.037 A 
ATOM     60  C   UNL     1      12.423  -2.034 -10.488  1.00  0.00     0.037 A 
ATOM     61  C   UNL     1      15.218  -7.920 -10.931  1.00  0.00     0.049 A 
ATOM     62  C   UNL     1      13.849  -2.491 -10.677  1.00  0.00     0.074 A 
ATOM     63  C   UNL     1      16.543  -8.216 -11.195  1.00  0.00     0.029 A 
ATOM     64  N   UNL     1      15.117  -6.537 -10.891  1.00  0.00    -0.354 N 
ATOM     65  N   UNL     1      14.319  -3.713 -10.770  1.00  0.00    -0.248 NA
ATOM     66  C   UNL     1      14.877  -1.446 -10.777  1.00  0.00     0.031 C 
ATOM     67  C   UNL     1      17.256  -7.015 -11.251  1.00  0.00     0.029 A 
ATOM     68  C   UNL     1      16.363  -5.966 -11.094  1.00  0.00     0.049 A 
ATOM     69  H   UNL     1      14.284  -6.035 -10.740  1.00  0.00     0.167 HD
ATOM     70  C   UNL     1      15.690  -3.582 -10.971  1.00  0.00     0.074 A 
ATOM     71  C   UNL     1      15.972  -2.162 -10.995  1.00  0.00     0.031 C 
ATOM     72  C   UNL     1      16.630  -4.549 -11.124  1.00  0.00     0.037 A 
BRANCH  59  73
ATOM     73  C   UNL     1      14.415 -10.309 -10.717  1.00  0.00     0.058 A 
ATOM     74  C   UNL     1      13.963 -11.158 -11.740  1.00  0.00     0.135 A 
ATOM     75  C   UNL     1      15.190 -10.875  -9.692  1.00  0.00     0.135 A 
ATOM     76  F   UNL     1      13.201 -10.675 -12.734  1.00  0.00    -0.206 F 
ATOM     77  C   UNL     1      14.250 -12.520 -11.734  1.00  0.00     0.059 A 
ATOM     78  C   UNL     1      15.516 -12.228  -9.683  1.00  0.00     0.059 A 
ATOM     79  F   UNL     1      15.644 -10.111  -8.686  1.00  0.00    -0.206 F 
ATOM     80  C   UNL     1      15.031 -13.045 -10.702  1.00  0.00     0.060 A 
BRANCH  80  81
ATOM     81  S   UNL     1      15.406 -14.810 -10.719  1.00  0.00     0.124 S 
ATOM     82  O   UNL     1      14.104 -15.389 -10.405  1.00  0.00    -0.237 OA
ATOM     83  O   UNL     1      15.877 -15.014 -12.085  1.00  0.00    -0.237 OA
ATOM     84  O   UNL     1      16.422 -14.953  -9.681  1.00  0.00    -0.744 OA
ENDBRANCH  80  81
ENDBRANCH  59  73
BRANCH  60  85
ATOM     85  C   UNL     1      12.097  -0.584 -10.391  1.00  0.00     0.058 A 
ATOM     86  C   UNL     1      12.234   0.270 -11.496  1.00  0.00     0.135 A 
ATOM     87  C   UNL     1      11.640  -0.022  -9.188  1.00  0.00     0.135 A 
ATOM     88  F   UNL     1      12.682  -0.213 -12.665  1.00  0.00    -0.206 F 
ATOM     89  C   UNL     1      11.942   1.628 -11.411  1.00  0.00     0.059 A 
ATOM     90  C   UNL     1      11.313   1.327  -9.085  1.00  0.00     0.059 A 
ATOM     91  F   UNL     1      11.486  -0.794  -8.101  1.00  0.00    -0.206 F 
ATOM     92  C   UNL     1      11.474   2.146 -10.201  1.00  0.00     0.060 A 
BRANCH  92  93
ATOM     93  S   UNL     1      11.041   3.897 -10.121  1.00  0.00     0.124 S 
ATOM     94  O   UNL     1      12.353   4.530 -10.190  1.00  0.00    -0.237 OA
ATOM     95  O   UNL     1      10.193   4.055 -11.298  1.00  0.00    -0.237 OA
ATOM     96  O   UNL     1      10.350   4.015  -8.840  1.00  0.00    -0.744 OA
ENDBRANCH  92  93
ENDBRANCH  60  85
BRANCH  72  97
ATOM     97  C   UNL     1      18.050  -4.114 -11.379  1.00  0.00     0.058 A 
ATOM     98  C   UNL     1      18.838  -3.522 -10.380  1.00  0.00     0.135 A 
ATOM     99  C   UNL     1      18.649  -4.352 -12.628  1.00  0.00     0.135 A 
ATOM    100  F   UNL     1      18.317  -3.268  -9.169  1.00  0.00    -0.206 F 
ATOM    101  C   UNL     1      20.161  -3.159 -10.617  1.00  0.00     0.059 A 
ATOM    102  C   UNL     1      19.979  -4.027 -12.876  1.00  0.00     0.059 A 
ATOM    103  F   UNL     1      17.947  -4.926 -13.617  1.00  0.00    -0.206 F 
ATOM    104  C   UNL     1      20.724  -3.420 -11.867  1.00  0.00     0.060 A 
BRANCH 104 105
ATOM    105  S   UNL     1      22.451  -2.974 -12.149  1.00  0.00     0.124 S 
ATOM    106  O   UNL     1      22.374  -1.518 -12.208  1.00  0.00    -0.237 OA
ATOM    107  O   UNL     1      23.112  -3.528 -10.972  1.00  0.00    -0.237 OA
ATOM    108  O   UNL     1      22.773  -3.636 -13.411  1.00  0.00    -0.744 OA
ENDBRANCH 104 105
ENDBRANCH  72  97
ENDBRANCH  46  47
ENDBRANCH  39  41
ENDBRANCH  38  39
ENDBRANCH  37  38
ENDBRANCH  36  37
ENDBRANCH  35  36
ENDBRANCH  34  35
ENDBRANCH  33  34
ENDBRANCH  32  33
ENDBRANCH   1  32
TORSDOF 28
