REMARK SMILES Cc1ccc(C)c(N2C(=O)S[C@H](CC(=O)Nc3ccc(C(=O)OCCOCCOCCOCCOC(=O)c4ccc(-c5c6nc(c(-c7c(F)cc(S(=O)(=O)[O-])cc7F)c7ccc([nH]7)c(-c7c(F)cc(S(=O)(=O)[O-])cc7F)c7nc(c(-c8c(F)cc(S(=O)(=O)[O-])cc8F)c8ccc5[nH]8)C=C7)C=C6)cc4)c(O)c3)C2=O)c1
REMARK SMILES IDX 28 1 27 2 26 3 25 4 24 5 23 6 21 7 22 8 20 9 17 10 18 11
REMARK SMILES IDX 106 12 19 13 104 14 16 15 14 16 15 17 13 19 12 20 8 21 9 22
REMARK SMILES IDX 107 23 10 24 11 25 108 26 7 27 1 28 2 29 3 30 109 31 4 32
REMARK SMILES IDX 5 33 6 34 105 35 29 37 30 38 31 39 32 40 33 41 34 42 35 43
REMARK SMILES IDX 36 44 37 45 38 46 39 47 103 48 40 49 102 50 41 51 42 52
REMARK SMILES IDX 43 53 96 54 44 55 101 56 95 57 97 58 45 59 100 60 94 61
REMARK SMILES IDX 93 62 46 64 80 65 59 66 79 67 60 68 63 69 78 70 98 71 61 72
REMARK SMILES IDX 62 73 77 75 99 76 64 77 47 78 48 79 57 80 49 81 50 82 56 83
REMARK SMILES IDX 58 84 51 85 52 86 53 87 54 88 55 89 81 90 82 91 91 92 83 93
REMARK SMILES IDX 84 94 90 95 92 96 85 97 86 98 87 99 88 100 89 101 65 102
REMARK SMILES IDX 66 103 75 104 67 105 68 106 74 107 76 108 69 109 70 110
REMARK SMILES IDX 71 111 72 112 73 113
REMARK H PARENT 16 18 105 36 97 63 63 74
REMARK Flexibility Score: inf
ROOT
ATOM      1  C   UNL     1       3.204   6.114  -0.468  1.00  0.00     0.188 C 
ENDROOT
BRANCH   1   2
ATOM      2  C   UNL     1       3.109   5.600  -1.925  1.00  0.00     0.188 C 
BRANCH   2   3
ATOM      3  O   UNL     1       4.048   6.165  -2.825  1.00  0.00    -0.376 OA
BRANCH   3   4
ATOM      4  C   UNL     1       3.543   6.451  -4.119  1.00  0.00     0.202 C 
BRANCH   4   5
ATOM      5  C   UNL     1       2.797   7.790  -4.205  1.00  0.00     0.261 C 
BRANCH   5   6
ATOM      6  O   UNL     1       2.101   8.159  -2.988  1.00  0.00    -0.460 OA
BRANCH   6   7
ATOM      7  C   UNL     1       0.812   7.750  -2.946  1.00  0.00     0.341 C 
ATOM      8  O   UNL     1       0.241   7.176  -3.854  1.00  0.00    -0.246 OA
BRANCH   7   9
ATOM      9  C   UNL     1       0.235   7.855  -1.584  1.00  0.00     0.101 A 
ATOM     10  C   UNL     1      -1.275   7.662   0.816  1.00  0.00     0.044 A 
ATOM     11  C   UNL     1      -0.561   6.593   0.354  1.00  0.00     0.027 A 
ATOM     12  C   UNL     1      -1.069   8.901   0.163  1.00  0.00     0.073 A 
ATOM     13  C   UNL     1       0.096   6.673  -0.861  1.00  0.00     0.022 A 
ATOM     14  C   UNL     1      -0.270   9.005  -1.005  1.00  0.00     0.132 A 
BRANCH  10  15
ATOM     15  N   UNL     1      -2.293   7.503   1.781  1.00  0.00    -0.326 N 
ATOM     16  C   UNL     1      -2.793   6.424   2.481  1.00  0.00     0.226 C 
ATOM     17  O   UNL     1      -3.950   6.545   2.906  1.00  0.00    -0.275 OA
ATOM     18  H   UNL     1      -2.747   8.348   2.004  1.00  0.00     0.169 HD
BRANCH  16  19
ATOM     19  C   UNL     1      -2.001   5.151   2.877  1.00  0.00     0.125 C 
BRANCH  19  20
ATOM     20  C   UNL     1      -2.549   3.816   2.328  1.00  0.00     0.156 C 
ATOM     21  N   UNL     1      -1.336   1.885   1.437  1.00  0.00    -0.240 N 
ATOM     22  C   UNL     1      -1.222   2.769   0.415  1.00  0.00     0.293 C 
ATOM     23  C   UNL     1      -1.732   2.510   2.612  1.00  0.00     0.248 C 
ATOM     24  O   UNL     1      -0.275   2.901  -0.336  1.00  0.00    -0.261 OA
ATOM     25  S   UNL     1      -2.522   3.915   0.550  1.00  0.00    -0.050 SA
ATOM     26  O   UNL     1      -1.432   2.145   3.745  1.00  0.00    -0.273 OA
BRANCH  21  27
ATOM     27  C   UNL     1      -0.703   0.613   1.298  1.00  0.00     0.056 A 
ATOM     28  C   UNL     1       2.827  -0.838   0.795  1.00  0.00     0.044 C 
ATOM     29  C   UNL     1       1.335  -0.686   0.842  1.00  0.00    -0.049 A 
ATOM     30  C   UNL     1       0.560  -1.752   0.381  1.00  0.00     0.004 A 
ATOM     31  C   UNL     1       0.702   0.494   1.293  1.00  0.00     0.030 A 
ATOM     32  C   UNL     1      -0.823  -1.649   0.370  1.00  0.00     0.006 A 
ATOM     33  C   UNL     1      -1.464  -0.477   0.813  1.00  0.00    -0.027 A 
ATOM     34  C   UNL     1      -2.960  -0.456   0.677  1.00  0.00     0.046 C 
ENDBRANCH  21  27
ENDBRANCH  19  20
ENDBRANCH  16  19
ENDBRANCH  10  15
BRANCH  14  35
ATOM     35  O   UNL     1      -0.050  10.252  -1.514  1.00  0.00    -0.507 OA
ATOM     36  H   UNL     1       0.473  10.358  -2.284  1.00  0.00     0.293 HD
ENDBRANCH  14  35
ENDBRANCH   7   9
ENDBRANCH   6   7
ENDBRANCH   5   6
ENDBRANCH   4   5
ENDBRANCH   3   4
ENDBRANCH   2   3
ENDBRANCH   1   2
BRANCH   1  37
ATOM     37  O   UNL     1       4.293   6.920  -0.030  1.00  0.00    -0.377 OA
BRANCH  37  38
ATOM     38  C   UNL     1       5.566   6.670  -0.597  1.00  0.00     0.188 C 
BRANCH  38  39
ATOM     39  C   UNL     1       6.122   5.263  -0.371  1.00  0.00     0.188 C 
BRANCH  39  40
ATOM     40  O   UNL     1       5.144   4.253  -0.568  1.00  0.00    -0.376 OA
BRANCH  40  41
ATOM     41  C   UNL     1       5.036   3.301   0.480  1.00  0.00     0.202 C 
BRANCH  41  42
ATOM     42  C   UNL     1       6.116   2.233   0.326  1.00  0.00     0.261 C 
BRANCH  42  43
ATOM     43  O   UNL     1       5.894   1.378  -0.819  1.00  0.00    -0.460 OA
BRANCH  43  44
ATOM     44  C   UNL     1       5.882   1.995  -2.037  1.00  0.00     0.338 C 
ATOM     45  O   UNL     1       6.873   2.438  -2.592  1.00  0.00    -0.246 OA
BRANCH  44  46
ATOM     46  C   UNL     1       4.478   2.069  -2.555  1.00  0.00     0.060 A 
ATOM     47  C   UNL     1       4.163   2.799  -3.700  1.00  0.00     0.016 A 
ATOM     48  C   UNL     1       3.433   1.511  -1.813  1.00  0.00     0.016 A 
ATOM     49  C   UNL     1       2.811   3.012  -4.034  1.00  0.00     0.010 A 
ATOM     50  C   UNL     1       2.097   1.784  -2.100  1.00  0.00     0.010 A 
ATOM     51  C   UNL     1       1.761   2.568  -3.202  1.00  0.00    -0.014 A 
BRANCH  51  52
ATOM     52  C   UNL     1       0.374   2.432  -3.711  1.00  0.00     0.031 A 
ATOM     53  C   UNL     1       0.414   1.563  -4.873  1.00  0.00     0.074 A 
ATOM     54  C   UNL     1      -0.809   3.023  -3.396  1.00  0.00     0.049 A 
ATOM     55  N   UNL     1       0.398   2.058  -6.069  1.00  0.00    -0.248 NA
ATOM     56  C   UNL     1       0.797   0.150  -4.795  1.00  0.00     0.031 C 
ATOM     57  C   UNL     1      -0.892   4.308  -2.755  1.00  0.00     0.029 A 
ATOM     58  N   UNL     1      -2.159   2.749  -3.615  1.00  0.00    -0.354 N 
ATOM     59  C   UNL     1       0.218   0.950  -6.848  1.00  0.00     0.074 A 
ATOM     60  C   UNL     1       0.761  -0.164  -6.095  1.00  0.00     0.031 C 
ATOM     61  C   UNL     1      -2.159   4.598  -2.405  1.00  0.00     0.029 A 
ATOM     62  C   UNL     1      -3.030   3.483  -2.780  1.00  0.00     0.049 A 
ATOM     63  H   UNL     1      -2.476   2.104  -4.288  1.00  0.00     0.167 HD
ATOM     64  C   UNL     1      -0.869   0.999  -7.657  1.00  0.00     0.037 A 
ATOM     65  C   UNL     1      -4.383   3.680  -2.745  1.00  0.00     0.037 A 
ATOM     66  C   UNL     1      -1.256   2.345  -8.028  1.00  0.00     0.049 A 
ATOM     67  C   UNL     1      -4.869   3.893  -4.108  1.00  0.00     0.074 A 
ATOM     68  C   UNL     1      -0.655   3.384  -8.714  1.00  0.00     0.029 A 
ATOM     69  N   UNL     1      -2.294   2.899  -7.323  1.00  0.00    -0.354 N 
ATOM     70  N   UNL     1      -4.643   4.985  -4.783  1.00  0.00    -0.248 NA
ATOM     71  C   UNL     1      -5.248   2.724  -4.891  1.00  0.00     0.031 C 
ATOM     72  C   UNL     1      -1.370   4.576  -8.399  1.00  0.00     0.029 A 
ATOM     73  C   UNL     1      -2.414   4.253  -7.545  1.00  0.00     0.049 A 
ATOM     74  H   UNL     1      -2.886   2.386  -6.726  1.00  0.00     0.167 HD
ATOM     75  C   UNL     1      -4.339   4.504  -6.038  1.00  0.00     0.074 A 
ATOM     76  C   UNL     1      -4.887   3.158  -6.099  1.00  0.00     0.031 C 
ATOM     77  C   UNL     1      -3.330   5.056  -6.761  1.00  0.00     0.037 A 
BRANCH  64  78
ATOM     78  C   UNL     1      -1.828  -0.144  -7.617  1.00  0.00     0.058 A 
ATOM     79  C   UNL     1      -2.551  -0.488  -8.758  1.00  0.00     0.135 A 
ATOM     80  C   UNL     1      -2.173  -0.815  -6.418  1.00  0.00     0.135 A 
ATOM     81  F   UNL     1      -2.361   0.180  -9.905  1.00  0.00    -0.206 F 
ATOM     82  C   UNL     1      -3.508  -1.497  -8.726  1.00  0.00     0.059 A 
ATOM     83  C   UNL     1      -3.051  -1.879  -6.379  1.00  0.00     0.059 A 
ATOM     84  F   UNL     1      -1.729  -0.399  -5.224  1.00  0.00    -0.206 F 
ATOM     85  C   UNL     1      -3.727  -2.204  -7.541  1.00  0.00     0.060 A 
BRANCH  85  86
ATOM     86  S   UNL     1      -4.931  -3.537  -7.509  1.00  0.00     0.124 S 
ATOM     87  O   UNL     1      -6.182  -2.790  -7.480  1.00  0.00    -0.237 OA
ATOM     88  O   UNL     1      -4.630  -4.246  -8.748  1.00  0.00    -0.237 OA
ATOM     89  O   UNL     1      -4.593  -4.259  -6.285  1.00  0.00    -0.744 OA
ENDBRANCH  85  86
ENDBRANCH  64  78
BRANCH  65  90
ATOM     90  C   UNL     1      -5.287   3.498  -1.567  1.00  0.00     0.058 A 
ATOM     91  C   UNL     1      -6.395   4.307  -1.254  1.00  0.00     0.135 A 
ATOM     92  C   UNL     1      -5.094   2.394  -0.721  1.00  0.00     0.135 A 
ATOM     93  F   UNL     1      -6.718   5.340  -2.047  1.00  0.00    -0.206 F 
ATOM     94  C   UNL     1      -7.207   4.078  -0.123  1.00  0.00     0.059 A 
ATOM     95  C   UNL     1      -5.865   2.154   0.421  1.00  0.00     0.059 A 
ATOM     96  F   UNL     1      -4.114   1.521  -0.997  1.00  0.00    -0.206 F 
ATOM     97  C   UNL     1      -6.925   3.002   0.718  1.00  0.00     0.060 A 
BRANCH  97  98
ATOM     98  S   UNL     1      -7.889   2.688   2.222  1.00  0.00     0.124 S 
ATOM     99  O   UNL     1      -8.386   4.010   2.590  1.00  0.00    -0.237 OA
ATOM    100  O   UNL     1      -8.894   1.745   1.743  1.00  0.00    -0.237 OA
ATOM    101  O   UNL     1      -6.888   2.129   3.130  1.00  0.00    -0.744 OA
ENDBRANCH  97  98
ENDBRANCH  65  90
BRANCH  77 102
ATOM    102  C   UNL     1      -3.142   6.539  -6.657  1.00  0.00     0.058 A 
ATOM    103  C   UNL     1      -2.546   7.208  -5.582  1.00  0.00     0.135 A 
ATOM    104  C   UNL     1      -3.561   7.321  -7.742  1.00  0.00     0.135 A 
ATOM    105  F   UNL     1      -2.166   6.531  -4.493  1.00  0.00    -0.206 F 
ATOM    106  C   UNL     1      -2.322   8.589  -5.604  1.00  0.00     0.059 A 
ATOM    107  C   UNL     1      -3.361   8.697  -7.786  1.00  0.00     0.059 A 
ATOM    108  F   UNL     1      -4.160   6.738  -8.794  1.00  0.00    -0.206 F 
ATOM    109  C   UNL     1      -2.728   9.326  -6.716  1.00  0.00     0.060 A 
BRANCH 109 110
ATOM    110  S   UNL     1      -2.370  11.095  -6.793  1.00  0.00     0.124 S 
ATOM    111  O   UNL     1      -3.335  11.650  -5.851  1.00  0.00    -0.237 OA
ATOM    112  O   UNL     1      -0.970  11.160  -6.379  1.00  0.00    -0.237 OA
ATOM    113  O   UNL     1      -2.607  11.430  -8.196  1.00  0.00    -0.744 OA
ENDBRANCH 109 110
ENDBRANCH  77 102
ENDBRANCH  51  52
ENDBRANCH  44  46
ENDBRANCH  43  44
ENDBRANCH  42  43
ENDBRANCH  41  42
ENDBRANCH  40  41
ENDBRANCH  39  40
ENDBRANCH  38  39
ENDBRANCH  37  38
ENDBRANCH   1  37
TORSDOF 28
