REMARK SMILES CC[C@@H]1CCC[C@@](CC[NH+]2CCOCC2)(C(=O)OCCOCCOCCOCCOC(=O)c2ccc(-c3c4nc(c(-c5c(F)cc(S(=O)(=O)[O-])cc5F)c5ccc([nH]5)c(-c5c(F)cc(S(=O)(=O)[O-])cc5F)c5nc(c(-c6c(F)cc(S(=O)(=O)[O-])cc6F)c6ccc3[nH]6)C=C5)C=C4)cc2)C1
REMARK SMILES IDX 24 1 23 2 22 3 21 4 20 5 19 6 18 7 16 8 17 9 7 10 3 11 4 12
REMARK SMILES IDX 99 13 5 14 6 15 2 16 1 17 8 18 9 19 10 20 11 21 15 22 12 24
REMARK SMILES IDX 14 25 13 26 25 27 26 28 27 29 28 30 29 31 30 32 31 33 32 34
REMARK SMILES IDX 33 35 34 36 98 37 35 38 97 39 36 40 37 41 38 42 91 43 39 44
REMARK SMILES IDX 96 45 90 46 92 47 40 48 95 49 89 50 88 51 41 53 75 54 54 55
REMARK SMILES IDX 74 56 55 57 58 58 73 59 93 60 56 61 57 62 72 64 94 65 59 66
REMARK SMILES IDX 42 67 43 68 52 69 44 70 45 71 51 72 53 73 46 74 47 75 48 76
REMARK SMILES IDX 49 77 50 78 76 79 77 80 86 81 78 82 79 83 85 84 87 85 80 86
REMARK SMILES IDX 81 87 82 88 83 89 84 90 60 91 61 92 70 93 62 94 63 95 69 96
REMARK SMILES IDX 71 97 64 98 65 99 66 100 67 101 68 102
REMARK H PARENT 10 23 92 52 58 63
REMARK Flexibility Score: inf
ROOT
ATOM      1  O   UNL     1       3.875  -4.674  -1.904  1.00  0.00    -0.377 OA
ENDROOT
BRANCH   1   2
ATOM      2  C   UNL     1       3.793  -3.285  -2.159  1.00  0.00     0.188 C 
BRANCH   2   3
ATOM      3  C   UNL     1       4.916  -2.383  -1.669  1.00  0.00     0.188 C 
BRANCH   3   4
ATOM      4  O   UNL     1       6.137  -3.015  -1.343  1.00  0.00    -0.376 OA
BRANCH   4   5
ATOM      5  C   UNL     1       6.151  -3.827  -0.170  1.00  0.00     0.202 C 
BRANCH   5   6
ATOM      6  C   UNL     1       5.129  -3.538   0.938  1.00  0.00     0.261 C 
BRANCH   6   7
ATOM      7  O   UNL     1       3.761  -3.953   0.617  1.00  0.00    -0.463 OA
BRANCH   7   8
ATOM      8  C   UNL     1       2.787  -3.295   1.287  1.00  0.00     0.312 C 
ATOM      9  O   UNL     1       3.047  -2.309   1.981  1.00  0.00    -0.252 OA
BRANCH   8  10
ATOM     10  C   UNL     1       1.328  -3.864   1.239  1.00  0.00     0.074 C 
ATOM     11  C   UNL     1       0.626  -2.023  -0.431  1.00  0.00    -0.010 C 
ATOM     12  C   UNL     1       0.024  -3.021  -1.426  1.00  0.00     0.003 C 
ATOM     13  C   UNL     1       0.467  -2.542   1.026  1.00  0.00     0.022 C 
ATOM     14  C   UNL     1       0.519  -4.440  -1.230  1.00  0.00     0.001 C 
ATOM     15  C   UNL     1       0.711  -4.852   0.217  1.00  0.00     0.019 C 
BRANCH  11  16
ATOM     16  C   UNL     1       0.068  -0.625  -0.735  1.00  0.00     0.000 C 
ATOM     17  C   UNL     1       0.812   0.482  -0.004  1.00  0.00     0.004 C 
ENDBRANCH  11  16
BRANCH  10  18
ATOM     18  C   UNL     1       1.118  -4.518   2.676  1.00  0.00     0.080 C 
BRANCH  18  19
ATOM     19  C   UNL     1       1.313  -6.079   2.878  1.00  0.00     0.263 C 
BRANCH  19  20
ATOM     20  N   UNL     1       2.620  -6.685   3.190  1.00  0.00    -0.331 N 
ATOM     21  C   UNL     1       3.769  -6.265   2.395  1.00  0.00     0.291 C 
ATOM     22  C   UNL     1       2.616  -8.172   3.138  1.00  0.00     0.291 C 
ATOM     23  H   UNL     1       2.742  -6.326   4.136  1.00  0.00     0.348 HD
ATOM     24  C   UNL     1       3.786  -6.817   0.961  1.00  0.00     0.221 C 
ATOM     25  C   UNL     1       2.711  -8.771   1.713  1.00  0.00     0.221 C 
ATOM     26  O   UNL     1       3.820  -8.245   0.970  1.00  0.00    -0.370 OA
ENDBRANCH  19  20
ENDBRANCH  18  19
ENDBRANCH  10  18
ENDBRANCH   8  10
ENDBRANCH   7   8
ENDBRANCH   6   7
ENDBRANCH   5   6
ENDBRANCH   4   5
ENDBRANCH   3   4
ENDBRANCH   2   3
ENDBRANCH   1   2
BRANCH   1  27
ATOM     27  C   UNL     1       4.643  -5.500  -2.764  1.00  0.00     0.188 C 
BRANCH  27  28
ATOM     28  C   UNL     1       5.177  -4.897  -4.062  1.00  0.00     0.188 C 
BRANCH  28  29
ATOM     29  O   UNL     1       4.260  -4.319  -4.993  1.00  0.00    -0.376 OA
BRANCH  29  30
ATOM     30  C   UNL     1       2.894  -4.719  -4.988  1.00  0.00     0.202 C 
BRANCH  30  31
ATOM     31  C   UNL     1       2.557  -6.003  -5.735  1.00  0.00     0.261 C 
BRANCH  31  32
ATOM     32  O   UNL     1       3.092  -7.163  -5.091  1.00  0.00    -0.460 OA
BRANCH  32  33
ATOM     33  C   UNL     1       4.262  -7.601  -5.599  1.00  0.00     0.338 C 
ATOM     34  O   UNL     1       4.893  -7.122  -6.536  1.00  0.00    -0.246 OA
BRANCH  33  35
ATOM     35  C   UNL     1       4.763  -8.711  -4.782  1.00  0.00     0.060 A 
ATOM     36  C   UNL     1       6.069  -8.642  -4.284  1.00  0.00     0.016 A 
ATOM     37  C   UNL     1       3.984  -9.857  -4.606  1.00  0.00     0.016 A 
ATOM     38  C   UNL     1       6.629  -9.752  -3.664  1.00  0.00     0.010 A 
ATOM     39  C   UNL     1       4.550 -10.972  -3.994  1.00  0.00     0.010 A 
ATOM     40  C   UNL     1       5.889 -10.937  -3.567  1.00  0.00    -0.014 A 
BRANCH  40  41
ATOM     41  C   UNL     1       6.569 -12.192  -3.186  1.00  0.00     0.031 A 
ATOM     42  C   UNL     1       6.959 -13.156  -4.273  1.00  0.00     0.074 A 
ATOM     43  C   UNL     1       6.845 -12.451  -1.897  1.00  0.00     0.049 A 
ATOM     44  N   UNL     1       7.493 -14.344  -4.175  1.00  0.00    -0.248 NA
ATOM     45  C   UNL     1       6.705 -12.723  -5.659  1.00  0.00     0.031 C 
ATOM     46  C   UNL     1       6.543 -11.563  -0.775  1.00  0.00     0.029 A 
ATOM     47  N   UNL     1       7.430 -13.545  -1.317  1.00  0.00    -0.354 N 
ATOM     48  C   UNL     1       7.634 -14.803  -5.479  1.00  0.00     0.074 A 
ATOM     49  C   UNL     1       7.097 -13.783  -6.351  1.00  0.00     0.031 C 
ATOM     50  C   UNL     1       6.930 -12.160   0.365  1.00  0.00     0.029 A 
ATOM     51  C   UNL     1       7.469 -13.482   0.054  1.00  0.00     0.049 A 
ATOM     52  H   UNL     1       7.788 -14.304  -1.833  1.00  0.00     0.167 HD
ATOM     53  C   UNL     1       8.173 -15.969  -5.907  1.00  0.00     0.037 A 
ATOM     54  C   UNL     1       7.866 -14.404   0.952  1.00  0.00     0.037 A 
ATOM     55  C   UNL     1       8.701 -16.975  -5.022  1.00  0.00     0.049 A 
ATOM     56  C   UNL     1       8.399 -15.723   0.454  1.00  0.00     0.074 A 
ATOM     57  C   UNL     1       9.278 -18.190  -5.346  1.00  0.00     0.029 A 
ATOM     58  N   UNL     1       8.710 -16.885  -3.637  1.00  0.00    -0.354 N 
ATOM     59  N   UNL     1       8.542 -16.143  -0.781  1.00  0.00    -0.248 NA
ATOM     60  C   UNL     1       8.828 -16.692   1.471  1.00  0.00     0.031 C 
ATOM     61  C   UNL     1       9.585 -18.858  -4.157  1.00  0.00     0.029 A 
ATOM     62  C   UNL     1       9.259 -18.033  -3.091  1.00  0.00     0.049 A 
ATOM     63  H   UNL     1       8.375 -16.118  -3.119  1.00  0.00     0.167 HD
ATOM     64  C   UNL     1       9.104 -17.413  -0.690  1.00  0.00     0.074 A 
ATOM     65  C   UNL     1       9.289 -17.683   0.721  1.00  0.00     0.031 C 
ATOM     66  C   UNL     1       9.438 -18.279  -1.681  1.00  0.00     0.037 A 
BRANCH  53  67
ATOM     67  C   UNL     1       8.198 -16.231  -7.388  1.00  0.00     0.058 A 
ATOM     68  C   UNL     1       9.043 -15.517  -8.253  1.00  0.00     0.135 A 
ATOM     69  C   UNL     1       7.397 -17.241  -7.947  1.00  0.00     0.135 A 
ATOM     70  F   UNL     1       9.815 -14.525  -7.779  1.00  0.00    -0.206 F 
ATOM     71  C   UNL     1       9.081 -15.783  -9.619  1.00  0.00     0.059 A 
ATOM     72  C   UNL     1       7.441 -17.544  -9.304  1.00  0.00     0.059 A 
ATOM     73  F   UNL     1       6.564 -17.951  -7.169  1.00  0.00    -0.206 F 
ATOM     74  C   UNL     1       8.280 -16.803 -10.134  1.00  0.00     0.060 A 
BRANCH  74  75
ATOM     75  S   UNL     1       8.362 -17.152 -11.904  1.00  0.00     0.124 S 
ATOM     76  O   UNL     1       7.712 -15.971 -12.465  1.00  0.00    -0.237 OA
ATOM     77  O   UNL     1       9.799 -17.253 -12.134  1.00  0.00    -0.237 OA
ATOM     78  O   UNL     1       7.618 -18.400 -12.040  1.00  0.00    -0.744 OA
ENDBRANCH  74  75
ENDBRANCH  53  67
BRANCH  54  79
ATOM     79  C   UNL     1       7.753 -14.120   2.407  1.00  0.00     0.058 A 
ATOM     80  C   UNL     1       8.893 -13.974   3.211  1.00  0.00     0.135 A 
ATOM     81  C   UNL     1       6.498 -13.992   3.025  1.00  0.00     0.135 A 
ATOM     82  F   UNL     1      10.115 -14.095   2.671  1.00  0.00    -0.206 F 
ATOM     83  C   UNL     1       8.795 -13.733   4.578  1.00  0.00     0.059 A 
ATOM     84  C   UNL     1       6.374 -13.721   4.383  1.00  0.00     0.059 A 
ATOM     85  F   UNL     1       5.375 -14.111   2.300  1.00  0.00    -0.206 F 
ATOM     86  C   UNL     1       7.530 -13.605   5.154  1.00  0.00     0.060 A 
BRANCH  86  87
ATOM     87  S   UNL     1       7.414 -13.258   6.922  1.00  0.00     0.124 S 
ATOM     88  O   UNL     1       7.829 -14.530   7.500  1.00  0.00    -0.237 OA
ATOM     89  O   UNL     1       8.351 -12.149   7.077  1.00  0.00    -0.237 OA
ATOM     90  O   UNL     1       6.008 -12.910   7.104  1.00  0.00    -0.744 OA
ENDBRANCH  86  87
ENDBRANCH  54  79
BRANCH  66  91
ATOM     91  C   UNL     1      10.071 -19.583  -1.275  1.00  0.00     0.058 A 
ATOM     92  C   UNL     1       9.339 -20.593  -0.631  1.00  0.00     0.135 A 
ATOM     93  C   UNL     1      11.419 -19.840  -1.575  1.00  0.00     0.135 A 
ATOM     94  F   UNL     1       8.049 -20.398  -0.317  1.00  0.00    -0.206 F 
ATOM     95  C   UNL     1       9.930 -21.799  -0.269  1.00  0.00     0.059 A 
ATOM     96  C   UNL     1      12.021 -21.052  -1.253  1.00  0.00     0.059 A 
ATOM     97  F   UNL     1      12.162 -18.915  -2.202  1.00  0.00    -0.206 F 
ATOM     98  C   UNL     1      11.272 -22.020  -0.585  1.00  0.00     0.060 A 
BRANCH  98  99
ATOM     99  S   UNL     1      12.020 -23.598  -0.128  1.00  0.00     0.124 S 
ATOM    100  O   UNL     1      12.131 -23.461   1.321  1.00  0.00    -0.237 OA
ATOM    101  O   UNL     1      11.029 -24.560  -0.599  1.00  0.00    -0.237 OA
ATOM    102  O   UNL     1      13.284 -23.600  -0.857  1.00  0.00    -0.744 OA
ENDBRANCH  98  99
ENDBRANCH  66  91
ENDBRANCH  40  41
ENDBRANCH  33  35
ENDBRANCH  32  33
ENDBRANCH  31  32
ENDBRANCH  30  31
ENDBRANCH  29  30
ENDBRANCH  28  29
ENDBRANCH  27  28
ENDBRANCH   1  27
TORSDOF 27
