REMARK SMILES CCN(CC)S(=O)(=O)c1ccc2nc(-c3ccncc3)cc(C(=O)OCCOCCOCCOCCOC(=O)c3ccc(-c4c5nc(c(-c6c(F)cc(S(=O)(=O)[O-])cc6F)c6ccc([nH]6)c(-c6c(F)cc(S(=O)(=O)[O-])cc6F)c6nc(c(-c7c(F)cc(S(=O)(=O)[O-])cc7F)c7ccc4[nH]7)C=C6)C=C5)cc3)c2c1
REMARK SMILES IDX 31 1 30 2 29 3 28 4 27 5 26 6 25 7 23 8 24 9 22 10 9 11
REMARK SMILES IDX 10 12 107 13 11 14 106 15 12 16 13 17 21 18 14 19 6 20 7 21
REMARK SMILES IDX 8 22 3 23 2 24 1 25 4 26 5 27 15 28 16 29 20 30 17 31 19 32
REMARK SMILES IDX 18 33 32 34 33 35 34 36 35 37 36 38 37 39 38 40 39 41 40 42
REMARK SMILES IDX 41 43 105 44 42 45 104 46 43 47 44 48 45 49 98 50 46 51
REMARK SMILES IDX 103 52 97 53 99 54 47 55 102 56 96 57 95 58 48 60 82 61
REMARK SMILES IDX 61 62 81 63 62 64 65 65 80 66 100 67 63 68 64 69 79 71
REMARK SMILES IDX 101 72 66 73 49 74 50 75 59 76 51 77 52 78 58 79 60 80 53 81
REMARK SMILES IDX 54 82 55 83 56 84 57 85 83 86 84 87 93 88 85 89 86 90 92 91
REMARK SMILES IDX 94 92 87 93 88 94 89 95 90 96 91 97 67 98 68 99 77 100
REMARK SMILES IDX 69 101 70 102 76 103 78 104 71 105 72 106 73 107 74 108
REMARK SMILES IDX 75 109
REMARK H PARENT 99 59 65 70
REMARK Flexibility Score: inf
ROOT
ATOM      1  O   UNL     1       6.117   3.519  -4.869  1.00  0.00    -0.377 OA
ENDROOT
BRANCH   1   2
ATOM      2  C   UNL     1       6.601   3.032  -6.103  1.00  0.00     0.188 C 
BRANCH   2   3
ATOM      3  C   UNL     1       6.332   3.977  -7.292  1.00  0.00     0.188 C 
BRANCH   3   4
ATOM      4  O   UNL     1       6.069   5.348  -7.054  1.00  0.00    -0.376 OA
BRANCH   4   5
ATOM      5  C   UNL     1       4.932   5.812  -6.339  1.00  0.00     0.202 C 
BRANCH   5   6
ATOM      6  C   UNL     1       3.671   4.997  -6.003  1.00  0.00     0.261 C 
BRANCH   6   7
ATOM      7  O   UNL     1       3.769   3.585  -6.138  1.00  0.00    -0.460 OA
BRANCH   7   8
ATOM      8  C   UNL     1       3.225   3.030  -7.233  1.00  0.00     0.338 C 
ATOM      9  O   UNL     1       2.646   3.608  -8.137  1.00  0.00    -0.246 OA
BRANCH   8  10
ATOM     10  C   UNL     1       3.625   1.605  -7.307  1.00  0.00     0.071 A 
ATOM     11  C   UNL     1       3.068   0.024  -3.922  1.00  0.00     0.083 A 
ATOM     12  C   UNL     1       3.266  -1.308  -4.260  1.00  0.00     0.024 A 
ATOM     13  C   UNL     1       3.222   1.013  -4.893  1.00  0.00     0.033 A 
ATOM     14  C   UNL     1       3.661  -1.627  -5.564  1.00  0.00     0.030 A 
ATOM     15  C   UNL     1       3.549   0.687  -6.233  1.00  0.00     0.016 A 
ATOM     16  C   UNL     1       3.837  -0.657  -6.547  1.00  0.00     0.072 A 
ATOM     17  N   UNL     1       4.284  -1.044  -7.756  1.00  0.00    -0.248 NA
ATOM     18  C   UNL     1       4.108   1.203  -8.551  1.00  0.00     0.045 A 
ATOM     19  C   UNL     1       4.464  -0.117  -8.722  1.00  0.00     0.072 A 
BRANCH  11  20
ATOM     20  S   UNL     1       2.766   0.499  -2.227  1.00  0.00     0.243 S 
ATOM     21  O   UNL     1       3.422   1.768  -2.010  1.00  0.00    -0.207 OA
ATOM     22  O   UNL     1       3.117  -0.658  -1.425  1.00  0.00    -0.207 OA
BRANCH  20  23
ATOM     23  N   UNL     1       1.071   0.731  -2.144  1.00  0.00    -0.198 NA
BRANCH  23  24
ATOM     24  C   UNL     1       0.533   1.050  -0.775  1.00  0.00     0.099 C 
ATOM     25  C   UNL     1       0.775  -0.047   0.244  1.00  0.00     0.022 C 
ENDBRANCH  23  24
BRANCH  23  26
ATOM     26  C   UNL     1       0.425   1.605  -3.173  1.00  0.00     0.099 C 
ATOM     27  C   UNL     1       0.767   3.083  -3.064  1.00  0.00     0.022 C 
ENDBRANCH  23  26
ENDBRANCH  20  23
ENDBRANCH  11  20
BRANCH  19  28
ATOM     28  C   UNL     1       5.020  -0.589  -9.988  1.00  0.00     0.003 A 
ATOM     29  C   UNL     1       4.232  -1.339 -10.864  1.00  0.00     0.030 A 
ATOM     30  C   UNL     1       6.327  -0.271 -10.379  1.00  0.00     0.030 A 
ATOM     31  C   UNL     1       4.764  -1.712 -12.085  1.00  0.00     0.111 A 
ATOM     32  C   UNL     1       6.772  -0.698 -11.620  1.00  0.00     0.111 A 
ATOM     33  N   UNL     1       6.016  -1.404 -12.487  1.00  0.00    -0.265 NA
ENDBRANCH  19  28
ENDBRANCH   8  10
ENDBRANCH   7   8
ENDBRANCH   6   7
ENDBRANCH   5   6
ENDBRANCH   4   5
ENDBRANCH   3   4
ENDBRANCH   2   3
ENDBRANCH   1   2
BRANCH   1  34
ATOM     34  C   UNL     1       6.985   4.340  -4.094  1.00  0.00     0.188 C 
BRANCH  34  35
ATOM     35  C   UNL     1       8.072   5.197  -4.783  1.00  0.00     0.188 C 
BRANCH  35  36
ATOM     36  O   UNL     1       8.777   4.536  -5.827  1.00  0.00    -0.376 OA
BRANCH  36  37
ATOM     37  C   UNL     1      10.096   4.084  -5.569  1.00  0.00     0.202 C 
BRANCH  37  38
ATOM     38  C   UNL     1      10.236   2.912  -4.587  1.00  0.00     0.261 C 
BRANCH  38  39
ATOM     39  O   UNL     1       9.701   3.134  -3.276  1.00  0.00    -0.460 OA
BRANCH  39  40
ATOM     40  C   UNL     1      10.255   4.128  -2.547  1.00  0.00     0.338 C 
ATOM     41  O   UNL     1      11.185   4.843  -2.873  1.00  0.00    -0.246 OA
BRANCH  40  42
ATOM     42  C   UNL     1       9.411   4.334  -1.354  1.00  0.00     0.060 A 
ATOM     43  C   UNL     1       8.835   5.593  -1.141  1.00  0.00     0.016 A 
ATOM     44  C   UNL     1       9.191   3.291  -0.452  1.00  0.00     0.016 A 
ATOM     45  C   UNL     1       8.071   5.823   0.003  1.00  0.00     0.010 A 
ATOM     46  C   UNL     1       8.440   3.528   0.701  1.00  0.00     0.010 A 
ATOM     47  C   UNL     1       7.909   4.805   0.952  1.00  0.00    -0.014 A 
BRANCH  47  48
ATOM     48  C   UNL     1       7.358   5.131   2.290  1.00  0.00     0.031 A 
ATOM     49  C   UNL     1       8.323   5.361   3.422  1.00  0.00     0.074 A 
ATOM     50  C   UNL     1       6.033   5.248   2.492  1.00  0.00     0.049 A 
ATOM     51  N   UNL     1       8.083   5.626   4.679  1.00  0.00    -0.248 NA
ATOM     52  C   UNL     1       9.755   5.277   3.088  1.00  0.00     0.031 C 
ATOM     53  C   UNL     1       5.004   5.078   1.468  1.00  0.00     0.029 A 
ATOM     54  N   UNL     1       5.330   5.529   3.636  1.00  0.00    -0.354 N 
ATOM     55  C   UNL     1       9.328   5.733   5.287  1.00  0.00     0.074 A 
ATOM     56  C   UNL     1      10.322   5.472   4.269  1.00  0.00     0.031 C 
ATOM     57  C   UNL     1       3.796   5.251   2.034  1.00  0.00     0.029 A 
ATOM     58  C   UNL     1       3.966   5.508   3.464  1.00  0.00     0.049 A 
ATOM     59  H   UNL     1       5.761   5.728   4.499  1.00  0.00     0.167 HD
ATOM     60  C   UNL     1       9.618   6.031   6.576  1.00  0.00     0.037 A 
ATOM     61  C   UNL     1       2.973   5.654   4.364  1.00  0.00     0.037 A 
ATOM     62  C   UNL     1       8.624   6.284   7.586  1.00  0.00     0.049 A 
ATOM     63  C   UNL     1       3.318   5.921   5.808  1.00  0.00     0.074 A 
ATOM     64  C   UNL     1       8.813   6.609   8.917  1.00  0.00     0.029 A 
ATOM     65  N   UNL     1       7.253   6.230   7.379  1.00  0.00    -0.354 N 
ATOM     66  N   UNL     1       4.500   6.046   6.367  1.00  0.00    -0.248 NA
ATOM     67  C   UNL     1       2.195   6.074   6.744  1.00  0.00     0.031 C 
ATOM     68  C   UNL     1       7.558   6.695   9.529  1.00  0.00     0.029 A 
ATOM     69  C   UNL     1       6.584   6.490   8.564  1.00  0.00     0.049 A 
ATOM     70  H   UNL     1       6.819   6.035   6.517  1.00  0.00     0.167 HD
ATOM     71  C   UNL     1       4.261   6.322   7.710  1.00  0.00     0.074 A 
ATOM     72  C   UNL     1       2.822   6.359   7.876  1.00  0.00     0.031 C 
ATOM     73  C   UNL     1       5.150   6.529   8.715  1.00  0.00     0.037 A 
BRANCH  60  74
ATOM     74  C   UNL     1      11.069   6.069   6.973  1.00  0.00     0.058 A 
ATOM     75  C   UNL     1      11.935   7.082   6.529  1.00  0.00     0.135 A 
ATOM     76  C   UNL     1      11.595   5.093   7.835  1.00  0.00     0.135 A 
ATOM     77  F   UNL     1      11.492   8.029   5.687  1.00  0.00    -0.206 F 
ATOM     78  C   UNL     1      13.275   7.110   6.903  1.00  0.00     0.059 A 
ATOM     79  C   UNL     1      12.924   5.119   8.248  1.00  0.00     0.059 A 
ATOM     80  F   UNL     1      10.815   4.098   8.287  1.00  0.00    -0.206 F 
ATOM     81  C   UNL     1      13.760   6.125   7.765  1.00  0.00     0.060 A 
BRANCH  81  82
ATOM     82  S   UNL     1      15.498   6.183   8.250  1.00  0.00     0.124 S 
ATOM     83  O   UNL     1      16.160   5.804   7.006  1.00  0.00    -0.237 OA
ATOM     84  O   UNL     1      15.661   7.576   8.655  1.00  0.00    -0.237 OA
ATOM     85  O   UNL     1      15.584   5.205   9.329  1.00  0.00    -0.744 OA
ENDBRANCH  81  82
ENDBRANCH  60  74
BRANCH  61  86
ATOM     86  C   UNL     1       1.553   5.539   3.931  1.00  0.00     0.058 A 
ATOM     87  C   UNL     1       0.694   6.649   3.944  1.00  0.00     0.135 A 
ATOM     88  C   UNL     1       1.025   4.312   3.498  1.00  0.00     0.135 A 
ATOM     89  F   UNL     1       1.145   7.840   4.364  1.00  0.00    -0.206 F 
ATOM     90  C   UNL     1      -0.638   6.546   3.553  1.00  0.00     0.059 A 
ATOM     91  C   UNL     1      -0.294   4.191   3.075  1.00  0.00     0.059 A 
ATOM     92  F   UNL     1       1.803   3.219   3.459  1.00  0.00    -0.206 F 
ATOM     93  C   UNL     1      -1.121   5.312   3.113  1.00  0.00     0.060 A 
BRANCH  93  94
ATOM     94  S   UNL     1      -2.829   5.200   2.540  1.00  0.00     0.124 S 
ATOM     95  O   UNL     1      -3.569   5.289   3.793  1.00  0.00    -0.237 OA
ATOM     96  O   UNL     1      -2.931   6.354   1.652  1.00  0.00    -0.237 OA
ATOM     97  O   UNL     1      -2.871   3.902   1.870  1.00  0.00    -0.744 OA
ENDBRANCH  93  94
ENDBRANCH  61  86
BRANCH  73  98
ATOM     98  C   UNL     1       4.597   6.859  10.077  1.00  0.00     0.058 A 
ATOM     99  C   UNL     1       3.926   5.907  10.860  1.00  0.00     0.135 A 
ATOM    100  C   UNL     1       4.779   8.142  10.623  1.00  0.00     0.135 A 
ATOM    101  F   UNL     1       3.721   4.667  10.389  1.00  0.00    -0.206 F 
ATOM    102  C   UNL     1       3.424   6.224  12.119  1.00  0.00     0.059 A 
ATOM    103  C   UNL     1       4.316   8.470  11.893  1.00  0.00     0.059 A 
ATOM    104  F   UNL     1       5.427   9.088   9.925  1.00  0.00    -0.206 F 
ATOM    105  C   UNL     1       3.624   7.509  12.627  1.00  0.00     0.060 A 
BRANCH 105 106
ATOM    106  S   UNL     1       2.979   7.902  14.267  1.00  0.00     0.124 S 
ATOM    107  O   UNL     1       1.544   7.972  14.009  1.00  0.00    -0.237 OA
ATOM    108  O   UNL     1       3.426   6.762  15.060  1.00  0.00    -0.237 OA
ATOM    109  O   UNL     1       3.620   9.174  14.589  1.00  0.00    -0.744 OA
ENDBRANCH 105 106
ENDBRANCH  73  98
ENDBRANCH  47  48
ENDBRANCH  40  42
ENDBRANCH  39  40
ENDBRANCH  38  39
ENDBRANCH  37  38
ENDBRANCH  36  37
ENDBRANCH  35  36
ENDBRANCH  34  35
ENDBRANCH   1  34
TORSDOF 28
