REMARK SMILES C[C@H]1CN([C@@H](C(=O)OCCOCCOCCOCCOC(=O)c2ccc(-c3c4nc(c(-c5c(F)cc(S(=O)(=O)[O-])cc5F)c5ccc([nH]5)c(-c5c(F)cc(S(=O)(=O)[O-])cc5F)c5nc(c(-c6c(F)cc(S(=O)(=O)[O-])cc6F)c6ccc3[nH]6)C=C5)C=C4)cc2)C(C)(C)C)S(=O)(=O)C1
REMARK SMILES IDX 15 1 14 2 13 3 12 4 11 5 10 6 9 7 8 8 6 9 7 10 5 11 4 12
REMARK SMILES IDX 1 13 2 14 3 15 96 16 93 17 94 18 95 19 89 20 90 21 91 22
REMARK SMILES IDX 92 23 16 24 17 25 18 26 19 27 20 28 21 29 22 30 23 31 24 32
REMARK SMILES IDX 88 33 25 34 87 35 26 36 27 37 28 38 81 39 29 40 86 41 80 42
REMARK SMILES IDX 82 43 30 44 85 45 79 46 78 47 31 49 65 50 44 51 64 52 45 53
REMARK SMILES IDX 48 54 63 55 83 56 46 57 47 58 62 60 84 61 49 62 32 63 33 64
REMARK SMILES IDX 42 65 34 66 35 67 41 68 43 69 36 70 37 71 38 72 39 73 40 74
REMARK SMILES IDX 66 75 67 76 76 77 68 78 69 79 75 80 77 81 70 82 71 83 72 84
REMARK SMILES IDX 73 85 74 86 50 87 51 88 60 89 52 90 53 91 59 92 61 93 54 94
REMARK SMILES IDX 55 95 56 96 57 97 58 98
REMARK H PARENT 82 48 48 59
REMARK Flexibility Score: inf
ROOT
ATOM      1  C   UNL     1       1.592  -2.481  -4.976  1.00  0.00     0.188 C 
ENDROOT
BRANCH   1   2
ATOM      2  O   UNL     1       1.093  -1.538  -4.048  1.00  0.00    -0.377 OA
BRANCH   2   3
ATOM      3  C   UNL     1       0.495  -0.350  -4.551  1.00  0.00     0.188 C 
BRANCH   3   4
ATOM      4  C   UNL     1       0.794   0.143  -5.969  1.00  0.00     0.188 C 
BRANCH   4   5
ATOM      5  O   UNL     1       2.159   0.323  -6.340  1.00  0.00    -0.376 OA
BRANCH   5   6
ATOM      6  C   UNL     1       3.081   0.717  -5.325  1.00  0.00     0.202 C 
BRANCH   6   7
ATOM      7  C   UNL     1       2.955   2.170  -4.864  1.00  0.00     0.261 C 
BRANCH   7   8
ATOM      8  O   UNL     1       1.734   2.373  -4.127  1.00  0.00    -0.462 OA
BRANCH   8   9
ATOM      9  C   UNL     1       0.840   3.281  -4.608  1.00  0.00     0.325 C 
ATOM     10  O   UNL     1       1.097   3.993  -5.571  1.00  0.00    -0.250 OA
BRANCH   9  11
ATOM     11  C   UNL     1      -0.478   3.375  -3.747  1.00  0.00     0.188 C 
BRANCH  11  12
ATOM     12  N   UNL     1      -0.476   2.284  -2.681  1.00  0.00    -0.187 NA
ATOM     13  C   UNL     1       1.736   0.466  -0.981  1.00  0.00     0.010 C 
ATOM     14  C   UNL     1       0.481   1.284  -0.671  1.00  0.00     0.017 C 
ATOM     15  C   UNL     1       0.407   2.584  -1.503  1.00  0.00     0.107 C 
ATOM     16  C   UNL     1      -0.797   0.477  -0.920  1.00  0.00     0.159 C 
ATOM     17  S   UNL     1      -1.791   1.429  -2.044  1.00  0.00     0.215 S 
ATOM     18  O   UNL     1      -2.595   2.335  -1.260  1.00  0.00    -0.212 OA
ATOM     19  O   UNL     1      -2.359   0.526  -3.017  1.00  0.00    -0.212 OA
ENDBRANCH  11  12
BRANCH  11  20
ATOM     20  C   UNL     1      -1.790   3.616  -4.621  1.00  0.00    -0.011 C 
ATOM     21  C   UNL     1      -2.812   4.434  -3.799  1.00  0.00     0.013 C 
ATOM     22  C   UNL     1      -1.511   4.504  -5.868  1.00  0.00     0.013 C 
ATOM     23  C   UNL     1      -2.485   2.362  -5.176  1.00  0.00     0.013 C 
ENDBRANCH  11  20
ENDBRANCH   9  11
ENDBRANCH   8   9
ENDBRANCH   7   8
ENDBRANCH   6   7
ENDBRANCH   5   6
ENDBRANCH   4   5
ENDBRANCH   3   4
ENDBRANCH   2   3
ENDBRANCH   1   2
BRANCH   1  24
ATOM     24  C   UNL     1       0.760  -3.758  -5.099  1.00  0.00     0.188 C 
BRANCH  24  25
ATOM     25  O   UNL     1      -0.611  -3.624  -5.441  1.00  0.00    -0.376 OA
BRANCH  25  26
ATOM     26  C   UNL     1      -1.515  -3.094  -4.475  1.00  0.00     0.202 C 
BRANCH  26  27
ATOM     27  C   UNL     1      -1.491  -3.586  -3.019  1.00  0.00     0.261 C 
BRANCH  27  28
ATOM     28  O   UNL     1      -0.266  -3.323  -2.306  1.00  0.00    -0.460 OA
BRANCH  28  29
ATOM     29  C   UNL     1       0.349  -4.422  -1.805  1.00  0.00     0.338 C 
ATOM     30  O   UNL     1      -0.018  -5.581  -1.902  1.00  0.00    -0.246 OA
BRANCH  29  31
ATOM     31  C   UNL     1       1.621  -4.072  -1.150  1.00  0.00     0.060 A 
ATOM     32  C   UNL     1       2.820  -4.250  -1.849  1.00  0.00     0.016 A 
ATOM     33  C   UNL     1       1.634  -3.803   0.219  1.00  0.00     0.016 A 
ATOM     34  C   UNL     1       4.040  -4.191  -1.172  1.00  0.00     0.010 A 
ATOM     35  C   UNL     1       2.857  -3.747   0.897  1.00  0.00     0.010 A 
ATOM     36  C   UNL     1       4.063  -3.982   0.213  1.00  0.00    -0.014 A 
BRANCH  36  37
ATOM     37  C   UNL     1       5.327  -4.171   0.971  1.00  0.00     0.031 A 
ATOM     38  C   UNL     1       5.564  -5.475   1.686  1.00  0.00     0.074 A 
ATOM     39  C   UNL     1       6.256  -3.200   1.016  1.00  0.00     0.049 A 
ATOM     40  N   UNL     1       6.566  -5.833   2.447  1.00  0.00    -0.248 NA
ATOM     41  C   UNL     1       4.532  -6.510   1.523  1.00  0.00     0.031 C 
ATOM     42  C   UNL     1       6.161  -1.909   0.336  1.00  0.00     0.029 A 
ATOM     43  N   UNL     1       7.458  -3.145   1.678  1.00  0.00    -0.354 N 
ATOM     44  C   UNL     1       6.283  -7.130   2.862  1.00  0.00     0.074 A 
ATOM     45  C   UNL     1       5.002  -7.485   2.288  1.00  0.00     0.031 C 
ATOM     46  C   UNL     1       7.249  -1.179   0.635  1.00  0.00     0.029 A 
ATOM     47  C   UNL     1       8.101  -1.937   1.553  1.00  0.00     0.049 A 
ATOM     48  H   UNL     1       7.825  -3.900   2.193  1.00  0.00     0.167 HD
ATOM     49  C   UNL     1       7.023  -7.951   3.646  1.00  0.00     0.037 A 
ATOM     50  C   UNL     1       9.229  -1.482   2.134  1.00  0.00     0.037 A 
ATOM     51  C   UNL     1       8.295  -7.590   4.219  1.00  0.00     0.049 A 
ATOM     52  C   UNL     1      10.007  -2.389   3.054  1.00  0.00     0.074 A 
ATOM     53  C   UNL     1       9.134  -8.362   5.004  1.00  0.00     0.029 A 
ATOM     54  N   UNL     1       8.905  -6.351   4.084  1.00  0.00    -0.354 N 
ATOM     55  N   UNL     1       9.746  -3.625   3.410  1.00  0.00    -0.248 NA
ATOM     56  C   UNL     1      11.237  -1.843   3.646  1.00  0.00     0.031 C 
ATOM     57  C   UNL     1      10.219  -7.570   5.395  1.00  0.00     0.029 A 
ATOM     58  C   UNL     1      10.092  -6.325   4.799  1.00  0.00     0.049 A 
ATOM     59  H   UNL     1       8.546  -5.600   3.558  1.00  0.00     0.167 HD
ATOM     60  C   UNL     1      10.791  -4.012   4.244  1.00  0.00     0.074 A 
ATOM     61  C   UNL     1      11.694  -2.883   4.330  1.00  0.00     0.031 C 
ATOM     62  C   UNL     1      10.987  -5.196   4.878  1.00  0.00     0.037 A 
BRANCH  49  63
ATOM     63  C   UNL     1       6.459  -9.311   3.963  1.00  0.00     0.058 A 
ATOM     64  C   UNL     1       6.354 -10.319   2.991  1.00  0.00     0.135 A 
ATOM     65  C   UNL     1       6.042  -9.617   5.269  1.00  0.00     0.135 A 
ATOM     66  F   UNL     1       6.723 -10.078   1.723  1.00  0.00    -0.206 F 
ATOM     67  C   UNL     1       5.827 -11.571   3.296  1.00  0.00     0.059 A 
ATOM     68  C   UNL     1       5.541 -10.872   5.603  1.00  0.00     0.059 A 
ATOM     69  F   UNL     1       6.120  -8.692   6.238  1.00  0.00    -0.206 F 
ATOM     70  C   UNL     1       5.422 -11.838   4.605  1.00  0.00     0.060 A 
BRANCH  70  71
ATOM     71  S   UNL     1       4.737 -13.464   4.983  1.00  0.00     0.124 S 
ATOM     72  O   UNL     1       3.440 -13.396   4.316  1.00  0.00    -0.237 OA
ATOM     73  O   UNL     1       5.715 -14.362   4.376  1.00  0.00    -0.237 OA
ATOM     74  O   UNL     1       4.692 -13.485   6.441  1.00  0.00    -0.744 OA
ENDBRANCH  70  71
ENDBRANCH  49  63
BRANCH  50  75
ATOM     75  C   UNL     1       9.680  -0.087   1.880  1.00  0.00     0.058 A 
ATOM     76  C   UNL     1      10.843   0.182   1.144  1.00  0.00     0.135 A 
ATOM     77  C   UNL     1       8.946   1.008   2.364  1.00  0.00     0.135 A 
ATOM     78  F   UNL     1      11.587  -0.829   0.672  1.00  0.00    -0.206 F 
ATOM     79  C   UNL     1      11.266   1.486   0.901  1.00  0.00     0.059 A 
ATOM     80  C   UNL     1       9.333   2.319   2.112  1.00  0.00     0.059 A 
ATOM     81  F   UNL     1       7.820   0.806   3.067  1.00  0.00    -0.206 F 
ATOM     82  C   UNL     1      10.499   2.548   1.384  1.00  0.00     0.060 A 
BRANCH  82  83
ATOM     83  S   UNL     1      11.018   4.235   1.002  1.00  0.00     0.124 S 
ATOM     84  O   UNL     1      12.194   4.381   1.851  1.00  0.00    -0.237 OA
ATOM     85  O   UNL     1      11.270   4.158  -0.433  1.00  0.00    -0.237 OA
ATOM     86  O   UNL     1       9.859   5.036   1.384  1.00  0.00    -0.744 OA
ENDBRANCH  82  83
ENDBRANCH  50  75
BRANCH  62  87
ATOM     87  C   UNL     1      12.243  -5.354   5.694  1.00  0.00     0.058 A 
ATOM     88  C   UNL     1      12.427  -4.683   6.914  1.00  0.00     0.135 A 
ATOM     89  C   UNL     1      13.256  -6.234   5.275  1.00  0.00     0.135 A 
ATOM     90  F   UNL     1      11.495  -3.827   7.361  1.00  0.00    -0.206 F 
ATOM     91  C   UNL     1      13.579  -4.858   7.675  1.00  0.00     0.059 A 
ATOM     92  C   UNL     1      14.402  -6.448   6.035  1.00  0.00     0.059 A 
ATOM     93  F   UNL     1      13.129  -6.911   4.122  1.00  0.00    -0.206 F 
ATOM     94  C   UNL     1      14.561  -5.745   7.228  1.00  0.00     0.060 A 
BRANCH  94  95
ATOM     95  S   UNL     1      16.038  -5.985   8.239  1.00  0.00     0.124 S 
ATOM     96  O   UNL     1      16.744  -4.725   8.031  1.00  0.00    -0.237 OA
ATOM     97  O   UNL     1      15.475  -6.183   9.571  1.00  0.00    -0.237 OA
ATOM     98  O   UNL     1      16.668  -7.162   7.649  1.00  0.00    -0.744 OA
ENDBRANCH  94  95
ENDBRANCH  62  87
ENDBRANCH  36  37
ENDBRANCH  29  31
ENDBRANCH  28  29
ENDBRANCH  27  28
ENDBRANCH  26  27
ENDBRANCH  25  26
ENDBRANCH  24  25
ENDBRANCH   1  24
TORSDOF 25
