REMARK SMILES CN(C(=O)CC(=O)OCCOCCOCCOCCOC(=O)c1ccc(-c2c3nc(c(-c4c(F)cc(S(=O)(=O)[O-])cc4F)c4ccc([nH]4)c(-c4c(F)cc(S(=O)(=O)[O-])cc4F)c4nc(c(-c5c(F)cc(S(=O)(=O)[O-])cc5F)c5ccc2[nH]5)C=C4)C=C3)cc1)C1CCC(C)(C)CC1
REMARK SMILES IDX 14 1 13 2 12 3 11 4 10 5 9 6 8 7 6 8 7 9 5 10 3 11 4 12 2 13
REMARK SMILES IDX 1 14 89 15 90 16 96 17 91 18 95 19 92 20 93 21 94 22 15 23
REMARK SMILES IDX 16 24 17 25 18 26 19 27 20 28 21 29 22 30 23 31 24 32 88 33
REMARK SMILES IDX 25 34 87 35 26 36 27 37 28 38 81 39 29 40 86 41 80 42 82 43
REMARK SMILES IDX 30 44 85 45 79 46 78 47 31 49 65 50 44 51 64 52 45 53 48 54
REMARK SMILES IDX 63 55 83 56 46 57 47 58 62 60 84 61 49 62 32 63 33 64 42 65
REMARK SMILES IDX 34 66 35 67 41 68 43 69 36 70 37 71 38 72 39 73 40 74 66 75
REMARK SMILES IDX 67 76 76 77 68 78 69 79 75 80 77 81 70 82 71 83 72 84 73 85
REMARK SMILES IDX 74 86 50 87 51 88 60 89 52 90 53 91 59 92 61 93 54 94 55 95
REMARK SMILES IDX 56 96 57 97 58 98
REMARK H PARENT 82 48 48 59
REMARK Flexibility Score: inf
ROOT
ATOM      1  O   UNL     1       3.371   2.792   0.687  1.00  0.00    -0.377 OA
ENDROOT
BRANCH   1   2
ATOM      2  C   UNL     1       2.455   1.825   0.213  1.00  0.00     0.188 C 
BRANCH   2   3
ATOM      3  C   UNL     1       1.973   2.024  -1.240  1.00  0.00     0.188 C 
BRANCH   3   4
ATOM      4  O   UNL     1       2.217   3.225  -1.960  1.00  0.00    -0.376 OA
BRANCH   4   5
ATOM      5  C   UNL     1       2.464   4.422  -1.242  1.00  0.00     0.202 C 
BRANCH   5   6
ATOM      6  C   UNL     1       1.363   4.948  -0.300  1.00  0.00     0.261 C 
BRANCH   6   7
ATOM      7  O   UNL     1       0.618   3.963   0.455  1.00  0.00    -0.463 OA
BRANCH   7   8
ATOM      8  C   UNL     1      -0.592   3.602  -0.032  1.00  0.00     0.315 C 
ATOM      9  O   UNL     1      -1.076   4.060  -1.065  1.00  0.00    -0.252 OA
BRANCH   8  10
ATOM     10  C   UNL     1      -1.373   2.626   0.811  1.00  0.00     0.222 C 
BRANCH  10  11
ATOM     11  C   UNL     1      -0.674   1.677   1.771  1.00  0.00     0.233 C 
ATOM     12  O   UNL     1      -0.376   2.086   2.897  1.00  0.00    -0.274 OA
BRANCH  11  13
ATOM     13  N   UNL     1      -0.473   0.325   1.408  1.00  0.00    -0.342 N 
ATOM     14  C   UNL     1      -0.588  -0.137   0.032  1.00  0.00     0.147 C 
BRANCH  13  15
ATOM     15  C   UNL     1      -0.066  -0.655   2.475  1.00  0.00     0.084 C 
ATOM     16  C   UNL     1      -1.006  -1.861   2.654  1.00  0.00     0.025 C 
ATOM     17  C   UNL     1       1.389  -1.141   2.421  1.00  0.00     0.025 C 
ATOM     18  C   UNL     1      -0.777  -3.040   1.703  1.00  0.00     0.008 C 
ATOM     19  C   UNL     1       1.652  -2.296   1.456  1.00  0.00     0.008 C 
ATOM     20  C   UNL     1       0.689  -3.491   1.537  1.00  0.00    -0.035 C 
ATOM     21  C   UNL     1       0.814  -4.294   0.221  1.00  0.00     0.011 C 
ATOM     22  C   UNL     1       1.113  -4.421   2.689  1.00  0.00     0.011 C 
ENDBRANCH  13  15
ENDBRANCH  11  13
ENDBRANCH  10  11
ENDBRANCH   8  10
ENDBRANCH   7   8
ENDBRANCH   6   7
ENDBRANCH   5   6
ENDBRANCH   4   5
ENDBRANCH   3   4
ENDBRANCH   2   3
ENDBRANCH   1   2
BRANCH   1  23
ATOM     23  C   UNL     1       4.690   2.315   0.885  1.00  0.00     0.188 C 
BRANCH  23  24
ATOM     24  C   UNL     1       5.374   1.809  -0.395  1.00  0.00     0.188 C 
BRANCH  24  25
ATOM     25  O   UNL     1       4.632   0.799  -1.079  1.00  0.00    -0.376 OA
BRANCH  25  26
ATOM     26  C   UNL     1       5.120  -0.534  -0.989  1.00  0.00     0.202 C 
BRANCH  26  27
ATOM     27  C   UNL     1       4.765  -1.250   0.316  1.00  0.00     0.261 C 
BRANCH  27  28
ATOM     28  O   UNL     1       5.242  -0.636   1.515  1.00  0.00    -0.460 OA
BRANCH  28  29
ATOM     29  C   UNL     1       6.579  -0.613   1.668  1.00  0.00     0.338 C 
ATOM     30  O   UNL     1       7.406  -1.142   0.938  1.00  0.00    -0.246 OA
BRANCH  29  31
ATOM     31  C   UNL     1       6.893   0.367   2.720  1.00  0.00     0.060 A 
ATOM     32  C   UNL     1       7.727   1.435   2.374  1.00  0.00     0.016 A 
ATOM     33  C   UNL     1       6.364   0.259   4.012  1.00  0.00     0.016 A 
ATOM     34  C   UNL     1       8.093   2.365   3.336  1.00  0.00     0.010 A 
ATOM     35  C   UNL     1       6.754   1.182   4.988  1.00  0.00     0.010 A 
ATOM     36  C   UNL     1       7.666   2.200   4.660  1.00  0.00    -0.014 A 
BRANCH  36  37
ATOM     37  C   UNL     1       8.433   2.912   5.707  1.00  0.00     0.031 A 
ATOM     38  C   UNL     1       9.590   2.179   6.334  1.00  0.00     0.074 A 
ATOM     39  C   UNL     1       8.206   4.209   5.976  1.00  0.00     0.049 A 
ATOM     40  N   UNL     1      10.496   2.613   7.167  1.00  0.00    -0.248 NA
ATOM     41  C   UNL     1       9.754   0.763   5.955  1.00  0.00     0.031 C 
ATOM     42  C   UNL     1       7.146   5.022   5.382  1.00  0.00     0.029 A 
ATOM     43  N   UNL     1       8.873   5.074   6.804  1.00  0.00    -0.354 N 
ATOM     44  C   UNL     1      11.337   1.531   7.404  1.00  0.00     0.074 A 
ATOM     45  C   UNL     1      10.813   0.408   6.664  1.00  0.00     0.031 C 
ATOM     46  C   UNL     1       7.239   6.275   5.862  1.00  0.00     0.029 A 
ATOM     47  C   UNL     1       8.351   6.345   6.809  1.00  0.00     0.049 A 
ATOM     48  H   UNL     1       9.652   4.809   7.345  1.00  0.00     0.167 HD
ATOM     49  C   UNL     1      12.459   1.483   8.160  1.00  0.00     0.037 A 
ATOM     50  C   UNL     1       8.732   7.435   7.505  1.00  0.00     0.037 A 
ATOM     51  C   UNL     1      12.966   2.608   8.896  1.00  0.00     0.049 A 
ATOM     52  C   UNL     1       9.945   7.339   8.396  1.00  0.00     0.074 A 
ATOM     53  C   UNL     1      14.088   2.675   9.702  1.00  0.00     0.029 A 
ATOM     54  N   UNL     1      12.377   3.865   8.921  1.00  0.00    -0.354 N 
ATOM     55  N   UNL     1      10.741   6.314   8.602  1.00  0.00    -0.248 NA
ATOM     56  C   UNL     1      10.322   8.549   9.137  1.00  0.00     0.031 C 
ATOM     57  C   UNL     1      14.145   3.956  10.260  1.00  0.00     0.029 A 
ATOM     58  C   UNL     1      13.098   4.708   9.747  1.00  0.00     0.049 A 
ATOM     59  H   UNL     1      11.566   4.118   8.424  1.00  0.00     0.167 HD
ATOM     60  C   UNL     1      11.731   6.766   9.469  1.00  0.00     0.074 A 
ATOM     61  C   UNL     1      11.438   8.160   9.739  1.00  0.00     0.031 C 
ATOM     62  C   UNL     1      12.789   6.096   9.992  1.00  0.00     0.037 A 
BRANCH  49  63
ATOM     63  C   UNL     1      13.179   0.166   8.253  1.00  0.00     0.058 A 
ATOM     64  C   UNL     1      13.877  -0.382   7.164  1.00  0.00     0.135 A 
ATOM     65  C   UNL     1      13.180  -0.556   9.458  1.00  0.00     0.135 A 
ATOM     66  F   UNL     1      13.886   0.250   5.979  1.00  0.00    -0.206 F 
ATOM     67  C   UNL     1      14.529  -1.608   7.259  1.00  0.00     0.059 A 
ATOM     68  C   UNL     1      13.850  -1.768   9.584  1.00  0.00     0.059 A 
ATOM     69  F   UNL     1      12.519  -0.085  10.527  1.00  0.00    -0.206 F 
ATOM     70  C   UNL     1      14.511  -2.293   8.475  1.00  0.00     0.060 A 
BRANCH  70  71
ATOM     71  S   UNL     1      15.369  -3.877   8.585  1.00  0.00     0.124 S 
ATOM     72  O   UNL     1      14.502  -4.735   7.783  1.00  0.00    -0.237 OA
ATOM     73  O   UNL     1      16.670  -3.567   8.001  1.00  0.00    -0.237 OA
ATOM     74  O   UNL     1      15.379  -4.160  10.017  1.00  0.00    -0.744 OA
ENDBRANCH  70  71
ENDBRANCH  49  63
BRANCH  50  75
ATOM     75  C   UNL     1       7.958   8.702   7.391  1.00  0.00     0.058 A 
ATOM     76  C   UNL     1       8.508   9.849   6.801  1.00  0.00     0.135 A 
ATOM     77  C   UNL     1       6.644   8.788   7.879  1.00  0.00     0.135 A 
ATOM     78  F   UNL     1       9.764   9.824   6.327  1.00  0.00    -0.206 F 
ATOM     79  C   UNL     1       7.792  11.040   6.713  1.00  0.00     0.059 A 
ATOM     80  C   UNL     1       5.898   9.958   7.777  1.00  0.00     0.059 A 
ATOM     81  F   UNL     1       6.066   7.718   8.446  1.00  0.00    -0.206 F 
ATOM     82  C   UNL     1       6.485  11.083   7.201  1.00  0.00     0.060 A 
BRANCH  82  83
ATOM     83  S   UNL     1       5.550  12.620   7.045  1.00  0.00     0.124 S 
ATOM     84  O   UNL     1       6.218  13.472   8.023  1.00  0.00    -0.237 OA
ATOM     85  O   UNL     1       5.765  12.967   5.643  1.00  0.00    -0.237 OA
ATOM     86  O   UNL     1       4.187  12.221   7.382  1.00  0.00    -0.744 OA
ENDBRANCH  82  83
ENDBRANCH  50  75
BRANCH  62  87
ATOM     87  C   UNL     1      13.737   6.871  10.867  1.00  0.00     0.058 A 
ATOM     88  C   UNL     1      13.378   7.304  12.152  1.00  0.00     0.135 A 
ATOM     89  C   UNL     1      15.043   7.140  10.425  1.00  0.00     0.135 A 
ATOM     90  F   UNL     1      12.143   7.073  12.624  1.00  0.00    -0.206 F 
ATOM     91  C   UNL     1      14.268   8.011  12.954  1.00  0.00     0.059 A 
ATOM     92  C   UNL     1      15.960   7.814  11.223  1.00  0.00     0.059 A 
ATOM     93  F   UNL     1      15.444   6.732   9.210  1.00  0.00    -0.206 F 
ATOM     94  C   UNL     1      15.557   8.261  12.480  1.00  0.00     0.060 A 
BRANCH  94  95
ATOM     95  S   UNL     1      16.707   9.167  13.536  1.00  0.00     0.124 S 
ATOM     96  O   UNL     1      16.171  10.522  13.458  1.00  0.00    -0.237 OA
ATOM     97  O   UNL     1      16.547   8.494  14.821  1.00  0.00    -0.237 OA
ATOM     98  O   UNL     1      17.998   8.964  12.886  1.00  0.00    -0.744 OA
ENDBRANCH  94  95
ENDBRANCH  62  87
ENDBRANCH  36  37
ENDBRANCH  29  31
ENDBRANCH  28  29
ENDBRANCH  27  28
ENDBRANCH  26  27
ENDBRANCH  25  26
ENDBRANCH  24  25
ENDBRANCH  23  24
ENDBRANCH   1  23
TORSDOF 26
