REMARK SMILES COCC[C@H]([NH3+])C(=O)N1CC(n2cc(C(=O)OCCOCCOCCOCCOC(=O)c3ccc(-c4c5nc(c(-c6c(F)cc(S(=O)(=O)[O-])cc6F)c6ccc([nH]6)c(-c6c(F)cc(S(=O)(=O)[O-])cc6F)c6nc(c(-c7c(F)cc(S(=O)(=O)[O-])cc7F)c7ccc4[nH]7)C=C6)C=C5)cc3)nn2)C1
REMARK SMILES IDX 22 1 21 2 20 3 19 4 18 5 17 6 15 7 16 8 14 9 12 10 13 11
REMARK SMILES IDX 99 12 98 13 11 14 7 15 8 16 9 17 10 18 100 19 5 20 4 21 3 22
REMARK SMILES IDX 2 23 1 24 6 25 23 29 24 30 25 31 26 32 27 33 28 34 29 35
REMARK SMILES IDX 30 36 31 37 32 38 33 39 97 40 34 41 96 42 35 43 36 44 37 45
REMARK SMILES IDX 90 46 38 47 95 48 89 49 91 50 39 51 94 52 88 53 87 54 40 56
REMARK SMILES IDX 74 57 53 58 73 59 54 60 57 61 72 62 92 63 55 64 56 65 71 67
REMARK SMILES IDX 93 68 58 69 41 70 42 71 51 72 43 73 44 74 50 75 52 76 45 77
REMARK SMILES IDX 46 78 47 79 48 80 49 81 75 82 76 83 85 84 77 85 78 86 84 87
REMARK SMILES IDX 86 88 79 89 80 90 81 91 82 92 83 93 59 94 60 95 69 96 61 97
REMARK SMILES IDX 62 98 68 99 70 100 63 101 64 102 65 103 66 104 67 105
REMARK H PARENT 6 26 6 27 6 28 91 55 57 66
REMARK Flexibility Score: inf
ROOT
ATOM      1  C   UNL     1      -0.215   8.748   8.349  1.00  0.00     0.188 C 
ENDROOT
BRANCH   1   2
ATOM      2  C   UNL     1       1.141   9.255   8.887  1.00  0.00     0.188 C 
BRANCH   2   3
ATOM      3  O   UNL     1       1.530  10.620   8.796  1.00  0.00    -0.376 OA
BRANCH   3   4
ATOM      4  C   UNL     1       1.327  11.414   7.641  1.00  0.00     0.202 C 
BRANCH   4   5
ATOM      5  C   UNL     1       1.600  10.921   6.212  1.00  0.00     0.261 C 
BRANCH   5   6
ATOM      6  O   UNL     1       1.465   9.522   5.980  1.00  0.00    -0.458 OA
BRANCH   6   7
ATOM      7  C   UNL     1       2.603   8.792   6.120  1.00  0.00     0.360 C 
ATOM      8  O   UNL     1       3.720   9.274   6.311  1.00  0.00    -0.244 OA
BRANCH   7   9
ATOM      9  C   UNL     1       2.333   7.367   6.122  1.00  0.00     0.190 A 
ATOM     10  N   UNL     1       1.476   5.390   5.921  1.00  0.00    -0.245 N 
ATOM     11  C   UNL     1       1.226   6.699   5.628  1.00  0.00     0.147 A 
ATOM     12  N   UNL     1       2.628   5.248   6.591  1.00  0.00    -0.066 NA
ATOM     13  N   UNL     1       3.166   6.452   6.720  1.00  0.00    -0.123 NA
BRANCH  10  14
ATOM     14  C   UNL     1       0.655   4.311   5.480  1.00  0.00     0.148 C 
ATOM     15  C   UNL     1       0.762   1.388   3.804  1.00  0.00     0.280 C 
ATOM     16  O   UNL     1       0.659   0.334   4.435  1.00  0.00    -0.268 OA
ATOM     17  N   UNL     1       0.893   2.588   4.433  1.00  0.00    -0.333 N 
ATOM     18  C   UNL     1       1.121   2.892   5.837  1.00  0.00     0.149 C 
ATOM     19  C   UNL     1       0.979   3.968   4.010  1.00  0.00     0.149 C 
BRANCH  15  20
ATOM     20  C   UNL     1       0.850   1.370   2.262  1.00  0.00     0.273 C 
BRANCH  20  21
ATOM     21  C   UNL     1       2.326   1.572   1.864  1.00  0.00     0.104 C 
BRANCH  21  22
ATOM     22  C   UNL     1       2.770   0.815   0.612  1.00  0.00     0.166 C 
BRANCH  22  23
ATOM     23  O   UNL     1       2.856   1.622  -0.558  1.00  0.00    -0.384 OA
ATOM     24  C   UNL     1       1.609   1.878  -1.180  1.00  0.00     0.194 C 
ENDBRANCH  22  23
ENDBRANCH  21  22
ENDBRANCH  20  21
BRANCH  20  25
ATOM     25  N   UNL     1      -0.069   2.357   1.662  1.00  0.00    -0.347 N 
ATOM     26  H   UNL     1       0.176   3.292   1.988  1.00  0.00     0.345 HD
ATOM     27  H   UNL     1      -1.027   2.141   1.939  1.00  0.00     0.345 HD
ATOM     28  H   UNL     1       0.008   2.320   0.646  1.00  0.00     0.345 HD
ENDBRANCH  20  25
ENDBRANCH  15  20
ENDBRANCH  10  14
ENDBRANCH   7   9
ENDBRANCH   6   7
ENDBRANCH   5   6
ENDBRANCH   4   5
ENDBRANCH   3   4
ENDBRANCH   2   3
ENDBRANCH   1   2
BRANCH   1  29
ATOM     29  O   UNL     1      -0.875   9.654   7.483  1.00  0.00    -0.377 OA
BRANCH  29  30
ATOM     30  C   UNL     1      -1.878  10.481   8.077  1.00  0.00     0.188 C 
BRANCH  30  31
ATOM     31  C   UNL     1      -1.616  11.106   9.473  1.00  0.00     0.188 C 
BRANCH  31  32
ATOM     32  O   UNL     1      -0.924  10.258  10.379  1.00  0.00    -0.376 OA
BRANCH  32  33
ATOM     33  C   UNL     1      -1.579   9.664  11.486  1.00  0.00     0.202 C 
BRANCH  33  34
ATOM     34  C   UNL     1      -2.660   8.631  11.194  1.00  0.00     0.261 C 
BRANCH  34  35
ATOM     35  O   UNL     1      -3.527   8.990  10.137  1.00  0.00    -0.460 OA
BRANCH  35  36
ATOM     36  C   UNL     1      -4.377   9.989  10.420  1.00  0.00     0.338 C 
ATOM     37  O   UNL     1      -4.300  10.790  11.347  1.00  0.00    -0.246 OA
BRANCH  36  38
ATOM     38  C   UNL     1      -5.509   9.887   9.508  1.00  0.00     0.060 A 
ATOM     39  C   UNL     1      -6.432  10.931   9.526  1.00  0.00     0.016 A 
ATOM     40  C   UNL     1      -5.792   8.634   8.939  1.00  0.00     0.016 A 
ATOM     41  C   UNL     1      -7.731  10.637   9.194  1.00  0.00     0.010 A 
ATOM     42  C   UNL     1      -7.092   8.337   8.633  1.00  0.00     0.010 A 
ATOM     43  C   UNL     1      -8.052   9.316   8.859  1.00  0.00    -0.014 A 
BRANCH  43  44
ATOM     44  C   UNL     1      -9.441   8.991   8.645  1.00  0.00     0.031 A 
ATOM     45  C   UNL     1      -9.927   9.514   7.354  1.00  0.00     0.074 A 
ATOM     46  C   UNL     1     -10.130   8.209   9.497  1.00  0.00     0.049 A 
ATOM     47  N   UNL     1     -10.739  10.497   7.161  1.00  0.00    -0.248 NA
ATOM     48  C   UNL     1      -9.248   9.046   6.131  1.00  0.00     0.031 C 
ATOM     49  C   UNL     1      -9.620   7.442  10.638  1.00  0.00     0.029 A 
ATOM     50  N   UNL     1     -11.438   7.852   9.457  1.00  0.00    -0.354 N 
ATOM     51  C   UNL     1     -10.888  10.569   5.782  1.00  0.00     0.074 A 
ATOM     52  C   UNL     1      -9.779   9.852   5.213  1.00  0.00     0.031 C 
ATOM     53  C   UNL     1     -10.555   6.542  11.023  1.00  0.00     0.029 A 
ATOM     54  C   UNL     1     -11.764   6.753  10.246  1.00  0.00     0.049 A 
ATOM     55  H   UNL     1     -12.104   8.332   8.914  1.00  0.00     0.167 HD
ATOM     56  C   UNL     1     -12.084  10.914   5.236  1.00  0.00     0.037 A 
ATOM     57  C   UNL     1     -12.920   6.040  10.181  1.00  0.00     0.037 A 
ATOM     58  C   UNL     1     -12.910  11.612   6.190  1.00  0.00     0.049 A 
ATOM     59  C   UNL     1     -13.920   6.895   9.482  1.00  0.00     0.074 A 
ATOM     60  C   UNL     1     -12.745  12.750   6.958  1.00  0.00     0.029 A 
ATOM     61  N   UNL     1     -13.944  10.916   6.770  1.00  0.00    -0.354 N 
ATOM     62  N   UNL     1     -14.412   7.994   9.985  1.00  0.00    -0.248 NA
ATOM     63  C   UNL     1     -14.004   6.786   8.033  1.00  0.00     0.031 C 
ATOM     64  C   UNL     1     -13.351  12.445   8.211  1.00  0.00     0.029 A 
ATOM     65  C   UNL     1     -13.922  11.175   8.117  1.00  0.00     0.049 A 
ATOM     66  H   UNL     1     -14.587  10.336   6.301  1.00  0.00     0.167 HD
ATOM     67  C   UNL     1     -14.460   8.884   8.922  1.00  0.00     0.074 A 
ATOM     68  C   UNL     1     -14.271   8.060   7.730  1.00  0.00     0.031 C 
ATOM     69  C   UNL     1     -14.354  10.231   9.125  1.00  0.00     0.037 A 
BRANCH  56  70
ATOM     70  C   UNL     1     -12.633  10.248   3.998  1.00  0.00     0.058 A 
ATOM     71  C   UNL     1     -13.778  10.782   3.382  1.00  0.00     0.135 A 
ATOM     72  C   UNL     1     -12.241   8.964   3.549  1.00  0.00     0.135 A 
ATOM     73  F   UNL     1     -14.257  11.980   3.754  1.00  0.00    -0.206 F 
ATOM     74  C   UNL     1     -14.506  10.074   2.425  1.00  0.00     0.059 A 
ATOM     75  C   UNL     1     -12.913   8.269   2.555  1.00  0.00     0.059 A 
ATOM     76  F   UNL     1     -11.247   8.270   4.115  1.00  0.00    -0.206 F 
ATOM     77  C   UNL     1     -14.066   8.815   2.023  1.00  0.00     0.060 A 
BRANCH  77  78
ATOM     78  S   UNL     1     -15.035   7.866   0.842  1.00  0.00     0.124 S 
ATOM     79  O   UNL     1     -16.212   7.533   1.635  1.00  0.00    -0.237 OA
ATOM     80  O   UNL     1     -15.234   8.837  -0.229  1.00  0.00    -0.237 OA
ATOM     81  O   UNL     1     -14.156   6.748   0.510  1.00  0.00    -0.744 OA
ENDBRANCH  77  78
ENDBRANCH  56  70
BRANCH  57  82
ATOM     82  C   UNL     1     -13.115   4.572  10.337  1.00  0.00     0.058 A 
ATOM     83  C   UNL     1     -14.406   4.018  10.434  1.00  0.00     0.135 A 
ATOM     84  C   UNL     1     -12.069   3.659  10.095  1.00  0.00     0.135 A 
ATOM     85  F   UNL     1     -15.466   4.813  10.646  1.00  0.00    -0.206 F 
ATOM     86  C   UNL     1     -14.652   2.653  10.241  1.00  0.00     0.059 A 
ATOM     87  C   UNL     1     -12.289   2.294   9.910  1.00  0.00     0.059 A 
ATOM     88  F   UNL     1     -10.806   4.079   9.932  1.00  0.00    -0.206 F 
ATOM     89  C   UNL     1     -13.587   1.801   9.954  1.00  0.00     0.060 A 
BRANCH  89  90
ATOM     90  S   UNL     1     -13.916   0.078   9.512  1.00  0.00     0.124 S 
ATOM     91  O   UNL     1     -14.352  -0.483  10.786  1.00  0.00    -0.237 OA
ATOM     92  O   UNL     1     -14.946   0.213   8.488  1.00  0.00    -0.237 OA
ATOM     93  O   UNL     1     -12.622  -0.400   9.030  1.00  0.00    -0.744 OA
ENDBRANCH  89  90
ENDBRANCH  57  82
BRANCH  69  94
ATOM     94  C   UNL     1     -14.514  10.750  10.533  1.00  0.00     0.058 A 
ATOM     95  C   UNL     1     -13.691  10.407  11.622  1.00  0.00     0.135 A 
ATOM     96  C   UNL     1     -15.495  11.727  10.762  1.00  0.00     0.135 A 
ATOM     97  F   UNL     1     -12.653   9.571  11.468  1.00  0.00    -0.206 F 
ATOM     98  C   UNL     1     -13.883  10.957  12.893  1.00  0.00     0.059 A 
ATOM     99  C   UNL     1     -15.681  12.315  12.008  1.00  0.00     0.059 A 
ATOM    100  F   UNL     1     -16.271  12.150   9.750  1.00  0.00    -0.206 F 
ATOM    101  C   UNL     1     -14.888  11.906  13.077  1.00  0.00     0.060 A 
BRANCH 101 102
ATOM    102  S   UNL     1     -15.132  12.633  14.712  1.00  0.00     0.124 S 
ATOM    103  O   UNL     1     -15.679  11.512  15.468  1.00  0.00    -0.237 OA
ATOM    104  O   UNL     1     -13.781  13.048  15.079  1.00  0.00    -0.237 OA
ATOM    105  O   UNL     1     -16.064  13.731  14.462  1.00  0.00    -0.744 OA
ENDBRANCH 101 102
ENDBRANCH  69  94
ENDBRANCH  43  44
ENDBRANCH  36  38
ENDBRANCH  35  36
ENDBRANCH  34  35
ENDBRANCH  33  34
ENDBRANCH  32  33
ENDBRANCH  31  32
ENDBRANCH  30  31
ENDBRANCH  29  30
ENDBRANCH   1  29
TORSDOF 29
