REMARK SMILES COc1ccc(-c2ccc(CCC(=O)OCCOCCOCCOCCOC(=O)c3ccc(-c4c5nc(c(-c6c(F)cc(S(=O)(=O)[O-])cc6F)c6ccc([nH]6)c(-c6c(F)cc(S(=O)(=O)[O-])cc6F)c6nc(c(-c7c(F)cc(S(=O)(=O)[O-])cc7F)c7ccc4[nH]7)C=C6)C=C5)cc3)n2-c2ccc(C(C)=O)cc2)cc1
REMARK SMILES IDX 20 1 19 2 18 3 17 4 16 5 15 6 13 7 14 8 12 9 11 10 10 11
REMARK SMILES IDX 7 12 8 13 96 14 9 15 6 16 3 17 4 18 107 19 5 20 106 21 2 22
REMARK SMILES IDX 1 23 97 24 98 25 105 26 99 27 104 28 100 29 101 30 102 31
REMARK SMILES IDX 103 32 21 33 22 34 23 35 24 36 25 37 26 38 27 39 28 40 29 41
REMARK SMILES IDX 30 42 31 43 95 44 32 45 94 46 33 47 34 48 35 49 88 50 36 51
REMARK SMILES IDX 93 52 87 53 89 54 37 55 92 56 86 57 85 58 38 60 72 61 51 62
REMARK SMILES IDX 71 63 52 64 55 65 70 66 90 67 53 68 54 69 69 71 91 72 56 73
REMARK SMILES IDX 39 74 40 75 49 76 41 77 42 78 48 79 50 80 43 81 44 82 45 83
REMARK SMILES IDX 46 84 47 85 73 86 74 87 83 88 75 89 76 90 82 91 84 92 77 93
REMARK SMILES IDX 78 94 79 95 80 96 81 97 57 98 58 99 67 100 59 101 60 102
REMARK SMILES IDX 66 103 68 104 61 105 62 106 63 107 64 108 65 109
REMARK H PARENT 89 59 55 70
REMARK Flexibility Score: inf
ROOT
ATOM      1  C   UNL     1       2.772  11.437  -2.096  1.00  0.00     0.188 C 
ENDROOT
BRANCH   1   2
ATOM      2  C   UNL     1       4.070  12.236  -1.904  1.00  0.00     0.188 C 
BRANCH   2   3
ATOM      3  O   UNL     1       5.153  11.631  -2.589  1.00  0.00    -0.376 OA
BRANCH   3   4
ATOM      4  C   UNL     1       6.270  11.240  -1.826  1.00  0.00     0.202 C 
BRANCH   4   5
ATOM      5  C   UNL     1       6.094  10.045  -0.882  1.00  0.00     0.261 C 
BRANCH   5   6
ATOM      6  O   UNL     1       4.776   9.810  -0.366  1.00  0.00    -0.463 OA
BRANCH   6   7
ATOM      7  C   UNL     1       4.520  10.145   0.914  1.00  0.00     0.306 C 
ATOM      8  O   UNL     1       5.243  10.876   1.584  1.00  0.00    -0.252 OA
BRANCH   7   9
ATOM      9  C   UNL     1       3.335   9.402   1.509  1.00  0.00     0.129 C 
BRANCH   9  10
ATOM     10  C   UNL     1       2.078   9.121   0.679  1.00  0.00     0.066 C 
BRANCH  10  11
ATOM     11  C   UNL     1       2.169   7.940  -0.261  1.00  0.00     0.024 A 
ATOM     12  C   UNL     1       1.936   5.793  -0.952  1.00  0.00     0.053 A 
ATOM     13  C   UNL     1       2.812   6.425  -1.813  1.00  0.00     0.029 A 
ATOM     14  N   UNL     1       1.427   6.768  -0.102  1.00  0.00    -0.314 N 
ATOM     15  C   UNL     1       2.922   7.769  -1.410  1.00  0.00     0.024 A 
BRANCH  12  16
ATOM     16  C   UNL     1       1.527   4.392  -0.991  1.00  0.00    -0.001 A 
ATOM     17  C   UNL     1       0.793   1.690  -0.987  1.00  0.00     0.118 A 
ATOM     18  C   UNL     1      -0.133   2.668  -1.353  1.00  0.00     0.047 A 
ATOM     19  C   UNL     1       2.105   2.055  -0.688  1.00  0.00     0.047 A 
ATOM     20  C   UNL     1       0.229   4.017  -1.350  1.00  0.00     0.014 A 
ATOM     21  C   UNL     1       2.469   3.402  -0.690  1.00  0.00     0.014 A 
BRANCH  17  22
ATOM     22  O   UNL     1       0.333   0.403  -0.989  1.00  0.00    -0.497 OA
ATOM     23  C   UNL     1       0.905  -0.428   0.016  1.00  0.00     0.278 C 
ENDBRANCH  17  22
ENDBRANCH  12  16
BRANCH  14  24
ATOM     24  C   UNL     1       0.331   6.622   0.782  1.00  0.00     0.046 A 
ATOM     25  C   UNL     1      -0.765   7.483   0.642  1.00  0.00     0.027 A 
ATOM     26  C   UNL     1       0.369   5.674   1.801  1.00  0.00     0.027 A 
ATOM     27  C   UNL     1      -1.822   7.418   1.553  1.00  0.00     0.014 A 
ATOM     28  C   UNL     1      -0.679   5.633   2.724  1.00  0.00     0.014 A 
ATOM     29  C   UNL     1      -1.777   6.507   2.615  1.00  0.00     0.017 A 
BRANCH  29  30
ATOM     30  C   UNL     1      -2.826   6.440   3.679  1.00  0.00     0.159 C 
ATOM     31  C   UNL     1      -4.152   7.137   3.511  1.00  0.00     0.093 C 
ATOM     32  O   UNL     1      -2.599   5.794   4.704  1.00  0.00    -0.295 OA
ENDBRANCH  29  30
ENDBRANCH  14  24
ENDBRANCH  10  11
ENDBRANCH   9  10
ENDBRANCH   7   9
ENDBRANCH   6   7
ENDBRANCH   5   6
ENDBRANCH   4   5
ENDBRANCH   3   4
ENDBRANCH   2   3
ENDBRANCH   1   2
BRANCH   1  33
ATOM     33  O   UNL     1       2.439  10.739  -3.290  1.00  0.00    -0.377 OA
BRANCH  33  34
ATOM     34  C   UNL     1       3.362  10.697  -4.364  1.00  0.00     0.188 C 
BRANCH  34  35
ATOM     35  C   UNL     1       3.564  12.042  -5.079  1.00  0.00     0.188 C 
BRANCH  35  36
ATOM     36  O   UNL     1       2.983  13.152  -4.393  1.00  0.00    -0.376 OA
BRANCH  36  37
ATOM     37  C   UNL     1       1.746  13.630  -4.910  1.00  0.00     0.202 C 
BRANCH  37  38
ATOM     38  C   UNL     1       0.517  12.742  -4.650  1.00  0.00     0.261 C 
BRANCH  38  39
ATOM     39  O   UNL     1       0.540  11.448  -5.258  1.00  0.00    -0.460 OA
BRANCH  39  40
ATOM     40  C   UNL     1       0.709  11.452  -6.590  1.00  0.00     0.338 C 
ATOM     41  O   UNL     1       0.890  12.411  -7.319  1.00  0.00    -0.246 OA
BRANCH  40  42
ATOM     42  C   UNL     1       0.645  10.092  -7.111  1.00  0.00     0.060 A 
ATOM     43  C   UNL     1       1.579   9.749  -8.095  1.00  0.00     0.016 A 
ATOM     44  C   UNL     1      -0.525   9.361  -6.893  1.00  0.00     0.016 A 
ATOM     45  C   UNL     1       1.249   8.764  -9.002  1.00  0.00     0.010 A 
ATOM     46  C   UNL     1      -0.872   8.403  -7.824  1.00  0.00     0.010 A 
ATOM     47  C   UNL     1      -0.020   8.179  -8.917  1.00  0.00    -0.014 A 
BRANCH  47  48
ATOM     48  C   UNL     1      -0.531   7.463 -10.098  1.00  0.00     0.031 A 
ATOM     49  C   UNL     1      -0.276   5.971 -10.069  1.00  0.00     0.074 A 
ATOM     50  C   UNL     1      -1.135   8.261 -11.030  1.00  0.00     0.049 A 
ATOM     51  N   UNL     1      -0.213   5.125 -11.050  1.00  0.00    -0.248 NA
ATOM     52  C   UNL     1       0.023   5.330  -8.762  1.00  0.00     0.031 C 
ATOM     53  C   UNL     1      -1.280   9.729 -10.895  1.00  0.00     0.029 A 
ATOM     54  N   UNL     1      -1.744   8.037 -12.246  1.00  0.00    -0.354 N 
ATOM     55  C   UNL     1      -0.093   3.851 -10.472  1.00  0.00     0.074 A 
ATOM     56  C   UNL     1       0.184   4.046  -9.080  1.00  0.00     0.031 C 
ATOM     57  C   UNL     1      -1.862  10.257 -11.987  1.00  0.00     0.029 A 
ATOM     58  C   UNL     1      -2.164   9.204 -12.931  1.00  0.00     0.049 A 
ATOM     59  H   UNL     1      -1.877   7.132 -12.611  1.00  0.00     0.167 HD
ATOM     60  C   UNL     1      -0.381   2.693 -11.125  1.00  0.00     0.037 A 
ATOM     61  C   UNL     1      -2.696   9.331 -14.183  1.00  0.00     0.037 A 
ATOM     62  C   UNL     1      -0.818   2.930 -12.462  1.00  0.00     0.049 A 
ATOM     63  C   UNL     1      -2.977   7.959 -14.650  1.00  0.00     0.074 A 
ATOM     64  C   UNL     1      -0.172   3.215 -13.635  1.00  0.00     0.029 A 
ATOM     65  N   UNL     1      -2.166   3.130 -12.649  1.00  0.00    -0.354 N 
ATOM     66  N   UNL     1      -3.864   7.165 -14.128  1.00  0.00    -0.248 NA
ATOM     67  C   UNL     1      -2.156   7.386 -15.721  1.00  0.00     0.031 C 
ATOM     68  C   UNL     1      -1.124   3.909 -14.420  1.00  0.00     0.029 A 
ATOM     69  C   UNL     1      -2.323   3.999 -13.707  1.00  0.00     0.049 A 
ATOM     70  H   UNL     1      -2.890   2.724 -12.120  1.00  0.00     0.167 HD
ATOM     71  C   UNL     1      -3.473   5.920 -14.564  1.00  0.00     0.074 A 
ATOM     72  C   UNL     1      -2.618   6.139 -15.708  1.00  0.00     0.031 C 
ATOM     73  C   UNL     1      -3.483   4.872 -13.700  1.00  0.00     0.037 A 
BRANCH  60  74
ATOM     74  C   UNL     1      -0.529   1.310 -10.575  1.00  0.00     0.058 A 
ATOM     75  C   UNL     1      -0.195   0.221 -11.407  1.00  0.00     0.135 A 
ATOM     76  C   UNL     1      -1.273   1.020  -9.420  1.00  0.00     0.135 A 
ATOM     77  F   UNL     1       0.549   0.409 -12.510  1.00  0.00    -0.206 F 
ATOM     78  C   UNL     1      -0.668  -1.064 -11.171  1.00  0.00     0.059 A 
ATOM     79  C   UNL     1      -1.729  -0.270  -9.144  1.00  0.00     0.059 A 
ATOM     80  F   UNL     1      -1.648   1.996  -8.581  1.00  0.00    -0.206 F 
ATOM     81  C   UNL     1      -1.470  -1.291 -10.056  1.00  0.00     0.060 A 
BRANCH  81  82
ATOM     82  S   UNL     1      -2.217  -2.921  -9.853  1.00  0.00     0.124 S 
ATOM     83  O   UNL     1      -3.309  -2.866 -10.819  1.00  0.00    -0.237 OA
ATOM     84  O   UNL     1      -1.116  -3.817 -10.196  1.00  0.00    -0.237 OA
ATOM     85  O   UNL     1      -2.612  -2.938  -8.448  1.00  0.00    -0.744 OA
ENDBRANCH  81  82
ENDBRANCH  60  74
BRANCH  61  86
ATOM     86  C   UNL     1      -2.923  10.463 -15.163  1.00  0.00     0.058 A 
ATOM     87  C   UNL     1      -2.404  11.762 -15.046  1.00  0.00     0.135 A 
ATOM     88  C   UNL     1      -3.514  10.181 -16.425  1.00  0.00     0.135 A 
ATOM     89  F   UNL     1      -1.875  12.211 -13.904  1.00  0.00    -0.206 F 
ATOM     90  C   UNL     1      -2.341  12.653 -16.128  1.00  0.00     0.059 A 
ATOM     91  C   UNL     1      -3.411  11.026 -17.530  1.00  0.00     0.059 A 
ATOM     92  F   UNL     1      -4.151   9.022 -16.651  1.00  0.00    -0.206 F 
ATOM     93  C   UNL     1      -2.787  12.252 -17.382  1.00  0.00     0.060 A 
BRANCH  93  94
ATOM     94  S   UNL     1      -2.399  13.234 -18.848  1.00  0.00     0.124 S 
ATOM     95  O   UNL     1      -3.614  14.020 -19.018  1.00  0.00    -0.237 OA
ATOM     96  O   UNL     1      -1.213  13.980 -18.434  1.00  0.00    -0.237 OA
ATOM     97  O   UNL     1      -2.155  12.213 -19.863  1.00  0.00    -0.744 OA
ENDBRANCH  93  94
ENDBRANCH  61  86
BRANCH  73  98
ATOM     98  C   UNL     1      -4.466   5.040 -12.551  1.00  0.00     0.058 A 
ATOM     99  C   UNL     1      -5.849   5.079 -12.789  1.00  0.00     0.135 A 
ATOM    100  C   UNL     1      -4.068   5.277 -11.225  1.00  0.00     0.135 A 
ATOM    101  F   UNL     1      -6.322   4.865 -14.028  1.00  0.00    -0.206 F 
ATOM    102  C   UNL     1      -6.774   5.342 -11.771  1.00  0.00     0.059 A 
ATOM    103  C   UNL     1      -4.965   5.526 -10.186  1.00  0.00     0.059 A 
ATOM    104  F   UNL     1      -2.777   5.277 -10.900  1.00  0.00    -0.206 F 
ATOM    105  C   UNL     1      -6.322   5.565 -10.470  1.00  0.00     0.060 A 
BRANCH 105 106
ATOM    106  S   UNL     1      -7.516   5.910  -9.159  1.00  0.00     0.124 S 
ATOM    107  O   UNL     1      -8.186   7.109  -9.652  1.00  0.00    -0.237 OA
ATOM    108  O   UNL     1      -8.323   4.694  -9.153  1.00  0.00    -0.237 OA
ATOM    109  O   UNL     1      -6.685   6.109  -7.974  1.00  0.00    -0.744 OA
ENDBRANCH 105 106
ENDBRANCH  73  98
ENDBRANCH  47  48
ENDBRANCH  40  42
ENDBRANCH  39  40
ENDBRANCH  38  39
ENDBRANCH  37  38
ENDBRANCH  36  37
ENDBRANCH  35  36
ENDBRANCH  34  35
ENDBRANCH  33  34
ENDBRANCH   1  33
TORSDOF 29
