REMARK SMILES Cc1sc2nc(SCc3ccc(C(=O)OCCOCCOCCOCCOC(=O)c4ccc(-c5c6nc(c(-c7c(F)cc(S(=O)(=O)[O-])cc7F)c7ccc([nH]7)c(-c7c(F)cc(S(=O)(=O)[O-])cc7F)c7nc(c(-c8c(F)cc(S(=O)(=O)[O-])cc8F)c8ccc5[nH]8)C=C7)C=C6)cc4)cc3)n(Cc3ccco3)c(=O)c2c1C
REMARK SMILES IDX 20 1 19 2 18 3 17 4 16 5 15 6 13 7 14 8 12 9 9 10 10 11
REMARK SMILES IDX 97 12 11 13 96 14 8 15 7 16 6 17 1 18 2 19 3 20 108 21 4 22
REMARK SMILES IDX 107 23 109 24 5 25 105 26 98 27 106 28 99 29 100 30 101 31
REMARK SMILES IDX 104 32 102 33 103 34 21 35 22 36 23 37 24 38 25 39 26 40
REMARK SMILES IDX 27 41 28 42 29 43 30 44 31 45 95 46 32 47 94 48 33 49 34 50
REMARK SMILES IDX 35 51 88 52 36 53 93 54 87 55 89 56 37 57 92 58 86 59 85 60
REMARK SMILES IDX 38 62 72 63 51 64 71 65 52 66 55 67 70 68 90 69 53 70 54 71
REMARK SMILES IDX 69 73 91 74 56 75 39 76 40 77 49 78 41 79 42 80 48 81 50 82
REMARK SMILES IDX 43 83 44 84 45 85 46 86 47 87 73 88 74 89 83 90 75 91 76 92
REMARK SMILES IDX 82 93 84 94 77 95 78 96 79 97 80 98 81 99 57 100 58 101
REMARK SMILES IDX 67 102 59 103 60 104 66 105 68 106 61 107 62 108 63 109
REMARK SMILES IDX 64 110 65 111
REMARK H PARENT 89 61 55 72
REMARK Flexibility Score: inf
ROOT
ATOM      1  C   UNL     1      -7.955  -0.118  -8.564  1.00  0.00     0.188 C 
ENDROOT
BRANCH   1   2
ATOM      2  C   UNL     1      -8.651  -0.912  -7.436  1.00  0.00     0.188 C 
BRANCH   2   3
ATOM      3  O   UNL     1      -9.269  -0.301  -6.303  1.00  0.00    -0.376 OA
BRANCH   3   4
ATOM      4  C   UNL     1      -9.056   1.062  -5.972  1.00  0.00     0.202 C 
BRANCH   4   5
ATOM      5  C   UNL     1      -7.683   1.432  -5.406  1.00  0.00     0.261 C 
BRANCH   5   6
ATOM      6  O   UNL     1      -6.594   0.870  -6.143  1.00  0.00    -0.460 OA
BRANCH   6   7
ATOM      7  C   UNL     1      -6.130  -0.306  -5.663  1.00  0.00     0.338 C 
ATOM      8  O   UNL     1      -6.447  -0.841  -4.612  1.00  0.00    -0.246 OA
BRANCH   7   9
ATOM      9  C   UNL     1      -5.170  -0.925  -6.611  1.00  0.00     0.060 A 
ATOM     10  C   UNL     1      -3.010  -2.041  -7.971  1.00  0.00    -0.038 A 
ATOM     11  C   UNL     1      -3.752  -2.823  -7.082  1.00  0.00     0.005 A 
ATOM     12  C   UNL     1      -3.507  -0.784  -8.352  1.00  0.00     0.005 A 
ATOM     13  C   UNL     1      -4.831  -2.265  -6.404  1.00  0.00     0.016 A 
ATOM     14  C   UNL     1      -4.556  -0.208  -7.644  1.00  0.00     0.016 A 
BRANCH  10  15
ATOM     15  C   UNL     1      -1.680  -2.501  -8.491  1.00  0.00     0.113 C 
BRANCH  15  16
ATOM     16  S   UNL     1      -0.428  -2.969  -7.288  1.00  0.00    -0.083 SA
BRANCH  16  17
ATOM     17  C   UNL     1      -0.343  -1.946  -5.857  1.00  0.00     0.173 A 
ATOM     18  C   UNL     1       0.691  -0.885   0.115  1.00  0.00     0.057 C 
ATOM     19  C   UNL     1       0.428  -1.004  -1.350  1.00  0.00     0.007 A 
ATOM     20  S   UNL     1       0.167  -2.549  -2.064  1.00  0.00    -0.120 S 
ATOM     21  C   UNL     1       0.358   0.012  -2.288  1.00  0.00    -0.022 A 
ATOM     22  C   UNL     1       0.058  -1.891  -3.634  1.00  0.00     0.132 A 
ATOM     23  C   UNL     1       0.325  -0.547  -3.604  1.00  0.00     0.080 A 
ATOM     24  C   UNL     1       0.336   1.481  -2.002  1.00  0.00     0.046 C 
ATOM     25  N   UNL     1      -0.197  -2.625  -4.750  1.00  0.00    -0.213 NA
ATOM     26  C   UNL     1       0.423   0.126  -4.869  1.00  0.00     0.263 A 
ATOM     27  N   UNL     1      -0.185  -0.565  -5.921  1.00  0.00    -0.279 N 
ATOM     28  O   UNL     1       0.963   1.224  -4.983  1.00  0.00    -0.268 OA
BRANCH  27  29
ATOM     29  C   UNL     1      -0.764   0.359  -6.872  1.00  0.00     0.203 C 
BRANCH  29  30
ATOM     30  C   UNL     1      -1.883   1.077  -6.156  1.00  0.00     0.123 A 
ATOM     31  C   UNL     1      -2.764   0.710  -5.151  1.00  0.00     0.047 A 
ATOM     32  O   UNL     1      -2.042   2.402  -6.438  1.00  0.00    -0.467 OA
ATOM     33  C   UNL     1      -3.498   1.869  -4.809  1.00  0.00     0.042 A 
ATOM     34  C   UNL     1      -3.012   2.873  -5.611  1.00  0.00     0.195 A 
ENDBRANCH  29  30
ENDBRANCH  27  29
ENDBRANCH  16  17
ENDBRANCH  15  16
ENDBRANCH  10  15
ENDBRANCH   7   9
ENDBRANCH   6   7
ENDBRANCH   5   6
ENDBRANCH   4   5
ENDBRANCH   3   4
ENDBRANCH   2   3
ENDBRANCH   1   2
BRANCH   1  35
ATOM     35  O   UNL     1      -8.228   1.268  -8.594  1.00  0.00    -0.377 OA
BRANCH  35  36
ATOM     36  C   UNL     1      -9.290   1.660  -9.457  1.00  0.00     0.188 C 
BRANCH  36  37
ATOM     37  C   UNL     1     -10.555   0.782  -9.409  1.00  0.00     0.188 C 
BRANCH  37  38
ATOM     38  O   UNL     1     -10.325  -0.565  -9.823  1.00  0.00    -0.376 OA
BRANCH  38  39
ATOM     39  C   UNL     1     -10.641  -0.891 -11.172  1.00  0.00     0.202 C 
BRANCH  39  40
ATOM     40  C   UNL     1      -9.656  -0.336 -12.211  1.00  0.00     0.261 C 
BRANCH  40  41
ATOM     41  O   UNL     1      -9.705   1.089 -12.362  1.00  0.00    -0.460 OA
BRANCH  41  42
ATOM     42  C   UNL     1     -10.897   1.593 -12.739  1.00  0.00     0.338 C 
ATOM     43  O   UNL     1     -11.897   0.975 -13.047  1.00  0.00    -0.246 OA
BRANCH  42  44
ATOM     44  C   UNL     1     -10.839   3.048 -12.618  1.00  0.00     0.060 A 
ATOM     45  C   UNL     1     -11.306   3.670 -11.456  1.00  0.00     0.016 A 
ATOM     46  C   UNL     1     -10.485   3.783 -13.742  1.00  0.00     0.016 A 
ATOM     47  C   UNL     1     -11.485   5.042 -11.438  1.00  0.00     0.010 A 
ATOM     48  C   UNL     1     -10.718   5.151 -13.741  1.00  0.00     0.010 A 
ATOM     49  C   UNL     1     -11.280   5.774 -12.614  1.00  0.00    -0.014 A 
BRANCH  49  50
ATOM     50  C   UNL     1     -11.872   7.129 -12.664  1.00  0.00     0.031 A 
ATOM     51  C   UNL     1     -11.260   8.083 -13.633  1.00  0.00     0.074 A 
ATOM     52  C   UNL     1     -13.220   7.194 -12.553  1.00  0.00     0.049 A 
ATOM     53  N   UNL     1     -11.435   7.968 -14.917  1.00  0.00    -0.248 NA
ATOM     54  C   UNL     1     -10.213   9.032 -13.264  1.00  0.00     0.031 C 
ATOM     55  C   UNL     1     -14.128   6.114 -12.987  1.00  0.00     0.029 A 
ATOM     56  N   UNL     1     -14.056   8.242 -12.265  1.00  0.00    -0.354 N 
ATOM     57  C   UNL     1     -10.475   8.740 -15.533  1.00  0.00     0.074 A 
ATOM     58  C   UNL     1      -9.759   9.410 -14.470  1.00  0.00     0.031 C 
ATOM     59  C   UNL     1     -15.374   6.608 -13.098  1.00  0.00     0.029 A 
ATOM     60  C   UNL     1     -15.377   7.987 -12.633  1.00  0.00     0.049 A 
ATOM     61  H   UNL     1     -13.758   9.081 -11.845  1.00  0.00     0.167 HD
ATOM     62  C   UNL     1     -10.310   8.747 -16.880  1.00  0.00     0.037 A 
ATOM     63  C   UNL     1     -16.267   8.944 -13.011  1.00  0.00     0.037 A 
ATOM     64  C   UNL     1     -11.220   7.923 -17.621  1.00  0.00     0.049 A 
ATOM     65  C   UNL     1     -15.820   9.161 -14.439  1.00  0.00     0.074 A 
ATOM     66  C   UNL     1     -11.236   6.641 -18.125  1.00  0.00     0.029 A 
ATOM     67  N   UNL     1     -12.470   8.428 -17.896  1.00  0.00    -0.354 N 
ATOM     68  N   UNL     1     -16.110   8.389 -15.458  1.00  0.00    -0.248 NA
ATOM     69  C   UNL     1     -14.680  10.052 -14.669  1.00  0.00     0.031 C 
ATOM     70  C   UNL     1     -12.617   6.303 -18.274  1.00  0.00     0.029 A 
ATOM     71  C   UNL     1     -13.359   7.385 -17.801  1.00  0.00     0.049 A 
ATOM     72  H   UNL     1     -12.687   9.362 -18.119  1.00  0.00     0.167 HD
ATOM     73  C   UNL     1     -15.006   8.475 -16.313  1.00  0.00     0.074 A 
ATOM     74  C   UNL     1     -14.194   9.557 -15.799  1.00  0.00     0.031 C 
ATOM     75  C   UNL     1     -14.693   7.538 -17.256  1.00  0.00     0.037 A 
BRANCH  62  76
ATOM     76  C   UNL     1      -9.373   9.620 -17.606  1.00  0.00     0.058 A 
ATOM     77  C   UNL     1      -9.898  10.748 -18.251  1.00  0.00     0.135 A 
ATOM     78  C   UNL     1      -8.049   9.254 -17.868  1.00  0.00     0.135 A 
ATOM     79  F   UNL     1     -11.168  11.122 -18.021  1.00  0.00    -0.206 F 
ATOM     80  C   UNL     1      -9.158  11.458 -19.182  1.00  0.00     0.059 A 
ATOM     81  C   UNL     1      -7.282   9.957 -18.795  1.00  0.00     0.059 A 
ATOM     82  F   UNL     1      -7.511   8.178 -17.272  1.00  0.00    -0.206 F 
ATOM     83  C   UNL     1      -7.860  11.036 -19.469  1.00  0.00     0.060 A 
BRANCH  83  84
ATOM     84  S   UNL     1      -6.969  11.893 -20.784  1.00  0.00     0.124 S 
ATOM     85  O   UNL     1      -7.751  11.527 -21.959  1.00  0.00    -0.237 OA
ATOM     86  O   UNL     1      -7.072  13.286 -20.360  1.00  0.00    -0.237 OA
ATOM     87  O   UNL     1      -5.629  11.318 -20.715  1.00  0.00    -0.744 OA
ENDBRANCH  83  84
ENDBRANCH  62  76
BRANCH  63  88
ATOM     88  C   UNL     1     -16.427   9.989 -11.950  1.00  0.00     0.058 A 
ATOM     89  C   UNL     1     -16.793   9.533 -10.661  1.00  0.00     0.135 A 
ATOM     90  C   UNL     1     -16.120  11.349 -12.060  1.00  0.00     0.135 A 
ATOM     91  F   UNL     1     -17.233   8.275 -10.489  1.00  0.00    -0.206 F 
ATOM     92  C   UNL     1     -16.645  10.317  -9.524  1.00  0.00     0.059 A 
ATOM     93  C   UNL     1     -15.945  12.153 -10.932  1.00  0.00     0.059 A 
ATOM     94  F   UNL     1     -15.934  11.926 -13.254  1.00  0.00    -0.206 F 
ATOM     95  C   UNL     1     -16.153  11.608  -9.667  1.00  0.00     0.060 A 
BRANCH  95  96
ATOM     96  S   UNL     1     -15.702  12.517  -8.176  1.00  0.00     0.124 S 
ATOM     97  O   UNL     1     -16.964  12.554  -7.446  1.00  0.00    -0.237 OA
ATOM     98  O   UNL     1     -14.664  11.657  -7.613  1.00  0.00    -0.237 OA
ATOM     99  O   UNL     1     -15.234  13.800  -8.691  1.00  0.00    -0.744 OA
ENDBRANCH  95  96
ENDBRANCH  63  88
BRANCH  75 100
ATOM    100  C   UNL     1     -15.727   6.497 -17.529  1.00  0.00     0.058 A 
ATOM    101  C   UNL     1     -16.881   6.831 -18.249  1.00  0.00     0.135 A 
ATOM    102  C   UNL     1     -15.548   5.152 -17.163  1.00  0.00     0.135 A 
ATOM    103  F   UNL     1     -17.097   8.100 -18.634  1.00  0.00    -0.206 F 
ATOM    104  C   UNL     1     -17.805   5.863 -18.629  1.00  0.00     0.059 A 
ATOM    105  C   UNL     1     -16.447   4.163 -17.554  1.00  0.00     0.059 A 
ATOM    106  F   UNL     1     -14.471   4.772 -16.455  1.00  0.00    -0.206 F 
ATOM    107  C   UNL     1     -17.570   4.528 -18.294  1.00  0.00     0.060 A 
BRANCH 107 108
ATOM    108  S   UNL     1     -18.707   3.270 -18.913  1.00  0.00     0.124 S 
ATOM    109  O   UNL     1     -19.888   3.493 -18.085  1.00  0.00    -0.237 OA
ATOM    110  O   UNL     1     -18.843   3.637 -20.320  1.00  0.00    -0.237 OA
ATOM    111  O   UNL     1     -17.998   2.017 -18.670  1.00  0.00    -0.744 OA
ENDBRANCH 107 108
ENDBRANCH  75 100
ENDBRANCH  49  50
ENDBRANCH  42  44
ENDBRANCH  41  42
ENDBRANCH  40  41
ENDBRANCH  39  40
ENDBRANCH  38  39
ENDBRANCH  37  38
ENDBRANCH  36  37
ENDBRANCH  35  36
ENDBRANCH   1  35
TORSDOF 28
