REMARK SMILES O=C(OCCOCCOCCOCCOC(=O)c1nn(Cc2ccc(F)cc2)c2c1CN(C(=O)[C@H]1CC1(F)F)CC2)c1ccc(-c2c3nc(c(-c4c(F)cc(S(=O)(=O)[O-])cc4F)c4ccc([nH]4)c(-c4c(F)cc(S(=O)(=O)[O-])cc4F)c4nc(c(-c5c(F)cc(S(=O)(=O)[O-])cc5F)c5ccc2[nH]5)C=C4)C=C3)cc1
REMARK SMILES IDX 8 1 7 2 6 3 5 4 4 5 3 6 2 7 1 8 42 9 43 10 107 11 44 12
REMARK SMILES IDX 106 13 45 14 46 15 47 16 100 17 48 18 105 19 99 20 101 21
REMARK SMILES IDX 49 22 104 23 98 24 97 25 50 27 84 28 63 29 83 30 64 31 67 32
REMARK SMILES IDX 82 33 102 34 65 35 66 36 81 38 103 39 68 40 51 41 52 42
REMARK SMILES IDX 61 43 53 44 54 45 60 46 62 47 55 48 56 49 57 50 58 51 59 52
REMARK SMILES IDX 85 53 86 54 95 55 87 56 88 57 94 58 96 59 89 60 90 61 91 62
REMARK SMILES IDX 92 63 93 64 69 65 70 66 79 67 71 68 72 69 78 70 80 71 73 72
REMARK SMILES IDX 74 73 75 74 76 75 77 76 9 77 10 78 11 79 12 80 13 81 14 82
REMARK SMILES IDX 15 83 16 84 17 85 18 86 19 87 30 88 20 89 29 90 31 91 41 92
REMARK SMILES IDX 32 93 40 94 21 95 22 96 23 97 28 98 24 99 27 100 25 101
REMARK SMILES IDX 26 102 33 103 34 104 35 105 36 106 37 107 38 108 39 109
REMARK H PARENT 101 26 67 37
REMARK Flexibility Score: inf
ROOT
ATOM      1  C   UNL     1      13.273   3.724   1.552  1.00  0.00     0.188 C 
ENDROOT
BRANCH   1   2
ATOM      2  C   UNL     1      12.489   2.886   2.571  1.00  0.00     0.188 C 
BRANCH   2   3
ATOM      3  O   UNL     1      11.586   1.842   2.259  1.00  0.00    -0.376 OA
BRANCH   3   4
ATOM      4  C   UNL     1      10.669   1.663   1.205  1.00  0.00     0.202 C 
BRANCH   4   5
ATOM      5  C   UNL     1       9.942   2.735   0.397  1.00  0.00     0.261 C 
BRANCH   5   6
ATOM      6  O   UNL     1      10.527   4.023   0.317  1.00  0.00    -0.460 OA
BRANCH   6   7
ATOM      7  C   UNL     1      10.375   5.056   1.169  1.00  0.00     0.338 C 
ATOM      8  O   UNL     1      10.821   6.156   0.844  1.00  0.00    -0.246 OA
BRANCH   7   9
ATOM      9  C   UNL     1       9.856   4.895   2.548  1.00  0.00     0.060 A 
ATOM     10  C   UNL     1       8.861   3.998   2.935  1.00  0.00     0.016 A 
ATOM     11  C   UNL     1      10.374   5.808   3.490  1.00  0.00     0.016 A 
ATOM     12  C   UNL     1       8.275   4.120   4.176  1.00  0.00     0.010 A 
ATOM     13  C   UNL     1       9.799   5.927   4.740  1.00  0.00     0.010 A 
ATOM     14  C   UNL     1       8.683   5.150   5.019  1.00  0.00    -0.014 A 
BRANCH  14  15
ATOM     15  C   UNL     1       7.780   5.466   6.105  1.00  0.00     0.031 A 
ATOM     16  C   UNL     1       7.644   4.423   7.146  1.00  0.00     0.074 A 
ATOM     17  C   UNL     1       7.082   6.617   6.081  1.00  0.00     0.049 A 
ATOM     18  N   UNL     1       6.615   3.688   7.414  1.00  0.00    -0.248 NA
ATOM     19  C   UNL     1       8.859   4.053   7.884  1.00  0.00     0.031 C 
ATOM     20  C   UNL     1       7.288   7.791   5.224  1.00  0.00     0.029 A 
ATOM     21  N   UNL     1       6.077   7.013   6.900  1.00  0.00    -0.354 N 
ATOM     22  C   UNL     1       6.984   2.911   8.509  1.00  0.00     0.074 A 
ATOM     23  C   UNL     1       8.411   3.054   8.643  1.00  0.00     0.031 C 
ATOM     24  C   UNL     1       6.609   8.839   5.737  1.00  0.00     0.029 A 
ATOM     25  C   UNL     1       5.817   8.374   6.861  1.00  0.00     0.049 A 
ATOM     26  H   UNL     1       5.575   6.388   7.472  1.00  0.00     0.167 HD
ATOM     27  C   UNL     1       6.060   2.395   9.365  1.00  0.00     0.037 A 
ATOM     28  C   UNL     1       5.085   9.067   7.766  1.00  0.00     0.037 A 
ATOM     29  C   UNL     1       4.754   2.333   8.762  1.00  0.00     0.049 A 
ATOM     30  C   UNL     1       4.197   8.084   8.446  1.00  0.00     0.074 A 
ATOM     31  C   UNL     1       4.221   1.679   7.668  1.00  0.00     0.029 A 
ATOM     32  N   UNL     1       3.836   3.297   9.101  1.00  0.00    -0.354 N 
ATOM     33  N   UNL     1       3.232   7.439   7.846  1.00  0.00    -0.248 NA
ATOM     34  C   UNL     1       4.674   7.476   9.680  1.00  0.00     0.031 C 
ATOM     35  C   UNL     1       3.262   2.581   7.124  1.00  0.00     0.029 A 
ATOM     36  C   UNL     1       3.236   3.714   7.940  1.00  0.00     0.049 A 
ATOM     37  H   UNL     1       3.644   3.626  10.009  1.00  0.00     0.167 HD
ATOM     38  C   UNL     1       3.257   6.162   8.391  1.00  0.00     0.074 A 
ATOM     39  C   UNL     1       4.107   6.272   9.574  1.00  0.00     0.031 C 
ATOM     40  C   UNL     1       2.817   5.076   7.687  1.00  0.00     0.037 A 
BRANCH  27  41
ATOM     41  C   UNL     1       6.273   2.292  10.857  1.00  0.00     0.058 A 
ATOM     42  C   UNL     1       7.214   3.074  11.566  1.00  0.00     0.135 A 
ATOM     43  C   UNL     1       5.320   1.622  11.652  1.00  0.00     0.135 A 
ATOM     44  F   UNL     1       8.128   3.834  10.952  1.00  0.00    -0.206 F 
ATOM     45  C   UNL     1       7.199   3.204  12.947  1.00  0.00     0.059 A 
ATOM     46  C   UNL     1       5.253   1.784  13.038  1.00  0.00     0.059 A 
ATOM     47  F   UNL     1       4.376   0.855  11.084  1.00  0.00    -0.206 F 
ATOM     48  C   UNL     1       6.190   2.591  13.672  1.00  0.00     0.060 A 
BRANCH  48  49
ATOM     49  S   UNL     1       6.069   2.987  15.425  1.00  0.00     0.124 S 
ATOM     50  O   UNL     1       7.254   2.321  15.956  1.00  0.00    -0.237 OA
ATOM     51  O   UNL     1       6.112   4.445  15.405  1.00  0.00    -0.237 OA
ATOM     52  O   UNL     1       4.789   2.404  15.812  1.00  0.00    -0.744 OA
ENDBRANCH  48  49
ENDBRANCH  27  41
BRANCH  28  53
ATOM     53  C   UNL     1       5.451  10.384   8.354  1.00  0.00     0.058 A 
ATOM     54  C   UNL     1       6.785  10.844   8.378  1.00  0.00     0.135 A 
ATOM     55  C   UNL     1       4.537  11.098   9.148  1.00  0.00     0.135 A 
ATOM     56  F   UNL     1       7.757  10.210   7.706  1.00  0.00    -0.206 F 
ATOM     57  C   UNL     1       7.196  11.916   9.165  1.00  0.00     0.059 A 
ATOM     58  C   UNL     1       4.929  12.171   9.958  1.00  0.00     0.059 A 
ATOM     59  F   UNL     1       3.252  10.716   9.201  1.00  0.00    -0.206 F 
ATOM     60  C   UNL     1       6.268  12.555   9.977  1.00  0.00     0.060 A 
BRANCH  60  61
ATOM     61  S   UNL     1       6.878  13.821  11.111  1.00  0.00     0.124 S 
ATOM     62  O   UNL     1       7.805  13.058  11.941  1.00  0.00    -0.237 OA
ATOM     63  O   UNL     1       7.493  14.777  10.195  1.00  0.00    -0.237 OA
ATOM     64  O   UNL     1       5.670  14.288  11.784  1.00  0.00    -0.744 OA
ENDBRANCH  60  61
ENDBRANCH  28  53
BRANCH  40  65
ATOM     65  C   UNL     1       2.054   5.313   6.408  1.00  0.00     0.058 A 
ATOM     66  C   UNL     1       0.761   4.780   6.292  1.00  0.00     0.135 A 
ATOM     67  C   UNL     1       2.622   5.875   5.250  1.00  0.00     0.135 A 
ATOM     68  F   UNL     1       0.186   4.176   7.344  1.00  0.00    -0.206 F 
ATOM     69  C   UNL     1       0.065   4.793   5.086  1.00  0.00     0.059 A 
ATOM     70  C   UNL     1       1.929   5.929   4.037  1.00  0.00     0.059 A 
ATOM     71  F   UNL     1       3.888   6.313   5.248  1.00  0.00    -0.206 F 
ATOM     72  C   UNL     1       0.657   5.367   3.962  1.00  0.00     0.060 A 
BRANCH  72  73
ATOM     73  S   UNL     1      -0.249   5.322   2.401  1.00  0.00     0.124 S 
ATOM     74  O   UNL     1      -0.254   3.894   2.096  1.00  0.00    -0.237 OA
ATOM     75  O   UNL     1      -1.542   5.891   2.772  1.00  0.00    -0.237 OA
ATOM     76  O   UNL     1       0.558   6.145   1.504  1.00  0.00    -0.744 OA
ENDBRANCH  72  73
ENDBRANCH  40  65
ENDBRANCH  14  15
ENDBRANCH   7   9
ENDBRANCH   6   7
ENDBRANCH   5   6
ENDBRANCH   4   5
ENDBRANCH   3   4
ENDBRANCH   2   3
ENDBRANCH   1   2
BRANCH   1  77
ATOM     77  O   UNL     1      14.235   3.039   0.776  1.00  0.00    -0.377 OA
BRANCH  77  78
ATOM     78  C   UNL     1      13.710   2.003  -0.017  1.00  0.00     0.188 C 
BRANCH  78  79
ATOM     79  C   UNL     1      13.899   0.593   0.585  1.00  0.00     0.188 C 
BRANCH  79  80
ATOM     80  O   UNL     1      14.850   0.327   1.605  1.00  0.00    -0.376 OA
BRANCH  80  81
ATOM     81  C   UNL     1      15.978   1.162   1.765  1.00  0.00     0.202 C 
BRANCH  81  82
ATOM     82  C   UNL     1      16.995   1.222   0.618  1.00  0.00     0.261 C 
BRANCH  82  83
ATOM     83  O   UNL     1      16.466   1.371  -0.709  1.00  0.00    -0.458 OA
BRANCH  83  84
ATOM     84  C   UNL     1      16.242   0.231  -1.436  1.00  0.00     0.359 C 
ATOM     85  O   UNL     1      16.433  -0.908  -1.029  1.00  0.00    -0.244 OA
BRANCH  84  86
ATOM     86  C   UNL     1      15.668   0.529  -2.760  1.00  0.00     0.175 A 
ATOM     87  N   UNL     1      16.422   1.153  -3.688  1.00  0.00    -0.165 NA
ATOM     88  C   UNL     1      14.355   0.264  -3.277  1.00  0.00     0.028 A 
ATOM     89  N   UNL     1      15.614   1.311  -4.755  1.00  0.00    -0.264 N 
ATOM     90  C   UNL     1      14.362   0.825  -4.541  1.00  0.00     0.046 A 
ATOM     91  C   UNL     1      13.138  -0.386  -2.689  1.00  0.00     0.159 C 
ATOM     92  C   UNL     1      13.206   0.845  -5.474  1.00  0.00     0.078 C 
ATOM     93  N   UNL     1      12.086  -0.521  -3.721  1.00  0.00    -0.337 N 
ATOM     94  C   UNL     1      11.923   0.609  -4.657  1.00  0.00     0.126 C 
BRANCH  89  95
ATOM     95  C   UNL     1      16.171   1.817  -6.002  1.00  0.00     0.180 C 
BRANCH  95  96
ATOM     96  C   UNL     1      16.377   3.311  -5.987  1.00  0.00    -0.026 A 
ATOM     97  C   UNL     1      17.381   3.881  -5.185  1.00  0.00     0.008 A 
ATOM     98  C   UNL     1      15.598   4.150  -6.801  1.00  0.00     0.008 A 
ATOM     99  C   UNL     1      17.614   5.256  -5.208  1.00  0.00     0.039 A 
ATOM    100  C   UNL     1      15.837   5.525  -6.825  1.00  0.00     0.039 A 
ATOM    101  C   UNL     1      16.845   6.064  -6.035  1.00  0.00     0.123 A 
ATOM    102  F   UNL     1      17.084   7.381  -6.078  1.00  0.00    -0.207 F 
ENDBRANCH  95  96
ENDBRANCH  89  95
BRANCH  93 103
ATOM    103  C   UNL     1      11.230  -1.612  -3.653  1.00  0.00     0.232 C 
ATOM    104  O   UNL     1      11.264  -2.439  -2.747  1.00  0.00    -0.274 OA
BRANCH 103 105
ATOM    105  C   UNL     1      10.217  -1.745  -4.720  1.00  0.00     0.154 C 
ATOM    106  C   UNL     1      10.648  -2.127  -6.129  1.00  0.00     0.097 C 
ATOM    107  C   UNL     1       9.885  -3.075  -5.284  1.00  0.00     0.260 C 
ATOM    108  F   UNL     1      10.493  -4.243  -4.893  1.00  0.00    -0.206 F 
ATOM    109  F   UNL     1       8.596  -3.389  -5.654  1.00  0.00    -0.206 F 
ENDBRANCH 103 105
ENDBRANCH  93 103
ENDBRANCH  84  86
ENDBRANCH  83  84
ENDBRANCH  82  83
ENDBRANCH  81  82
ENDBRANCH  80  81
ENDBRANCH  79  80
ENDBRANCH  78  79
ENDBRANCH  77  78
ENDBRANCH   1  77
TORSDOF 27
