REMARK SMILES Cc1cc(C(=O)OCCOCCOCCOCCOC(=O)c2ccc(-c3c4nc(c(-c5c(F)cc(S(=O)(=O)[O-])cc5F)c5ccc([nH]5)c(-c5c(F)cc(S(=O)(=O)[O-])cc5F)c5nc(c(-c6c(F)cc(S(=O)(=O)[O-])cc6F)c6ccc3[nH]6)C=C5)C=C4)cc2)ccc1NC(=O)c1ccc(=O)n(CCOc2ccccc2)n1
REMARK SMILES IDX 11 1 10 2 9 3 8 4 7 5 5 6 6 7 4 8 1 9 2 10 3 11 90 12 89 13
REMARK SMILES IDX 88 14 91 15 92 16 93 18 94 19 95 20 109 21 96 22 99 23 97 24
REMARK SMILES IDX 98 25 100 26 101 27 102 28 103 29 104 30 108 31 105 32
REMARK SMILES IDX 107 33 106 34 12 35 13 36 14 37 15 38 16 39 17 40 18 41
REMARK SMILES IDX 19 42 20 43 21 44 22 45 23 46 87 47 24 48 86 49 25 50 26 51
REMARK SMILES IDX 27 52 80 53 28 54 85 55 79 56 81 57 29 58 84 59 78 60 77 61
REMARK SMILES IDX 30 63 64 64 43 65 63 66 44 67 47 68 62 69 82 70 45 71 46 72
REMARK SMILES IDX 61 74 83 75 48 76 31 77 32 78 41 79 33 80 34 81 40 82 42 83
REMARK SMILES IDX 35 84 36 85 37 86 38 87 39 88 65 89 66 90 75 91 67 92 68 93
REMARK SMILES IDX 74 94 76 95 69 96 70 97 71 98 72 99 73 100 49 101 50 102
REMARK SMILES IDX 59 103 51 104 52 105 58 106 60 107 53 108 54 109 55 110
REMARK SMILES IDX 56 111 57 112
REMARK H PARENT 91 17 81 62 47 73
REMARK Flexibility Score: inf
ROOT
ATOM      1  C   UNL     1       0.345  -2.149  -2.026  1.00  0.00     0.188 C 
ENDROOT
BRANCH   1   2
ATOM      2  O   UNL     1       0.252  -3.568  -2.035  1.00  0.00    -0.376 OA
BRANCH   2   3
ATOM      3  C   UNL     1      -0.615  -4.117  -1.040  1.00  0.00     0.202 C 
BRANCH   3   4
ATOM      4  C   UNL     1      -0.094  -4.092   0.399  1.00  0.00     0.261 C 
BRANCH   4   5
ATOM      5  O   UNL     1      -0.254  -2.779   0.931  1.00  0.00    -0.460 OA
BRANCH   5   6
ATOM      6  C   UNL     1       0.783  -2.320   1.660  1.00  0.00     0.338 C 
ATOM      7  O   UNL     1       1.634  -2.959   2.243  1.00  0.00    -0.246 OA
BRANCH   6   8
ATOM      8  C   UNL     1       0.907  -0.892   1.320  1.00  0.00     0.060 A 
ATOM      9  C   UNL     1       3.769   1.175   0.015  1.00  0.00     0.046 C 
ATOM     10  C   UNL     1       2.377   0.879   0.504  1.00  0.00    -0.027 A 
ATOM     11  C   UNL     1       2.185  -0.406   1.050  1.00  0.00     0.021 A 
ATOM     12  C   UNL     1       1.260   1.714   0.302  1.00  0.00     0.044 A 
ATOM     13  C   UNL     1      -0.002   1.139   0.453  1.00  0.00     0.027 A 
ATOM     14  C   UNL     1      -0.197  -0.126   0.990  1.00  0.00     0.018 A 
BRANCH  12  15
ATOM     15  N   UNL     1       1.446   3.095   0.044  1.00  0.00    -0.320 N 
ATOM     16  C   UNL     1       0.558   4.161   0.017  1.00  0.00     0.276 C 
ATOM     17  H   UNL     1       2.378   3.344  -0.152  1.00  0.00     0.170 HD
ATOM     18  O   UNL     1       0.953   5.322  -0.051  1.00  0.00    -0.267 OA
BRANCH  16  19
ATOM     19  C   UNL     1      -0.931   3.901  -0.076  1.00  0.00     0.149 A 
ATOM     20  C   UNL     1      -1.414   3.751  -1.462  1.00  0.00     0.042 A 
ATOM     21  N   UNL     1      -1.650   3.736   0.996  1.00  0.00    -0.164 NA
ATOM     22  C   UNL     1      -2.530   3.039  -1.606  1.00  0.00     0.076 A 
ATOM     23  N   UNL     1      -2.903   3.142   0.795  1.00  0.00    -0.226 N 
ATOM     24  C   UNL     1      -3.263   2.547  -0.416  1.00  0.00     0.266 A 
ATOM     25  O   UNL     1      -4.174   1.743  -0.571  1.00  0.00    -0.268 OA
BRANCH  23  26
ATOM     26  C   UNL     1      -3.748   2.926   1.973  1.00  0.00     0.190 C 
BRANCH  26  27
ATOM     27  C   UNL     1      -4.593   4.157   2.344  1.00  0.00     0.253 C 
BRANCH  27  28
ATOM     28  O   UNL     1      -5.820   4.251   1.587  1.00  0.00    -0.492 OA
BRANCH  28  29
ATOM     29  C   UNL     1      -5.756   5.231   0.636  1.00  0.00     0.119 A 
ATOM     30  C   UNL     1      -6.158   6.531   0.915  1.00  0.00     0.046 A 
ATOM     31  C   UNL     1      -5.358   4.899  -0.652  1.00  0.00     0.046 A 
ATOM     32  C   UNL     1      -6.037   7.514  -0.073  1.00  0.00     0.004 A 
ATOM     33  C   UNL     1      -5.159   5.883  -1.615  1.00  0.00     0.004 A 
ATOM     34  C   UNL     1      -5.493   7.199  -1.321  1.00  0.00     0.000 A 
ENDBRANCH  28  29
ENDBRANCH  27  28
ENDBRANCH  26  27
ENDBRANCH  23  26
ENDBRANCH  16  19
ENDBRANCH  12  15
ENDBRANCH   6   8
ENDBRANCH   5   6
ENDBRANCH   4   5
ENDBRANCH   3   4
ENDBRANCH   2   3
ENDBRANCH   1   2
BRANCH   1  35
ATOM     35  C   UNL     1      -0.532  -1.363  -3.006  1.00  0.00     0.188 C 
BRANCH  35  36
ATOM     36  O   UNL     1      -1.877  -1.110  -2.622  1.00  0.00    -0.377 OA
BRANCH  36  37
ATOM     37  C   UNL     1      -2.896  -2.011  -3.079  1.00  0.00     0.188 C 
BRANCH  37  38
ATOM     38  C   UNL     1      -2.755  -2.575  -4.492  1.00  0.00     0.188 C 
BRANCH  38  39
ATOM     39  O   UNL     1      -1.839  -3.677  -4.440  1.00  0.00    -0.376 OA
BRANCH  39  40
ATOM     40  C   UNL     1      -1.141  -3.948  -5.648  1.00  0.00     0.202 C 
BRANCH  40  41
ATOM     41  C   UNL     1      -2.038  -4.374  -6.814  1.00  0.00     0.261 C 
BRANCH  41  42
ATOM     42  O   UNL     1      -2.389  -5.771  -6.729  1.00  0.00    -0.460 OA
BRANCH  42  43
ATOM     43  C   UNL     1      -3.699  -6.023  -6.447  1.00  0.00     0.338 C 
ATOM     44  O   UNL     1      -4.547  -6.223  -7.299  1.00  0.00    -0.246 OA
BRANCH  43  45
ATOM     45  C   UNL     1      -3.911  -6.161  -4.984  1.00  0.00     0.060 A 
ATOM     46  C   UNL     1      -5.154  -5.901  -4.393  1.00  0.00     0.016 A 
ATOM     47  C   UNL     1      -2.822  -6.469  -4.179  1.00  0.00     0.016 A 
ATOM     48  C   UNL     1      -5.269  -5.809  -2.993  1.00  0.00     0.010 A 
ATOM     49  C   UNL     1      -2.932  -6.324  -2.809  1.00  0.00     0.010 A 
ATOM     50  C   UNL     1      -4.135  -5.952  -2.189  1.00  0.00    -0.014 A 
BRANCH  50  51
ATOM     51  C   UNL     1      -4.011  -5.561  -0.764  1.00  0.00     0.031 A 
ATOM     52  C   UNL     1      -3.272  -6.436   0.215  1.00  0.00     0.074 A 
ATOM     53  C   UNL     1      -4.178  -4.246  -0.462  1.00  0.00     0.049 A 
ATOM     54  N   UNL     1      -3.016  -6.113   1.441  1.00  0.00    -0.248 NA
ATOM     55  C   UNL     1      -2.748  -7.770  -0.098  1.00  0.00     0.031 C 
ATOM     56  C   UNL     1      -3.481  -3.494   0.587  1.00  0.00     0.029 A 
ATOM     57  N   UNL     1      -4.990  -3.270  -1.042  1.00  0.00    -0.354 N 
ATOM     58  C   UNL     1      -2.024  -6.946   1.918  1.00  0.00     0.074 A 
ATOM     59  C   UNL     1      -1.989  -8.034   0.976  1.00  0.00     0.031 C 
ATOM     60  C   UNL     1      -3.960  -2.246   0.657  1.00  0.00     0.029 A 
ATOM     61  C   UNL     1      -5.179  -2.239  -0.115  1.00  0.00     0.049 A 
ATOM     62  H   UNL     1      -5.367  -3.302  -1.951  1.00  0.00     0.167 HD
ATOM     63  C   UNL     1      -1.244  -6.533   2.965  1.00  0.00     0.037 A 
ATOM     64  C   UNL     1      -6.386  -1.900   0.426  1.00  0.00     0.037 A 
ATOM     65  C   UNL     1      -1.778  -5.311   3.595  1.00  0.00     0.049 A 
ATOM     66  C   UNL     1      -6.396  -2.167   1.919  1.00  0.00     0.074 A 
ATOM     67  C   UNL     1      -1.242  -4.082   3.932  1.00  0.00     0.029 A 
ATOM     68  N   UNL     1      -3.147  -5.211   3.861  1.00  0.00    -0.354 N 
ATOM     69  N   UNL     1      -5.580  -3.025   2.483  1.00  0.00    -0.248 NA
ATOM     70  C   UNL     1      -7.209  -1.466   2.908  1.00  0.00     0.031 C 
ATOM     71  C   UNL     1      -2.318  -3.202   4.245  1.00  0.00     0.029 A 
ATOM     72  C   UNL     1      -3.500  -3.928   4.218  1.00  0.00     0.049 A 
ATOM     73  H   UNL     1      -3.779  -5.963   3.802  1.00  0.00     0.167 HD
ATOM     74  C   UNL     1      -5.672  -2.942   3.840  1.00  0.00     0.074 A 
ATOM     75  C   UNL     1      -6.749  -1.992   4.061  1.00  0.00     0.031 C 
ATOM     76  C   UNL     1      -4.847  -3.625   4.686  1.00  0.00     0.037 A 
BRANCH  63  77
ATOM     77  C   UNL     1       0.134  -7.105   3.325  1.00  0.00     0.058 A 
ATOM     78  C   UNL     1       0.750  -6.790   4.560  1.00  0.00     0.135 A 
ATOM     79  C   UNL     1       0.952  -7.865   2.455  1.00  0.00     0.135 A 
ATOM     80  F   UNL     1       0.103  -6.068   5.486  1.00  0.00    -0.206 F 
ATOM     81  C   UNL     1       2.053  -7.189   4.901  1.00  0.00     0.059 A 
ATOM     82  C   UNL     1       2.233  -8.326   2.798  1.00  0.00     0.059 A 
ATOM     83  F   UNL     1       0.572  -8.152   1.203  1.00  0.00    -0.206 F 
ATOM     84  C   UNL     1       2.789  -7.967   4.017  1.00  0.00     0.060 A 
BRANCH  84  85
ATOM     85  S   UNL     1       4.449  -8.523   4.473  1.00  0.00     0.124 S 
ATOM     86  O   UNL     1       5.241  -7.310   4.299  1.00  0.00    -0.237 OA
ATOM     87  O   UNL     1       4.269  -8.971   5.851  1.00  0.00    -0.237 OA
ATOM     88  O   UNL     1       4.724  -9.589   3.512  1.00  0.00    -0.744 OA
ENDBRANCH  84  85
ENDBRANCH  63  77
BRANCH  64  89
ATOM     89  C   UNL     1      -7.494  -1.805  -0.568  1.00  0.00     0.058 A 
ATOM     90  C   UNL     1      -7.424  -0.660  -1.387  1.00  0.00     0.135 A 
ATOM     91  C   UNL     1      -8.020  -2.972  -1.147  1.00  0.00     0.135 A 
ATOM     92  F   UNL     1      -7.033   0.511  -0.862  1.00  0.00    -0.206 F 
ATOM     93  C   UNL     1      -7.548  -0.747  -2.771  1.00  0.00     0.059 A 
ATOM     94  C   UNL     1      -8.164  -3.079  -2.536  1.00  0.00     0.059 A 
ATOM     95  F   UNL     1      -8.133  -4.093  -0.420  1.00  0.00    -0.206 F 
ATOM     96  C   UNL     1      -7.823  -1.988  -3.340  1.00  0.00     0.060 A 
BRANCH  96  97
ATOM     97  S   UNL     1      -7.429  -2.222  -5.096  1.00  0.00     0.124 S 
ATOM     98  O   UNL     1      -8.491  -1.471  -5.753  1.00  0.00    -0.237 OA
ATOM     99  O   UNL     1      -6.088  -1.649  -5.190  1.00  0.00    -0.237 OA
ATOM    100  O   UNL     1      -7.486  -3.671  -5.251  1.00  0.00    -0.744 OA
ENDBRANCH  96  97
ENDBRANCH  64  89
BRANCH  76 101
ATOM    101  C   UNL     1      -5.220  -4.041   6.089  1.00  0.00     0.058 A 
ATOM    102  C   UNL     1      -6.553  -4.235   6.490  1.00  0.00     0.135 A 
ATOM    103  C   UNL     1      -4.235  -4.498   7.001  1.00  0.00     0.135 A 
ATOM    104  F   UNL     1      -7.579  -3.937   5.679  1.00  0.00    -0.206 F 
ATOM    105  C   UNL     1      -6.887  -4.798   7.719  1.00  0.00     0.059 A 
ATOM    106  C   UNL     1      -4.548  -5.110   8.210  1.00  0.00     0.059 A 
ATOM    107  F   UNL     1      -2.925  -4.396   6.737  1.00  0.00    -0.206 F 
ATOM    108  C   UNL     1      -5.879  -5.237   8.571  1.00  0.00     0.060 A 
BRANCH 108 109
ATOM    109  S   UNL     1      -6.321  -6.025  10.126  1.00  0.00     0.124 S 
ATOM    110  O   UNL     1      -6.517  -4.864  10.989  1.00  0.00    -0.237 OA
ATOM    111  O   UNL     1      -7.532  -6.763   9.778  1.00  0.00    -0.237 OA
ATOM    112  O   UNL     1      -5.158  -6.852  10.431  1.00  0.00    -0.744 OA
ENDBRANCH 108 109
ENDBRANCH  76 101
ENDBRANCH  50  51
ENDBRANCH  43  45
ENDBRANCH  42  43
ENDBRANCH  41  42
ENDBRANCH  40  41
ENDBRANCH  39  40
ENDBRANCH  38  39
ENDBRANCH  37  38
ENDBRANCH  36  37
ENDBRANCH  35  36
ENDBRANCH   1  35
TORSDOF 29
