REMARK SMILES Cc1cc([C@H](C)NC(=O)N2CC[C@H](C(=O)OCCOCCOCCOCCOC(=O)c3ccc(-c4c5nc(c(-c6c(F)cc(S(=O)(=O)[O-])cc6F)c6ccc([nH]6)c(-c6c(F)cc(S(=O)(=O)[O-])cc6F)c6nc(c(-c7c(F)cc(S(=O)(=O)[O-])cc7F)c7ccc4[nH]7)C=C6)C=C5)cc3)[C@@H]2C)c(C)s1
REMARK SMILES IDX 22 1 21 2 20 3 19 4 18 5 17 6 16 7 14 8 15 9 13 10 10 11
REMARK SMILES IDX 11 12 97 13 12 14 98 15 8 16 7 17 9 19 5 20 6 21 4 22 1 23
REMARK SMILES IDX 2 24 3 25 101 26 99 27 100 28 23 29 24 30 25 31 26 32 27 33
REMARK SMILES IDX 28 34 29 35 30 36 31 37 32 38 96 39 33 40 95 41 34 42 35 43
REMARK SMILES IDX 36 44 89 45 37 46 94 47 88 48 90 49 38 50 93 51 87 52 86 53
REMARK SMILES IDX 39 55 73 56 52 57 72 58 53 59 56 60 71 61 91 62 54 63 55 64
REMARK SMILES IDX 70 66 92 67 57 68 40 69 41 70 50 71 42 72 43 73 49 74 51 75
REMARK SMILES IDX 44 76 45 77 46 78 47 79 48 80 74 81 75 82 84 83 76 84 77 85
REMARK SMILES IDX 83 86 85 87 78 88 79 89 80 90 81 91 82 92 58 93 59 94 68 95
REMARK SMILES IDX 60 96 61 97 67 98 69 99 62 100 63 101 64 102 65 103 66 104
REMARK H PARENT 7 18 90 54 56 65
REMARK Flexibility Score: inf
ROOT
ATOM      1  O   UNL     1       1.022  -8.023  -2.840  1.00  0.00    -0.377 OA
ENDROOT
BRANCH   1   2
ATOM      2  C   UNL     1       1.372  -7.622  -1.539  1.00  0.00     0.188 C 
BRANCH   2   3
ATOM      3  C   UNL     1       0.972  -8.598  -0.466  1.00  0.00     0.188 C 
BRANCH   3   4
ATOM      4  O   UNL     1       1.659  -9.834  -0.364  1.00  0.00    -0.376 OA
BRANCH   4   5
ATOM      5  C   UNL     1       1.620 -10.349   0.991  1.00  0.00     0.202 C 
BRANCH   5   6
ATOM      6  C   UNL     1       0.247 -10.282   1.715  1.00  0.00     0.261 C 
BRANCH   6   7
ATOM      7  O   UNL     1      -0.305  -8.938   1.843  1.00  0.00    -0.463 OA
BRANCH   7   8
ATOM      8  C   UNL     1       0.369  -7.990   2.563  1.00  0.00     0.311 C 
ATOM      9  O   UNL     1       1.202  -8.244   3.416  1.00  0.00    -0.252 OA
BRANCH   8  10
ATOM     10  C   UNL     1      -0.018  -6.586   2.047  1.00  0.00     0.123 C 
ATOM     11  N   UNL     1       0.855  -4.370   2.413  1.00  0.00    -0.321 N 
ATOM     12  C   UNL     1       0.082  -4.741   3.581  1.00  0.00     0.122 C 
ATOM     13  C   UNL     1       1.112  -5.582   1.623  1.00  0.00     0.098 C 
ATOM     14  C   UNL     1      -0.851  -5.827   3.077  1.00  0.00     0.039 C 
ATOM     15  C   UNL     1       2.550  -6.075   1.842  1.00  0.00     0.032 C 
BRANCH  11  16
ATOM     16  C   UNL     1       1.594  -3.215   2.428  1.00  0.00     0.318 C 
ATOM     17  N   UNL     1       2.062  -2.670   1.273  1.00  0.00    -0.331 N 
ATOM     18  H   UNL     1       3.026  -2.470   1.246  1.00  0.00     0.165 HD
ATOM     19  O   UNL     1       1.879  -2.646   3.482  1.00  0.00    -0.249 OA
BRANCH  17  20
ATOM     20  C   UNL     1       1.298  -2.345   0.065  1.00  0.00     0.112 C 
ATOM     21  C   UNL     1       0.378  -1.148   0.329  1.00  0.00     0.036 C 
BRANCH  20  22
ATOM     22  C   UNL     1       2.283  -2.093  -1.088  1.00  0.00    -0.012 A 
ATOM     23  C   UNL     1       3.923   0.051  -3.804  1.00  0.00     0.056 C 
ATOM     24  C   UNL     1       3.435  -0.969  -2.831  1.00  0.00     0.002 A 
ATOM     25  C   UNL     1       2.542  -0.845  -1.780  1.00  0.00     0.021 A 
ATOM     26  S   UNL     1       3.997  -2.567  -2.981  1.00  0.00    -0.146 S 
ATOM     27  C   UNL     1       3.062  -3.088  -1.659  1.00  0.00     0.007 A 
ATOM     28  C   UNL     1       3.126  -4.510  -1.270  1.00  0.00     0.057 C 
ENDBRANCH  20  22
ENDBRANCH  17  20
ENDBRANCH  11  16
ENDBRANCH   8  10
ENDBRANCH   7   8
ENDBRANCH   6   7
ENDBRANCH   5   6
ENDBRANCH   4   5
ENDBRANCH   3   4
ENDBRANCH   2   3
ENDBRANCH   1   2
BRANCH   1  29
ATOM     29  C   UNL     1       1.844  -9.056  -3.371  1.00  0.00     0.188 C 
BRANCH  29  30
ATOM     30  C   UNL     1       3.363  -8.893  -3.164  1.00  0.00     0.188 C 
BRANCH  30  31
ATOM     31  O   UNL     1       4.060  -7.811  -3.781  1.00  0.00    -0.376 OA
BRANCH  31  32
ATOM     32  C   UNL     1       3.446  -6.545  -3.976  1.00  0.00     0.202 C 
BRANCH  32  33
ATOM     33  C   UNL     1       3.503  -6.126  -5.444  1.00  0.00     0.261 C 
BRANCH  33  34
ATOM     34  O   UNL     1       2.820  -7.107  -6.227  1.00  0.00    -0.460 OA
BRANCH  34  35
ATOM     35  C   UNL     1       3.586  -8.181  -6.540  1.00  0.00     0.338 C 
ATOM     36  O   UNL     1       4.804  -8.256  -6.525  1.00  0.00    -0.246 OA
BRANCH  35  37
ATOM     37  C   UNL     1       2.695  -9.341  -6.716  1.00  0.00     0.060 A 
ATOM     38  C   UNL     1       3.161 -10.592  -6.289  1.00  0.00     0.016 A 
ATOM     39  C   UNL     1       1.401  -9.192  -7.233  1.00  0.00     0.016 A 
ATOM     40  C   UNL     1       2.366 -11.716  -6.456  1.00  0.00     0.010 A 
ATOM     41  C   UNL     1       0.610 -10.318  -7.417  1.00  0.00     0.010 A 
ATOM     42  C   UNL     1       1.127 -11.582  -7.093  1.00  0.00    -0.014 A 
BRANCH  42  43
ATOM     43  C   UNL     1       0.554 -12.767  -7.753  1.00  0.00     0.031 A 
ATOM     44  C   UNL     1       0.986 -13.013  -9.172  1.00  0.00     0.074 A 
ATOM     45  C   UNL     1      -0.287 -13.583  -7.102  1.00  0.00     0.049 A 
ATOM     46  N   UNL     1       0.622 -13.953  -9.999  1.00  0.00    -0.248 NA
ATOM     47  C   UNL     1       1.963 -12.062  -9.739  1.00  0.00     0.031 C 
ATOM     48  C   UNL     1      -0.720 -13.422  -5.714  1.00  0.00     0.029 A 
ATOM     49  N   UNL     1      -0.932 -14.710  -7.532  1.00  0.00    -0.354 N 
ATOM     50  C   UNL     1       1.323 -13.706 -11.175  1.00  0.00     0.074 A 
ATOM     51  C   UNL     1       2.107 -12.513 -10.973  1.00  0.00     0.031 C 
ATOM     52  C   UNL     1      -1.579 -14.412  -5.411  1.00  0.00     0.029 A 
ATOM     53  C   UNL     1      -1.771 -15.253  -6.590  1.00  0.00     0.049 A 
ATOM     54  H   UNL     1      -0.807 -15.094  -8.429  1.00  0.00     0.167 HD
ATOM     55  C   UNL     1       1.313 -14.423 -12.319  1.00  0.00     0.037 A 
ATOM     56  C   UNL     1      -2.611 -16.300  -6.697  1.00  0.00     0.037 A 
ATOM     57  C   UNL     1       0.509 -15.599 -12.493  1.00  0.00     0.049 A 
ATOM     58  C   UNL     1      -2.647 -17.052  -8.003  1.00  0.00     0.074 A 
ATOM     59  C   UNL     1       0.404 -16.417 -13.600  1.00  0.00     0.029 A 
ATOM     60  N   UNL     1      -0.338 -16.116 -11.522  1.00  0.00    -0.354 N 
ATOM     61  N   UNL     1      -1.965 -16.827  -9.104  1.00  0.00    -0.248 NA
ATOM     62  C   UNL     1      -3.557 -18.201  -8.084  1.00  0.00     0.031 C 
ATOM     63  C   UNL     1      -0.545 -17.404 -13.314  1.00  0.00     0.029 A 
ATOM     64  C   UNL     1      -0.987 -17.233 -12.010  1.00  0.00     0.049 A 
ATOM     65  H   UNL     1      -0.459 -15.742 -10.619  1.00  0.00     0.167 HD
ATOM     66  C   UNL     1      -2.341 -17.822  -9.998  1.00  0.00     0.074 A 
ATOM     67  C   UNL     1      -3.305 -18.655  -9.304  1.00  0.00     0.031 C 
ATOM     68  C   UNL     1      -1.932 -18.037 -11.274  1.00  0.00     0.037 A 
BRANCH  55  69
ATOM     69  C   UNL     1       2.163 -13.932 -13.457  1.00  0.00     0.058 A 
ATOM     70  C   UNL     1       3.565 -14.007 -13.422  1.00  0.00     0.135 A 
ATOM     71  C   UNL     1       1.566 -13.385 -14.604  1.00  0.00     0.135 A 
ATOM     72  F   UNL     1       4.190 -14.490 -12.336  1.00  0.00    -0.206 F 
ATOM     73  C   UNL     1       4.346 -13.544 -14.477  1.00  0.00     0.059 A 
ATOM     74  C   UNL     1       2.326 -12.940 -15.682  1.00  0.00     0.059 A 
ATOM     75  F   UNL     1       0.231 -13.271 -14.682  1.00  0.00    -0.206 F 
ATOM     76  C   UNL     1       3.716 -13.016 -15.605  1.00  0.00     0.060 A 
BRANCH  76  77
ATOM     77  S   UNL     1       4.741 -12.445 -16.977  1.00  0.00     0.124 S 
ATOM     78  O   UNL     1       5.316 -11.223 -16.425  1.00  0.00    -0.237 OA
ATOM     79  O   UNL     1       5.668 -13.557 -17.157  1.00  0.00    -0.237 OA
ATOM     80  O   UNL     1       3.782 -12.252 -18.061  1.00  0.00    -0.744 OA
ENDBRANCH  76  77
ENDBRANCH  55  69
BRANCH  56  81
ATOM     81  C   UNL     1      -3.475 -16.684  -5.550  1.00  0.00     0.058 A 
ATOM     82  C   UNL     1      -3.271 -17.881  -4.850  1.00  0.00     0.135 A 
ATOM     83  C   UNL     1      -4.520 -15.849  -5.120  1.00  0.00     0.135 A 
ATOM     84  F   UNL     1      -2.288 -18.716  -5.223  1.00  0.00    -0.206 F 
ATOM     85  C   UNL     1      -4.079 -18.247  -3.777  1.00  0.00     0.059 A 
ATOM     86  C   UNL     1      -5.325 -16.180  -4.035  1.00  0.00     0.059 A 
ATOM     87  F   UNL     1      -4.751 -14.684  -5.745  1.00  0.00    -0.206 F 
ATOM     88  C   UNL     1      -5.103 -17.388  -3.376  1.00  0.00     0.060 A 
BRANCH  88  89
ATOM     89  S   UNL     1      -6.118 -17.851  -1.955  1.00  0.00     0.124 S 
ATOM     90  O   UNL     1      -6.929 -18.927  -2.511  1.00  0.00    -0.237 OA
ATOM     91  O   UNL     1      -5.111 -18.250  -0.976  1.00  0.00    -0.237 OA
ATOM     92  O   UNL     1      -6.834 -16.619  -1.638  1.00  0.00    -0.744 OA
ENDBRANCH  88  89
ENDBRANCH  56  81
BRANCH  68  93
ATOM     93  C   UNL     1      -2.492 -19.237 -11.981  1.00  0.00     0.058 A 
ATOM     94  C   UNL     1      -3.812 -19.264 -12.451  1.00  0.00     0.135 A 
ATOM     95  C   UNL     1      -1.667 -20.340 -12.255  1.00  0.00     0.135 A 
ATOM     96  F   UNL     1      -4.638 -18.233 -12.210  1.00  0.00    -0.206 F 
ATOM     97  C   UNL     1      -4.305 -20.357 -13.153  1.00  0.00     0.059 A 
ATOM     98  C   UNL     1      -2.131 -21.430 -12.981  1.00  0.00     0.059 A 
ATOM     99  F   UNL     1      -0.391 -20.352 -11.839  1.00  0.00    -0.206 F 
ATOM    100  C   UNL     1      -3.455 -21.434 -13.416  1.00  0.00     0.060 A 
BRANCH 100 101
ATOM    101  S   UNL     1      -4.097 -22.829 -14.363  1.00  0.00     0.124 S 
ATOM    102  O   UNL     1      -4.952 -23.482 -13.377  1.00  0.00    -0.237 OA
ATOM    103  O   UNL     1      -4.789 -22.167 -15.464  1.00  0.00    -0.237 OA
ATOM    104  O   UNL     1      -2.894 -23.566 -14.738  1.00  0.00    -0.744 OA
ENDBRANCH 100 101
ENDBRANCH  68  93
ENDBRANCH  42  43
ENDBRANCH  35  37
ENDBRANCH  34  35
ENDBRANCH  33  34
ENDBRANCH  32  33
ENDBRANCH  31  32
ENDBRANCH  30  31
ENDBRANCH  29  30
ENDBRANCH   1  29
TORSDOF 26
