REMARK SMILES O=C(CCOc1cccc(/C=C2\CCn3c2nc2cc(Cl)ccc2c3=O)c1)OCCOCCOCCOCCOC(=O)c1ccc(-c2c3nc(c(-c4c(F)cc(S(=O)(=O)[O-])cc4F)c4ccc([nH]4)c(-c4c(F)cc(S(=O)(=O)[O-])cc4F)c4nc(c(-c5c(F)cc(S(=O)(=O)[O-])cc5F)c5ccc2[nH]5)C=C4)C=C3)cc1
REMARK SMILES IDX 33 1 32 2 31 3 30 4 29 5 28 6 2 7 1 8 3 9 4 10 5 11 6 12
REMARK SMILES IDX 7 13 27 14 8 15 10 16 9 17 11 18 12 19 13 20 16 21 14 22
REMARK SMILES IDX 15 23 17 24 25 25 18 26 24 27 26 28 19 29 23 30 20 31 22 32
REMARK SMILES IDX 21 33 34 34 35 35 36 36 37 37 38 38 39 39 40 40 41 41 42 42
REMARK SMILES IDX 43 43 44 44 108 45 45 46 107 47 46 48 47 49 48 50 101 51
REMARK SMILES IDX 49 52 106 53 100 54 102 55 50 56 105 57 99 58 98 59 51 61
REMARK SMILES IDX 85 62 64 63 84 64 65 65 68 66 83 67 103 68 66 69 67 70 82 72
REMARK SMILES IDX 104 73 69 74 52 75 53 76 62 77 54 78 55 79 61 80 63 81 56 82
REMARK SMILES IDX 57 83 58 84 59 85 60 86 86 87 87 88 96 89 88 90 89 91 95 92
REMARK SMILES IDX 97 93 90 94 91 95 92 96 93 97 94 98 70 99 71 100 80 101
REMARK SMILES IDX 72 102 73 103 79 104 81 105 74 106 75 107 76 108 77 109
REMARK SMILES IDX 78 110
REMARK H PARENT 102 60 68 71
REMARK Flexibility Score: inf
ROOT
ATOM      1  C   UNL     1       2.870  -1.779   1.430  1.00  0.00     0.188 C 
ENDROOT
BRANCH   1   2
ATOM      2  C   UNL     1       2.958  -2.404   0.024  1.00  0.00     0.188 C 
BRANCH   2   3
ATOM      3  O   UNL     1       3.767  -1.801  -0.996  1.00  0.00    -0.376 OA
BRANCH   3   4
ATOM      4  C   UNL     1       4.951  -1.121  -0.591  1.00  0.00     0.202 C 
BRANCH   4   5
ATOM      5  C   UNL     1       4.694   0.344  -0.211  1.00  0.00     0.261 C 
BRANCH   5   6
ATOM      6  O   UNL     1       3.295   0.660  -0.046  1.00  0.00    -0.463 OA
BRANCH   6   7
ATOM      7  C   UNL     1       2.403   0.641  -1.060  1.00  0.00     0.309 C 
ATOM      8  O   UNL     1       1.193   0.664  -0.835  1.00  0.00    -0.252 OA
BRANCH   7   9
ATOM      9  C   UNL     1       2.925   0.712  -2.463  1.00  0.00     0.164 C 
BRANCH   9  10
ATOM     10  C   UNL     1       2.996   2.156  -2.930  1.00  0.00     0.241 C 
BRANCH  10  11
ATOM     11  O   UNL     1       4.131   2.862  -2.428  1.00  0.00    -0.493 OA
BRANCH  11  12
ATOM     12  C   UNL     1       4.080   3.502  -1.218  1.00  0.00     0.119 A 
ATOM     13  C   UNL     1       5.324   3.965  -0.790  1.00  0.00     0.046 A 
ATOM     14  C   UNL     1       2.972   3.631  -0.367  1.00  0.00     0.054 A 
ATOM     15  C   UNL     1       5.465   4.537   0.466  1.00  0.00     0.004 A 
ATOM     16  C   UNL     1       3.110   4.122   0.952  1.00  0.00    -0.022 A 
ATOM     17  C   UNL     1       4.367   4.609   1.325  1.00  0.00     0.008 A 
BRANCH  16  18
ATOM     18  C   UNL     1       2.005   3.837   1.918  1.00  0.00     0.015 C 
ATOM     19  C   UNL     1       1.999   3.977   3.263  1.00  0.00    -0.003 C 
ATOM     20  C   UNL     1       2.928   4.640   4.235  1.00  0.00     0.061 C 
ATOM     21  C   UNL     1       1.634   2.696   3.950  1.00  0.00     0.139 A 
ATOM     22  C   UNL     1       3.736   3.440   4.706  1.00  0.00     0.132 C 
ATOM     23  N   UNL     1       2.793   2.345   4.630  1.00  0.00    -0.292 N 
ATOM     24  N   UNL     1       0.571   1.972   3.907  1.00  0.00    -0.230 NA
ATOM     25  C   UNL     1       3.085   1.040   4.900  1.00  0.00     0.261 A 
ATOM     26  C   UNL     1       0.665   0.711   4.539  1.00  0.00     0.080 A 
ATOM     27  C   UNL     1       1.904   0.156   4.875  1.00  0.00     0.066 A 
ATOM     28  O   UNL     1       4.209   0.604   5.128  1.00  0.00    -0.269 OA
ATOM     29  C   UNL     1      -0.481  -0.057   4.758  1.00  0.00     0.049 A 
ATOM     30  C   UNL     1       2.018  -1.178   5.253  1.00  0.00     0.017 A 
ATOM     31  C   UNL     1      -0.369  -1.376   5.213  1.00  0.00     0.043 A 
ATOM     32  C   UNL     1       0.880  -1.957   5.415  1.00  0.00     0.021 A 
ATOM     33  Cl  UNL     1      -1.783  -2.309   5.515  1.00  0.00    -0.084 Cl
ENDBRANCH  16  18
ENDBRANCH  11  12
ENDBRANCH  10  11
ENDBRANCH   9  10
ENDBRANCH   7   9
ENDBRANCH   6   7
ENDBRANCH   5   6
ENDBRANCH   4   5
ENDBRANCH   3   4
ENDBRANCH   2   3
ENDBRANCH   1   2
BRANCH   1  34
ATOM     34  O   UNL     1       4.126  -1.353   1.928  1.00  0.00    -0.377 OA
BRANCH  34  35
ATOM     35  C   UNL     1       4.773  -2.181   2.872  1.00  0.00     0.188 C 
BRANCH  35  36
ATOM     36  C   UNL     1       5.445  -3.457   2.345  1.00  0.00     0.188 C 
BRANCH  36  37
ATOM     37  O   UNL     1       4.656  -4.477   1.755  1.00  0.00    -0.376 OA
BRANCH  37  38
ATOM     38  C   UNL     1       3.513  -5.014   2.403  1.00  0.00     0.202 C 
BRANCH  38  39
ATOM     39  C   UNL     1       3.550  -5.422   3.878  1.00  0.00     0.261 C 
BRANCH  39  40
ATOM     40  O   UNL     1       3.820  -4.339   4.782  1.00  0.00    -0.460 OA
BRANCH  40  41
ATOM     41  C   UNL     1       4.997  -4.434   5.453  1.00  0.00     0.338 C 
ATOM     42  O   UNL     1       5.808  -5.338   5.373  1.00  0.00    -0.246 OA
BRANCH  41  43
ATOM     43  C   UNL     1       5.272  -3.181   6.183  1.00  0.00     0.060 A 
ATOM     44  C   UNL     1       6.483  -2.527   5.924  1.00  0.00     0.016 A 
ATOM     45  C   UNL     1       4.396  -2.692   7.154  1.00  0.00     0.016 A 
ATOM     46  C   UNL     1       6.856  -1.424   6.689  1.00  0.00     0.010 A 
ATOM     47  C   UNL     1       4.755  -1.564   7.899  1.00  0.00     0.010 A 
ATOM     48  C   UNL     1       6.023  -0.979   7.724  1.00  0.00    -0.014 A 
BRANCH  48  49
ATOM     49  C   UNL     1       6.628  -0.175   8.817  1.00  0.00     0.031 A 
ATOM     50  C   UNL     1       7.054  -0.918  10.061  1.00  0.00     0.074 A 
ATOM     51  C   UNL     1       6.880   1.141   8.695  1.00  0.00     0.049 A 
ATOM     52  N   UNL     1       7.659  -0.477  11.132  1.00  0.00    -0.248 NA
ATOM     53  C   UNL     1       6.752  -2.361  10.100  1.00  0.00     0.031 C 
ATOM     54  C   UNL     1       6.557   1.966   7.533  1.00  0.00     0.029 A 
ATOM     55  N   UNL     1       7.485   2.012   9.568  1.00  0.00    -0.354 N 
ATOM     56  C   UNL     1       7.800  -1.581  11.966  1.00  0.00     0.074 A 
ATOM     57  C   UNL     1       7.170  -2.700  11.307  1.00  0.00     0.031 C 
ATOM     58  C   UNL     1       6.973   3.225   7.763  1.00  0.00     0.029 A 
ATOM     59  C   UNL     1       7.579   3.298   9.093  1.00  0.00     0.049 A 
ATOM     60  H   UNL     1       7.820   1.740  10.453  1.00  0.00     0.167 HD
ATOM     61  C   UNL     1       8.421  -1.671  13.164  1.00  0.00     0.037 A 
ATOM     62  C   UNL     1       8.100   4.402   9.668  1.00  0.00     0.037 A 
ATOM     63  C   UNL     1       9.067  -0.565  13.813  1.00  0.00     0.049 A 
ATOM     64  C   UNL     1       8.745   4.292  11.029  1.00  0.00     0.074 A 
ATOM     65  C   UNL     1       9.745  -0.552  15.018  1.00  0.00     0.029 A 
ATOM     66  N   UNL     1       9.110   0.727  13.312  1.00  0.00    -0.354 N 
ATOM     67  N   UNL     1       8.903   3.233  11.789  1.00  0.00    -0.248 NA
ATOM     68  C   UNL     1       9.298   5.527  11.604  1.00  0.00     0.031 C 
ATOM     69  C   UNL     1      10.155   0.761  15.271  1.00  0.00     0.029 A 
ATOM     70  C   UNL     1       9.784   1.552  14.194  1.00  0.00     0.049 A 
ATOM     71  H   UNL     1       8.720   1.014  12.455  1.00  0.00     0.167 HD
ATOM     72  C   UNL     1       9.611   3.666  12.907  1.00  0.00     0.074 A 
ATOM     73  C   UNL     1       9.853   5.082  12.723  1.00  0.00     0.031 C 
ATOM     74  C   UNL     1      10.031   2.957  13.986  1.00  0.00     0.037 A 
BRANCH  61  75
ATOM     75  C   UNL     1       8.406  -3.007  13.851  1.00  0.00     0.058 A 
ATOM     76  C   UNL     1       9.146  -4.100  13.369  1.00  0.00     0.135 A 
ATOM     77  C   UNL     1       7.633  -3.197  15.007  1.00  0.00     0.135 A 
ATOM     78  F   UNL     1       9.878  -3.981  12.250  1.00  0.00    -0.206 F 
ATOM     79  C   UNL     1       9.096  -5.342  13.992  1.00  0.00     0.059 A 
ATOM     80  C   UNL     1       7.593  -4.422  15.665  1.00  0.00     0.059 A 
ATOM     81  F   UNL     1       6.900  -2.189  15.504  1.00  0.00    -0.206 F 
ATOM     82  C   UNL     1       8.316  -5.493  15.140  1.00  0.00     0.060 A 
BRANCH  82  83
ATOM     83  S   UNL     1       8.262  -7.110  15.940  1.00  0.00     0.124 S 
ATOM     84  O   UNL     1       7.441  -7.871  15.003  1.00  0.00    -0.237 OA
ATOM     85  O   UNL     1       9.672  -7.480  15.991  1.00  0.00    -0.237 OA
ATOM     86  O   UNL     1       7.643  -6.830  17.232  1.00  0.00    -0.744 OA
ENDBRANCH  82  83
ENDBRANCH  61  75
BRANCH  62  87
ATOM     87  C   UNL     1       8.060   5.710   8.957  1.00  0.00     0.058 A 
ATOM     88  C   UNL     1       9.233   6.319   8.486  1.00  0.00     0.135 A 
ATOM     89  C   UNL     1       6.848   6.388   8.755  1.00  0.00     0.135 A 
ATOM     90  F   UNL     1      10.419   5.718   8.666  1.00  0.00    -0.206 F 
ATOM     91  C   UNL     1       9.211   7.561   7.858  1.00  0.00     0.059 A 
ATOM     92  C   UNL     1       6.797   7.619   8.108  1.00  0.00     0.059 A 
ATOM     93  F   UNL     1       5.694   5.846   9.175  1.00  0.00    -0.206 F 
ATOM     94  C   UNL     1       7.985   8.202   7.671  1.00  0.00     0.060 A 
BRANCH  94  95
ATOM     95  S   UNL     1       7.959   9.788   6.806  1.00  0.00     0.124 S 
ATOM     96  O   UNL     1       8.529  10.680   7.808  1.00  0.00    -0.237 OA
ATOM     97  O   UNL     1       8.794   9.513   5.642  1.00  0.00    -0.237 OA
ATOM     98  O   UNL     1       6.541   9.985   6.516  1.00  0.00    -0.744 OA
ENDBRANCH  94  95
ENDBRANCH  62  87
BRANCH  74  99
ATOM     99  C   UNL     1      10.845   3.680  15.024  1.00  0.00     0.058 A 
ATOM    100  C   UNL     1      10.278   4.629  15.888  1.00  0.00     0.135 A 
ATOM    101  C   UNL     1      12.208   3.377  15.188  1.00  0.00     0.135 A 
ATOM    102  F   UNL     1       8.981   4.954  15.777  1.00  0.00    -0.206 F 
ATOM    103  C   UNL     1      11.041   5.281  16.852  1.00  0.00     0.059 A 
ATOM    104  C   UNL     1      12.982   3.993  16.166  1.00  0.00     0.059 A 
ATOM    105  F   UNL     1      12.797   2.462  14.401  1.00  0.00    -0.206 F 
ATOM    106  C   UNL     1      12.394   4.957  16.981  1.00  0.00     0.060 A 
BRANCH 106 107
ATOM    107  S   UNL     1      13.372   5.802  18.242  1.00  0.00     0.124 S 
ATOM    108  O   UNL     1      13.545   7.121  17.643  1.00  0.00    -0.237 OA
ATOM    109  O   UNL     1      12.496   5.745  19.409  1.00  0.00    -0.237 OA
ATOM    110  O   UNL     1      14.582   4.990  18.334  1.00  0.00    -0.744 OA
ENDBRANCH 106 107
ENDBRANCH  74  99
ENDBRANCH  48  49
ENDBRANCH  41  43
ENDBRANCH  40  41
ENDBRANCH  39  40
ENDBRANCH  38  39
ENDBRANCH  37  38
ENDBRANCH  36  37
ENDBRANCH  35  36
ENDBRANCH  34  35
ENDBRANCH   1  34
TORSDOF 27
