REMARK SMILES CCSc1ccc(-c2cc(Cl)cc3c2O[C@@H](C(F)(F)F)C(C(=O)OCCOCCOCCOCCOC(=O)c2ccc(-c4c5nc(c(-c6c(F)cc(S(=O)(=O)[O-])cc6F)c6ccc([nH]6)c(-c6c(F)cc(S(=O)(=O)[O-])cc6F)c6nc(c(-c7c(F)cc(S(=O)(=O)[O-])cc7F)c7ccc4[nH]7)C=C6)C=C5)cc2)=C3)cc1
REMARK SMILES IDX 30 1 29 2 28 3 27 4 26 5 25 6 24 7 22 8 23 9 21 10 8 11 9 12
REMARK SMILES IDX 14 13 10 14 13 15 15 16 11 17 12 18 105 19 16 20 7 21 4 22
REMARK SMILES IDX 5 23 107 24 6 25 106 26 3 27 2 28 1 29 17 30 18 31 19 32
REMARK SMILES IDX 20 33 31 34 32 35 33 36 34 37 35 38 36 39 37 40 38 41 39 42
REMARK SMILES IDX 40 43 104 44 41 45 103 46 42 47 43 48 44 49 97 50 45 51
REMARK SMILES IDX 102 52 96 53 98 54 46 55 101 56 95 57 94 58 47 60 81 61
REMARK SMILES IDX 60 62 80 63 61 64 64 65 79 66 99 67 62 68 63 69 78 71 100 72
REMARK SMILES IDX 65 73 48 74 49 75 58 76 50 77 51 78 57 79 59 80 52 81 53 82
REMARK SMILES IDX 54 83 55 84 56 85 82 86 83 87 92 88 84 89 85 90 91 91 93 92
REMARK SMILES IDX 86 93 87 94 88 95 89 96 90 97 66 98 67 99 76 100 68 101
REMARK SMILES IDX 69 102 75 103 77 104 70 105 71 106 72 107 73 108 74 109
REMARK H PARENT 98 59 64 70
REMARK Flexibility Score: inf
ROOT
ATOM      1  O   UNL     1      13.452  -2.747   0.186  1.00  0.00    -0.377 OA
ENDROOT
BRANCH   1   2
ATOM      2  C   UNL     1      12.045  -2.627   0.135  1.00  0.00     0.188 C 
BRANCH   2   3
ATOM      3  C   UNL     1      11.513  -2.500  -1.298  1.00  0.00     0.188 C 
BRANCH   3   4
ATOM      4  O   UNL     1      12.475  -2.788  -2.307  1.00  0.00    -0.376 OA
BRANCH   4   5
ATOM      5  C   UNL     1      13.215  -1.700  -2.860  1.00  0.00     0.202 C 
BRANCH   5   6
ATOM      6  C   UNL     1      13.822  -0.669  -1.898  1.00  0.00     0.261 C 
BRANCH   6   7
ATOM      7  O   UNL     1      12.783   0.072  -1.218  1.00  0.00    -0.460 OA
BRANCH   7   8
ATOM      8  C   UNL     1      12.309   1.145  -1.871  1.00  0.00     0.338 C 
ATOM      9  O   UNL     1      12.781   1.598  -2.906  1.00  0.00    -0.246 OA
BRANCH   8  10
ATOM     10  C   UNL     1      11.021   1.629  -1.315  1.00  0.00     0.087 C 
ATOM     11  C   UNL     1       7.899  -1.081  -1.609  1.00  0.00     0.026 A 
ATOM     12  C   UNL     1       8.181  -1.907  -2.723  1.00  0.00     0.033 A 
ATOM     13  C   UNL     1       8.793  -0.014  -1.398  1.00  0.00     0.135 A 
ATOM     14  C   UNL     1       9.048  -1.484  -3.729  1.00  0.00     0.042 A 
ATOM     15  C   UNL     1       9.472   0.522  -2.503  1.00  0.00     0.019 A 
ATOM     16  O   UNL     1       9.210   0.325  -0.113  1.00  0.00    -0.475 OA
ATOM     17  Cl  UNL     1       9.332  -2.494  -5.089  1.00  0.00    -0.084 Cl
ATOM     18  C   UNL     1       9.612  -0.217  -3.673  1.00  0.00     0.032 A 
ATOM     19  C   UNL     1      10.157   1.820  -2.330  1.00  0.00     0.027 C 
ATOM     20  C   UNL     1      10.358   1.278   0.007  1.00  0.00     0.316 C 
BRANCH  11  21
ATOM     21  C   UNL     1       6.436  -1.021  -1.260  1.00  0.00    -0.015 A 
ATOM     22  C   UNL     1       3.613  -0.983  -1.714  1.00  0.00     0.007 A 
ATOM     23  C   UNL     1       4.275  -2.175  -1.408  1.00  0.00     0.015 A 
ATOM     24  C   UNL     1       4.342   0.205  -1.690  1.00  0.00     0.015 A 
ATOM     25  C   UNL     1       5.660  -2.192  -1.162  1.00  0.00     0.010 A 
ATOM     26  C   UNL     1       5.730   0.186  -1.453  1.00  0.00     0.010 A 
BRANCH  22  27
ATOM     27  S   UNL     1       1.925  -1.083  -2.297  1.00  0.00    -0.126 SA
BRANCH  27  28
ATOM     28  C   UNL     1       1.085   0.218  -1.338  1.00  0.00     0.071 C 
ATOM     29  C   UNL     1       1.094  -0.092   0.147  1.00  0.00     0.016 C 
ENDBRANCH  27  28
ENDBRANCH  22  27
ENDBRANCH  11  21
BRANCH  20  30
ATOM     30  C   UNL     1      11.257   1.086   1.256  1.00  0.00     0.430 C 
ATOM     31  F   UNL     1      11.744   2.294   1.649  1.00  0.00    -0.167 F 
ATOM     32  F   UNL     1      10.540   0.606   2.303  1.00  0.00    -0.167 F 
ATOM     33  F   UNL     1      12.317   0.282   1.106  1.00  0.00    -0.167 F 
ENDBRANCH  20  30
ENDBRANCH   8  10
ENDBRANCH   7   8
ENDBRANCH   6   7
ENDBRANCH   5   6
ENDBRANCH   4   5
ENDBRANCH   3   4
ENDBRANCH   2   3
ENDBRANCH   1   2
BRANCH   1  34
ATOM     34  C   UNL     1      14.007  -4.045   0.001  1.00  0.00     0.188 C 
BRANCH  34  35
ATOM     35  C   UNL     1      13.253  -5.139  -0.789  1.00  0.00     0.188 C 
BRANCH  35  36
ATOM     36  O   UNL     1      11.872  -5.271  -0.451  1.00  0.00    -0.376 OA
BRANCH  36  37
ATOM     37  C   UNL     1      11.501  -6.404   0.320  1.00  0.00     0.202 C 
BRANCH  37  38
ATOM     38  C   UNL     1      11.803  -6.271   1.818  1.00  0.00     0.261 C 
BRANCH  38  39
ATOM     39  O   UNL     1      13.194  -6.147   2.147  1.00  0.00    -0.460 OA
BRANCH  39  40
ATOM     40  C   UNL     1      14.008  -7.156   1.767  1.00  0.00     0.338 C 
ATOM     41  O   UNL     1      13.681  -8.203   1.235  1.00  0.00    -0.246 OA
BRANCH  40  42
ATOM     42  C   UNL     1      15.401  -6.694   1.921  1.00  0.00     0.060 A 
ATOM     43  C   UNL     1      16.260  -6.762   0.817  1.00  0.00     0.016 A 
ATOM     44  C   UNL     1      15.846  -6.174   3.139  1.00  0.00     0.016 A 
ATOM     45  C   UNL     1      17.585  -6.347   0.942  1.00  0.00     0.010 A 
ATOM     46  C   UNL     1      17.177  -5.778   3.269  1.00  0.00     0.010 A 
ATOM     47  C   UNL     1      18.060  -5.897   2.182  1.00  0.00    -0.014 A 
BRANCH  47  48
ATOM     48  C   UNL     1      19.518  -5.767   2.409  1.00  0.00     0.031 A 
ATOM     49  C   UNL     1      20.244  -6.943   3.003  1.00  0.00     0.074 A 
ATOM     50  C   UNL     1      20.182  -4.641   2.098  1.00  0.00     0.049 A 
ATOM     51  N   UNL     1      21.499  -7.059   3.345  1.00  0.00    -0.248 NA
ATOM     52  C   UNL     1      19.438  -8.152   3.249  1.00  0.00     0.031 C 
ATOM     53  C   UNL     1      19.591  -3.448   1.493  1.00  0.00     0.029 A 
ATOM     54  N   UNL     1      21.505  -4.316   2.265  1.00  0.00    -0.354 N 
ATOM     55  C   UNL     1      21.635  -8.349   3.843  1.00  0.00     0.074 A 
ATOM     56  C   UNL     1      20.328  -8.966   3.793  1.00  0.00     0.031 C 
ATOM     57  C   UNL     1      20.547  -2.512   1.357  1.00  0.00     0.029 A 
ATOM     58  C   UNL     1      21.808  -3.029   1.889  1.00  0.00     0.049 A 
ATOM     59  H   UNL     1      22.173  -4.945   2.620  1.00  0.00     0.167 HD
ATOM     60  C   UNL     1      22.751  -8.968   4.294  1.00  0.00     0.037 A 
ATOM     61  C   UNL     1      22.966  -2.345   1.988  1.00  0.00     0.037 A 
ATOM     62  C   UNL     1      24.045  -8.344   4.358  1.00  0.00     0.049 A 
ATOM     63  C   UNL     1      24.183  -3.031   2.557  1.00  0.00     0.074 A 
ATOM     64  C   UNL     1      25.241  -8.884   4.796  1.00  0.00     0.029 A 
ATOM     65  N   UNL     1      24.310  -7.035   3.982  1.00  0.00    -0.354 N 
ATOM     66  N   UNL     1      24.306  -4.261   3.001  1.00  0.00    -0.248 NA
ATOM     67  C   UNL     1      25.419  -2.240   2.634  1.00  0.00     0.031 C 
ATOM     68  C   UNL     1      26.220  -7.887   4.728  1.00  0.00     0.029 A 
ATOM     69  C   UNL     1      25.646  -6.742   4.197  1.00  0.00     0.049 A 
ATOM     70  H   UNL     1      23.646  -6.407   3.616  1.00  0.00     0.167 HD
ATOM     71  C   UNL     1      25.638  -4.397   3.384  1.00  0.00     0.074 A 
ATOM     72  C   UNL     1      26.281  -3.128   3.111  1.00  0.00     0.031 C 
ATOM     73  C   UNL     1      26.271  -5.475   3.912  1.00  0.00     0.037 A 
BRANCH  60  74
ATOM     74  C   UNL     1      22.607 -10.384   4.774  1.00  0.00     0.058 A 
ATOM     75  C   UNL     1      22.378 -11.444   3.883  1.00  0.00     0.135 A 
ATOM     76  C   UNL     1      22.706 -10.687   6.141  1.00  0.00     0.135 A 
ATOM     77  F   UNL     1      22.251 -11.207   2.567  1.00  0.00    -0.206 F 
ATOM     78  C   UNL     1      22.224 -12.751   4.332  1.00  0.00     0.059 A 
ATOM     79  C   UNL     1      22.582 -11.990   6.611  1.00  0.00     0.059 A 
ATOM     80  F   UNL     1      22.916  -9.709   7.037  1.00  0.00    -0.206 F 
ATOM     81  C   UNL     1      22.326 -13.014   5.700  1.00  0.00     0.060 A 
BRANCH  81  82
ATOM     82  S   UNL     1      22.121 -14.715   6.269  1.00  0.00     0.124 S 
ATOM     83  O   UNL     1      20.682 -14.903   6.109  1.00  0.00    -0.237 OA
ATOM     84  O   UNL     1      22.964 -15.459   5.338  1.00  0.00    -0.237 OA
ATOM     85  O   UNL     1      22.599 -14.672   7.647  1.00  0.00    -0.744 OA
ENDBRANCH  81  82
ENDBRANCH  60  74
BRANCH  61  86
ATOM     86  C   UNL     1      23.029  -0.924   1.552  1.00  0.00     0.058 A 
ATOM     87  C   UNL     1      23.755  -0.544   0.413  1.00  0.00     0.135 A 
ATOM     88  C   UNL     1      22.366   0.084   2.269  1.00  0.00     0.135 A 
ATOM     89  F   UNL     1      24.418  -1.468  -0.298  1.00  0.00    -0.206 F 
ATOM     90  C   UNL     1      23.831   0.785   0.007  1.00  0.00     0.059 A 
ATOM     91  C   UNL     1      22.406   1.416   1.869  1.00  0.00     0.059 A 
ATOM     92  F   UNL     1      21.652  -0.227   3.362  1.00  0.00    -0.206 F 
ATOM     93  C   UNL     1      23.150   1.758   0.740  1.00  0.00     0.060 A 
BRANCH  93  94
ATOM     94  S   UNL     1      23.213   3.473   0.175  1.00  0.00     0.124 S 
ATOM     95  O   UNL     1      24.575   3.851   0.535  1.00  0.00    -0.237 OA
ATOM     96  O   UNL     1      22.945   3.335  -1.253  1.00  0.00    -0.237 OA
ATOM     97  O   UNL     1      22.154   4.119   0.945  1.00  0.00    -0.744 OA
ENDBRANCH  93  94
ENDBRANCH  61  86
BRANCH  73  98
ATOM     98  C   UNL     1      27.743  -5.348   4.197  1.00  0.00     0.058 A 
ATOM     99  C   UNL     1      28.226  -4.593   5.276  1.00  0.00     0.135 A 
ATOM    100  C   UNL     1      28.679  -6.048   3.416  1.00  0.00     0.135 A 
ATOM    101  F   UNL     1      27.375  -3.903   6.052  1.00  0.00    -0.206 F 
ATOM    102  C   UNL     1      29.586  -4.518   5.560  1.00  0.00     0.059 A 
ATOM    103  C   UNL     1      30.041  -6.009   3.698  1.00  0.00     0.059 A 
ATOM    104  F   UNL     1      28.270  -6.796   2.379  1.00  0.00    -0.206 F 
ATOM    105  C   UNL     1      30.486  -5.232   4.766  1.00  0.00     0.060 A 
BRANCH 105 106
ATOM    106  S   UNL     1      32.245  -5.157   5.167  1.00  0.00     0.124 S 
ATOM    107  O   UNL     1      32.596  -3.819   4.703  1.00  0.00    -0.237 OA
ATOM    108  O   UNL     1      32.245  -5.347   6.614  1.00  0.00    -0.237 OA
ATOM    109  O   UNL     1      32.816  -6.258   4.398  1.00  0.00    -0.744 OA
ENDBRANCH 105 106
ENDBRANCH  73  98
ENDBRANCH  47  48
ENDBRANCH  40  42
ENDBRANCH  39  40
ENDBRANCH  38  39
ENDBRANCH  37  38
ENDBRANCH  36  37
ENDBRANCH  35  36
ENDBRANCH  34  35
ENDBRANCH   1  34
TORSDOF 27
