REMARK SMILES O=C(OCCOCCOCCOCCOC(=O)c1nnn(-c2ccc(C(F)(F)F)cc2)c1-c1cccc(Cl)c1)c1ccc(-c2c3nc(c(-c4c(F)cc(S(=O)(=O)[O-])cc4F)c4ccc([nH]4)c(-c4c(F)cc(S(=O)(=O)[O-])cc4F)c4nc(c(-c5c(F)cc(S(=O)(=O)[O-])cc5F)c5ccc2[nH]5)C=C4)C=C3)cc1
REMARK SMILES IDX 8 1 7 2 6 3 5 4 4 5 3 6 2 7 1 8 40 9 41 10 105 11 42 12
REMARK SMILES IDX 104 13 43 14 44 15 45 16 98 17 46 18 103 19 97 20 99 21
REMARK SMILES IDX 47 22 102 23 96 24 95 25 48 27 82 28 61 29 81 30 62 31 65 32
REMARK SMILES IDX 80 33 100 34 63 35 64 36 79 38 101 39 66 40 49 41 50 42
REMARK SMILES IDX 59 43 51 44 52 45 58 46 60 47 53 48 54 49 55 50 56 51 57 52
REMARK SMILES IDX 83 53 84 54 93 55 85 56 86 57 92 58 94 59 87 60 88 61 89 62
REMARK SMILES IDX 90 63 91 64 67 65 68 66 77 67 69 68 70 69 76 70 78 71 71 72
REMARK SMILES IDX 72 73 73 74 74 75 75 76 9 77 10 78 11 79 12 80 13 81 14 82
REMARK SMILES IDX 15 83 16 84 17 85 18 86 19 87 32 88 20 89 21 90 33 91 34 92
REMARK SMILES IDX 39 93 35 94 37 95 36 96 38 97 22 98 23 99 31 100 24 101
REMARK SMILES IDX 30 102 25 103 26 104 27 105 28 106 29 107
REMARK H PARENT 99 26 65 37
REMARK Flexibility Score: inf
ROOT
ATOM      1  C   UNL     1       2.295  -0.230   1.982  1.00  0.00     0.188 C 
ENDROOT
BRANCH   1   2
ATOM      2  C   UNL     1       2.926  -1.202   0.978  1.00  0.00     0.188 C 
BRANCH   2   3
ATOM      3  O   UNL     1       4.270  -1.099   0.548  1.00  0.00    -0.376 OA
BRANCH   3   4
ATOM      4  C   UNL     1       4.987   0.051   0.158  1.00  0.00     0.202 C 
BRANCH   4   5
ATOM      5  C   UNL     1       4.416   1.327  -0.463  1.00  0.00     0.261 C 
BRANCH   5   6
ATOM      6  O   UNL     1       3.041   1.614  -0.255  1.00  0.00    -0.460 OA
BRANCH   6   7
ATOM      7  C   UNL     1       1.958   1.206  -0.944  1.00  0.00     0.338 C 
ATOM      8  O   UNL     1       0.864   1.666  -0.618  1.00  0.00    -0.246 OA
BRANCH   7   9
ATOM      9  C   UNL     1       1.989   0.131  -1.972  1.00  0.00     0.060 A 
ATOM     10  C   UNL     1       3.105  -0.276  -2.703  1.00  0.00     0.016 A 
ATOM     11  C   UNL     1       0.754  -0.504  -2.213  1.00  0.00     0.016 A 
ATOM     12  C   UNL     1       2.970  -1.194  -3.730  1.00  0.00     0.010 A 
ATOM     13  C   UNL     1       0.616  -1.438  -3.229  1.00  0.00     0.010 A 
ATOM     14  C   UNL     1       1.714  -1.714  -4.033  1.00  0.00    -0.014 A 
BRANCH  14  15
ATOM     15  C   UNL     1       1.607  -2.438  -5.289  1.00  0.00     0.031 A 
ATOM     16  C   UNL     1       2.404  -3.684  -5.423  1.00  0.00     0.074 A 
ATOM     17  C   UNL     1       0.856  -1.964  -6.300  1.00  0.00     0.049 A 
ATOM     18  N   UNL     1       3.394  -3.923  -6.222  1.00  0.00    -0.248 NA
ATOM     19  C   UNL     1       2.106  -4.778  -4.489  1.00  0.00     0.031 C 
ATOM     20  C   UNL     1      -0.155  -0.901  -6.265  1.00  0.00     0.029 A 
ATOM     21  N   UNL     1       0.794  -2.409  -7.582  1.00  0.00    -0.354 N 
ATOM     22  C   UNL     1       3.727  -5.262  -6.030  1.00  0.00     0.074 A 
ATOM     23  C   UNL     1       2.982  -5.705  -4.877  1.00  0.00     0.031 C 
ATOM     24  C   UNL     1      -0.878  -0.942  -7.405  1.00  0.00     0.029 A 
ATOM     25  C   UNL     1      -0.285  -1.921  -8.297  1.00  0.00     0.049 A 
ATOM     26  H   UNL     1       1.459  -3.025  -7.968  1.00  0.00     0.167 HD
ATOM     27  C   UNL     1       4.457  -5.974  -6.934  1.00  0.00     0.037 A 
ATOM     28  C   UNL     1      -0.707  -2.353  -9.508  1.00  0.00     0.037 A 
ATOM     29  C   UNL     1       5.202  -5.123  -7.821  1.00  0.00     0.049 A 
ATOM     30  C   UNL     1       0.445  -3.015 -10.172  1.00  0.00     0.074 A 
ATOM     31  C   UNL     1       6.199  -4.182  -7.648  1.00  0.00     0.029 A 
ATOM     32  N   UNL     1       4.736  -4.933  -9.098  1.00  0.00    -0.354 N 
ATOM     33  N   UNL     1       1.519  -2.390 -10.574  1.00  0.00    -0.248 NA
ATOM     34  C   UNL     1       0.587  -4.455 -10.019  1.00  0.00     0.031 C 
ATOM     35  C   UNL     1       5.938  -3.179  -8.626  1.00  0.00     0.029 A 
ATOM     36  C   UNL     1       4.820  -3.587  -9.355  1.00  0.00     0.049 A 
ATOM     37  H   UNL     1       4.404  -5.628  -9.711  1.00  0.00     0.167 HD
ATOM     38  C   UNL     1       2.561  -3.275 -10.339  1.00  0.00     0.074 A 
ATOM     39  C   UNL     1       1.916  -4.561 -10.092  1.00  0.00     0.031 C 
ATOM     40  C   UNL     1       3.834  -2.838 -10.105  1.00  0.00     0.037 A 
BRANCH  27  41
ATOM     41  C   UNL     1       4.267  -7.448  -7.183  1.00  0.00     0.058 A 
ATOM     42  C   UNL     1       5.226  -8.180  -7.911  1.00  0.00     0.135 A 
ATOM     43  C   UNL     1       3.040  -8.108  -6.951  1.00  0.00     0.135 A 
ATOM     44  F   UNL     1       6.416  -7.637  -8.211  1.00  0.00    -0.206 F 
ATOM     45  C   UNL     1       4.967  -9.459  -8.409  1.00  0.00     0.059 A 
ATOM     46  C   UNL     1       2.780  -9.401  -7.391  1.00  0.00     0.059 A 
ATOM     47  F   UNL     1       2.004  -7.490  -6.368  1.00  0.00    -0.206 F 
ATOM     48  C   UNL     1       3.733 -10.054  -8.155  1.00  0.00     0.060 A 
BRANCH  48  49
ATOM     49  S   UNL     1       3.349 -11.654  -8.889  1.00  0.00     0.124 S 
ATOM     50  O   UNL     1       3.175 -11.294 -10.292  1.00  0.00    -0.237 OA
ATOM     51  O   UNL     1       4.542 -12.432  -8.571  1.00  0.00    -0.237 OA
ATOM     52  O   UNL     1       2.136 -12.062  -8.186  1.00  0.00    -0.744 OA
ENDBRANCH  48  49
ENDBRANCH  27  41
BRANCH  28  53
ATOM     53  C   UNL     1      -2.117  -2.553  -9.922  1.00  0.00     0.058 A 
ATOM     54  C   UNL     1      -2.456  -2.754 -11.269  1.00  0.00     0.135 A 
ATOM     55  C   UNL     1      -3.129  -2.817  -8.975  1.00  0.00     0.135 A 
ATOM     56  F   UNL     1      -1.543  -2.554 -12.231  1.00  0.00    -0.206 F 
ATOM     57  C   UNL     1      -3.715  -3.227 -11.653  1.00  0.00     0.059 A 
ATOM     58  C   UNL     1      -4.393  -3.274  -9.335  1.00  0.00     0.059 A 
ATOM     59  F   UNL     1      -2.891  -2.727  -7.658  1.00  0.00    -0.206 F 
ATOM     60  C   UNL     1      -4.671  -3.501 -10.675  1.00  0.00     0.060 A 
BRANCH  60  61
ATOM     61  S   UNL     1      -6.234  -4.274 -11.151  1.00  0.00     0.124 S 
ATOM     62  O   UNL     1      -6.901  -3.189 -11.861  1.00  0.00    -0.237 OA
ATOM     63  O   UNL     1      -5.784  -5.394 -11.972  1.00  0.00    -0.237 OA
ATOM     64  O   UNL     1      -6.832  -4.645  -9.871  1.00  0.00    -0.744 OA
ENDBRANCH  60  61
ENDBRANCH  28  53
BRANCH  40  65
ATOM     65  C   UNL     1       4.161  -1.394 -10.392  1.00  0.00     0.058 A 
ATOM     66  C   UNL     1       3.599  -0.309  -9.697  1.00  0.00     0.135 A 
ATOM     67  C   UNL     1       5.210  -1.109 -11.281  1.00  0.00     0.135 A 
ATOM     68  F   UNL     1       2.667  -0.505  -8.753  1.00  0.00    -0.206 F 
ATOM     69  C   UNL     1       4.036   1.002  -9.900  1.00  0.00     0.059 A 
ATOM     70  C   UNL     1       5.683   0.187 -11.477  1.00  0.00     0.059 A 
ATOM     71  F   UNL     1       5.833  -2.108 -11.929  1.00  0.00    -0.206 F 
ATOM     72  C   UNL     1       5.084   1.240 -10.789  1.00  0.00     0.060 A 
BRANCH  72  73
ATOM     73  S   UNL     1       5.723   2.922 -10.962  1.00  0.00     0.124 S 
ATOM     74  O   UNL     1       4.674   3.570 -11.743  1.00  0.00    -0.237 OA
ATOM     75  O   UNL     1       5.843   3.361  -9.574  1.00  0.00    -0.237 OA
ATOM     76  O   UNL     1       6.994   2.734 -11.657  1.00  0.00    -0.744 OA
ENDBRANCH  72  73
ENDBRANCH  40  65
ENDBRANCH  14  15
ENDBRANCH   7   9
ENDBRANCH   6   7
ENDBRANCH   5   6
ENDBRANCH   4   5
ENDBRANCH   3   4
ENDBRANCH   2   3
ENDBRANCH   1   2
BRANCH   1  77
ATOM     77  O   UNL     1       2.823  -0.297   3.296  1.00  0.00    -0.377 OA
BRANCH  77  78
ATOM     78  C   UNL     1       4.144   0.190   3.410  1.00  0.00     0.188 C 
BRANCH  78  79
ATOM     79  C   UNL     1       5.240  -0.891   3.539  1.00  0.00     0.188 C 
BRANCH  79  80
ATOM     80  O   UNL     1       4.998  -2.232   3.960  1.00  0.00    -0.376 OA
BRANCH  80  81
ATOM     81  C   UNL     1       3.723  -2.661   4.397  1.00  0.00     0.202 C 
BRANCH  81  82
ATOM     82  C   UNL     1       3.369  -2.279   5.834  1.00  0.00     0.261 C 
BRANCH  82  83
ATOM     83  O   UNL     1       3.625  -0.907   6.145  1.00  0.00    -0.458 OA
BRANCH  83  84
ATOM     84  C   UNL     1       4.881  -0.620   6.594  1.00  0.00     0.361 C 
ATOM     85  O   UNL     1       5.750  -1.438   6.864  1.00  0.00    -0.244 OA
BRANCH  84  86
ATOM     86  C   UNL     1       5.061   0.808   6.756  1.00  0.00     0.198 A 
ATOM     87  N   UNL     1       5.902   1.579   5.989  1.00  0.00    -0.122 NA
ATOM     88  C   UNL     1       4.359   1.618   7.627  1.00  0.00     0.109 A 
ATOM     89  N   UNL     1       5.732   2.849   6.341  1.00  0.00    -0.061 NA
ATOM     90  N   UNL     1       4.951   2.857   7.444  1.00  0.00    -0.212 N 
BRANCH  88  91
ATOM     91  C   UNL     1       3.284   1.302   8.560  1.00  0.00     0.004 A 
ATOM     92  C   UNL     1       2.115   2.074   8.601  1.00  0.00     0.010 A 
ATOM     93  C   UNL     1       3.409   0.200   9.415  1.00  0.00     0.031 A 
ATOM     94  C   UNL     1       1.093   1.760   9.498  1.00  0.00     0.002 A 
ATOM     95  C   UNL     1       2.383  -0.113  10.302  1.00  0.00     0.041 A 
ATOM     96  C   UNL     1       1.228   0.665  10.351  1.00  0.00     0.020 A 
ATOM     97  Cl  UNL     1       2.552  -1.468  11.348  1.00  0.00    -0.084 Cl
ENDBRANCH  88  91
BRANCH  90  98
ATOM     98  C   UNL     1       4.957   3.938   8.346  1.00  0.00     0.067 A 
ATOM     99  C   UNL     1       4.840   5.252   7.895  1.00  0.00     0.029 A 
ATOM    100  C   UNL     1       5.069   3.654   9.713  1.00  0.00     0.029 A 
ATOM    101  C   UNL     1       4.734   6.279   8.840  1.00  0.00     0.015 A 
ATOM    102  C   UNL     1       5.001   4.681  10.643  1.00  0.00     0.015 A 
ATOM    103  C   UNL     1       4.801   6.001  10.220  1.00  0.00     0.056 A 
BRANCH 103 104
ATOM    104  C   UNL     1       4.634   7.099  11.239  1.00  0.00     0.416 C 
ATOM    105  F   UNL     1       5.529   8.111  11.078  1.00  0.00    -0.166 F 
ATOM    106  F   UNL     1       3.400   7.672  11.185  1.00  0.00    -0.166 F 
ATOM    107  F   UNL     1       4.785   6.670  12.525  1.00  0.00    -0.166 F 
ENDBRANCH 103 104
ENDBRANCH  90  98
ENDBRANCH  84  86
ENDBRANCH  83  84
ENDBRANCH  82  83
ENDBRANCH  81  82
ENDBRANCH  80  81
ENDBRANCH  79  80
ENDBRANCH  78  79
ENDBRANCH  77  78
ENDBRANCH   1  77
TORSDOF 26
