REMARK SMILES O=C(OCCOCCOCCOCCOC(=O)c1nnn(-c2cccc(C(F)(F)F)c2)c1[C@@H]1COc2ccccc2O1)c1ccc(-c2c3nc(c(-c4c(F)cc(S(=O)(=O)[O-])cc4F)c4ccc([nH]4)c(-c4c(F)cc(S(=O)(=O)[O-])cc4F)c4nc(c(-c5c(F)cc(S(=O)(=O)[O-])cc5F)c5ccc2[nH]5)C=C4)C=C3)cc1
REMARK SMILES IDX 8 1 7 2 6 3 5 4 4 5 3 6 2 7 1 8 43 9 44 10 108 11 45 12
REMARK SMILES IDX 107 13 46 14 47 15 48 16 101 17 49 18 106 19 100 20 102 21
REMARK SMILES IDX 50 22 105 23 99 24 98 25 51 27 85 28 64 29 84 30 65 31 68 32
REMARK SMILES IDX 83 33 103 34 66 35 67 36 82 38 104 39 69 40 52 41 53 42
REMARK SMILES IDX 62 43 54 44 55 45 61 46 63 47 56 48 57 49 58 50 59 51 60 52
REMARK SMILES IDX 86 53 87 54 96 55 88 56 89 57 95 58 97 59 90 60 91 61 92 62
REMARK SMILES IDX 93 63 94 64 70 65 71 66 80 67 72 68 73 69 79 70 81 71 74 72
REMARK SMILES IDX 75 73 76 74 77 75 78 76 9 77 10 78 11 79 12 80 13 81 14 82
REMARK SMILES IDX 15 83 16 84 17 85 18 86 19 87 32 88 20 89 21 90 33 91 34 92
REMARK SMILES IDX 42 93 35 94 41 95 36 96 40 97 37 98 39 99 38 100 22 101
REMARK SMILES IDX 23 102 31 103 24 104 26 105 25 106 27 107 28 108 29 109
REMARK SMILES IDX 30 110
REMARK H PARENT 102 26 68 37
REMARK Flexibility Score: inf
ROOT
ATOM      1  C   UNL     1       2.546   0.385   1.968  1.00  0.00     0.188 C 
ENDROOT
BRANCH   1   2
ATOM      2  C   UNL     1       3.081  -0.887   1.295  1.00  0.00     0.188 C 
BRANCH   2   3
ATOM      3  O   UNL     1       4.391  -0.984   0.764  1.00  0.00    -0.376 OA
BRANCH   3   4
ATOM      4  C   UNL     1       5.114   0.054   0.136  1.00  0.00     0.202 C 
BRANCH   4   5
ATOM      5  C   UNL     1       4.540   0.994  -0.926  1.00  0.00     0.261 C 
BRANCH   5   6
ATOM      6  O   UNL     1       3.170   1.363  -0.801  1.00  0.00    -0.460 OA
BRANCH   6   7
ATOM      7  C   UNL     1       2.046   0.769  -1.251  1.00  0.00     0.338 C 
ATOM      8  O   UNL     1       0.973   1.305  -0.974  1.00  0.00    -0.246 OA
BRANCH   7   9
ATOM      9  C   UNL     1       2.010  -0.546  -1.952  1.00  0.00     0.060 A 
ATOM     10  C   UNL     1       3.082  -1.167  -2.590  1.00  0.00     0.016 A 
ATOM     11  C   UNL     1       0.753  -1.186  -1.978  1.00  0.00     0.016 A 
ATOM     12  C   UNL     1       2.887  -2.325  -3.328  1.00  0.00     0.010 A 
ATOM     13  C   UNL     1       0.557  -2.357  -2.700  1.00  0.00     0.010 A 
ATOM     14  C   UNL     1       1.615  -2.882  -3.432  1.00  0.00    -0.014 A 
BRANCH  14  15
ATOM     15  C   UNL     1       1.453  -3.944  -4.415  1.00  0.00     0.031 A 
ATOM     16  C   UNL     1       2.232  -5.194  -4.214  1.00  0.00     0.074 A 
ATOM     17  C   UNL     1       0.655  -3.798  -5.489  1.00  0.00     0.049 A 
ATOM     18  N   UNL     1       3.180  -5.679  -4.952  1.00  0.00    -0.248 NA
ATOM     19  C   UNL     1       1.955  -5.975  -3.002  1.00  0.00     0.031 C 
ATOM     20  C   UNL     1      -0.363  -2.771  -5.731  1.00  0.00     0.029 A 
ATOM     21  N   UNL     1       0.541  -4.614  -6.572  1.00  0.00    -0.354 N 
ATOM     22  C   UNL     1       3.495  -6.922  -4.407  1.00  0.00     0.074 A 
ATOM     23  C   UNL     1       2.789  -7.005  -3.153  1.00  0.00     0.031 C 
ATOM     24  C   UNL     1      -1.133  -3.150  -6.773  1.00  0.00     0.029 A 
ATOM     25  C   UNL     1      -0.571  -4.356  -7.354  1.00  0.00     0.049 A 
ATOM     26  H   UNL     1       1.190  -5.324  -6.780  1.00  0.00     0.167 HD
ATOM     27  C   UNL     1       4.181  -7.875  -5.099  1.00  0.00     0.037 A 
ATOM     28  C   UNL     1      -1.040  -5.122  -8.365  1.00  0.00     0.037 A 
ATOM     29  C   UNL     1       4.890  -7.328  -6.223  1.00  0.00     0.049 A 
ATOM     30  C   UNL     1       0.086  -5.952  -8.864  1.00  0.00     0.074 A 
ATOM     31  C   UNL     1       5.897  -6.396  -6.379  1.00  0.00     0.029 A 
ATOM     32  N   UNL     1       4.383  -7.537  -7.481  1.00  0.00    -0.354 N 
ATOM     33  N   UNL     1       1.132  -5.478  -9.486  1.00  0.00    -0.248 NA
ATOM     34  C   UNL     1       0.234  -7.301  -8.339  1.00  0.00     0.031 C 
ATOM     35  C   UNL     1       5.625  -5.754  -7.621  1.00  0.00     0.029 A 
ATOM     36  C   UNL     1       4.478  -6.346  -8.153  1.00  0.00     0.049 A 
ATOM     37  H   UNL     1       4.020  -8.382  -7.834  1.00  0.00     0.167 HD
ATOM     38  C   UNL     1       2.183  -6.294  -9.095  1.00  0.00     0.074 A 
ATOM     39  C   UNL     1       1.550  -7.459  -8.486  1.00  0.00     0.031 C 
ATOM     40  C   UNL     1       3.468  -5.837  -9.058  1.00  0.00     0.037 A 
BRANCH  27  41
ATOM     41  C   UNL     1       3.978  -9.359  -4.922  1.00  0.00     0.058 A 
ATOM     42  C   UNL     1       4.902 -10.272  -5.472  1.00  0.00     0.135 A 
ATOM     43  C   UNL     1       2.761  -9.918  -4.471  1.00  0.00     0.135 A 
ATOM     44  F   UNL     1       6.082  -9.845  -5.950  1.00  0.00    -0.206 F 
ATOM     45  C   UNL     1       4.613 -11.630  -5.618  1.00  0.00     0.059 A 
ATOM     46  C   UNL     1       2.475 -11.275  -4.558  1.00  0.00     0.059 A 
ATOM     47  F   UNL     1       1.760  -9.153  -4.016  1.00  0.00    -0.206 F 
ATOM     48  C   UNL     1       3.387 -12.117  -5.175  1.00  0.00     0.060 A 
BRANCH  48  49
ATOM     49  S   UNL     1       2.953 -13.840  -5.479  1.00  0.00     0.124 S 
ATOM     50  O   UNL     1       2.692 -13.821  -6.914  1.00  0.00    -0.237 OA
ATOM     51  O   UNL     1       4.161 -14.541  -5.058  1.00  0.00    -0.237 OA
ATOM     52  O   UNL     1       1.786 -14.046  -4.626  1.00  0.00    -0.744 OA
ENDBRANCH  48  49
ENDBRANCH  27  41
BRANCH  28  53
ATOM     53  C   UNL     1      -2.464  -5.412  -8.659  1.00  0.00     0.058 A 
ATOM     54  C   UNL     1      -2.852  -5.994  -9.876  1.00  0.00     0.135 A 
ATOM     55  C   UNL     1      -3.447  -5.364  -7.647  1.00  0.00     0.135 A 
ATOM     56  F   UNL     1      -1.970  -6.106 -10.881  1.00  0.00    -0.206 F 
ATOM     57  C   UNL     1      -4.127  -6.533 -10.066  1.00  0.00     0.059 A 
ATOM     58  C   UNL     1      -4.728  -5.878  -7.819  1.00  0.00     0.059 A 
ATOM     59  F   UNL     1      -3.162  -4.896  -6.422  1.00  0.00    -0.206 F 
ATOM     60  C   UNL     1      -5.054  -6.485  -9.024  1.00  0.00     0.060 A 
BRANCH  60  61
ATOM     61  S   UNL     1      -6.641  -7.329  -9.206  1.00  0.00     0.124 S 
ATOM     62  O   UNL     1      -7.320  -6.483 -10.181  1.00  0.00    -0.237 OA
ATOM     63  O   UNL     1      -6.235  -8.648  -9.677  1.00  0.00    -0.237 OA
ATOM     64  O   UNL     1      -7.198  -7.296  -7.856  1.00  0.00    -0.744 OA
ENDBRANCH  60  61
ENDBRANCH  28  53
BRANCH  40  65
ATOM     65  C   UNL     1       3.797  -4.549  -9.765  1.00  0.00     0.058 A 
ATOM     66  C   UNL     1       3.312  -3.292  -9.364  1.00  0.00     0.135 A 
ATOM     67  C   UNL     1       4.793  -4.567 -10.755  1.00  0.00     0.135 A 
ATOM     68  F   UNL     1       2.434  -3.183  -8.356  1.00  0.00    -0.206 F 
ATOM     69  C   UNL     1       3.783  -2.108  -9.934  1.00  0.00     0.059 A 
ATOM     70  C   UNL     1       5.298  -3.397 -11.318  1.00  0.00     0.059 A 
ATOM     71  F   UNL     1       5.340  -5.734 -11.137  1.00  0.00    -0.206 F 
ATOM     72  C   UNL     1       4.786  -2.169 -10.903  1.00  0.00     0.060 A 
BRANCH  72  73
ATOM     73  S   UNL     1       5.495  -0.630 -11.530  1.00  0.00     0.124 S 
ATOM     74  O   UNL     1       4.455  -0.159 -12.437  1.00  0.00    -0.237 OA
ATOM     75  O   UNL     1       5.678   0.156 -10.312  1.00  0.00    -0.237 OA
ATOM     76  O   UNL     1       6.735  -1.062 -12.170  1.00  0.00    -0.744 OA
ENDBRANCH  72  73
ENDBRANCH  40  65
ENDBRANCH  14  15
ENDBRANCH   7   9
ENDBRANCH   6   7
ENDBRANCH   5   6
ENDBRANCH   4   5
ENDBRANCH   3   4
ENDBRANCH   2   3
ENDBRANCH   1   2
BRANCH   1  77
ATOM     77  O   UNL     1       3.041   0.643   3.275  1.00  0.00    -0.377 OA
BRANCH  77  78
ATOM     78  C   UNL     1       4.375   1.109   3.327  1.00  0.00     0.188 C 
BRANCH  78  79
ATOM     79  C   UNL     1       5.432   0.068   3.732  1.00  0.00     0.188 C 
BRANCH  79  80
ATOM     80  O   UNL     1       5.187  -0.941   4.710  1.00  0.00    -0.376 OA
BRANCH  80  81
ATOM     81  C   UNL     1       3.862  -1.314   5.045  1.00  0.00     0.202 C 
BRANCH  81  82
ATOM     82  C   UNL     1       3.305  -0.520   6.233  1.00  0.00     0.261 C 
BRANCH  82  83
ATOM     83  O   UNL     1       3.682   0.867   6.228  1.00  0.00    -0.458 OA
BRANCH  83  84
ATOM     84  C   UNL     1       4.894   1.146   6.793  1.00  0.00     0.361 C 
ATOM     85  O   UNL     1       5.571   0.336   7.418  1.00  0.00    -0.244 OA
BRANCH  84  86
ATOM     86  C   UNL     1       5.329   2.517   6.551  1.00  0.00     0.198 A 
ATOM     87  N   UNL     1       6.667   2.812   6.429  1.00  0.00    -0.122 NA
ATOM     88  C   UNL     1       4.596   3.681   6.326  1.00  0.00     0.123 A 
ATOM     89  N   UNL     1       6.788   4.101   6.161  1.00  0.00    -0.061 NA
ATOM     90  N   UNL     1       5.572   4.668   6.325  1.00  0.00    -0.213 N 
BRANCH  88  91
ATOM     91  C   UNL     1       3.139   3.922   6.047  1.00  0.00     0.262 C 
ATOM     92  C   UNL     1       2.852   4.438   4.627  1.00  0.00     0.281 C 
ATOM     93  O   UNL     1       2.564   4.736   7.077  1.00  0.00    -0.477 OA
ATOM     94  O   UNL     1       3.211   5.812   4.469  1.00  0.00    -0.485 OA
ATOM     95  C   UNL     1       2.269   6.020   6.694  1.00  0.00     0.162 A 
ATOM     96  C   UNL     1       2.615   6.557   5.451  1.00  0.00     0.161 A 
ATOM     97  C   UNL     1       1.665   6.833   7.652  1.00  0.00     0.050 A 
ATOM     98  C   UNL     1       2.421   7.910   5.187  1.00  0.00     0.050 A 
ATOM     99  C   UNL     1       1.445   8.184   7.380  1.00  0.00     0.004 A 
ATOM    100  C   UNL     1       1.834   8.726   6.154  1.00  0.00     0.004 A 
ENDBRANCH  88  91
BRANCH  90 101
ATOM    101  C   UNL     1       5.538   5.930   6.948  1.00  0.00     0.067 A 
ATOM    102  C   UNL     1       5.932   7.065   6.241  1.00  0.00     0.028 A 
ATOM    103  C   UNL     1       5.191   6.001   8.304  1.00  0.00     0.041 A 
ATOM    104  C   UNL     1       5.891   8.303   6.881  1.00  0.00     0.003 A 
ATOM    105  C   UNL     1       5.206   7.235   8.964  1.00  0.00     0.058 A 
ATOM    106  C   UNL     1       5.529   8.389   8.230  1.00  0.00     0.013 A 
BRANCH 105 107
ATOM    107  C   UNL     1       4.875   7.324  10.431  1.00  0.00     0.416 C 
ATOM    108  F   UNL     1       5.755   8.103  11.121  1.00  0.00    -0.166 F 
ATOM    109  F   UNL     1       3.645   7.860  10.659  1.00  0.00    -0.166 F 
ATOM    110  F   UNL     1       4.878   6.117  11.064  1.00  0.00    -0.166 F 
ENDBRANCH 105 107
ENDBRANCH  90 101
ENDBRANCH  84  86
ENDBRANCH  83  84
ENDBRANCH  82  83
ENDBRANCH  81  82
ENDBRANCH  80  81
ENDBRANCH  79  80
ENDBRANCH  78  79
ENDBRANCH  77  78
ENDBRANCH   1  77
TORSDOF 26
