REMARK SMILES O=C(Cc1ccccc1Nc1c(Cl)cccc1C(F)(F)F)OCCOCCOCCOCCOC(=O)c1ccc(-c2c3nc(c(-c4c(F)cc(S(=O)(=O)[O-])cc4F)c4ccc([nH]4)c(-c4c(F)cc(S(=O)(=O)[O-])cc4F)c4nc(c(-c5c(F)cc(S(=O)(=O)[O-])cc5F)c5ccc2[nH]5)C=C4)C=C3)cc1
REMARK SMILES IDX 27 1 26 2 25 3 24 4 23 5 22 6 2 7 1 8 3 9 4 10 5 11 9 12
REMARK SMILES IDX 6 13 8 14 7 15 10 16 11 18 12 19 17 20 13 21 14 22 16 23
REMARK SMILES IDX 15 24 18 25 19 26 20 27 21 28 28 29 29 30 30 31 31 32 32 33
REMARK SMILES IDX 33 34 34 35 35 36 36 37 37 38 38 39 102 40 39 41 101 42
REMARK SMILES IDX 40 43 41 44 42 45 95 46 43 47 100 48 94 49 96 50 44 51 99 52
REMARK SMILES IDX 93 53 92 54 45 56 79 57 58 58 78 59 59 60 62 61 77 62 97 63
REMARK SMILES IDX 60 64 61 65 76 67 98 68 63 69 46 70 47 71 56 72 48 73 49 74
REMARK SMILES IDX 55 75 57 76 50 77 51 78 52 79 53 80 54 81 80 82 81 83 90 84
REMARK SMILES IDX 82 85 83 86 89 87 91 88 84 89 85 90 86 91 87 92 88 93 64 94
REMARK SMILES IDX 65 95 74 96 66 97 67 98 73 99 75 100 68 101 69 102 70 103
REMARK SMILES IDX 71 104 72 105
REMARK H PARENT 10 17 96 55 62 66
REMARK Flexibility Score: inf
ROOT
ATOM      1  C   UNL     1       1.732   2.329   0.925  1.00  0.00     0.188 C 
ENDROOT
BRANCH   1   2
ATOM      2  C   UNL     1       2.344   1.064   1.505  1.00  0.00     0.188 C 
BRANCH   2   3
ATOM      3  O   UNL     1       3.716   0.830   1.233  1.00  0.00    -0.376 OA
BRANCH   3   4
ATOM      4  C   UNL     1       4.257   0.967  -0.070  1.00  0.00     0.202 C 
BRANCH   4   5
ATOM      5  C   UNL     1       3.489   0.470  -1.285  1.00  0.00     0.261 C 
BRANCH   5   6
ATOM      6  O   UNL     1       2.342  -0.341  -1.028  1.00  0.00    -0.463 OA
BRANCH   6   7
ATOM      7  C   UNL     1       2.428  -1.662  -0.751  1.00  0.00     0.310 C 
ATOM      8  O   UNL     1       1.521  -2.415  -1.106  1.00  0.00    -0.252 OA
BRANCH   7   9
ATOM      9  C   UNL     1       3.522  -2.133   0.180  1.00  0.00     0.160 C 
BRANCH   9  10
ATOM     10  C   UNL     1       4.426  -3.187  -0.404  1.00  0.00    -0.013 A 
ATOM     11  C   UNL     1       3.913  -4.491  -0.499  1.00  0.00     0.006 A 
ATOM     12  C   UNL     1       5.734  -2.909  -0.861  1.00  0.00     0.042 A 
ATOM     13  C   UNL     1       4.692  -5.521  -1.010  1.00  0.00     0.000 A 
ATOM     14  C   UNL     1       6.505  -3.961  -1.366  1.00  0.00     0.026 A 
ATOM     15  C   UNL     1       5.988  -5.256  -1.440  1.00  0.00     0.002 A 
BRANCH  12  16
ATOM     16  N   UNL     1       6.315  -1.642  -0.661  1.00  0.00    -0.354 N 
ATOM     17  H   UNL     1       6.096  -1.248   0.214  1.00  0.00     0.167 HD
BRANCH  16  18
ATOM     18  C   UNL     1       7.151  -0.813  -1.456  1.00  0.00     0.070 A 
ATOM     19  C   UNL     1       8.070   0.037  -0.773  1.00  0.00     0.065 A 
ATOM     20  C   UNL     1       7.077  -0.699  -2.858  1.00  0.00     0.080 A 
ATOM     21  Cl  UNL     1       8.191  -0.011   0.959  1.00  0.00    -0.082 Cl
ATOM     22  C   UNL     1       8.891   0.947  -1.442  1.00  0.00     0.023 A 
ATOM     23  C   UNL     1       7.933   0.223  -3.517  1.00  0.00     0.015 A 
ATOM     24  C   UNL     1       8.824   1.039  -2.822  1.00  0.00     0.002 A 
BRANCH  20  25
ATOM     25  C   UNL     1       6.126  -1.474  -3.744  1.00  0.00     0.418 C 
ATOM     26  F   UNL     1       5.836  -0.798  -4.896  1.00  0.00    -0.166 F 
ATOM     27  F   UNL     1       6.648  -2.664  -4.148  1.00  0.00    -0.166 F 
ATOM     28  F   UNL     1       4.911  -1.741  -3.198  1.00  0.00    -0.166 F 
ENDBRANCH  20  25
ENDBRANCH  16  18
ENDBRANCH  12  16
ENDBRANCH   9  10
ENDBRANCH   7   9
ENDBRANCH   6   7
ENDBRANCH   5   6
ENDBRANCH   4   5
ENDBRANCH   3   4
ENDBRANCH   2   3
ENDBRANCH   1   2
BRANCH   1  29
ATOM     29  O   UNL     1       2.200   3.500   1.574  1.00  0.00    -0.377 OA
BRANCH  29  30
ATOM     30  C   UNL     1       3.505   3.918   1.211  1.00  0.00     0.188 C 
BRANCH  30  31
ATOM     31  C   UNL     1       4.668   3.498   2.146  1.00  0.00     0.188 C 
BRANCH  31  32
ATOM     32  O   UNL     1       4.486   3.253   3.536  1.00  0.00    -0.376 OA
BRANCH  32  33
ATOM     33  C   UNL     1       3.355   3.774   4.205  1.00  0.00     0.202 C 
BRANCH  33  34
ATOM     34  C   UNL     1       3.309   5.291   4.426  1.00  0.00     0.261 C 
BRANCH  34  35
ATOM     35  O   UNL     1       3.559   6.070   3.248  1.00  0.00    -0.460 OA
BRANCH  35  36
ATOM     36  C   UNL     1       4.825   6.535   3.097  1.00  0.00     0.338 C 
ATOM     37  O   UNL     1       5.738   6.450   3.902  1.00  0.00    -0.246 OA
BRANCH  36  38
ATOM     38  C   UNL     1       5.014   6.983   1.693  1.00  0.00     0.060 A 
ATOM     39  C   UNL     1       6.189   6.598   1.024  1.00  0.00     0.016 A 
ATOM     40  C   UNL     1       4.031   7.710   1.016  1.00  0.00     0.016 A 
ATOM     41  C   UNL     1       6.401   6.969  -0.306  1.00  0.00     0.010 A 
ATOM     42  C   UNL     1       4.254   8.105  -0.305  1.00  0.00     0.010 A 
ATOM     43  C   UNL     1       5.457   7.773  -0.955  1.00  0.00    -0.014 A 
BRANCH  43  44
ATOM     44  C   UNL     1       5.838   8.540  -2.166  1.00  0.00     0.031 A 
ATOM     45  C   UNL     1       6.399   9.918  -1.944  1.00  0.00     0.074 A 
ATOM     46  C   UNL     1       5.643   8.076  -3.412  1.00  0.00     0.049 A 
ATOM     47  N   UNL     1       6.639  10.869  -2.806  1.00  0.00    -0.248 NA
ATOM     48  C   UNL     1       6.710  10.272  -0.549  1.00  0.00     0.031 C 
ATOM     49  C   UNL     1       5.149   6.747  -3.756  1.00  0.00     0.029 A 
ATOM     50  N   UNL     1       5.808   8.703  -4.623  1.00  0.00    -0.354 N 
ATOM     51  C   UNL     1       7.097  11.944  -2.053  1.00  0.00     0.074 A 
ATOM     52  C   UNL     1       7.093  11.531  -0.668  1.00  0.00     0.031 C 
ATOM     53  C   UNL     1       5.008   6.671  -5.093  1.00  0.00     0.029 A 
ATOM     54  C   UNL     1       5.362   7.960  -5.689  1.00  0.00     0.049 A 
ATOM     55  H   UNL     1       6.206   9.599  -4.718  1.00  0.00     0.167 HD
ATOM     56  C   UNL     1       7.477  13.172  -2.476  1.00  0.00     0.037 A 
ATOM     57  C   UNL     1       5.214   8.300  -6.987  1.00  0.00     0.037 A 
ATOM     58  C   UNL     1       7.463  13.582  -3.851  1.00  0.00     0.049 A 
ATOM     59  C   UNL     1       5.595   9.688  -7.440  1.00  0.00     0.074 A 
ATOM     60  C   UNL     1       7.846  14.795  -4.391  1.00  0.00     0.029 A 
ATOM     61  N   UNL     1       7.024  12.791  -4.904  1.00  0.00    -0.354 N 
ATOM     62  N   UNL     1       6.052  10.691  -6.727  1.00  0.00    -0.248 NA
ATOM     63  C   UNL     1       5.439   9.992  -8.870  1.00  0.00     0.031 C 
ATOM     64  C   UNL     1       7.593  14.755  -5.767  1.00  0.00     0.029 A 
ATOM     65  C   UNL     1       7.104  13.498  -6.090  1.00  0.00     0.049 A 
ATOM     66  H   UNL     1       6.702  11.865  -4.819  1.00  0.00     0.167 HD
ATOM     67  C   UNL     1       6.262  11.735  -7.624  1.00  0.00     0.074 A 
ATOM     68  C   UNL     1       5.882  11.242  -8.932  1.00  0.00     0.031 C 
ATOM     69  C   UNL     1       6.734  12.985  -7.387  1.00  0.00     0.037 A 
BRANCH  56  70
ATOM     70  C   UNL     1       7.875  14.161  -1.418  1.00  0.00     0.058 A 
ATOM     71  C   UNL     1       9.062  14.022  -0.679  1.00  0.00     0.135 A 
ATOM     72  C   UNL     1       7.030  15.238  -1.106  1.00  0.00     0.135 A 
ATOM     73  F   UNL     1       9.892  12.994  -0.920  1.00  0.00    -0.206 F 
ATOM     74  C   UNL     1       9.372  14.887   0.364  1.00  0.00     0.059 A 
ATOM     75  C   UNL     1       7.335  16.133  -0.086  1.00  0.00     0.059 A 
ATOM     76  F   UNL     1       5.881  15.412  -1.777  1.00  0.00    -0.206 F 
ATOM     77  C   UNL     1       8.496  15.933   0.660  1.00  0.00     0.060 A 
BRANCH  77  78
ATOM     78  S   UNL     1       8.885  17.022   2.045  1.00  0.00     0.124 S 
ATOM     79  O   UNL     1       8.545  16.175   3.183  1.00  0.00    -0.237 OA
ATOM     80  O   UNL     1      10.309  17.280   1.851  1.00  0.00    -0.237 OA
ATOM     81  O   UNL     1       8.009  18.169   1.831  1.00  0.00    -0.744 OA
ENDBRANCH  77  78
ENDBRANCH  56  70
BRANCH  57  82
ATOM     82  C   UNL     1       4.649   7.310  -7.941  1.00  0.00     0.058 A 
ATOM     83  C   UNL     1       5.457   6.681  -8.898  1.00  0.00     0.135 A 
ATOM     84  C   UNL     1       3.296   6.938  -7.881  1.00  0.00     0.135 A 
ATOM     85  F   UNL     1       6.752   7.015  -9.007  1.00  0.00    -0.206 F 
ATOM     86  C   UNL     1       4.949   5.707  -9.754  1.00  0.00     0.059 A 
ATOM     87  C   UNL     1       2.770   5.952  -8.710  1.00  0.00     0.059 A 
ATOM     88  F   UNL     1       2.482   7.508  -6.979  1.00  0.00    -0.206 F 
ATOM     89  C   UNL     1       3.607   5.340  -9.642  1.00  0.00     0.060 A 
BRANCH  89  90
ATOM     90  S   UNL     1       2.988   3.997 -10.681  1.00  0.00     0.124 S 
ATOM     91  O   UNL     1       2.928   4.640 -11.989  1.00  0.00    -0.237 OA
ATOM     92  O   UNL     1       4.025   2.983 -10.514  1.00  0.00    -0.237 OA
ATOM     93  O   UNL     1       1.700   3.672 -10.076  1.00  0.00    -0.744 OA
ENDBRANCH  89  90
ENDBRANCH  57  82
BRANCH  69  94
ATOM     94  C   UNL     1       6.918  13.907  -8.560  1.00  0.00     0.058 A 
ATOM     95  C   UNL     1       5.833  14.543  -9.180  1.00  0.00     0.135 A 
ATOM     96  C   UNL     1       8.212  14.242  -8.994  1.00  0.00     0.135 A 
ATOM     97  F   UNL     1       4.577  14.255  -8.806  1.00  0.00    -0.206 F 
ATOM     98  C   UNL     1       6.024  15.480 -10.192  1.00  0.00     0.059 A 
ATOM     99  C   UNL     1       8.427  15.193  -9.987  1.00  0.00     0.059 A 
ATOM    100  F   UNL     1       9.285  13.669  -8.425  1.00  0.00    -0.206 F 
ATOM    101  C   UNL     1       7.325  15.805 -10.582  1.00  0.00     0.060 A 
BRANCH 101 102
ATOM    102  S   UNL     1       7.562  17.073 -11.846  1.00  0.00     0.124 S 
ATOM    103  O   UNL     1       7.170  16.359 -13.056  1.00  0.00    -0.237 OA
ATOM    104  O   UNL     1       6.652  18.126 -11.407  1.00  0.00    -0.237 OA
ATOM    105  O   UNL     1       8.982  17.397 -11.740  1.00  0.00    -0.744 OA
ENDBRANCH 101 102
ENDBRANCH  69  94
ENDBRANCH  43  44
ENDBRANCH  36  38
ENDBRANCH  35  36
ENDBRANCH  34  35
ENDBRANCH  33  34
ENDBRANCH  32  33
ENDBRANCH  31  32
ENDBRANCH  30  31
ENDBRANCH  29  30
ENDBRANCH   1  29
TORSDOF 27
