REMARK SMILES NS(=O)(=O)c1ccc(-n2nc(C(=O)OCCOCCOCCOCCOC(=O)c3ccc(-c4c5nc(c(-c6c(F)cc(S(=O)(=O)[O-])cc6F)c6ccc([nH]6)c(-c6c(F)cc(S(=O)(=O)[O-])cc6F)c6nc(c(-c7c(F)cc(S(=O)(=O)[O-])cc7F)c7ccc4[nH]7)C=C6)C=C5)cc3)cc2-c2ccc(Cl)s2)cc1
REMARK SMILES IDX 20 1 19 2 18 3 17 4 16 5 15 6 14 7 12 8 13 9 11 10 9 11
REMARK SMILES IDX 10 12 96 13 95 14 8 15 5 16 6 17 104 18 7 19 103 20 2 21
REMARK SMILES IDX 3 22 4 23 1 24 97 27 98 28 102 29 99 30 100 31 101 32 21 33
REMARK SMILES IDX 22 34 23 35 24 36 25 37 26 38 27 39 28 40 29 41 30 42 94 43
REMARK SMILES IDX 31 44 93 45 32 46 33 47 34 48 87 49 35 50 92 51 86 52 88 53
REMARK SMILES IDX 36 54 91 55 85 56 84 57 37 59 71 60 50 61 70 62 51 63 54 64
REMARK SMILES IDX 69 65 89 66 52 67 53 68 68 70 90 71 55 72 38 73 39 74 48 75
REMARK SMILES IDX 40 76 41 77 47 78 49 79 42 80 43 81 44 82 45 83 46 84 72 85
REMARK SMILES IDX 73 86 82 87 74 88 75 89 81 90 83 91 76 92 77 93 78 94 79 95
REMARK SMILES IDX 80 96 56 97 57 98 66 99 58 100 59 101 65 102 67 103 60 104
REMARK SMILES IDX 61 105 62 106 63 107 64 108
REMARK H PARENT 1 25 1 26 88 58 54 69
REMARK Flexibility Score: inf
ROOT
ATOM      1  O   UNL     1       2.715   4.923 -10.099  1.00  0.00    -0.377 OA
ENDROOT
BRANCH   1   2
ATOM      2  C   UNL     1       2.592   4.726  -8.701  1.00  0.00     0.188 C 
BRANCH   2   3
ATOM      3  C   UNL     1       3.913   4.907  -7.917  1.00  0.00     0.188 C 
BRANCH   3   4
ATOM      4  O   UNL     1       5.075   5.463  -8.518  1.00  0.00    -0.376 OA
BRANCH   4   5
ATOM      5  C   UNL     1       5.510   5.140  -9.826  1.00  0.00     0.202 C 
BRANCH   5   6
ATOM      6  C   UNL     1       5.486   3.719 -10.415  1.00  0.00     0.261 C 
BRANCH   6   7
ATOM      7  O   UNL     1       4.534   2.807  -9.878  1.00  0.00    -0.458 OA
BRANCH   7   8
ATOM      8  C   UNL     1       4.935   2.115  -8.777  1.00  0.00     0.358 C 
ATOM      9  O   UNL     1       6.074   2.118  -8.325  1.00  0.00    -0.244 OA
BRANCH   8  10
ATOM     10  C   UNL     1       3.792   1.438  -8.149  1.00  0.00     0.171 A 
ATOM     11  N   UNL     1       2.462   0.725  -6.633  1.00  0.00    -0.231 N 
ATOM     12  N   UNL     1       3.580   1.461  -6.819  1.00  0.00    -0.160 NA
ATOM     13  C   UNL     1       1.943   0.247  -7.824  1.00  0.00     0.085 A 
ATOM     14  C   UNL     1       2.737   0.773  -8.818  1.00  0.00     0.068 A 
BRANCH  11  15
ATOM     15  C   UNL     1       2.096   0.341  -5.325  1.00  0.00     0.065 A 
ATOM     16  C   UNL     1       1.182  -0.494  -2.849  1.00  0.00     0.082 A 
ATOM     17  C   UNL     1       1.732  -1.429  -3.732  1.00  0.00     0.024 A 
ATOM     18  C   UNL     1       1.111   0.864  -3.188  1.00  0.00     0.024 A 
ATOM     19  C   UNL     1       2.179  -1.013  -4.981  1.00  0.00     0.030 A 
ATOM     20  C   UNL     1       1.594   1.292  -4.429  1.00  0.00     0.030 A 
BRANCH  16  21
ATOM     21  S   UNL     1       0.589  -1.063  -1.285  1.00  0.00     0.238 S 
ATOM     22  O   UNL     1       1.189  -2.338  -0.984  1.00  0.00    -0.207 OA
ATOM     23  O   UNL     1      -0.840  -0.839  -1.221  1.00  0.00    -0.207 OA
BRANCH  21  24
ATOM     24  N   UNL     1       1.282   0.009  -0.195  1.00  0.00    -0.225 NA
ATOM     25  H   UNL     1       0.997  -0.237   0.753  1.00  0.00     0.137 HD
ATOM     26  H   UNL     1       0.973   0.958  -0.408  1.00  0.00     0.137 HD
ENDBRANCH  21  24
ENDBRANCH  16  21
ENDBRANCH  11  15
BRANCH  13  27
ATOM     27  C   UNL     1       0.832  -0.647  -7.961  1.00  0.00     0.054 A 
ATOM     28  C   UNL     1       0.829  -1.807  -8.713  1.00  0.00     0.024 A 
ATOM     29  S   UNL     1      -0.677  -0.400  -7.186  1.00  0.00    -0.122 S 
ATOM     30  C   UNL     1      -0.387  -2.537  -8.576  1.00  0.00     0.033 A 
ATOM     31  C   UNL     1      -1.267  -1.877  -7.759  1.00  0.00     0.094 A 
ATOM     32  Cl  UNL     1      -2.830  -2.415  -7.298  1.00  0.00    -0.072 Cl
ENDBRANCH  13  27
ENDBRANCH   8  10
ENDBRANCH   7   8
ENDBRANCH   6   7
ENDBRANCH   5   6
ENDBRANCH   4   5
ENDBRANCH   3   4
ENDBRANCH   2   3
ENDBRANCH   1   2
BRANCH   1  33
ATOM     33  C   UNL     1       2.392   6.225 -10.586  1.00  0.00     0.188 C 
BRANCH  33  34
ATOM     34  C   UNL     1       2.886   7.468  -9.802  1.00  0.00     0.188 C 
BRANCH  34  35
ATOM     35  O   UNL     1       2.856   7.332  -8.390  1.00  0.00    -0.376 OA
BRANCH  35  36
ATOM     36  C   UNL     1       1.881   7.950  -7.573  1.00  0.00     0.202 C 
BRANCH  36  37
ATOM     37  C   UNL     1       0.414   7.600  -7.784  1.00  0.00     0.261 C 
BRANCH  37  38
ATOM     38  O   UNL     1       0.049   7.433  -9.137  1.00  0.00    -0.460 OA
BRANCH  38  39
ATOM     39  C   UNL     1      -0.022   8.584  -9.832  1.00  0.00     0.338 C 
ATOM     40  O   UNL     1       0.493   9.650  -9.549  1.00  0.00    -0.246 OA
BRANCH  39  41
ATOM     41  C   UNL     1      -0.987   8.386 -10.910  1.00  0.00     0.060 A 
ATOM     42  C   UNL     1      -1.133   9.444 -11.804  1.00  0.00     0.016 A 
ATOM     43  C   UNL     1      -1.943   7.366 -10.776  1.00  0.00     0.016 A 
ATOM     44  C   UNL     1      -2.363   9.612 -12.387  1.00  0.00     0.010 A 
ATOM     45  C   UNL     1      -3.177   7.551 -11.338  1.00  0.00     0.010 A 
ATOM     46  C   UNL     1      -3.392   8.717 -12.064  1.00  0.00    -0.014 A 
BRANCH  46  47
ATOM     47  C   UNL     1      -4.680   8.922 -12.682  1.00  0.00     0.031 A 
ATOM     48  C   UNL     1      -4.607   8.583 -14.116  1.00  0.00     0.074 A 
ATOM     49  C   UNL     1      -5.778   9.285 -11.993  1.00  0.00     0.049 A 
ATOM     50  N   UNL     1      -4.521   9.415 -15.098  1.00  0.00    -0.248 NA
ATOM     51  C   UNL     1      -4.299   7.189 -14.488  1.00  0.00     0.031 C 
ATOM     52  C   UNL     1      -5.926   9.389 -10.538  1.00  0.00     0.029 A 
ATOM     53  N   UNL     1      -7.034   9.557 -12.445  1.00  0.00    -0.354 N 
ATOM     54  C   UNL     1      -4.498   8.614 -16.232  1.00  0.00     0.074 A 
ATOM     55  C   UNL     1      -4.071   7.314 -15.797  1.00  0.00     0.031 C 
ATOM     56  C   UNL     1      -7.240   9.472 -10.226  1.00  0.00     0.029 A 
ATOM     57  C   UNL     1      -8.013   9.563 -11.454  1.00  0.00     0.049 A 
ATOM     58  H   UNL     1      -7.233   9.734 -13.393  1.00  0.00     0.167 HD
ATOM     59  C   UNL     1      -5.234   8.980 -17.315  1.00  0.00     0.037 A 
ATOM     60  C   UNL     1      -9.357   9.600 -11.649  1.00  0.00     0.037 A 
ATOM     61  C   UNL     1      -5.590  10.377 -17.227  1.00  0.00     0.049 A 
ATOM     62  C   UNL     1      -9.576  10.166 -13.003  1.00  0.00     0.074 A 
ATOM     63  C   UNL     1      -4.918  11.580 -17.262  1.00  0.00     0.029 A 
ATOM     64  N   UNL     1      -6.800  10.601 -16.621  1.00  0.00    -0.354 N 
ATOM     65  N   UNL     1      -9.295  11.402 -13.315  1.00  0.00    -0.248 NA
ATOM     66  C   UNL     1      -9.743   9.263 -14.136  1.00  0.00     0.031 C 
ATOM     67  C   UNL     1      -5.692  12.488 -16.481  1.00  0.00     0.029 A 
ATOM     68  C   UNL     1      -6.843  11.837 -16.038  1.00  0.00     0.049 A 
ATOM     69  H   UNL     1      -7.542   9.955 -16.608  1.00  0.00     0.167 HD
ATOM     70  C   UNL     1      -8.820  11.331 -14.610  1.00  0.00     0.074 A 
ATOM     71  C   UNL     1      -9.281  10.044 -15.116  1.00  0.00     0.031 C 
ATOM     72  C   UNL     1      -7.824  12.168 -15.026  1.00  0.00     0.037 A 
BRANCH  59  73
ATOM     73  C   UNL     1      -6.082   8.008 -18.114  1.00  0.00     0.058 A 
ATOM     74  C   UNL     1      -6.745   8.480 -19.265  1.00  0.00     0.135 A 
ATOM     75  C   UNL     1      -6.512   6.742 -17.648  1.00  0.00     0.135 A 
ATOM     76  F   UNL     1      -6.440   9.680 -19.784  1.00  0.00    -0.206 F 
ATOM     77  C   UNL     1      -7.787   7.774 -19.872  1.00  0.00     0.059 A 
ATOM     78  C   UNL     1      -7.509   6.001 -18.267  1.00  0.00     0.059 A 
ATOM     79  F   UNL     1      -6.065   6.191 -16.516  1.00  0.00    -0.206 F 
ATOM     80  C   UNL     1      -8.163   6.536 -19.360  1.00  0.00     0.060 A 
BRANCH  80  81
ATOM     81  S   UNL     1      -9.527   5.634 -20.108  1.00  0.00     0.124 S 
ATOM     82  O   UNL     1     -10.663   6.474 -19.750  1.00  0.00    -0.237 OA
ATOM     83  O   UNL     1      -9.146   5.632 -21.517  1.00  0.00    -0.237 OA
ATOM     84  O   UNL     1      -9.468   4.332 -19.449  1.00  0.00    -0.744 OA
ENDBRANCH  80  81
ENDBRANCH  59  73
BRANCH  60  85
ATOM     85  C   UNL     1     -10.454   8.950 -10.880  1.00  0.00     0.058 A 
ATOM     86  C   UNL     1     -11.805   9.260 -11.133  1.00  0.00     0.135 A 
ATOM     87  C   UNL     1     -10.222   7.796 -10.106  1.00  0.00     0.135 A 
ATOM     88  F   UNL     1     -12.124  10.337 -11.867  1.00  0.00    -0.206 F 
ATOM     89  C   UNL     1     -12.856   8.437 -10.711  1.00  0.00     0.059 A 
ATOM     90  C   UNL     1     -11.255   6.965  -9.668  1.00  0.00     0.059 A 
ATOM     91  F   UNL     1      -8.975   7.387  -9.833  1.00  0.00    -0.206 F 
ATOM     92  C   UNL     1     -12.568   7.274 -10.002  1.00  0.00     0.060 A 
BRANCH  92  93
ATOM     93  S   UNL     1     -13.898   6.102  -9.633  1.00  0.00     0.124 S 
ATOM     94  O   UNL     1     -14.662   6.820  -8.620  1.00  0.00    -0.237 OA
ATOM     95  O   UNL     1     -14.546   5.950 -10.932  1.00  0.00    -0.237 OA
ATOM     96  O   UNL     1     -13.184   4.920  -9.156  1.00  0.00    -0.744 OA
ENDBRANCH  92  93
ENDBRANCH  60  85
BRANCH  72  97
ATOM     97  C   UNL     1      -7.666  13.471 -14.298  1.00  0.00     0.058 A 
ATOM     98  C   UNL     1      -7.247  13.616 -12.964  1.00  0.00     0.135 A 
ATOM     99  C   UNL     1      -7.878  14.644 -15.039  1.00  0.00     0.135 A 
ATOM    100  F   UNL     1      -6.943  12.546 -12.216  1.00  0.00    -0.206 F 
ATOM    101  C   UNL     1      -7.087  14.877 -12.384  1.00  0.00     0.059 A 
ATOM    102  C   UNL     1      -7.691  15.907 -14.493  1.00  0.00     0.059 A 
ATOM    103  F   UNL     1      -8.233  14.567 -16.332  1.00  0.00    -0.206 F 
ATOM    104  C   UNL     1      -7.311  16.017 -13.159  1.00  0.00     0.060 A 
BRANCH 104 105
ATOM    105  S   UNL     1      -7.052  17.649 -12.432  1.00  0.00     0.124 S 
ATOM    106  O   UNL     1      -8.173  17.753 -11.504  1.00  0.00    -0.237 OA
ATOM    107  O   UNL     1      -5.732  17.517 -11.822  1.00  0.00    -0.237 OA
ATOM    108  O   UNL     1      -7.109  18.548 -13.583  1.00  0.00    -0.744 OA
ENDBRANCH 104 105
ENDBRANCH  72  97
ENDBRANCH  46  47
ENDBRANCH  39  41
ENDBRANCH  38  39
ENDBRANCH  37  38
ENDBRANCH  36  37
ENDBRANCH  35  36
ENDBRANCH  34  35
ENDBRANCH  33  34
ENDBRANCH   1  33
TORSDOF 27
