REMARK SMILES C[C@@H]1CN(S(=O)(=O)[C@@H](C)C(=O)OCCOCCOCCOCCOC(=O)c2ccc(-c3c4nc(c(-c5c(F)cc(S(=O)(=O)[O-])cc5F)c5ccc([nH]5)c(-c5c(F)cc(S(=O)(=O)[O-])cc5F)c5nc(c(-c6c(F)cc(S(=O)(=O)[O-])cc6F)c6ccc3[nH]6)C=C5)C=C4)cc2)CC[C@@H]1[NH3+]
REMARK SMILES IDX 18 1 17 2 16 3 15 4 14 5 13 6 12 7 10 8 11 9 8 10 9 11 5 12
REMARK SMILES IDX 6 13 7 14 4 15 1 16 2 17 3 18 95 19 94 20 93 21 96 22 19 26
REMARK SMILES IDX 20 27 21 28 22 29 23 30 24 31 25 32 26 33 27 34 28 35 92 36
REMARK SMILES IDX 29 37 91 38 30 39 31 40 32 41 85 42 33 43 90 44 84 45 86 46
REMARK SMILES IDX 34 47 89 48 83 49 82 50 35 52 69 53 48 54 68 55 49 56 52 57
REMARK SMILES IDX 67 58 87 59 50 60 51 61 66 63 88 64 53 65 36 66 37 67 46 68
REMARK SMILES IDX 38 69 39 70 45 71 47 72 40 73 41 74 42 75 43 76 44 77 70 78
REMARK SMILES IDX 71 79 80 80 72 81 73 82 79 83 81 84 74 85 75 86 76 87 77 88
REMARK SMILES IDX 78 89 54 90 55 91 64 92 56 93 57 94 63 95 65 96 58 97 59 98
REMARK SMILES IDX 60 99 61 100 62 101
REMARK H PARENT 96 23 96 24 96 25 86 51 52 62
REMARK Flexibility Score: inf
ROOT
ATOM      1  O   UNL     1       1.911   0.935  -4.529  1.00  0.00    -0.377 OA
ENDROOT
BRANCH   1   2
ATOM      2  C   UNL     1       2.943   1.717  -5.095  1.00  0.00     0.188 C 
BRANCH   2   3
ATOM      3  C   UNL     1       3.870   0.959  -6.046  1.00  0.00     0.188 C 
BRANCH   3   4
ATOM      4  O   UNL     1       3.718  -0.441  -6.239  1.00  0.00    -0.376 OA
BRANCH   4   5
ATOM      5  C   UNL     1       3.209  -1.274  -5.206  1.00  0.00     0.202 C 
BRANCH   5   6
ATOM      6  C   UNL     1       3.912  -1.316  -3.833  1.00  0.00     0.261 C 
BRANCH   6   7
ATOM      7  O   UNL     1       3.864  -0.130  -2.993  1.00  0.00    -0.462 OA
BRANCH   7   8
ATOM      8  C   UNL     1       4.984   0.609  -2.863  1.00  0.00     0.325 C 
ATOM      9  O   UNL     1       6.001   0.363  -3.515  1.00  0.00    -0.251 OA
BRANCH   8  10
ATOM     10  C   UNL     1       5.028   1.643  -1.772  1.00  0.00     0.230 C 
ATOM     11  C   UNL     1       5.625   1.064  -0.503  1.00  0.00     0.039 C 
BRANCH  10  12
ATOM     12  S   UNL     1       3.759   2.870  -1.470  1.00  0.00     0.227 S 
ATOM     13  O   UNL     1       3.339   3.486  -2.711  1.00  0.00    -0.211 OA
ATOM     14  O   UNL     1       4.333   3.756  -0.467  1.00  0.00    -0.211 OA
BRANCH  12  15
ATOM     15  N   UNL     1       2.360   2.220  -0.724  1.00  0.00    -0.200 NA
ATOM     16  C   UNL     1       0.883  -0.224   0.340  1.00  0.00     0.015 C 
ATOM     17  C   UNL     1       0.387   0.671  -0.806  1.00  0.00     0.059 C 
ATOM     18  C   UNL     1       1.564   1.289  -1.566  1.00  0.00     0.111 C 
ATOM     19  C   UNL     1      -0.554   1.807  -0.386  1.00  0.00     0.186 C 
ATOM     20  C   UNL     1       0.198   2.840   0.456  1.00  0.00     0.082 C 
ATOM     21  C   UNL     1       1.448   3.348  -0.265  1.00  0.00     0.108 C 
BRANCH  19  22
ATOM     22  N   UNL     1      -1.754   1.345   0.307  1.00  0.00    -0.355 N 
ATOM     23  H   UNL     1      -1.488   0.894   1.183  1.00  0.00     0.344 HD
ATOM     24  H   UNL     1      -2.251   0.677  -0.282  1.00  0.00     0.344 HD
ATOM     25  H   UNL     1      -2.360   2.141   0.504  1.00  0.00     0.344 HD
ENDBRANCH  19  22
ENDBRANCH  12  15
ENDBRANCH  10  12
ENDBRANCH   8  10
ENDBRANCH   7   8
ENDBRANCH   6   7
ENDBRANCH   5   6
ENDBRANCH   4   5
ENDBRANCH   3   4
ENDBRANCH   2   3
ENDBRANCH   1   2
BRANCH   1  26
ATOM     26  C   UNL     1       0.603   1.078  -5.054  1.00  0.00     0.188 C 
BRANCH  26  27
ATOM     27  C   UNL     1       0.484   1.212  -6.572  1.00  0.00     0.188 C 
BRANCH  27  28
ATOM     28  O   UNL     1       1.203   2.331  -7.076  1.00  0.00    -0.376 OA
BRANCH  28  29
ATOM     29  C   UNL     1       0.513   3.565  -7.226  1.00  0.00     0.202 C 
BRANCH  29  30
ATOM     30  C   UNL     1      -0.014   4.290  -5.971  1.00  0.00     0.261 C 
BRANCH  30  31
ATOM     31  O   UNL     1      -0.989   3.617  -5.150  1.00  0.00    -0.460 OA
BRANCH  31  32
ATOM     32  C   UNL     1      -2.091   3.104  -5.725  1.00  0.00     0.338 C 
ATOM     33  O   UNL     1      -2.410   3.187  -6.903  1.00  0.00    -0.246 OA
BRANCH  32  34
ATOM     34  C   UNL     1      -2.777   2.245  -4.735  1.00  0.00     0.060 A 
ATOM     35  C   UNL     1      -2.968   0.889  -5.031  1.00  0.00     0.016 A 
ATOM     36  C   UNL     1      -3.270   2.778  -3.542  1.00  0.00     0.016 A 
ATOM     37  C   UNL     1      -3.709   0.078  -4.167  1.00  0.00     0.010 A 
ATOM     38  C   UNL     1      -4.025   1.968  -2.684  1.00  0.00     0.010 A 
ATOM     39  C   UNL     1      -4.291   0.627  -3.017  1.00  0.00    -0.014 A 
BRANCH  39  40
ATOM     40  C   UNL     1      -5.351  -0.129  -2.295  1.00  0.00     0.031 A 
ATOM     41  C   UNL     1      -6.792   0.232  -2.562  1.00  0.00     0.074 A 
ATOM     42  C   UNL     1      -5.057  -1.143  -1.459  1.00  0.00     0.049 A 
ATOM     43  N   UNL     1      -7.885  -0.248  -2.027  1.00  0.00    -0.248 NA
ATOM     44  C   UNL     1      -7.030   1.275  -3.575  1.00  0.00     0.031 C 
ATOM     45  C   UNL     1      -3.714  -1.638  -1.163  1.00  0.00     0.029 A 
ATOM     46  N   UNL     1      -5.881  -1.938  -0.699  1.00  0.00    -0.354 N 
ATOM     47  C   UNL     1      -8.936   0.433  -2.635  1.00  0.00     0.074 A 
ATOM     48  C   UNL     1      -8.349   1.388  -3.548  1.00  0.00     0.031 C 
ATOM     49  C   UNL     1      -3.805  -2.642  -0.272  1.00  0.00     0.029 A 
ATOM     50  C   UNL     1      -5.208  -2.844   0.086  1.00  0.00     0.049 A 
ATOM     51  H   UNL     1      -6.863  -1.865  -0.716  1.00  0.00     0.167 HD
ATOM     52  C   UNL     1     -10.269   0.268  -2.463  1.00  0.00     0.037 A 
ATOM     53  C   UNL     1      -5.672  -3.722   1.000  1.00  0.00     0.037 A 
ATOM     54  C   UNL     1     -10.854  -0.682  -1.554  1.00  0.00     0.049 A 
ATOM     55  C   UNL     1      -7.160  -3.822   1.244  1.00  0.00     0.074 A 
ATOM     56  C   UNL     1     -12.194  -0.919  -1.300  1.00  0.00     0.029 A 
ATOM     57  N   UNL     1     -10.136  -1.554  -0.749  1.00  0.00    -0.354 N 
ATOM     58  N   UNL     1      -8.140  -3.173   0.661  1.00  0.00    -0.248 NA
ATOM     59  C   UNL     1      -7.604  -4.780   2.268  1.00  0.00     0.031 C 
ATOM     60  C   UNL     1     -12.285  -1.897  -0.305  1.00  0.00     0.029 A 
ATOM     61  C   UNL     1     -11.003  -2.317   0.014  1.00  0.00     0.049 A 
ATOM     62  H   UNL     1      -9.153  -1.619  -0.723  1.00  0.00     0.167 HD
ATOM     63  C   UNL     1      -9.315  -3.678   1.213  1.00  0.00     0.074 A 
ATOM     64  C   UNL     1      -8.924  -4.689   2.171  1.00  0.00     0.031 C 
ATOM     65  C   UNL     1     -10.602  -3.340   0.947  1.00  0.00     0.037 A 
BRANCH  52  66
ATOM     66  C   UNL     1     -11.192   1.146  -3.266  1.00  0.00     0.058 A 
ATOM     67  C   UNL     1     -11.345   0.985  -4.653  1.00  0.00     0.135 A 
ATOM     68  C   UNL     1     -11.969   2.131  -2.634  1.00  0.00     0.135 A 
ATOM     69  F   UNL     1     -10.612   0.073  -5.312  1.00  0.00    -0.206 F 
ATOM     70  C   UNL     1     -12.217   1.782  -5.387  1.00  0.00     0.059 A 
ATOM     71  C   UNL     1     -12.870   2.920  -3.343  1.00  0.00     0.059 A 
ATOM     72  F   UNL     1     -11.861   2.332  -1.311  1.00  0.00    -0.206 F 
ATOM     73  C   UNL     1     -12.979   2.744  -4.722  1.00  0.00     0.060 A 
BRANCH  73  74
ATOM     74  S   UNL     1     -14.120   3.756  -5.688  1.00  0.00     0.124 S 
ATOM     75  O   UNL     1     -13.196   4.598  -6.442  1.00  0.00    -0.237 OA
ATOM     76  O   UNL     1     -14.842   2.754  -6.465  1.00  0.00    -0.237 OA
ATOM     77  O   UNL     1     -14.908   4.446  -4.672  1.00  0.00    -0.744 OA
ENDBRANCH  73  74
ENDBRANCH  52  66
BRANCH  53  78
ATOM     78  C   UNL     1      -4.728  -4.582   1.769  1.00  0.00     0.058 A 
ATOM     79  C   UNL     1      -4.723  -5.976   1.614  1.00  0.00     0.135 A 
ATOM     80  C   UNL     1      -3.841  -4.029   2.707  1.00  0.00     0.135 A 
ATOM     81  F   UNL     1      -5.559  -6.556   0.739  1.00  0.00    -0.206 F 
ATOM     82  C   UNL     1      -3.896  -6.794   2.378  1.00  0.00     0.059 A 
ATOM     83  C   UNL     1      -2.982  -4.823   3.461  1.00  0.00     0.059 A 
ATOM     84  F   UNL     1      -3.794  -2.700   2.887  1.00  0.00    -0.206 F 
ATOM     85  C   UNL     1      -3.029  -6.207   3.300  1.00  0.00     0.060 A 
BRANCH  85  86
ATOM     86  S   UNL     1      -1.940  -7.275   4.268  1.00  0.00     0.124 S 
ATOM     87  O   UNL     1      -2.885  -7.910   5.179  1.00  0.00    -0.237 OA
ATOM     88  O   UNL     1      -1.367  -8.136   3.239  1.00  0.00    -0.237 OA
ATOM     89  O   UNL     1      -1.006  -6.335   4.880  1.00  0.00    -0.744 OA
ENDBRANCH  85  86
ENDBRANCH  53  78
BRANCH  65  90
ATOM     90  C   UNL     1     -11.690  -4.112   1.647  1.00  0.00     0.058 A 
ATOM     91  C   UNL     1     -11.944  -3.969   3.020  1.00  0.00     0.135 A 
ATOM     92  C   UNL     1     -12.526  -4.974   0.916  1.00  0.00     0.135 A 
ATOM     93  F   UNL     1     -11.175  -3.162   3.769  1.00  0.00    -0.206 F 
ATOM     94  C   UNL     1     -12.965  -4.676   3.649  1.00  0.00     0.059 A 
ATOM     95  C   UNL     1     -13.573  -5.664   1.517  1.00  0.00     0.059 A 
ATOM     96  F   UNL     1     -12.338  -5.139  -0.403  1.00  0.00    -0.206 F 
ATOM     97  C   UNL     1     -13.776  -5.520   2.888  1.00  0.00     0.060 A 
BRANCH  97  98
ATOM     98  S   UNL     1     -15.113  -6.411   3.712  1.00  0.00     0.124 S 
ATOM     99  O   UNL     1     -14.373  -7.412   4.474  1.00  0.00    -0.237 OA
ATOM    100  O   UNL     1     -15.750  -5.359   4.498  1.00  0.00    -0.237 OA
ATOM    101  O   UNL     1     -15.911  -6.928   2.604  1.00  0.00    -0.744 OA
ENDBRANCH  97  98
ENDBRANCH  65  90
ENDBRANCH  39  40
ENDBRANCH  32  34
ENDBRANCH  31  32
ENDBRANCH  30  31
ENDBRANCH  29  30
ENDBRANCH  28  29
ENDBRANCH  27  28
ENDBRANCH  26  27
ENDBRANCH   1  26
TORSDOF 26
