REMARK SMILES O=C(OCCOCCOCCOCCOC(=O)[C@H](Cc1ccccn1)c1ccc(F)cc1)c1ccc(-c2c3nc(c(-c4c(F)cc(S(=O)(=O)[O-])cc4F)c4ccc([nH]4)c(-c4c(F)cc(S(=O)(=O)[O-])cc4F)c4nc(c(-c5c(F)cc(S(=O)(=O)[O-])cc5F)c5ccc2[nH]5)C=C4)C=C3)cc1
REMARK SMILES IDX 8 1 7 2 6 3 5 4 4 5 3 6 2 7 1 8 33 9 34 10 98 11 35 12 97 13
REMARK SMILES IDX 36 14 37 15 38 16 91 17 39 18 96 19 90 20 92 21 40 22 95 23
REMARK SMILES IDX 89 24 88 25 41 27 75 28 54 29 74 30 55 31 58 32 73 33 93 34
REMARK SMILES IDX 56 35 57 36 72 38 94 39 59 40 42 41 43 42 52 43 44 44 45 45
REMARK SMILES IDX 51 46 53 47 46 48 47 49 48 50 49 51 50 52 76 53 77 54 86 55
REMARK SMILES IDX 78 56 79 57 85 58 87 59 80 60 81 61 82 62 83 63 84 64 60 65
REMARK SMILES IDX 61 66 70 67 62 68 63 69 69 70 71 71 64 72 65 73 66 74 67 75
REMARK SMILES IDX 68 76 9 77 10 78 11 79 12 80 13 81 14 82 15 83 16 84 17 85
REMARK SMILES IDX 18 86 26 87 27 88 32 89 28 90 31 91 29 92 30 93 19 94 20 95
REMARK SMILES IDX 21 96 25 97 22 98 24 99 23 100
REMARK H PARENT 92 26 58 37
REMARK Flexibility Score: inf
ROOT
ATOM      1  C   UNL     1       2.158  -2.585   1.974  1.00  0.00     0.188 C 
ENDROOT
BRANCH   1   2
ATOM      2  C   UNL     1       1.129  -3.081   0.976  1.00  0.00     0.188 C 
BRANCH   2   3
ATOM      3  O   UNL     1       0.368  -4.114   1.559  1.00  0.00    -0.376 OA
BRANCH   3   4
ATOM      4  C   UNL     1       0.648  -5.431   1.117  1.00  0.00     0.202 C 
BRANCH   4   5
ATOM      5  C   UNL     1      -0.694  -6.101   0.815  1.00  0.00     0.261 C 
BRANCH   5   6
ATOM      6  O   UNL     1      -1.555  -5.248   0.030  1.00  0.00    -0.460 OA
BRANCH   6   7
ATOM      7  C   UNL     1      -2.048  -4.035   0.406  1.00  0.00     0.338 C 
ATOM      8  O   UNL     1      -2.231  -3.181  -0.463  1.00  0.00    -0.246 OA
BRANCH   7   9
ATOM      9  C   UNL     1      -2.518  -3.727   1.804  1.00  0.00     0.060 A 
ATOM     10  C   UNL     1      -1.975  -4.228   2.995  1.00  0.00     0.016 A 
ATOM     11  C   UNL     1      -3.558  -2.787   1.913  1.00  0.00     0.016 A 
ATOM     12  C   UNL     1      -2.437  -3.820   4.243  1.00  0.00     0.010 A 
ATOM     13  C   UNL     1      -4.056  -2.396   3.160  1.00  0.00     0.010 A 
ATOM     14  C   UNL     1      -3.506  -2.935   4.328  1.00  0.00    -0.014 A 
BRANCH  14  15
ATOM     15  C   UNL     1      -4.192  -2.807   5.626  1.00  0.00     0.031 A 
ATOM     16  C   UNL     1      -5.393  -3.680   5.844  1.00  0.00     0.074 A 
ATOM     17  C   UNL     1      -3.687  -2.037   6.606  1.00  0.00     0.049 A 
ATOM     18  N   UNL     1      -6.216  -3.723   6.853  1.00  0.00    -0.248 NA
ATOM     19  C   UNL     1      -5.697  -4.653   4.776  1.00  0.00     0.031 C 
ATOM     20  C   UNL     1      -2.444  -1.269   6.521  1.00  0.00     0.029 A 
ATOM     21  N   UNL     1      -4.149  -1.790   7.871  1.00  0.00    -0.354 N 
ATOM     22  C   UNL     1      -7.146  -4.705   6.531  1.00  0.00     0.074 A 
ATOM     23  C   UNL     1      -6.796  -5.229   5.234  1.00  0.00     0.031 C 
ATOM     24  C   UNL     1      -2.244  -0.633   7.688  1.00  0.00     0.029 A 
ATOM     25  C   UNL     1      -3.371  -0.903   8.578  1.00  0.00     0.049 A 
ATOM     26  H   UNL     1      -4.961  -2.207   8.240  1.00  0.00     0.167 HD
ATOM     27  C   UNL     1      -8.201  -5.123   7.264  1.00  0.00     0.037 A 
ATOM     28  C   UNL     1      -3.577  -0.353   9.792  1.00  0.00     0.037 A 
ATOM     29  C   UNL     1      -8.518  -4.577   8.554  1.00  0.00     0.049 A 
ATOM     30  C   UNL     1      -4.824  -0.750  10.544  1.00  0.00     0.074 A 
ATOM     31  C   UNL     1      -9.589  -4.869   9.375  1.00  0.00     0.029 A 
ATOM     32  N   UNL     1      -7.753  -3.619   9.208  1.00  0.00    -0.354 N 
ATOM     33  N   UNL     1      -5.743  -1.627  10.207  1.00  0.00    -0.248 NA
ATOM     34  C   UNL     1      -5.075  -0.079  11.825  1.00  0.00     0.031 C 
ATOM     35  C   UNL     1      -9.498  -4.050  10.504  1.00  0.00     0.029 A 
ATOM     36  C   UNL     1      -8.338  -3.292  10.415  1.00  0.00     0.049 A 
ATOM     37  H   UNL     1      -6.917  -3.231   8.862  1.00  0.00     0.167 HD
ATOM     38  C   UNL     1      -6.673  -1.625  11.240  1.00  0.00     0.074 A 
ATOM     39  C   UNL     1      -6.196  -0.670  12.221  1.00  0.00     0.031 C 
ATOM     40  C   UNL     1      -7.819  -2.340  11.368  1.00  0.00     0.037 A 
BRANCH  27  41
ATOM     41  C   UNL     1      -9.101  -6.165   6.662  1.00  0.00     0.058 A 
ATOM     42  C   UNL     1     -10.390  -5.818   6.227  1.00  0.00     0.135 A 
ATOM     43  C   UNL     1      -8.699  -7.503   6.515  1.00  0.00     0.135 A 
ATOM     44  F   UNL     1     -10.817  -4.549   6.321  1.00  0.00    -0.206 F 
ATOM     45  C   UNL     1     -11.255  -6.763   5.687  1.00  0.00     0.059 A 
ATOM     46  C   UNL     1      -9.539  -8.460   5.952  1.00  0.00     0.059 A 
ATOM     47  F   UNL     1      -7.462  -7.880   6.875  1.00  0.00    -0.206 F 
ATOM     48  C   UNL     1     -10.822  -8.082   5.554  1.00  0.00     0.060 A 
BRANCH  48  49
ATOM     49  S   UNL     1     -11.950  -9.287   4.823  1.00  0.00     0.124 S 
ATOM     50  O   UNL     1     -12.979  -9.396   5.850  1.00  0.00    -0.237 OA
ATOM     51  O   UNL     1     -12.350  -8.621   3.587  1.00  0.00    -0.237 OA
ATOM     52  O   UNL     1     -11.112 -10.470   4.643  1.00  0.00    -0.744 OA
ENDBRANCH  48  49
ENDBRANCH  27  41
BRANCH  28  53
ATOM     53  C   UNL     1      -2.614   0.643  10.339  1.00  0.00     0.058 A 
ATOM     54  C   UNL     1      -2.425   1.889   9.716  1.00  0.00     0.135 A 
ATOM     55  C   UNL     1      -1.842   0.369  11.478  1.00  0.00     0.135 A 
ATOM     56  F   UNL     1      -3.137   2.211   8.624  1.00  0.00    -0.206 F 
ATOM     57  C   UNL     1      -1.486   2.806  10.177  1.00  0.00     0.059 A 
ATOM     58  C   UNL     1      -0.915   1.283  11.977  1.00  0.00     0.059 A 
ATOM     59  F   UNL     1      -1.994  -0.797  12.124  1.00  0.00    -0.206 F 
ATOM     60  C   UNL     1      -0.732   2.492  11.307  1.00  0.00     0.060 A 
BRANCH  60  61
ATOM     61  S   UNL     1       0.491   3.694  11.876  1.00  0.00     0.124 S 
ATOM     62  O   UNL     1       1.464   3.659  10.790  1.00  0.00    -0.237 OA
ATOM     63  O   UNL     1      -0.302   4.912  11.981  1.00  0.00    -0.237 OA
ATOM     64  O   UNL     1       0.949   3.133  13.147  1.00  0.00    -0.744 OA
ENDBRANCH  60  61
ENDBRANCH  28  53
BRANCH  40  65
ATOM     65  C   UNL     1      -8.627  -2.139  12.618  1.00  0.00     0.058 A 
ATOM     66  C   UNL     1      -8.721  -3.167  13.569  1.00  0.00     0.135 A 
ATOM     67  C   UNL     1      -9.403  -0.987  12.810  1.00  0.00     0.135 A 
ATOM     68  F   UNL     1      -8.005  -4.294  13.423  1.00  0.00    -0.206 F 
ATOM     69  C   UNL     1      -9.582  -3.072  14.654  1.00  0.00     0.059 A 
ATOM     70  C   UNL     1     -10.249  -0.858  13.906  1.00  0.00     0.059 A 
ATOM     71  F   UNL     1      -9.340   0.025  11.930  1.00  0.00    -0.206 F 
ATOM     72  C   UNL     1     -10.348  -1.916  14.810  1.00  0.00     0.060 A 
BRANCH  72  73
ATOM     73  S   UNL     1     -11.472  -1.819  16.217  1.00  0.00     0.124 S 
ATOM     74  O   UNL     1     -12.484  -2.806  15.860  1.00  0.00    -0.237 OA
ATOM     75  O   UNL     1     -10.600  -2.177  17.331  1.00  0.00    -0.237 OA
ATOM     76  O   UNL     1     -11.917  -0.428  16.201  1.00  0.00    -0.744 OA
ENDBRANCH  72  73
ENDBRANCH  40  65
ENDBRANCH  14  15
ENDBRANCH   7   9
ENDBRANCH   6   7
ENDBRANCH   5   6
ENDBRANCH   4   5
ENDBRANCH   3   4
ENDBRANCH   2   3
ENDBRANCH   1   2
BRANCH   1  77
ATOM     77  O   UNL     1       2.648  -3.615   2.836  1.00  0.00    -0.377 OA
BRANCH  77  78
ATOM     78  C   UNL     1       1.904  -3.845   4.033  1.00  0.00     0.188 C 
BRANCH  78  79
ATOM     79  C   UNL     1       2.171  -2.871   5.184  1.00  0.00     0.188 C 
BRANCH  79  80
ATOM     80  O   UNL     1       1.828  -1.551   4.831  1.00  0.00    -0.376 OA
BRANCH  80  81
ATOM     81  C   UNL     1       2.879  -0.625   4.579  1.00  0.00     0.202 C 
BRANCH  81  82
ATOM     82  C   UNL     1       4.367  -1.024   4.362  1.00  0.00     0.261 C 
BRANCH  82  83
ATOM     83  O   UNL     1       4.654  -2.315   3.769  1.00  0.00    -0.463 OA
BRANCH  83  84
ATOM     84  C   UNL     1       5.608  -3.080   4.378  1.00  0.00     0.313 C 
ATOM     85  O   UNL     1       6.253  -2.684   5.348  1.00  0.00    -0.252 OA
BRANCH  84  86
ATOM     86  C   UNL     1       5.798  -4.520   3.829  1.00  0.00     0.135 C 
BRANCH  86  87
ATOM     87  C   UNL     1       5.440  -5.619   4.846  1.00  0.00    -0.033 A 
ATOM     88  C   UNL     1       5.936  -6.924   4.656  1.00  0.00     0.007 A 
ATOM     89  C   UNL     1       4.597  -5.408   5.949  1.00  0.00     0.007 A 
ATOM     90  C   UNL     1       5.463  -7.995   5.420  1.00  0.00     0.039 A 
ATOM     91  C   UNL     1       4.124  -6.474   6.720  1.00  0.00     0.039 A 
ATOM     92  C   UNL     1       4.535  -7.763   6.425  1.00  0.00     0.123 A 
ATOM     93  F   UNL     1       4.035  -8.795   7.117  1.00  0.00    -0.207 F 
ENDBRANCH  86  87
BRANCH  86  94
ATOM     94  C   UNL     1       5.362  -4.741   2.338  1.00  0.00     0.076 C 
BRANCH  94  95
ATOM     95  C   UNL     1       4.879  -6.086   1.809  1.00  0.00     0.042 A 
ATOM     96  C   UNL     1       3.887  -6.849   2.424  1.00  0.00     0.024 A 
ATOM     97  N   UNL     1       5.460  -6.512   0.656  1.00  0.00    -0.261 NA
ATOM     98  C   UNL     1       3.583  -8.123   1.936  1.00  0.00     0.003 A 
ATOM     99  C   UNL     1       5.094  -7.720   0.161  1.00  0.00     0.111 A 
ATOM    100  C   UNL     1       4.196  -8.571   0.778  1.00  0.00     0.020 A 
ENDBRANCH  94  95
ENDBRANCH  86  94
ENDBRANCH  84  86
ENDBRANCH  83  84
ENDBRANCH  82  83
ENDBRANCH  81  82
ENDBRANCH  80  81
ENDBRANCH  79  80
ENDBRANCH  78  79
ENDBRANCH  77  78
ENDBRANCH   1  77
TORSDOF 26
