REMARK SMILES C[C@@H]1Oc2c(C(=O)OCCOCCOCCOCCOC(=O)c3ccc(-c4c5nc(c(-c6c(F)cc(S(=O)(=O)[O-])cc6F)c6ccc([nH]6)c(-c6c(F)cc(S(=O)(=O)[O-])cc6F)c6nc(c(-c7c(F)cc(S(=O)(=O)[O-])cc7F)c7ccc4[nH]7)C=C6)C=C5)cc3)cccc2[C@@H]1C
REMARK SMILES IDX 15 1 14 2 13 3 12 4 11 5 10 6 9 7 8 8 6 9 7 10 5 11 1 12
REMARK SMILES IDX 2 13 3 14 93 15 4 16 92 17 94 18 91 19 89 20 90 21 16 22
REMARK SMILES IDX 17 23 18 24 19 25 20 26 21 27 22 28 23 29 24 30 88 31 25 32
REMARK SMILES IDX 87 33 26 34 27 35 28 36 81 37 29 38 86 39 80 40 82 41 30 42
REMARK SMILES IDX 85 43 79 44 78 45 31 47 65 48 44 49 64 50 45 51 48 52 63 53
REMARK SMILES IDX 83 54 46 55 47 56 62 58 84 59 49 60 32 61 33 62 42 63 34 64
REMARK SMILES IDX 35 65 41 66 43 67 36 68 37 69 38 70 39 71 40 72 66 73 67 74
REMARK SMILES IDX 76 75 68 76 69 77 75 78 77 79 70 80 71 81 72 82 73 83 74 84
REMARK SMILES IDX 50 85 51 86 60 87 52 88 53 89 59 90 61 91 54 92 55 93 56 94
REMARK SMILES IDX 57 95 58 96
REMARK H PARENT 82 46 48 57
REMARK Flexibility Score: inf
ROOT
ATOM      1  C   UNL     1      -2.547  -7.642  -3.272  1.00  0.00     0.188 C 
ENDROOT
BRANCH   1   2
ATOM      2  O   UNL     1      -2.430  -6.981  -2.024  1.00  0.00    -0.377 OA
BRANCH   2   3
ATOM      3  C   UNL     1      -1.712  -5.755  -1.947  1.00  0.00     0.188 C 
BRANCH   3   4
ATOM      4  C   UNL     1      -0.985  -5.114  -3.152  1.00  0.00     0.188 C 
BRANCH   4   5
ATOM      5  O   UNL     1      -0.562  -6.020  -4.165  1.00  0.00    -0.376 OA
BRANCH   5   6
ATOM      6  C   UNL     1       0.839  -6.192  -4.322  1.00  0.00     0.202 C 
BRANCH   6   7
ATOM      7  C   UNL     1       1.444  -7.153  -3.298  1.00  0.00     0.261 C 
BRANCH   7   8
ATOM      8  O   UNL     1       1.261  -6.741  -1.936  1.00  0.00    -0.460 OA
BRANCH   8   9
ATOM      9  C   UNL     1       1.891  -5.609  -1.541  1.00  0.00     0.342 C 
ATOM     10  O   UNL     1       2.628  -4.914  -2.216  1.00  0.00    -0.246 OA
BRANCH   9  11
ATOM     11  C   UNL     1       1.441  -5.311  -0.165  1.00  0.00     0.102 A 
ATOM     12  C   UNL     1      -0.399  -0.974  -0.457  1.00  0.00     0.053 C 
ATOM     13  C   UNL     1       0.687  -1.804   0.222  1.00  0.00     0.177 C 
ATOM     14  O   UNL     1       1.001  -2.944  -0.622  1.00  0.00    -0.489 OA
ATOM     15  C   UNL     1       0.407  -2.289   1.667  1.00  0.00     0.060 C 
ATOM     16  C   UNL     1       1.076  -4.026   0.213  1.00  0.00     0.137 A 
ATOM     17  C   UNL     1       0.669  -3.746   1.510  1.00  0.00     0.002 A 
ATOM     18  C   UNL     1      -0.958  -1.977   2.265  1.00  0.00     0.017 C 
ATOM     19  C   UNL     1       0.570  -4.756   2.457  1.00  0.00     0.008 A 
ATOM     20  C   UNL     1       1.331  -6.341   0.782  1.00  0.00     0.019 A 
ATOM     21  C   UNL     1       0.888  -6.064   2.082  1.00  0.00     0.001 A 
ENDBRANCH   9  11
ENDBRANCH   8   9
ENDBRANCH   7   8
ENDBRANCH   6   7
ENDBRANCH   5   6
ENDBRANCH   4   5
ENDBRANCH   3   4
ENDBRANCH   2   3
ENDBRANCH   1   2
BRANCH   1  22
ATOM     22  C   UNL     1      -3.319  -6.873  -4.358  1.00  0.00     0.188 C 
BRANCH  22  23
ATOM     23  O   UNL     1      -3.745  -5.579  -3.937  1.00  0.00    -0.376 OA
BRANCH  23  24
ATOM     24  C   UNL     1      -5.125  -5.439  -3.631  1.00  0.00     0.202 C 
BRANCH  24  25
ATOM     25  C   UNL     1      -5.619  -6.171  -2.376  1.00  0.00     0.261 C 
BRANCH  25  26
ATOM     26  O   UNL     1      -5.479  -7.599  -2.383  1.00  0.00    -0.460 OA
BRANCH  26  27
ATOM     27  C   UNL     1      -6.098  -8.303  -3.355  1.00  0.00     0.338 C 
ATOM     28  O   UNL     1      -6.808  -7.870  -4.245  1.00  0.00    -0.246 OA
BRANCH  27  29
ATOM     29  C   UNL     1      -5.598  -9.691  -3.257  1.00  0.00     0.060 A 
ATOM     30  C   UNL     1      -5.641 -10.363  -2.032  1.00  0.00     0.016 A 
ATOM     31  C   UNL     1      -5.029 -10.302  -4.383  1.00  0.00     0.016 A 
ATOM     32  C   UNL     1      -5.137 -11.660  -1.940  1.00  0.00     0.010 A 
ATOM     33  C   UNL     1      -4.515 -11.598  -4.285  1.00  0.00     0.010 A 
ATOM     34  C   UNL     1      -4.590 -12.294  -3.069  1.00  0.00    -0.014 A 
BRANCH  34  35
ATOM     35  C   UNL     1      -4.300 -13.746  -3.012  1.00  0.00     0.031 A 
ATOM     36  C   UNL     1      -2.917 -14.284  -2.809  1.00  0.00     0.074 A 
ATOM     37  C   UNL     1      -5.347 -14.585  -3.132  1.00  0.00     0.049 A 
ATOM     38  N   UNL     1      -2.544 -15.525  -2.628  1.00  0.00    -0.248 NA
ATOM     39  C   UNL     1      -1.813 -13.315  -2.815  1.00  0.00     0.031 C 
ATOM     40  C   UNL     1      -6.732 -14.163  -3.360  1.00  0.00     0.029 A 
ATOM     41  N   UNL     1      -5.420 -15.951  -3.068  1.00  0.00    -0.354 N 
ATOM     42  C   UNL     1      -1.165 -15.491  -2.471  1.00  0.00     0.074 A 
ATOM     43  C   UNL     1      -0.762 -14.107  -2.626  1.00  0.00     0.031 C 
ATOM     44  C   UNL     1      -7.521 -15.246  -3.387  1.00  0.00     0.029 A 
ATOM     45  C   UNL     1      -6.699 -16.437  -3.200  1.00  0.00     0.049 A 
ATOM     46  H   UNL     1      -4.633 -16.529  -2.941  1.00  0.00     0.167 HD
ATOM     47  C   UNL     1      -0.323 -16.521  -2.204  1.00  0.00     0.037 A 
ATOM     48  C   UNL     1      -7.163 -17.700  -3.161  1.00  0.00     0.037 A 
ATOM     49  C   UNL     1      -0.740 -17.897  -2.073  1.00  0.00     0.049 A 
ATOM     50  C   UNL     1      -6.203 -18.824  -2.902  1.00  0.00     0.074 A 
ATOM     51  C   UNL     1       0.034 -19.004  -1.769  1.00  0.00     0.029 A 
ATOM     52  N   UNL     1      -2.037 -18.359  -2.252  1.00  0.00    -0.354 N 
ATOM     53  N   UNL     1      -4.912 -18.767  -2.680  1.00  0.00    -0.248 NA
ATOM     54  C   UNL     1      -6.761 -20.183  -2.881  1.00  0.00     0.031 C 
ATOM     55  C   UNL     1      -0.783 -20.139  -1.811  1.00  0.00     0.029 A 
ATOM     56  C   UNL     1      -2.078 -19.736  -2.093  1.00  0.00     0.049 A 
ATOM     57  H   UNL     1      -2.814 -17.792  -2.462  1.00  0.00     0.167 HD
ATOM     58  C   UNL     1      -4.505 -20.079  -2.472  1.00  0.00     0.074 A 
ATOM     59  C   UNL     1      -5.690 -20.906  -2.582  1.00  0.00     0.031 C 
ATOM     60  C   UNL     1      -3.262 -20.552  -2.210  1.00  0.00     0.037 A 
BRANCH  47  61
ATOM     61  C   UNL     1       1.137 -16.210  -2.018  1.00  0.00     0.058 A 
ATOM     62  C   UNL     1       1.602 -15.562  -0.863  1.00  0.00     0.135 A 
ATOM     63  C   UNL     1       2.092 -16.643  -2.953  1.00  0.00     0.135 A 
ATOM     64  F   UNL     1       0.734 -15.122   0.061  1.00  0.00    -0.206 F 
ATOM     65  C   UNL     1       2.959 -15.339  -0.648  1.00  0.00     0.059 A 
ATOM     66  C   UNL     1       3.457 -16.452  -2.748  1.00  0.00     0.059 A 
ATOM     67  F   UNL     1       1.704 -17.274  -4.072  1.00  0.00    -0.206 F 
ATOM     68  C   UNL     1       3.880 -15.791  -1.596  1.00  0.00     0.060 A 
BRANCH  68  69
ATOM     69  S   UNL     1       5.636 -15.507  -1.289  1.00  0.00     0.124 S 
ATOM     70  O   UNL     1       5.730 -14.059  -1.453  1.00  0.00    -0.237 OA
ATOM     71  O   UNL     1       5.798 -16.000   0.075  1.00  0.00    -0.237 OA
ATOM     72  O   UNL     1       6.297 -16.298  -2.322  1.00  0.00    -0.744 OA
ENDBRANCH  68  69
ENDBRANCH  47  61
BRANCH  48  73
ATOM     73  C   UNL     1      -8.617 -17.945  -3.329  1.00  0.00     0.058 A 
ATOM     74  C   UNL     1      -9.411 -18.329  -2.239  1.00  0.00     0.135 A 
ATOM     75  C   UNL     1      -9.251 -17.747  -4.565  1.00  0.00     0.135 A 
ATOM     76  F   UNL     1      -8.848 -18.530  -1.037  1.00  0.00    -0.206 F 
ATOM     77  C   UNL     1     -10.782 -18.514  -2.369  1.00  0.00     0.059 A 
ATOM     78  C   UNL     1     -10.624 -17.902  -4.715  1.00  0.00     0.059 A 
ATOM     79  F   UNL     1      -8.535 -17.358  -5.633  1.00  0.00    -0.206 F 
ATOM     80  C   UNL     1     -11.381 -18.292  -3.610  1.00  0.00     0.060 A 
BRANCH  80  81
ATOM     81  S   UNL     1     -13.171 -18.477  -3.750  1.00  0.00     0.124 S 
ATOM     82  O   UNL     1     -13.326 -19.923  -3.640  1.00  0.00    -0.237 OA
ATOM     83  O   UNL     1     -13.648 -17.696  -2.613  1.00  0.00    -0.237 OA
ATOM     84  O   UNL     1     -13.467 -17.909  -5.061  1.00  0.00    -0.744 OA
ENDBRANCH  80  81
ENDBRANCH  48  73
BRANCH  60  85
ATOM     85  C   UNL     1      -3.111 -22.036  -2.015  1.00  0.00     0.058 A 
ATOM     86  C   UNL     1      -3.173 -22.927  -3.097  1.00  0.00     0.135 A 
ATOM     87  C   UNL     1      -2.830 -22.564  -0.745  1.00  0.00     0.135 A 
ATOM     88  F   UNL     1      -3.450 -22.475  -4.330  1.00  0.00    -0.206 F 
ATOM     89  C   UNL     1      -2.969 -24.293  -2.925  1.00  0.00     0.059 A 
ATOM     90  C   UNL     1      -2.598 -23.923  -0.554  1.00  0.00     0.059 A 
ATOM     91  F   UNL     1      -2.755 -21.754   0.323  1.00  0.00    -0.206 F 
ATOM     92  C   UNL     1      -2.674 -24.780  -1.651  1.00  0.00     0.060 A 
BRANCH  92  93
ATOM     93  S   UNL     1      -2.355 -26.547  -1.456  1.00  0.00     0.124 S 
ATOM     94  O   UNL     1      -3.688 -27.110  -1.643  1.00  0.00    -0.237 OA
ATOM     95  O   UNL     1      -1.400 -26.810  -2.527  1.00  0.00    -0.237 OA
ATOM     96  O   UNL     1      -1.815 -26.649  -0.103  1.00  0.00    -0.744 OA
ENDBRANCH  92  93
ENDBRANCH  60  85
ENDBRANCH  34  35
ENDBRANCH  27  29
ENDBRANCH  26  27
ENDBRANCH  25  26
ENDBRANCH  24  25
ENDBRANCH  23  24
ENDBRANCH  22  23
ENDBRANCH   1  22
TORSDOF 23
