REMARK SMILES COC(=O)c1c(NC(=O)[C@@H]2C[C@@H]2C(=O)OCCOCCOCCOCCOC(=O)c2ccc(-c3c4nc(c(-c5c(F)cc(S(=O)(=O)[O-])cc5F)c5ccc([nH]5)c(-c5c(F)cc(S(=O)(=O)[O-])cc5F)c5nc(c(-c6c(F)cc(S(=O)(=O)[O-])cc6F)c6ccc3[nH]6)C=C5)C=C4)cc2)sc2c1CC[N@@H+](Cc1ccccc1)C2
REMARK SMILES IDX 20 1 19 2 18 3 17 4 16 5 15 6 13 7 14 8 12 9 10 10 11 11
REMARK SMILES IDX 8 12 7 13 9 15 6 16 5 17 98 18 96 19 97 20 99 21 109 22
REMARK SMILES IDX 100 23 101 24 3 26 4 27 2 28 1 29 102 30 103 31 104 32
REMARK SMILES IDX 108 33 105 34 107 35 106 36 21 37 22 38 23 39 24 40 25 41
REMARK SMILES IDX 26 42 27 43 28 44 29 45 30 46 31 47 95 48 32 49 94 50 33 51
REMARK SMILES IDX 34 52 35 53 88 54 36 55 93 56 87 57 89 58 37 59 92 60 86 61
REMARK SMILES IDX 85 62 38 64 72 65 51 66 71 67 52 68 55 69 70 70 90 71 53 72
REMARK SMILES IDX 54 73 69 75 91 76 56 77 39 78 40 79 49 80 41 81 42 82 48 83
REMARK SMILES IDX 50 84 43 85 44 86 45 87 46 88 47 89 73 90 74 91 83 92 75 93
REMARK SMILES IDX 76 94 82 95 84 96 77 97 78 98 79 99 80 100 81 101 57 102
REMARK SMILES IDX 58 103 67 104 59 105 60 106 66 107 68 108 61 109 62 110
REMARK SMILES IDX 63 111 64 112 65 113
REMARK H PARENT 7 14 101 25 89 63 55 74
REMARK Flexibility Score: inf
ROOT
ATOM      1  C   UNL     1       1.517  -0.305  -3.344  1.00  0.00     0.188 C 
ENDROOT
BRANCH   1   2
ATOM      2  C   UNL     1       0.483  -1.251  -2.697  1.00  0.00     0.188 C 
BRANCH   2   3
ATOM      3  O   UNL     1       0.081  -2.438  -3.345  1.00  0.00    -0.376 OA
BRANCH   3   4
ATOM      4  C   UNL     1      -1.241  -2.620  -3.843  1.00  0.00     0.202 C 
BRANCH   4   5
ATOM      5  C   UNL     1      -2.337  -1.530  -3.822  1.00  0.00     0.261 C 
BRANCH   5   6
ATOM      6  O   UNL     1      -2.297  -0.591  -2.736  1.00  0.00    -0.463 OA
BRANCH   6   7
ATOM      7  C   UNL     1      -2.533  -1.135  -1.517  1.00  0.00     0.309 C 
ATOM      8  O   UNL     1      -2.911  -2.286  -1.343  1.00  0.00    -0.252 OA
BRANCH   7   9
ATOM      9  C   UNL     1      -2.316  -0.266  -0.327  1.00  0.00     0.112 C 
ATOM     10  C   UNL     1      -3.188   0.991  -0.338  1.00  0.00     0.094 C 
ATOM     11  C   UNL     1      -1.817   1.075   0.145  1.00  0.00     0.030 C 
BRANCH  10  12
ATOM     12  C   UNL     1      -3.571   1.641  -1.613  1.00  0.00     0.229 C 
ATOM     13  N   UNL     1      -2.797   2.392  -2.453  1.00  0.00    -0.317 N 
ATOM     14  H   UNL     1      -3.385   2.680  -3.188  1.00  0.00     0.170 HD
ATOM     15  O   UNL     1      -4.741   1.473  -1.964  1.00  0.00    -0.274 OA
BRANCH  13  16
ATOM     16  C   UNL     1      -1.548   2.925  -2.722  1.00  0.00     0.110 A 
ATOM     17  C   UNL     1      -0.213   3.105  -2.332  1.00  0.00     0.098 A 
ATOM     18  C   UNL     1       0.498   3.887  -3.337  1.00  0.00    -0.006 A 
ATOM     19  S   UNL     1      -1.865   3.748  -4.231  1.00  0.00    -0.116 S 
ATOM     20  C   UNL     1      -0.275   4.206  -4.425  1.00  0.00     0.065 A 
ATOM     21  C   UNL     1       1.974   4.195  -3.340  1.00  0.00     0.099 C 
ATOM     22  C   UNL     1       0.241   4.822  -5.678  1.00  0.00     0.310 C 
ATOM     23  C   UNL     1       2.436   4.814  -4.663  1.00  0.00     0.267 C 
ATOM     24  N   UNL     1       1.650   4.460  -5.845  1.00  0.00    -0.326 N 
ATOM     25  H   UNL     1       2.032   5.046  -6.587  1.00  0.00     0.348 HD
BRANCH  17  26
ATOM     26  C   UNL     1       0.592   2.677  -1.174  1.00  0.00     0.341 C 
ATOM     27  O   UNL     1       1.291   3.455  -0.531  1.00  0.00    -0.246 OA
BRANCH  26  28
ATOM     28  O   UNL     1       0.626   1.330  -0.967  1.00  0.00    -0.465 OA
ATOM     29  C   UNL     1       1.516   0.897   0.067  1.00  0.00     0.282 C 
ENDBRANCH  26  28
ENDBRANCH  17  26
BRANCH  24  30
ATOM     30  C   UNL     1       1.871   3.137  -6.415  1.00  0.00     0.299 C 
BRANCH  30  31
ATOM     31  C   UNL     1       1.723   1.816  -5.652  1.00  0.00     0.006 A 
ATOM     32  C   UNL     1       3.154   0.981  -4.932  1.00  0.00     0.009 A 
ATOM     33  C   UNL     1       0.311   0.844  -6.175  1.00  0.00     0.009 A 
ATOM     34  C   UNL     1       3.188  -0.861  -4.812  1.00  0.00     0.001 A 
ATOM     35  C   UNL     1       0.326  -0.934  -6.048  1.00  0.00     0.001 A 
ATOM     36  C   UNL     1       1.756  -1.811  -5.373  1.00  0.00     0.000 A 
ENDBRANCH  30  31
ENDBRANCH  24  30
ENDBRANCH  13  16
ENDBRANCH  10  12
ENDBRANCH   7   9
ENDBRANCH   6   7
ENDBRANCH   5   6
ENDBRANCH   4   5
ENDBRANCH   3   4
ENDBRANCH   2   3
ENDBRANCH   1   2
BRANCH   1  37
ATOM     37  O   UNL     1       1.468   0.051  -4.828  1.00  0.00    -0.377 OA
BRANCH  37  38
ATOM     38  C   UNL     1       2.388  -0.154  -6.591  1.00  0.00     0.188 C 
BRANCH  38  39
ATOM     39  C   UNL     1       4.057  -0.120  -7.035  1.00  0.00     0.188 C 
BRANCH  39  40
ATOM     40  O   UNL     1       5.217  -0.709  -6.418  1.00  0.00    -0.376 OA
BRANCH  40  41
ATOM     41  C   UNL     1       6.032  -0.170  -5.368  1.00  0.00     0.202 C 
BRANCH  41  42
ATOM     42  C   UNL     1       6.593   1.241  -5.328  1.00  0.00     0.261 C 
BRANCH  42  43
ATOM     43  O   UNL     1       5.860   2.136  -6.102  1.00  0.00    -0.460 OA
BRANCH  43  44
ATOM     44  C   UNL     1       6.096   2.190  -7.419  1.00  0.00     0.338 C 
ATOM     45  O   UNL     1       6.755   1.427  -8.113  1.00  0.00    -0.246 OA
BRANCH  44  46
ATOM     46  C   UNL     1       5.327   3.354  -7.839  1.00  0.00     0.060 A 
ATOM     47  C   UNL     1       4.987   3.561  -9.172  1.00  0.00     0.016 A 
ATOM     48  C   UNL     1       5.022   4.297  -6.838  1.00  0.00     0.016 A 
ATOM     49  C   UNL     1       4.624   4.843  -9.521  1.00  0.00     0.010 A 
ATOM     50  C   UNL     1       4.460   5.484  -7.160  1.00  0.00     0.010 A 
ATOM     51  C   UNL     1       4.536   5.790  -8.494  1.00  0.00    -0.014 A 
BRANCH  51  52
ATOM     52  C   UNL     1       4.906   7.164  -8.715  1.00  0.00     0.031 A 
ATOM     53  C   UNL     1       3.850   7.904  -9.405  1.00  0.00     0.074 A 
ATOM     54  C   UNL     1       6.062   7.623  -8.174  1.00  0.00     0.049 A 
ATOM     55  N   UNL     1       3.781   8.107 -10.675  1.00  0.00    -0.248 NA
ATOM     56  C   UNL     1       2.594   8.175  -8.690  1.00  0.00     0.031 C 
ATOM     57  C   UNL     1       7.009   6.951  -7.261  1.00  0.00     0.029 A 
ATOM     58  N   UNL     1       6.598   8.866  -8.261  1.00  0.00    -0.354 N 
ATOM     59  C   UNL     1       2.653   8.891 -10.839  1.00  0.00     0.074 A 
ATOM     60  C   UNL     1       1.830   8.620  -9.692  1.00  0.00     0.031 C 
ATOM     61  C   UNL     1       7.812   7.860  -6.666  1.00  0.00     0.029 A 
ATOM     62  C   UNL     1       7.591   9.133  -7.308  1.00  0.00     0.049 A 
ATOM     63  H   UNL     1       6.313   9.524  -8.935  1.00  0.00     0.167 HD
ATOM     64  C   UNL     1       2.706   9.954 -11.688  1.00  0.00     0.037 A 
ATOM     65  C   UNL     1       8.163  10.348  -7.106  1.00  0.00     0.037 A 
ATOM     66  C   UNL     1       3.871   9.843 -12.552  1.00  0.00     0.049 A 
ATOM     67  C   UNL     1       7.921  11.112  -8.372  1.00  0.00     0.074 A 
ATOM     68  C   UNL     1       4.330   8.871 -13.423  1.00  0.00     0.029 A 
ATOM     69  N   UNL     1       4.971  10.614 -12.239  1.00  0.00    -0.354 N 
ATOM     70  N   UNL     1       8.429  10.749  -9.527  1.00  0.00    -0.248 NA
ATOM     71  C   UNL     1       6.681  11.874  -8.452  1.00  0.00     0.031 C 
ATOM     72  C   UNL     1       5.739   8.812 -13.204  1.00  0.00     0.029 A 
ATOM     73  C   UNL     1       6.094   9.826 -12.312  1.00  0.00     0.049 A 
ATOM     74  H   UNL     1       4.954  11.570 -12.003  1.00  0.00     0.167 HD
ATOM     75  C   UNL     1       7.380  10.860 -10.436  1.00  0.00     0.074 A 
ATOM     76  C   UNL     1       6.338  11.598  -9.716  1.00  0.00     0.031 C 
ATOM     77  C   UNL     1       7.308  10.069 -11.553  1.00  0.00     0.037 A 
BRANCH  64  78
ATOM     78  C   UNL     1       2.010  11.275 -11.447  1.00  0.00     0.058 A 
ATOM     79  C   UNL     1       2.130  12.272 -12.437  1.00  0.00     0.135 A 
ATOM     80  C   UNL     1       1.483  11.711 -10.210  1.00  0.00     0.135 A 
ATOM     81  F   UNL     1       2.586  11.968 -13.663  1.00  0.00    -0.206 F 
ATOM     82  C   UNL     1       1.866  13.614 -12.180  1.00  0.00     0.059 A 
ATOM     83  C   UNL     1       1.172  13.039  -9.947  1.00  0.00     0.059 A 
ATOM     84  F   UNL     1       1.308  10.904  -9.161  1.00  0.00    -0.206 F 
ATOM     85  C   UNL     1       1.410  13.990 -10.922  1.00  0.00     0.060 A 
BRANCH  85  86
ATOM     86  S   UNL     1       1.163  15.733 -10.559  1.00  0.00     0.124 S 
ATOM     87  O   UNL     1       2.534  16.230 -10.586  1.00  0.00    -0.237 OA
ATOM     88  O   UNL     1       0.307  16.147 -11.666  1.00  0.00    -0.237 OA
ATOM     89  O   UNL     1       0.521  15.715  -9.249  1.00  0.00    -0.744 OA
ENDBRANCH  85  86
ENDBRANCH  64  78
BRANCH  65  90
ATOM     90  C   UNL     1       8.492  10.980  -5.796  1.00  0.00     0.058 A 
ATOM     91  C   UNL     1       9.214  12.184  -5.728  1.00  0.00     0.135 A 
ATOM     92  C   UNL     1       7.870  10.567  -4.598  1.00  0.00     0.135 A 
ATOM     93  F   UNL     1       9.839  12.655  -6.818  1.00  0.00    -0.206 F 
ATOM     94  C   UNL     1       9.262  12.966  -4.564  1.00  0.00     0.059 A 
ATOM     95  C   UNL     1       7.907  11.325  -3.427  1.00  0.00     0.059 A 
ATOM     96  F   UNL     1       7.128   9.451  -4.550  1.00  0.00    -0.206 F 
ATOM     97  C   UNL     1       8.580  12.540  -3.424  1.00  0.00     0.060 A 
BRANCH  97  98
ATOM     98  S   UNL     1       8.469  13.632  -1.984  1.00  0.00     0.124 S 
ATOM     99  O   UNL     1       9.844  13.632  -1.496  1.00  0.00    -0.237 OA
ATOM    100  O   UNL     1       8.004  14.880  -2.578  1.00  0.00    -0.237 OA
ATOM    101  O   UNL     1       7.502  12.958  -1.121  1.00  0.00    -0.744 OA
ENDBRANCH  97  98
ENDBRANCH  65  90
BRANCH  77 102
ATOM    102  C   UNL     1       8.512   9.232 -11.939  1.00  0.00     0.058 A 
ATOM    103  C   UNL     1       9.024   8.153 -11.192  1.00  0.00     0.135 A 
ATOM    104  C   UNL     1       9.048   9.416 -13.222  1.00  0.00     0.135 A 
ATOM    105  F   UNL     1       8.507   7.836  -9.998  1.00  0.00    -0.206 F 
ATOM    106  C   UNL     1      10.040   7.323 -11.682  1.00  0.00     0.059 A 
ATOM    107  C   UNL     1      10.039   8.587 -13.742  1.00  0.00     0.059 A 
ATOM    108  F   UNL     1       8.561  10.382 -14.018  1.00  0.00    -0.206 F 
ATOM    109  C   UNL     1      10.543   7.550 -12.962  1.00  0.00     0.060 A 
BRANCH 109 110
ATOM    110  S   UNL     1      11.823   6.458 -13.623  1.00  0.00     0.124 S 
ATOM    111  O   UNL     1      12.973   6.794 -12.790  1.00  0.00    -0.237 OA
ATOM    112  O   UNL     1      11.251   5.131 -13.409  1.00  0.00    -0.237 OA
ATOM    113  O   UNL     1      11.928   6.863 -15.023  1.00  0.00    -0.744 OA
ENDBRANCH 109 110
ENDBRANCH  77 102
ENDBRANCH  51  52
ENDBRANCH  44  46
ENDBRANCH  43  44
ENDBRANCH  42  43
ENDBRANCH  41  42
ENDBRANCH  40  41
ENDBRANCH  39  40
ENDBRANCH  38  39
ENDBRANCH  37  38
ENDBRANCH   1  37
TORSDOF 29
