REMARK SMILES O=C(OCCOCCOCCOCCOC(=O)[C@H]1CC[C@@H]([NH+]2CCCC2)CC1)c1ccc(-c2c3nc(c(-c4c(F)cc(S(=O)(=O)[O-])cc4F)c4ccc([nH]4)c(-c4c(F)cc(S(=O)(=O)[O-])cc4F)c4nc(c(-c5c(F)cc(S(=O)(=O)[O-])cc5F)c5ccc2[nH]5)C=C4)C=C3)cc1
REMARK SMILES IDX 8 1 7 2 6 3 5 4 4 5 3 6 2 7 1 8 29 9 30 10 94 11 31 12 93 13
REMARK SMILES IDX 32 14 33 15 34 16 87 17 35 18 92 19 86 20 88 21 36 22 91 23
REMARK SMILES IDX 85 24 84 25 37 27 71 28 50 29 70 30 51 31 54 32 69 33 89 34
REMARK SMILES IDX 52 35 53 36 68 38 90 39 55 40 38 41 39 42 48 43 40 44 41 45
REMARK SMILES IDX 47 46 49 47 42 48 43 49 44 50 45 51 46 52 72 53 73 54 82 55
REMARK SMILES IDX 74 56 75 57 81 58 83 59 76 60 77 61 78 62 79 63 80 64 56 65
REMARK SMILES IDX 57 66 66 67 58 68 59 69 65 70 67 71 60 72 61 73 62 74 63 75
REMARK SMILES IDX 64 76 9 77 10 78 11 79 12 80 13 81 14 82 15 83 16 84 17 85
REMARK SMILES IDX 18 86 19 87 28 88 20 89 27 90 21 91 22 92 23 93 26 94 24 96
REMARK SMILES IDX 25 97
REMARK H PARENT 88 26 54 37 22 95
REMARK Flexibility Score: inf
ROOT
ATOM      1  C   UNL     1       2.075  -0.896   2.294  1.00  0.00     0.188 C 
ENDROOT
BRANCH   1   2
ATOM      2  C   UNL     1       2.413   0.147   1.229  1.00  0.00     0.188 C 
BRANCH   2   3
ATOM      3  O   UNL     1       3.670  -0.192   0.680  1.00  0.00    -0.376 OA
BRANCH   3   4
ATOM      4  C   UNL     1       4.611   0.801   0.300  1.00  0.00     0.202 C 
BRANCH   4   5
ATOM      5  C   UNL     1       4.144   1.771  -0.759  1.00  0.00     0.261 C 
BRANCH   5   6
ATOM      6  O   UNL     1       2.816   1.556  -1.267  1.00  0.00    -0.460 OA
BRANCH   6   7
ATOM      7  C   UNL     1       2.273   0.572  -2.017  1.00  0.00     0.338 C 
ATOM      8  O   UNL     1       1.079   0.658  -2.304  1.00  0.00    -0.246 OA
BRANCH   7   9
ATOM      9  C   UNL     1       3.023  -0.595  -2.555  1.00  0.00     0.060 A 
ATOM     10  C   UNL     1       3.988  -1.311  -1.860  1.00  0.00     0.016 A 
ATOM     11  C   UNL     1       2.614  -1.113  -3.790  1.00  0.00     0.016 A 
ATOM     12  C   UNL     1       4.637  -2.402  -2.374  1.00  0.00     0.010 A 
ATOM     13  C   UNL     1       3.184  -2.288  -4.290  1.00  0.00     0.010 A 
ATOM     14  C   UNL     1       4.207  -2.919  -3.574  1.00  0.00    -0.014 A 
BRANCH  14  15
ATOM     15  C   UNL     1       4.980  -4.053  -4.068  1.00  0.00     0.031 A 
ATOM     16  C   UNL     1       5.941  -3.771  -5.167  1.00  0.00     0.074 A 
ATOM     17  C   UNL     1       4.946  -5.219  -3.396  1.00  0.00     0.049 A 
ATOM     18  N   UNL     1       6.635  -4.606  -5.877  1.00  0.00    -0.248 NA
ATOM     19  C   UNL     1       6.165  -2.350  -5.504  1.00  0.00     0.031 C 
ATOM     20  C   UNL     1       4.197  -5.467  -2.154  1.00  0.00     0.029 A 
ATOM     21  N   UNL     1       5.574  -6.406  -3.640  1.00  0.00    -0.354 N 
ATOM     22  C   UNL     1       7.314  -3.823  -6.796  1.00  0.00     0.074 A 
ATOM     23  C   UNL     1       6.995  -2.442  -6.530  1.00  0.00     0.031 C 
ATOM     24  C   UNL     1       4.397  -6.735  -1.763  1.00  0.00     0.029 A 
ATOM     25  C   UNL     1       5.195  -7.407  -2.776  1.00  0.00     0.049 A 
ATOM     26  H   UNL     1       6.232  -6.533  -4.361  1.00  0.00     0.167 HD
ATOM     27  C   UNL     1       8.101  -4.259  -7.798  1.00  0.00     0.037 A 
ATOM     28  C   UNL     1       5.406  -8.732  -2.869  1.00  0.00     0.037 A 
ATOM     29  C   UNL     1       8.384  -5.652  -7.993  1.00  0.00     0.049 A 
ATOM     30  C   UNL     1       6.184  -9.203  -4.070  1.00  0.00     0.074 A 
ATOM     31  C   UNL     1       9.119  -6.253  -8.992  1.00  0.00     0.029 A 
ATOM     32  N   UNL     1       7.923  -6.662  -7.155  1.00  0.00    -0.354 N 
ATOM     33  N   UNL     1       6.767  -8.483  -5.004  1.00  0.00    -0.248 NA
ATOM     34  C   UNL     1       6.307 -10.651  -4.259  1.00  0.00     0.031 C 
ATOM     35  C   UNL     1       9.050  -7.635  -8.792  1.00  0.00     0.029 A 
ATOM     36  C   UNL     1       8.323  -7.891  -7.636  1.00  0.00     0.049 A 
ATOM     37  H   UNL     1       7.391  -6.521  -6.339  1.00  0.00     0.167 HD
ATOM     38  C   UNL     1       7.332  -9.390  -5.889  1.00  0.00     0.074 A 
ATOM     39  C   UNL     1       7.046 -10.711  -5.358  1.00  0.00     0.031 C 
ATOM     40  C   UNL     1       8.012  -9.168  -7.041  1.00  0.00     0.037 A 
BRANCH  27  41
ATOM     41  C   UNL     1       8.582  -3.249  -8.790  1.00  0.00     0.058 A 
ATOM     42  C   UNL     1       9.602  -2.332  -8.503  1.00  0.00     0.135 A 
ATOM     43  C   UNL     1       7.993  -3.203 -10.064  1.00  0.00     0.135 A 
ATOM     44  F   UNL     1      10.155  -2.295  -7.280  1.00  0.00    -0.206 F 
ATOM     45  C   UNL     1      10.034  -1.412  -9.453  1.00  0.00     0.059 A 
ATOM     46  C   UNL     1       8.424  -2.308 -11.036  1.00  0.00     0.059 A 
ATOM     47  F   UNL     1       6.982  -4.032 -10.371  1.00  0.00    -0.206 F 
ATOM     48  C   UNL     1       9.448  -1.418 -10.720  1.00  0.00     0.060 A 
BRANCH  48  49
ATOM     49  S   UNL     1      10.067  -0.267 -11.964  1.00  0.00     0.124 S 
ATOM     50  O   UNL     1       9.586   1.011 -11.447  1.00  0.00    -0.237 OA
ATOM     51  O   UNL     1      11.511  -0.478 -11.884  1.00  0.00    -0.237 OA
ATOM     52  O   UNL     1       9.438  -0.724 -13.196  1.00  0.00    -0.744 OA
ENDBRANCH  48  49
ENDBRANCH  27  41
BRANCH  28  53
ATOM     53  C   UNL     1       4.776  -9.686  -1.913  1.00  0.00     0.058 A 
ATOM     54  C   UNL     1       5.546 -10.555  -1.128  1.00  0.00     0.135 A 
ATOM     55  C   UNL     1       3.376  -9.790  -1.806  1.00  0.00     0.135 A 
ATOM     56  F   UNL     1       6.886 -10.503  -1.190  1.00  0.00    -0.206 F 
ATOM     57  C   UNL     1       4.960 -11.516  -0.308  1.00  0.00     0.059 A 
ATOM     58  C   UNL     1       2.766 -10.719  -0.968  1.00  0.00     0.059 A 
ATOM     59  F   UNL     1       2.580  -8.982  -2.523  1.00  0.00    -0.206 F 
ATOM     60  C   UNL     1       3.567 -11.596  -0.242  1.00  0.00     0.060 A 
BRANCH  60  61
ATOM     61  S   UNL     1       2.813 -12.865   0.799  1.00  0.00     0.124 S 
ATOM     62  O   UNL     1       3.093 -14.076   0.030  1.00  0.00    -0.237 OA
ATOM     63  O   UNL     1       3.554 -12.719   2.047  1.00  0.00    -0.237 OA
ATOM     64  O   UNL     1       1.413 -12.466   0.857  1.00  0.00    -0.744 OA
ENDBRANCH  60  61
ENDBRANCH  28  53
BRANCH  40  65
ATOM     65  C   UNL     1       8.501 -10.376  -7.777  1.00  0.00     0.058 A 
ATOM     66  C   UNL     1       7.621 -11.187  -8.508  1.00  0.00     0.135 A 
ATOM     67  C   UNL     1       9.874 -10.658  -7.831  1.00  0.00     0.135 A 
ATOM     68  F   UNL     1       6.299 -10.956  -8.474  1.00  0.00    -0.206 F 
ATOM     69  C   UNL     1       8.090 -12.248  -9.268  1.00  0.00     0.059 A 
ATOM     70  C   UNL     1      10.367 -11.693  -8.613  1.00  0.00     0.059 A 
ATOM     71  F   UNL     1      10.749  -9.896  -7.156  1.00  0.00    -0.206 F 
ATOM     72  C   UNL     1       9.465 -12.485  -9.323  1.00  0.00     0.060 A 
BRANCH  72  73
ATOM     73  S   UNL     1      10.065 -13.819 -10.376  1.00  0.00     0.124 S 
ATOM     74  O   UNL     1       9.658 -14.996  -9.616  1.00  0.00    -0.237 OA
ATOM     75  O   UNL     1       9.338 -13.583 -11.620  1.00  0.00    -0.237 OA
ATOM     76  O   UNL     1      11.503 -13.580 -10.441  1.00  0.00    -0.744 OA
ENDBRANCH  72  73
ENDBRANCH  40  65
ENDBRANCH  14  15
ENDBRANCH   7   9
ENDBRANCH   6   7
ENDBRANCH   5   6
ENDBRANCH   4   5
ENDBRANCH   3   4
ENDBRANCH   2   3
ENDBRANCH   1   2
BRANCH   1  77
ATOM     77  O   UNL     1       3.013  -1.008   3.366  1.00  0.00    -0.377 OA
BRANCH  77  78
ATOM     78  C   UNL     1       4.386  -1.010   3.005  1.00  0.00     0.188 C 
BRANCH  78  79
ATOM     79  C   UNL     1       5.102  -2.259   2.505  1.00  0.00     0.188 C 
BRANCH  79  80
ATOM     80  O   UNL     1       4.336  -3.310   1.984  1.00  0.00    -0.376 OA
BRANCH  80  81
ATOM     81  C   UNL     1       3.454  -4.017   2.839  1.00  0.00     0.202 C 
BRANCH  81  82
ATOM     82  C   UNL     1       3.532  -4.058   4.387  1.00  0.00     0.261 C 
BRANCH  82  83
ATOM     83  O   UNL     1       3.938  -2.879   5.116  1.00  0.00    -0.463 OA
BRANCH  83  84
ATOM     84  C   UNL     1       5.059  -2.970   5.890  1.00  0.00     0.309 C 
ATOM     85  O   UNL     1       5.797  -3.942   5.920  1.00  0.00    -0.252 OA
BRANCH  84  86
ATOM     86  C   UNL     1       5.285  -1.743   6.801  1.00  0.00     0.099 C 
ATOM     87  C   UNL     1       5.263  -0.400   6.071  1.00  0.00     0.021 C 
ATOM     88  C   UNL     1       4.310  -1.795   7.976  1.00  0.00     0.021 C 
ATOM     89  C   UNL     1       5.082   0.876   6.867  1.00  0.00     0.066 C 
ATOM     90  C   UNL     1       4.294  -0.493   8.771  1.00  0.00     0.066 C 
ATOM     91  C   UNL     1       3.980   0.758   7.929  1.00  0.00     0.184 C 
BRANCH  91  92
ATOM     92  N   UNL     1       2.596   0.957   7.449  1.00  0.00    -0.333 N 
ATOM     93  C   UNL     1       1.605   1.026   8.528  1.00  0.00     0.262 C 
ATOM     94  C   UNL     1       2.004   0.103   6.414  1.00  0.00     0.262 C 
ATOM     95  H   UNL     1       2.785   1.843   6.981  1.00  0.00     0.348 HD
ATOM     96  C   UNL     1       0.909  -0.320   8.508  1.00  0.00     0.067 C 
ATOM     97  C   UNL     1       0.821  -0.635   7.032  1.00  0.00     0.067 C 
ENDBRANCH  91  92
ENDBRANCH  84  86
ENDBRANCH  83  84
ENDBRANCH  82  83
ENDBRANCH  81  82
ENDBRANCH  80  81
ENDBRANCH  79  80
ENDBRANCH  78  79
ENDBRANCH  77  78
ENDBRANCH   1  77
TORSDOF 24
