REMARK SMILES Cc1nn(CC(=O)OCCOCCOCCOCCOC(=O)c2ccc(-c3c4nc(c(-c5c(F)cc(S(=O)(=O)[O-])cc5F)c5ccc([nH]5)c(-c5c(F)cc(S(=O)(=O)[O-])cc5F)c5nc(c(-c6c(F)cc(S(=O)(=O)[O-])cc6F)c6ccc3[nH]6)C=C5)C=C4)cc2)c(C)c1NC(=O)C(=O)Nc1ccc(F)cc1
REMARK SMILES IDX 13 1 12 2 11 3 10 4 9 5 8 6 6 7 7 8 5 9 4 10 1 11 2 12 3 13
REMARK SMILES IDX 91 14 89 15 90 16 92 17 93 18 94 20 95 21 96 22 97 23 98 25
REMARK SMILES IDX 99 26 104 27 100 28 103 29 101 30 102 31 14 32 15 33 16 34
REMARK SMILES IDX 17 35 18 36 19 37 20 38 21 39 22 40 23 41 24 42 88 43 25 44
REMARK SMILES IDX 87 45 26 46 27 47 28 48 81 49 29 50 86 51 80 52 82 53 30 54
REMARK SMILES IDX 85 55 79 56 78 57 31 59 65 60 44 61 64 62 45 63 48 64 63 65
REMARK SMILES IDX 83 66 46 67 47 68 62 70 84 71 49 72 32 73 33 74 42 75 34 76
REMARK SMILES IDX 35 77 41 78 43 79 36 80 37 81 38 82 39 83 40 84 66 85 67 86
REMARK SMILES IDX 76 87 68 88 69 89 75 90 77 91 70 92 71 93 72 94 73 95 74 96
REMARK SMILES IDX 50 97 51 98 60 99 52 100 53 101 59 102 61 103 54 104 55 105
REMARK SMILES IDX 56 106 57 107 58 108
REMARK H PARENT 92 19 97 24 82 58 48 69
REMARK Flexibility Score: inf
ROOT
ATOM      1  C   UNL     1      -3.544   2.472   0.750  1.00  0.00     0.188 C 
ENDROOT
BRANCH   1   2
ATOM      2  C   UNL     1      -4.565   3.173   1.667  1.00  0.00     0.188 C 
BRANCH   2   3
ATOM      3  O   UNL     1      -5.605   3.980   1.120  1.00  0.00    -0.376 OA
BRANCH   3   4
ATOM      4  C   UNL     1      -5.371   4.693  -0.086  1.00  0.00     0.202 C 
BRANCH   4   5
ATOM      5  C   UNL     1      -4.202   5.693  -0.113  1.00  0.00     0.261 C 
BRANCH   5   6
ATOM      6  O   UNL     1      -2.928   5.150   0.299  1.00  0.00    -0.462 OA
BRANCH   6   7
ATOM      7  C   UNL     1      -2.319   5.703   1.377  1.00  0.00     0.327 C 
ATOM      8  O   UNL     1      -2.719   6.726   1.931  1.00  0.00    -0.250 OA
BRANCH   7   9
ATOM      9  C   UNL     1      -1.168   4.909   1.951  1.00  0.00     0.267 C 
BRANCH   9  10
ATOM     10  N   UNL     1      -0.438   3.999   1.071  1.00  0.00    -0.256 N 
ATOM     11  C   UNL     1       0.735   0.695   0.498  1.00  0.00     0.071 C 
ATOM     12  C   UNL     1       0.487   2.161   0.531  1.00  0.00     0.083 A 
ATOM     13  N   UNL     1      -0.386   2.684   1.397  1.00  0.00    -0.175 NA
ATOM     14  C   UNL     1       1.148   3.181  -0.201  1.00  0.00     0.086 A 
ATOM     15  C   UNL     1       0.410   4.326   0.040  1.00  0.00     0.060 A 
ATOM     16  C   UNL     1       0.393   5.675  -0.576  1.00  0.00     0.069 C 
BRANCH  14  17
ATOM     17  N   UNL     1       2.277   2.987  -0.976  1.00  0.00    -0.315 N 
ATOM     18  C   UNL     1       3.373   3.819  -1.077  1.00  0.00     0.314 C 
ATOM     19  H   UNL     1       2.301   2.164  -1.515  1.00  0.00     0.170 HD
ATOM     20  O   UNL     1       4.391   3.443  -1.650  1.00  0.00    -0.263 OA
BRANCH  18  21
ATOM     21  C   UNL     1       3.360   5.150  -0.324  1.00  0.00     0.314 C 
ATOM     22  O   UNL     1       3.141   5.163   0.888  1.00  0.00    -0.263 OA
ATOM     23  N   UNL     1       3.603   6.351  -0.959  1.00  0.00    -0.318 N 
ATOM     24  H   UNL     1       3.120   7.135  -0.608  1.00  0.00     0.170 HD
BRANCH  23  25
ATOM     25  C   UNL     1       4.457   6.585  -2.043  1.00  0.00     0.041 A 
ATOM     26  C   UNL     1       5.389   7.613  -1.846  1.00  0.00     0.029 A 
ATOM     27  C   UNL     1       4.501   5.827  -3.212  1.00  0.00     0.029 A 
ATOM     28  C   UNL     1       6.443   7.786  -2.737  1.00  0.00     0.041 A 
ATOM     29  C   UNL     1       5.549   6.016  -4.119  1.00  0.00     0.041 A 
ATOM     30  C   UNL     1       6.525   6.971  -3.857  1.00  0.00     0.123 A 
ATOM     31  F   UNL     1       7.566   7.105  -4.688  1.00  0.00    -0.207 F 
ENDBRANCH  23  25
ENDBRANCH  18  21
ENDBRANCH  14  17
ENDBRANCH   9  10
ENDBRANCH   7   9
ENDBRANCH   6   7
ENDBRANCH   5   6
ENDBRANCH   4   5
ENDBRANCH   3   4
ENDBRANCH   2   3
ENDBRANCH   1   2
BRANCH   1  32
ATOM     32  O   UNL     1      -3.758   2.599  -0.643  1.00  0.00    -0.377 OA
BRANCH  32  33
ATOM     33  C   UNL     1      -4.309   1.460  -1.282  1.00  0.00     0.188 C 
BRANCH  33  34
ATOM     34  C   UNL     1      -5.531   0.827  -0.590  1.00  0.00     0.188 C 
BRANCH  34  35
ATOM     35  O   UNL     1      -5.378   0.597   0.811  1.00  0.00    -0.376 OA
BRANCH  35  36
ATOM     36  C   UNL     1      -5.013  -0.682   1.310  1.00  0.00     0.202 C 
BRANCH  36  37
ATOM     37  C   UNL     1      -3.583  -1.165   1.056  1.00  0.00     0.261 C 
BRANCH  37  38
ATOM     38  O   UNL     1      -3.178  -1.130  -0.300  1.00  0.00    -0.460 OA
BRANCH  38  39
ATOM     39  C   UNL     1      -3.956  -1.819  -1.157  1.00  0.00     0.338 C 
ATOM     40  O   UNL     1      -5.026  -2.347  -0.930  1.00  0.00    -0.246 OA
BRANCH  39  41
ATOM     41  C   UNL     1      -3.244  -1.945  -2.426  1.00  0.00     0.060 A 
ATOM     42  C   UNL     1      -3.959  -2.563  -3.450  1.00  0.00     0.016 A 
ATOM     43  C   UNL     1      -1.846  -1.838  -2.423  1.00  0.00     0.016 A 
ATOM     44  C   UNL     1      -3.252  -3.345  -4.323  1.00  0.00     0.010 A 
ATOM     45  C   UNL     1      -1.143  -2.638  -3.282  1.00  0.00     0.010 A 
ATOM     46  C   UNL     1      -1.868  -3.453  -4.143  1.00  0.00    -0.014 A 
BRANCH  46  47
ATOM     47  C   UNL     1      -1.176  -4.420  -4.954  1.00  0.00     0.031 A 
ATOM     48  C   UNL     1      -0.986  -3.941  -6.332  1.00  0.00     0.074 A 
ATOM     49  C   UNL     1      -0.718  -5.580  -4.454  1.00  0.00     0.049 A 
ATOM     50  N   UNL     1      -1.619  -4.321  -7.389  1.00  0.00    -0.248 NA
ATOM     51  C   UNL     1      -0.172  -2.728  -6.514  1.00  0.00     0.031 C 
ATOM     52  C   UNL     1      -0.613  -5.988  -3.051  1.00  0.00     0.029 A 
ATOM     53  N   UNL     1      -0.151  -6.615  -5.119  1.00  0.00    -0.354 N 
ATOM     54  C   UNL     1      -1.082  -3.561  -8.419  1.00  0.00     0.074 A 
ATOM     55  C   UNL     1      -0.413  -2.452  -7.795  1.00  0.00     0.031 C 
ATOM     56  C   UNL     1       0.188  -7.077  -2.969  1.00  0.00     0.029 A 
ATOM     57  C   UNL     1       0.540  -7.508  -4.313  1.00  0.00     0.049 A 
ATOM     58  H   UNL     1      -0.223  -6.724  -6.095  1.00  0.00     0.167 HD
ATOM     59  C   UNL     1      -0.969  -4.075  -9.672  1.00  0.00     0.037 A 
ATOM     60  C   UNL     1       1.401  -8.462  -4.749  1.00  0.00     0.037 A 
ATOM     61  C   UNL     1      -1.841  -5.213  -9.840  1.00  0.00     0.049 A 
ATOM     62  C   UNL     1       1.103  -8.690  -6.192  1.00  0.00     0.074 A 
ATOM     63  C   UNL     1      -3.205  -5.409  -9.736  1.00  0.00     0.029 A 
ATOM     64  N   UNL     1      -1.273  -6.464  -9.780  1.00  0.00    -0.354 N 
ATOM     65  N   UNL     1      -0.005  -9.222  -6.634  1.00  0.00    -0.248 NA
ATOM     66  C   UNL     1       1.843  -7.906  -7.173  1.00  0.00     0.031 C 
ATOM     67  C   UNL     1      -3.357  -6.710  -9.174  1.00  0.00     0.029 A 
ATOM     68  C   UNL     1      -2.085  -7.265  -9.019  1.00  0.00     0.049 A 
ATOM     69  H   UNL     1      -0.431  -6.737 -10.210  1.00  0.00     0.167 HD
ATOM     70  C   UNL     1      -0.313  -8.511  -7.786  1.00  0.00     0.074 A 
ATOM     71  C   UNL     1       0.908  -7.782  -8.119  1.00  0.00     0.031 C 
ATOM     72  C   UNL     1      -1.607  -8.357  -8.195  1.00  0.00     0.037 A 
BRANCH  59  73
ATOM     73  C   UNL     1       0.211  -3.805 -10.577  1.00  0.00     0.058 A 
ATOM     74  C   UNL     1       0.192  -4.326 -11.886  1.00  0.00     0.135 A 
ATOM     75  C   UNL     1       1.463  -3.304 -10.145  1.00  0.00     0.135 A 
ATOM     76  F   UNL     1      -0.939  -4.828 -12.406  1.00  0.00    -0.206 F 
ATOM     77  C   UNL     1       1.343  -4.423 -12.668  1.00  0.00     0.059 A 
ATOM     78  C   UNL     1       2.607  -3.338 -10.929  1.00  0.00     0.059 A 
ATOM     79  F   UNL     1       1.678  -2.842  -8.909  1.00  0.00    -0.206 F 
ATOM     80  C   UNL     1       2.549  -3.941 -12.171  1.00  0.00     0.060 A 
BRANCH  80  81
ATOM     81  S   UNL     1       4.056  -4.159 -13.126  1.00  0.00     0.124 S 
ATOM     82  O   UNL     1       4.248  -5.602 -13.034  1.00  0.00    -0.237 OA
ATOM     83  O   UNL     1       3.661  -3.644 -14.432  1.00  0.00    -0.237 OA
ATOM     84  O   UNL     1       5.030  -3.344 -12.404  1.00  0.00    -0.744 OA
ENDBRANCH  80  81
ENDBRANCH  59  73
BRANCH  60  85
ATOM     85  C   UNL     1       2.671  -8.909  -4.116  1.00  0.00     0.058 A 
ATOM     86  C   UNL     1       3.358 -10.040  -4.594  1.00  0.00     0.135 A 
ATOM     87  C   UNL     1       3.385  -8.086  -3.221  1.00  0.00     0.135 A 
ATOM     88  F   UNL     1       2.764 -10.871  -5.465  1.00  0.00    -0.206 F 
ATOM     89  C   UNL     1       4.688 -10.307  -4.252  1.00  0.00     0.059 A 
ATOM     90  C   UNL     1       4.706  -8.339  -2.855  1.00  0.00     0.059 A 
ATOM     91  F   UNL     1       2.854  -6.950  -2.744  1.00  0.00    -0.206 F 
ATOM     92  C   UNL     1       5.362  -9.437  -3.397  1.00  0.00     0.060 A 
BRANCH  92  93
ATOM     93  S   UNL     1       7.130  -9.671  -3.099  1.00  0.00     0.124 S 
ATOM     94  O   UNL     1       7.141 -10.880  -2.284  1.00  0.00    -0.237 OA
ATOM     95  O   UNL     1       7.655  -9.808  -4.453  1.00  0.00    -0.237 OA
ATOM     96  O   UNL     1       7.521  -8.446  -2.404  1.00  0.00    -0.744 OA
ENDBRANCH  92  93
ENDBRANCH  60  85
BRANCH  72  97
ATOM     97  C   UNL     1      -2.660  -9.248  -7.584  1.00  0.00     0.058 A 
ATOM     98  C   UNL     1      -3.026  -9.238  -6.226  1.00  0.00     0.135 A 
ATOM     99  C   UNL     1      -3.436 -10.032  -8.451  1.00  0.00     0.135 A 
ATOM    100  F   UNL     1      -2.403  -8.439  -5.348  1.00  0.00    -0.206 F 
ATOM    101  C   UNL     1      -4.093 -10.004  -5.748  1.00  0.00     0.059 A 
ATOM    102  C   UNL     1      -4.524 -10.775  -8.003  1.00  0.00     0.059 A 
ATOM    103  F   UNL     1      -3.175 -10.037  -9.768  1.00  0.00    -0.206 F 
ATOM    104  C   UNL     1      -4.840 -10.766  -6.647  1.00  0.00     0.060 A 
BRANCH 104 105
ATOM    105  S   UNL     1      -6.275 -11.685  -6.047  1.00  0.00     0.124 S 
ATOM    106  O   UNL     1      -5.652 -12.773  -5.300  1.00  0.00    -0.237 OA
ATOM    107  O   UNL     1      -6.980 -10.688  -5.247  1.00  0.00    -0.237 OA
ATOM    108  O   UNL     1      -6.962 -12.084  -7.273  1.00  0.00    -0.744 OA
ENDBRANCH 104 105
ENDBRANCH  72  97
ENDBRANCH  46  47
ENDBRANCH  39  41
ENDBRANCH  38  39
ENDBRANCH  37  38
ENDBRANCH  36  37
ENDBRANCH  35  36
ENDBRANCH  34  35
ENDBRANCH  33  34
ENDBRANCH  32  33
ENDBRANCH   1  32
TORSDOF 27
