REMARK SMILES O=C(OCCOCCOCCOCCOC(=O)[C@H]1C[C@H]2CCCC[C@@H]2[N@@H+]1CC[C@@H]1CCCO1)c1ccc(-c2c3nc(c(-c4c(F)cc(S(=O)(=O)[O-])cc4F)c4ccc([nH]4)c(-c4c(F)cc(S(=O)(=O)[O-])cc4F)c4nc(c(-c5c(F)cc(S(=O)(=O)[O-])cc5F)c5ccc2[nH]5)C=C4)C=C3)cc1
REMARK SMILES IDX 9 1 8 2 7 3 6 4 5 5 4 6 3 7 2 8 1 9 34 10 35 11 99 12 36 13
REMARK SMILES IDX 98 14 37 15 38 16 39 17 92 18 40 19 97 20 91 21 93 22 41 23
REMARK SMILES IDX 96 24 90 25 89 26 42 28 76 29 55 30 75 31 56 32 59 33 74 34
REMARK SMILES IDX 94 35 57 36 58 37 73 39 95 40 60 41 43 42 44 43 53 44 45 45
REMARK SMILES IDX 46 46 52 47 54 48 47 49 48 50 49 51 50 52 51 53 77 54 78 55
REMARK SMILES IDX 87 56 79 57 80 58 86 59 88 60 81 61 82 62 83 63 84 64 85 65
REMARK SMILES IDX 61 66 62 67 71 68 63 69 64 70 70 71 72 72 65 73 66 74 67 75
REMARK SMILES IDX 68 76 69 77 10 78 11 79 12 80 13 81 14 82 15 83 16 84 17 85
REMARK SMILES IDX 18 86 19 87 26 88 20 89 25 90 21 92 24 93 22 94 23 95 27 96
REMARK SMILES IDX 28 97 29 98 30 99 33 100 31 101 32 102
REMARK H PARENT 93 27 59 38 26 91
REMARK Flexibility Score: inf
ROOT
ATOM      1  O   UNL     1       6.849  -3.991   4.661  1.00  0.00    -0.377 OA
ENDROOT
BRANCH   1   2
ATOM      2  C   UNL     1       8.138  -4.526   4.403  1.00  0.00     0.188 C 
BRANCH   2   3
ATOM      3  C   UNL     1       8.959  -3.758   3.373  1.00  0.00     0.188 C 
BRANCH   3   4
ATOM      4  O   UNL     1       9.326  -2.488   3.898  1.00  0.00    -0.376 OA
BRANCH   4   5
ATOM      5  C   UNL     1       9.389  -1.382   3.008  1.00  0.00     0.202 C 
BRANCH   5   6
ATOM      6  C   UNL     1      10.552  -1.413   2.021  1.00  0.00     0.261 C 
BRANCH   6   7
ATOM      7  O   UNL     1      11.104  -2.719   1.798  1.00  0.00    -0.460 OA
BRANCH   7   8
ATOM      8  C   UNL     1      12.024  -3.399   2.525  1.00  0.00     0.338 C 
ATOM      9  O   UNL     1      12.377  -4.503   2.107  1.00  0.00    -0.246 OA
BRANCH   8  10
ATOM     10  C   UNL     1      12.622  -2.926   3.812  1.00  0.00     0.060 A 
ATOM     11  C   UNL     1      12.031  -2.034   4.704  1.00  0.00     0.016 A 
ATOM     12  C   UNL     1      13.837  -3.516   4.199  1.00  0.00     0.016 A 
ATOM     13  C   UNL     1      12.602  -1.712   5.919  1.00  0.00     0.010 A 
ATOM     14  C   UNL     1      14.429  -3.204   5.427  1.00  0.00     0.010 A 
ATOM     15  C   UNL     1      13.805  -2.291   6.282  1.00  0.00    -0.014 A 
BRANCH  15  16
ATOM     16  C   UNL     1      14.445  -1.767   7.491  1.00  0.00     0.031 A 
ATOM     17  C   UNL     1      15.569  -0.803   7.300  1.00  0.00     0.074 A 
ATOM     18  C   UNL     1      13.911  -2.034   8.696  1.00  0.00     0.049 A 
ATOM     19  N   UNL     1      16.375  -0.294   8.185  1.00  0.00    -0.248 NA
ATOM     20  C   UNL     1      15.811  -0.333   5.921  1.00  0.00     0.031 C 
ATOM     21  C   UNL     1      12.690  -2.815   8.926  1.00  0.00     0.029 A 
ATOM     22  N   UNL     1      14.309  -1.665   9.950  1.00  0.00    -0.354 N 
ATOM     23  C   UNL     1      17.256   0.502   7.466  1.00  0.00     0.074 A 
ATOM     24  C   UNL     1      16.872   0.443   6.077  1.00  0.00     0.031 C 
ATOM     25  C   UNL     1      12.451  -2.880  10.245  1.00  0.00     0.029 A 
ATOM     26  C   UNL     1      13.547  -2.226  10.948  1.00  0.00     0.049 A 
ATOM     27  H   UNL     1      15.065  -1.059  10.122  1.00  0.00     0.167 HD
ATOM     28  C   UNL     1      18.310   1.192   7.949  1.00  0.00     0.037 A 
ATOM     29  C   UNL     1      13.773  -2.264  12.274  1.00  0.00     0.037 A 
ATOM     30  C   UNL     1      18.629   1.226   9.348  1.00  0.00     0.049 A 
ATOM     31  C   UNL     1      15.021  -1.581  12.772  1.00  0.00     0.074 A 
ATOM     32  C   UNL     1      19.684   1.853   9.978  1.00  0.00     0.029 A 
ATOM     33  N   UNL     1      17.883   0.590  10.334  1.00  0.00    -0.354 N 
ATOM     34  N   UNL     1      15.897  -0.874  12.093  1.00  0.00    -0.248 NA
ATOM     35  C   UNL     1      15.334  -1.720  14.198  1.00  0.00     0.031 C 
ATOM     36  C   UNL     1      19.611   1.542  11.339  1.00  0.00     0.029 A 
ATOM     37  C   UNL     1      18.477   0.773  11.565  1.00  0.00     0.049 A 
ATOM     38  H   UNL     1      17.053   0.085  10.177  1.00  0.00     0.167 HD
ATOM     39  C   UNL     1      16.861  -0.477  13.010  1.00  0.00     0.074 A 
ATOM     40  C   UNL     1      16.442  -0.998  14.297  1.00  0.00     0.031 C 
ATOM     41  C   UNL     1      17.998   0.237  12.816  1.00  0.00     0.037 A 
BRANCH  28  42
ATOM     42  C   UNL     1      19.224   1.854   6.965  1.00  0.00     0.058 A 
ATOM     43  C   UNL     1      18.878   3.029   6.282  1.00  0.00     0.135 A 
ATOM     44  C   UNL     1      20.490   1.299   6.717  1.00  0.00     0.135 A 
ATOM     45  F   UNL     1      17.662   3.574   6.444  1.00  0.00    -0.206 F 
ATOM     46  C   UNL     1      19.762   3.638   5.396  1.00  0.00     0.059 A 
ATOM     47  C   UNL     1      21.397   1.902   5.854  1.00  0.00     0.059 A 
ATOM     48  F   UNL     1      20.855   0.156   7.319  1.00  0.00    -0.206 F 
ATOM     49  C   UNL     1      21.025   3.073   5.199  1.00  0.00     0.060 A 
BRANCH  49  50
ATOM     50  S   UNL     1      22.180   3.914   4.096  1.00  0.00     0.124 S 
ATOM     51  O   UNL     1      21.570   3.679   2.794  1.00  0.00    -0.237 OA
ATOM     52  O   UNL     1      22.133   5.284   4.585  1.00  0.00    -0.237 OA
ATOM     53  O   UNL     1      23.445   3.210   4.330  1.00  0.00    -0.744 OA
ENDBRANCH  49  50
ENDBRANCH  28  42
BRANCH  29  54
ATOM     54  C   UNL     1      12.898  -3.059  13.182  1.00  0.00     0.058 A 
ATOM     55  C   UNL     1      12.202  -2.461  14.242  1.00  0.00     0.135 A 
ATOM     56  C   UNL     1      12.782  -4.454  13.039  1.00  0.00     0.135 A 
ATOM     57  F   UNL     1      12.278  -1.135  14.431  1.00  0.00    -0.206 F 
ATOM     58  C   UNL     1      11.459  -3.215  15.149  1.00  0.00     0.059 A 
ATOM     59  C   UNL     1      12.018  -5.224  13.910  1.00  0.00     0.059 A 
ATOM     60  F   UNL     1      13.416  -5.086  12.040  1.00  0.00    -0.206 F 
ATOM     61  C   UNL     1      11.381  -4.599  14.978  1.00  0.00     0.060 A 
BRANCH  61  62
ATOM     62  S   UNL     1      10.443  -5.573  16.175  1.00  0.00     0.124 S 
ATOM     63  O   UNL     1      11.313  -5.518  17.343  1.00  0.00    -0.237 OA
ATOM     64  O   UNL     1       9.194  -4.824  16.271  1.00  0.00    -0.237 OA
ATOM     65  O   UNL     1      10.333  -6.880  15.532  1.00  0.00    -0.744 OA
ENDBRANCH  61  62
ENDBRANCH  29  54
BRANCH  41  66
ATOM     66  C   UNL     1      18.843   0.504  14.024  1.00  0.00     0.058 A 
ATOM     67  C   UNL     1      19.624  -0.506  14.603  1.00  0.00     0.135 A 
ATOM     68  C   UNL     1      18.942   1.804  14.542  1.00  0.00     0.135 A 
ATOM     69  F   UNL     1      19.552  -1.766  14.144  1.00  0.00    -0.206 F 
ATOM     70  C   UNL     1      20.473  -0.236  15.667  1.00  0.00     0.059 A 
ATOM     71  C   UNL     1      19.810   2.103  15.583  1.00  0.00     0.059 A 
ATOM     72  F   UNL     1      18.221   2.803  14.008  1.00  0.00    -0.206 F 
ATOM     73  C   UNL     1      20.567   1.074  16.142  1.00  0.00     0.060 A 
BRANCH  73  74
ATOM     74  S   UNL     1      21.727   1.422  17.476  1.00  0.00     0.124 S 
ATOM     75  O   UNL     1      21.058   0.804  18.616  1.00  0.00    -0.237 OA
ATOM     76  O   UNL     1      22.941   0.756  17.014  1.00  0.00    -0.237 OA
ATOM     77  O   UNL     1      21.790   2.881  17.500  1.00  0.00    -0.744 OA
ENDBRANCH  73  74
ENDBRANCH  41  66
ENDBRANCH  15  16
ENDBRANCH   8  10
ENDBRANCH   7   8
ENDBRANCH   6   7
ENDBRANCH   5   6
ENDBRANCH   4   5
ENDBRANCH   3   4
ENDBRANCH   2   3
ENDBRANCH   1   2
BRANCH   1  78
ATOM     78  C   UNL     1       6.758  -2.575   4.776  1.00  0.00     0.188 C 
BRANCH  78  79
ATOM     79  C   UNL     1       7.498  -1.840   5.919  1.00  0.00     0.188 C 
BRANCH  79  80
ATOM     80  O   UNL     1       8.343  -2.668   6.682  1.00  0.00    -0.376 OA
BRANCH  80  81
ATOM     81  C   UNL     1       7.793  -3.401   7.763  1.00  0.00     0.202 C 
BRANCH  81  82
ATOM     82  C   UNL     1       6.309  -3.831   7.879  1.00  0.00     0.261 C 
BRANCH  82  83
ATOM     83  O   UNL     1       5.319  -3.222   7.032  1.00  0.00    -0.459 OA
BRANCH  83  84
ATOM     84  C   UNL     1       4.790  -2.031   7.423  1.00  0.00     0.365 C 
ATOM     85  O   UNL     1       5.081  -1.477   8.477  1.00  0.00    -0.245 OA
BRANCH  84  86
ATOM     86  C   UNL     1       3.823  -1.444   6.331  1.00  0.00     0.295 C 
ATOM     87  C   UNL     1       2.761  -0.642   7.094  1.00  0.00     0.087 C 
ATOM     88  N   UNL     1       4.520  -0.449   5.440  1.00  0.00    -0.320 N 
ATOM     89  C   UNL     1       3.102   0.810   6.793  1.00  0.00     0.054 C 
ATOM     90  C   UNL     1       4.500   0.792   6.200  1.00  0.00     0.188 C 
ATOM     91  H   UNL     1       5.470  -0.766   5.249  1.00  0.00     0.349 HD
ATOM     92  C   UNL     1       3.053   1.831   7.911  1.00  0.00     0.010 C 
ATOM     93  C   UNL     1       4.877   2.110   5.536  1.00  0.00     0.065 C 
ATOM     94  C   UNL     1       3.370   3.213   7.320  1.00  0.00     0.001 C 
ATOM     95  C   UNL     1       4.676   3.275   6.510  1.00  0.00     0.006 C 
BRANCH  88  96
ATOM     96  C   UNL     1       4.157  -0.376   4.011  1.00  0.00     0.265 C 
BRANCH  96  97
ATOM     97  C   UNL     1       2.715  -0.298   3.466  1.00  0.00     0.093 C 
BRANCH  97  98
ATOM     98  C   UNL     1       2.078   1.048   3.072  1.00  0.00     0.123 C 
ATOM     99  C   UNL     1       2.754   1.877   1.985  1.00  0.00     0.034 C 
ATOM    100  O   UNL     1       1.873   1.927   4.171  1.00  0.00    -0.378 OA
ATOM    101  C   UNL     1       2.615   3.318   2.446  1.00  0.00     0.031 C 
ATOM    102  C   UNL     1       1.721   3.247   3.660  1.00  0.00     0.160 C 
ENDBRANCH  97  98
ENDBRANCH  96  97
ENDBRANCH  88  96
ENDBRANCH  84  86
ENDBRANCH  83  84
ENDBRANCH  82  83
ENDBRANCH  81  82
ENDBRANCH  80  81
ENDBRANCH  79  80
ENDBRANCH  78  79
ENDBRANCH   1  78
TORSDOF 26
