REMARK SMILES CCCCCCC(=O)Nc1ccc(Cl)c(C(=O)OCCOCCOCCOCCOC(=O)c2ccc(-c3c4nc(c(-c5c(F)cc(S(=O)(=O)[O-])cc5F)c5ccc([nH]5)c(-c5c(F)cc(S(=O)(=O)[O-])cc5F)c5nc(c(-c6c(F)cc(S(=O)(=O)[O-])cc6F)c6ccc3[nH]6)C=C5)C=C4)cc2)c1
REMARK SMILES IDX 22 1 21 2 20 3 19 4 18 5 16 6 17 7 15 8 10 9 11 10 99 11
REMARK SMILES IDX 12 12 13 13 14 14 9 15 7 16 8 17 6 19 5 20 4 21 3 22 2 23
REMARK SMILES IDX 1 24 23 25 24 26 25 27 26 28 27 29 28 30 29 31 30 32 31 33
REMARK SMILES IDX 32 34 33 35 34 36 98 37 35 38 97 39 36 40 37 41 38 42 91 43
REMARK SMILES IDX 39 44 96 45 90 46 92 47 40 48 95 49 89 50 88 51 41 53 75 54
REMARK SMILES IDX 54 55 74 56 55 57 58 58 73 59 93 60 56 61 57 62 72 64 94 65
REMARK SMILES IDX 59 66 42 67 43 68 52 69 44 70 45 71 51 72 53 73 46 74 47 75
REMARK SMILES IDX 48 76 49 77 50 78 76 79 77 80 86 81 78 82 79 83 85 84 87 85
REMARK SMILES IDX 80 86 81 87 82 88 83 89 84 90 60 91 61 92 70 93 62 94 63 95
REMARK SMILES IDX 69 96 71 97 64 98 65 99 66 100 67 101 68 102
REMARK H PARENT 9 18 92 52 58 63
REMARK Flexibility Score: inf
ROOT
ATOM      1  C   UNL     1       5.741   5.660   0.954  1.00  0.00     0.188 C 
ENDROOT
BRANCH   1   2
ATOM      2  O   UNL     1       6.648   5.820   2.031  1.00  0.00    -0.376 OA
BRANCH   2   3
ATOM      3  C   UNL     1       6.864   4.792   2.993  1.00  0.00     0.202 C 
BRANCH   3   4
ATOM      4  C   UNL     1       5.784   3.790   3.439  1.00  0.00     0.261 C 
BRANCH   4   5
ATOM      5  O   UNL     1       4.961   3.306   2.379  1.00  0.00    -0.460 OA
BRANCH   5   6
ATOM      6  C   UNL     1       3.627   3.502   2.466  1.00  0.00     0.339 C 
ATOM      7  O   UNL     1       3.016   3.997   3.398  1.00  0.00    -0.246 OA
BRANCH   6   8
ATOM      8  C   UNL     1       3.046   3.320   1.114  1.00  0.00     0.080 A 
ATOM      9  C   UNL     1       1.726   4.343  -0.649  1.00  0.00     0.042 A 
ATOM     10  C   UNL     1       2.275   3.451  -1.570  1.00  0.00     0.028 A 
ATOM     11  C   UNL     1       2.136   4.311   0.684  1.00  0.00     0.043 A 
ATOM     12  C   UNL     1       3.098   2.411  -1.129  1.00  0.00     0.023 A 
ATOM     13  C   UNL     1       3.466   2.321   0.220  1.00  0.00     0.055 A 
ATOM     14  Cl  UNL     1       4.403   0.950   0.691  1.00  0.00    -0.083 Cl
BRANCH   9  15
ATOM     15  N   UNL     1       0.858   5.330  -1.120  1.00  0.00    -0.326 N 
ATOM     16  C   UNL     1      -0.509   5.257  -1.186  1.00  0.00     0.224 C 
ATOM     17  O   UNL     1      -1.094   6.035  -1.945  1.00  0.00    -0.275 OA
ATOM     18  H   UNL     1       1.270   6.165  -1.438  1.00  0.00     0.169 HD
BRANCH  16  19
ATOM     19  C   UNL     1      -1.293   4.272  -0.337  1.00  0.00     0.100 C 
BRANCH  19  20
ATOM     20  C   UNL     1      -1.627   2.929  -0.998  1.00  0.00     0.010 C 
BRANCH  20  21
ATOM     21  C   UNL     1      -0.632   1.773  -0.829  1.00  0.00     0.001 C 
BRANCH  21  22
ATOM     22  C   UNL     1      -0.140   1.568   0.606  1.00  0.00    -0.000 C 
BRANCH  22  23
ATOM     23  C   UNL     1      -0.176   0.136   1.122  1.00  0.00    -0.003 C 
ATOM     24  C   UNL     1       0.700  -0.825   0.338  1.00  0.00     0.004 C 
ENDBRANCH  22  23
ENDBRANCH  21  22
ENDBRANCH  20  21
ENDBRANCH  19  20
ENDBRANCH  16  19
ENDBRANCH   9  15
ENDBRANCH   6   8
ENDBRANCH   5   6
ENDBRANCH   4   5
ENDBRANCH   3   4
ENDBRANCH   2   3
ENDBRANCH   1   2
BRANCH   1  25
ATOM     25  C   UNL     1       5.979   4.594  -0.128  1.00  0.00     0.188 C 
BRANCH  25  26
ATOM     26  O   UNL     1       6.690   3.453   0.291  1.00  0.00    -0.377 OA
BRANCH  26  27
ATOM     27  C   UNL     1       8.110   3.467   0.195  1.00  0.00     0.188 C 
BRANCH  27  28
ATOM     28  C   UNL     1       8.875   4.802   0.049  1.00  0.00     0.188 C 
BRANCH  28  29
ATOM     29  O   UNL     1       8.256   5.774  -0.781  1.00  0.00    -0.376 OA
BRANCH  29  30
ATOM     30  C   UNL     1       8.677   5.891  -2.132  1.00  0.00     0.202 C 
BRANCH  30  31
ATOM     31  C   UNL     1       8.463   4.683  -3.060  1.00  0.00     0.261 C 
BRANCH  31  32
ATOM     32  O   UNL     1       9.107   3.464  -2.663  1.00  0.00    -0.460 OA
BRANCH  32  33
ATOM     33  C   UNL     1      10.451   3.482  -2.555  1.00  0.00     0.338 C 
ATOM     34  O   UNL     1      11.195   4.418  -2.806  1.00  0.00    -0.246 OA
BRANCH  33  35
ATOM     35  C   UNL     1      10.869   2.233  -1.890  1.00  0.00     0.060 A 
ATOM     36  C   UNL     1      11.527   2.313  -0.656  1.00  0.00     0.016 A 
ATOM     37  C   UNL     1      10.612   0.993  -2.478  1.00  0.00     0.016 A 
ATOM     38  C   UNL     1      11.962   1.150  -0.023  1.00  0.00     0.010 A 
ATOM     39  C   UNL     1      11.068  -0.170  -1.852  1.00  0.00     0.010 A 
ATOM     40  C   UNL     1      11.774  -0.095  -0.638  1.00  0.00    -0.014 A 
BRANCH  40  41
ATOM     41  C   UNL     1      12.470  -1.288  -0.100  1.00  0.00     0.031 A 
ATOM     42  C   UNL     1      13.755  -1.725  -0.752  1.00  0.00     0.074 A 
ATOM     43  C   UNL     1      11.991  -1.952   0.967  1.00  0.00     0.049 A 
ATOM     44  N   UNL     1      14.522  -2.746  -0.474  1.00  0.00    -0.248 NA
ATOM     45  C   UNL     1      14.238  -0.896  -1.869  1.00  0.00     0.031 C 
ATOM     46  C   UNL     1      10.778  -1.601   1.706  1.00  0.00     0.029 A 
ATOM     47  N   UNL     1      12.467  -3.066   1.611  1.00  0.00    -0.354 N 
ATOM     48  C   UNL     1      15.573  -2.688  -1.382  1.00  0.00     0.074 A 
ATOM     49  C   UNL     1      15.328  -1.550  -2.241  1.00  0.00     0.031 C 
ATOM     50  C   UNL     1      10.600  -2.492   2.697  1.00  0.00     0.029 A 
ATOM     51  C   UNL     1      11.665  -3.493   2.642  1.00  0.00     0.049 A 
ATOM     52  H   UNL     1      13.305  -3.518   1.358  1.00  0.00     0.167 HD
ATOM     53  C   UNL     1      16.649  -3.504  -1.484  1.00  0.00     0.037 A 
ATOM     54  C   UNL     1      11.767  -4.580   3.434  1.00  0.00     0.037 A 
ATOM     55  C   UNL     1      16.883  -4.638  -0.628  1.00  0.00     0.049 A 
ATOM     56  C   UNL     1      12.937  -5.515   3.254  1.00  0.00     0.074 A 
ATOM     57  C   UNL     1      17.953  -5.516  -0.638  1.00  0.00     0.029 A 
ATOM     58  N   UNL     1      16.032  -5.058   0.384  1.00  0.00    -0.354 N 
ATOM     59  N   UNL     1      13.939  -5.434   2.410  1.00  0.00    -0.248 NA
ATOM     60  C   UNL     1      12.991  -6.689   4.137  1.00  0.00     0.031 C 
ATOM     61  C   UNL     1      17.717  -6.503   0.326  1.00  0.00     0.029 A 
ATOM     62  C   UNL     1      16.535  -6.202   0.983  1.00  0.00     0.049 A 
ATOM     63  H   UNL     1      15.193  -4.610   0.639  1.00  0.00     0.167 HD
ATOM     64  C   UNL     1      14.756  -6.529   2.680  1.00  0.00     0.074 A 
ATOM     65  C   UNL     1      14.140  -7.245   3.777  1.00  0.00     0.031 C 
ATOM     66  C   UNL     1      15.910  -6.908   2.075  1.00  0.00     0.037 A 
BRANCH  53  67
ATOM     67  C   UNL     1      17.640  -3.220  -2.581  1.00  0.00     0.058 A 
ATOM     68  C   UNL     1      18.484  -2.099  -2.548  1.00  0.00     0.135 A 
ATOM     69  C   UNL     1      17.774  -4.106  -3.663  1.00  0.00     0.135 A 
ATOM     70  F   UNL     1      18.386  -1.207  -1.549  1.00  0.00    -0.206 F 
ATOM     71  C   UNL     1      19.409  -1.854  -3.558  1.00  0.00     0.059 A 
ATOM     72  C   UNL     1      18.713  -3.898  -4.668  1.00  0.00     0.059 A 
ATOM     73  F   UNL     1      16.988  -5.192  -3.748  1.00  0.00    -0.206 F 
ATOM     74  C   UNL     1      19.518  -2.762  -4.613  1.00  0.00     0.060 A 
BRANCH  74  75
ATOM     75  S   UNL     1      20.734  -2.437  -5.907  1.00  0.00     0.124 S 
ATOM     76  O   UNL     1      20.140  -1.289  -6.584  1.00  0.00    -0.237 OA
ATOM     77  O   UNL     1      21.942  -2.162  -5.136  1.00  0.00    -0.237 OA
ATOM     78  O   UNL     1      20.754  -3.678  -6.676  1.00  0.00    -0.744 OA
ENDBRANCH  74  75
ENDBRANCH  53  67
BRANCH  54  79
ATOM     79  C   UNL     1      10.724  -4.857   4.460  1.00  0.00     0.058 A 
ATOM     80  C   UNL     1      11.016  -4.794   5.831  1.00  0.00     0.135 A 
ATOM     81  C   UNL     1       9.415  -5.204   4.089  1.00  0.00     0.135 A 
ATOM     82  F   UNL     1      12.256  -4.482   6.239  1.00  0.00    -0.206 F 
ATOM     83  C   UNL     1      10.055  -5.081   6.796  1.00  0.00     0.059 A 
ATOM     84  C   UNL     1       8.429  -5.464   5.035  1.00  0.00     0.059 A 
ATOM     85  F   UNL     1       9.080  -5.272   2.791  1.00  0.00    -0.206 F 
ATOM     86  C   UNL     1       8.762  -5.410   6.387  1.00  0.00     0.060 A 
BRANCH  86  87
ATOM     87  S   UNL     1       7.511  -5.733   7.649  1.00  0.00     0.124 S 
ATOM     88  O   UNL     1       7.952  -7.019   8.178  1.00  0.00    -0.237 OA
ATOM     89  O   UNL     1       7.673  -4.587   8.538  1.00  0.00    -0.237 OA
ATOM     90  O   UNL     1       6.265  -5.757   6.889  1.00  0.00    -0.744 OA
ENDBRANCH  86  87
ENDBRANCH  54  79
BRANCH  66  91
ATOM     91  C   UNL     1      16.602  -8.136   2.607  1.00  0.00     0.058 A 
ATOM     92  C   UNL     1      16.069  -9.423   2.432  1.00  0.00     0.135 A 
ATOM     93  C   UNL     1      17.837  -8.027   3.270  1.00  0.00     0.135 A 
ATOM     94  F   UNL     1      14.891  -9.587   1.809  1.00  0.00    -0.206 F 
ATOM     95  C   UNL     1      16.713 -10.552   2.929  1.00  0.00     0.059 A 
ATOM     96  C   UNL     1      18.516  -9.145   3.744  1.00  0.00     0.059 A 
ATOM     97  F   UNL     1      18.402  -6.823   3.452  1.00  0.00    -0.206 F 
ATOM     98  C   UNL     1      17.937 -10.403   3.584  1.00  0.00     0.060 A 
BRANCH  98  99
ATOM     99  S   UNL     1      18.768 -11.877   4.212  1.00  0.00     0.124 S 
ATOM    100  O   UNL     1      17.924 -12.228   5.349  1.00  0.00    -0.237 OA
ATOM    101  O   UNL     1      18.701 -12.783   3.069  1.00  0.00    -0.237 OA
ATOM    102  O   UNL     1      20.105 -11.398   4.547  1.00  0.00    -0.744 OA
ENDBRANCH  98  99
ENDBRANCH  66  91
ENDBRANCH  40  41
ENDBRANCH  33  35
ENDBRANCH  32  33
ENDBRANCH  31  32
ENDBRANCH  30  31
ENDBRANCH  29  30
ENDBRANCH  28  29
ENDBRANCH  27  28
ENDBRANCH  26  27
ENDBRANCH  25  26
ENDBRANCH   1  25
TORSDOF 29
