REMARK SMILES O=C(CCc1ccc(S(=O)(=O)Nc2cccc(I)c2)cc1)OCCOCCOCCOCCOC(=O)c1ccc(-c2c3nc(c(-c4c(F)cc(S(=O)(=O)[O-])cc4F)c4ccc([nH]4)c(-c4c(F)cc(S(=O)(=O)[O-])cc4F)c4nc(c(-c5c(F)cc(S(=O)(=O)[O-])cc5F)c5ccc2[nH]5)C=C4)C=C3)cc1
REMARK SMILES IDX 27 1 26 2 25 3 24 4 23 5 22 6 2 7 1 8 3 9 4 10 5 11 6 12
REMARK SMILES IDX 21 13 7 14 20 15 8 16 9 17 10 18 11 19 12 20 13 22 14 23
REMARK SMILES IDX 19 24 15 25 17 26 16 27 18 28 28 29 29 30 30 31 31 32 32 33
REMARK SMILES IDX 33 34 34 35 35 36 36 37 37 38 38 39 102 40 39 41 101 42
REMARK SMILES IDX 40 43 41 44 42 45 95 46 43 47 100 48 94 49 96 50 44 51 99 52
REMARK SMILES IDX 93 53 92 54 45 56 79 57 58 58 78 59 59 60 62 61 77 62 97 63
REMARK SMILES IDX 60 64 61 65 76 67 98 68 63 69 46 70 47 71 56 72 48 73 49 74
REMARK SMILES IDX 55 75 57 76 50 77 51 78 52 79 53 80 54 81 80 82 81 83 90 84
REMARK SMILES IDX 82 85 83 86 89 87 91 88 84 89 85 90 86 91 87 92 88 93 64 94
REMARK SMILES IDX 65 95 74 96 66 97 67 98 73 99 75 100 68 101 69 102 70 103
REMARK SMILES IDX 71 104 72 105
REMARK H PARENT 12 21 96 55 62 66
REMARK Flexibility Score: inf
ROOT
ATOM      1  C   UNL     1       1.734  -1.581   2.356  1.00  0.00     0.188 C 
ENDROOT
BRANCH   1   2
ATOM      2  C   UNL     1       1.751  -1.504   0.827  1.00  0.00     0.188 C 
BRANCH   2   3
ATOM      3  O   UNL     1       3.024  -1.509   0.189  1.00  0.00    -0.376 OA
BRANCH   3   4
ATOM      4  C   UNL     1       3.876  -0.389   0.419  1.00  0.00     0.202 C 
BRANCH   4   5
ATOM      5  C   UNL     1       3.251   0.994   0.302  1.00  0.00     0.261 C 
BRANCH   5   6
ATOM      6  O   UNL     1       2.253   1.165  -0.727  1.00  0.00    -0.463 OA
BRANCH   6   7
ATOM      7  C   UNL     1       2.469   1.202  -2.055  1.00  0.00     0.306 C 
ATOM      8  O   UNL     1       1.786   1.940  -2.766  1.00  0.00    -0.252 OA
BRANCH   7   9
ATOM      9  C   UNL     1       3.429   0.227  -2.684  1.00  0.00     0.127 C 
BRANCH   9  10
ATOM     10  C   UNL     1       4.655   0.887  -3.316  1.00  0.00     0.047 C 
BRANCH  10  11
ATOM     11  C   UNL     1       5.615   1.476  -2.313  1.00  0.00    -0.047 A 
ATOM     12  C   UNL     1       6.474   0.667  -1.557  1.00  0.00     0.005 A 
ATOM     13  C   UNL     1       5.589   2.848  -2.057  1.00  0.00     0.005 A 
ATOM     14  C   UNL     1       7.122   1.187  -0.432  1.00  0.00     0.022 A 
ATOM     15  C   UNL     1       6.299   3.380  -0.981  1.00  0.00     0.022 A 
ATOM     16  C   UNL     1       6.971   2.538  -0.099  1.00  0.00     0.087 A 
BRANCH  16  17
ATOM     17  S   UNL     1       7.407   3.001   1.576  1.00  0.00     0.261 S 
ATOM     18  O   UNL     1       6.394   2.391   2.413  1.00  0.00    -0.201 OA
ATOM     19  O   UNL     1       8.805   2.656   1.727  1.00  0.00    -0.201 OA
BRANCH  17  20
ATOM     20  N   UNL     1       7.333   4.663   1.750  1.00  0.00    -0.280 N 
ATOM     21  H   UNL     1       8.109   5.116   2.153  1.00  0.00     0.180 HD
BRANCH  20  22
ATOM     22  C   UNL     1       6.231   5.468   1.358  1.00  0.00     0.050 A 
ATOM     23  C   UNL     1       6.534   6.634   0.645  1.00  0.00     0.027 A 
ATOM     24  C   UNL     1       4.903   5.065   1.505  1.00  0.00     0.041 A 
ATOM     25  C   UNL     1       5.528   7.328  -0.027  1.00  0.00     0.003 A 
ATOM     26  C   UNL     1       3.901   5.761   0.823  1.00  0.00     0.015 A 
ATOM     27  C   UNL     1       4.211   6.875   0.040  1.00  0.00     0.015 A 
ATOM     28  I   UNL     1       1.939   5.073   0.887  1.00  0.00    -0.044 I 
ENDBRANCH  20  22
ENDBRANCH  17  20
ENDBRANCH  16  17
ENDBRANCH  10  11
ENDBRANCH   9  10
ENDBRANCH   7   9
ENDBRANCH   6   7
ENDBRANCH   5   6
ENDBRANCH   4   5
ENDBRANCH   3   4
ENDBRANCH   2   3
ENDBRANCH   1   2
BRANCH   1  29
ATOM     29  O   UNL     1       2.861  -0.953   2.950  1.00  0.00    -0.377 OA
BRANCH  29  30
ATOM     30  C   UNL     1       3.756  -1.867   3.591  1.00  0.00     0.188 C 
BRANCH  30  31
ATOM     31  C   UNL     1       4.448  -2.906   2.682  1.00  0.00     0.188 C 
BRANCH  31  32
ATOM     32  O   UNL     1       3.525  -3.832   2.099  1.00  0.00    -0.376 OA
BRANCH  32  33
ATOM     33  C   UNL     1       3.654  -5.181   2.544  1.00  0.00     0.202 C 
BRANCH  33  34
ATOM     34  C   UNL     1       2.870  -5.444   3.836  1.00  0.00     0.261 C 
BRANCH  34  35
ATOM     35  O   UNL     1       3.304  -4.646   4.949  1.00  0.00    -0.460 OA
BRANCH  35  36
ATOM     36  C   UNL     1       4.580  -4.846   5.363  1.00  0.00     0.338 C 
ATOM     37  O   UNL     1       5.329  -5.721   4.986  1.00  0.00    -0.246 OA
BRANCH  36  38
ATOM     38  C   UNL     1       4.997  -3.678   6.181  1.00  0.00     0.060 A 
ATOM     39  C   UNL     1       6.300  -3.195   6.011  1.00  0.00     0.016 A 
ATOM     40  C   UNL     1       4.126  -3.052   7.081  1.00  0.00     0.016 A 
ATOM     41  C   UNL     1       6.763  -2.143   6.802  1.00  0.00     0.010 A 
ATOM     42  C   UNL     1       4.591  -2.001   7.877  1.00  0.00     0.010 A 
ATOM     43  C   UNL     1       5.931  -1.589   7.784  1.00  0.00    -0.014 A 
BRANCH  43  44
ATOM     44  C   UNL     1       6.557  -0.841   8.902  1.00  0.00     0.031 A 
ATOM     45  C   UNL     1       6.980  -1.641  10.109  1.00  0.00     0.074 A 
ATOM     46  C   UNL     1       6.800   0.480   8.842  1.00  0.00     0.049 A 
ATOM     47  N   UNL     1       7.612  -1.255  11.186  1.00  0.00    -0.248 NA
ATOM     48  C   UNL     1       6.642  -3.076  10.094  1.00  0.00     0.031 C 
ATOM     49  C   UNL     1       6.462   1.359   7.725  1.00  0.00     0.029 A 
ATOM     50  N   UNL     1       7.402   1.310   9.755  1.00  0.00    -0.354 N 
ATOM     51  C   UNL     1       7.754  -2.397  11.967  1.00  0.00     0.074 A 
ATOM     52  C   UNL     1       7.107  -3.481  11.264  1.00  0.00     0.031 C 
ATOM     53  C   UNL     1       6.864   2.610   8.019  1.00  0.00     0.029 A 
ATOM     54  C   UNL     1       7.481   2.620   9.346  1.00  0.00     0.049 A 
ATOM     55  H   UNL     1       7.745   0.996  10.623  1.00  0.00     0.167 HD
ATOM     56  C   UNL     1       8.381  -2.540  13.157  1.00  0.00     0.037 A 
ATOM     57  C   UNL     1       7.998   3.696   9.973  1.00  0.00     0.037 A 
ATOM     58  C   UNL     1       9.018  -1.464  13.862  1.00  0.00     0.049 A 
ATOM     59  C   UNL     1       8.650   3.523  11.324  1.00  0.00     0.074 A 
ATOM     60  C   UNL     1       9.691  -1.505  15.069  1.00  0.00     0.029 A 
ATOM     61  N   UNL     1       9.052  -0.149  13.425  1.00  0.00    -0.354 N 
ATOM     62  N   UNL     1       8.818   2.429  12.029  1.00  0.00    -0.248 NA
ATOM     63  C   UNL     1       9.194   4.733  11.959  1.00  0.00     0.031 C 
ATOM     64  C   UNL     1      10.101  -0.203  15.382  1.00  0.00     0.029 A 
ATOM     65  C   UNL     1       9.719   0.637  14.347  1.00  0.00     0.049 A 
ATOM     66  H   UNL     1       8.660   0.177  12.582  1.00  0.00     0.167 HD
ATOM     67  C   UNL     1       9.520   2.812  13.169  1.00  0.00     0.074 A 
ATOM     68  C   UNL     1       9.745   4.239  13.059  1.00  0.00     0.031 C 
ATOM     69  C   UNL     1       9.946   2.053  14.210  1.00  0.00     0.037 A 
BRANCH  56  70
ATOM     70  C   UNL     1       8.377  -3.910  13.770  1.00  0.00     0.058 A 
ATOM     71  C   UNL     1       9.166  -4.951  13.252  1.00  0.00     0.135 A 
ATOM     72  C   UNL     1       7.564  -4.191  14.878  1.00  0.00     0.135 A 
ATOM     73  F   UNL     1       9.940  -4.741  12.175  1.00  0.00    -0.206 F 
ATOM     74  C   UNL     1       9.124  -6.231  13.792  1.00  0.00     0.059 A 
ATOM     75  C   UNL     1       7.524  -5.459  15.450  1.00  0.00     0.059 A 
ATOM     76  F   UNL     1       6.783  -3.234  15.403  1.00  0.00    -0.206 F 
ATOM     77  C   UNL     1       8.296  -6.477  14.889  1.00  0.00     0.060 A 
BRANCH  77  78
ATOM     78  S   UNL     1       8.238  -8.146  15.574  1.00  0.00     0.124 S 
ATOM     79  O   UNL     1       7.421  -8.838  14.582  1.00  0.00    -0.237 OA
ATOM     80  O   UNL     1       9.648  -8.521  15.606  1.00  0.00    -0.237 OA
ATOM     81  O   UNL     1       7.614  -7.955  16.879  1.00  0.00    -0.744 OA
ENDBRANCH  77  78
ENDBRANCH  56  70
BRANCH  57  82
ATOM     82  C   UNL     1       7.950   5.035   9.326  1.00  0.00     0.058 A 
ATOM     83  C   UNL     1       9.115   5.647   8.841  1.00  0.00     0.135 A 
ATOM     84  C   UNL     1       6.742   5.737   9.196  1.00  0.00     0.135 A 
ATOM     85  F   UNL     1      10.298   5.024   8.957  1.00  0.00    -0.206 F 
ATOM     86  C   UNL     1       9.089   6.912   8.261  1.00  0.00     0.059 A 
ATOM     87  C   UNL     1       6.686   6.994   8.601  1.00  0.00     0.059 A 
ATOM     88  F   UNL     1       5.598   5.196   9.643  1.00  0.00    -0.206 F 
ATOM     89  C   UNL     1       7.867   7.577   8.143  1.00  0.00     0.060 A 
BRANCH  89  90
ATOM     90  S   UNL     1       7.838   9.197   7.343  1.00  0.00     0.124 S 
ATOM     91  O   UNL     1       8.439  10.044   8.367  1.00  0.00    -0.237 OA
ATOM     92  O   UNL     1       8.647   8.966   6.150  1.00  0.00    -0.237 OA
ATOM     93  O   UNL     1       6.418   9.422   7.091  1.00  0.00    -0.744 OA
ENDBRANCH  89  90
ENDBRANCH  57  82
BRANCH  69  94
ATOM     94  C   UNL     1      10.740   2.735  15.289  1.00  0.00     0.058 A 
ATOM     95  C   UNL     1      10.135   3.581  16.230  1.00  0.00     0.135 A 
ATOM     96  C   UNL     1      12.119   2.494  15.412  1.00  0.00     0.135 A 
ATOM     97  F   UNL     1       8.821   3.844  16.157  1.00  0.00    -0.206 F 
ATOM     98  C   UNL     1      10.874   4.187  17.242  1.00  0.00     0.059 A 
ATOM     99  C   UNL     1      12.872   3.070  16.429  1.00  0.00     0.059 A 
ATOM    100  F   UNL     1      12.743   1.679  14.546  1.00  0.00    -0.206 F 
ATOM    101  C   UNL     1      12.244   3.928  17.331  1.00  0.00     0.060 A 
BRANCH 101 102
ATOM    102  S   UNL     1      13.192   4.701  18.659  1.00  0.00     0.124 S 
ATOM    103  O   UNL     1      13.358   6.058  18.148  1.00  0.00    -0.237 OA
ATOM    104  O   UNL     1      12.301   4.561  19.807  1.00  0.00    -0.237 OA
ATOM    105  O   UNL     1      14.409   3.898  18.717  1.00  0.00    -0.744 OA
ENDBRANCH 101 102
ENDBRANCH  69  94
ENDBRANCH  43  44
ENDBRANCH  36  38
ENDBRANCH  35  36
ENDBRANCH  34  35
ENDBRANCH  33  34
ENDBRANCH  32  33
ENDBRANCH  31  32
ENDBRANCH  30  31
ENDBRANCH  29  30
ENDBRANCH   1  29
TORSDOF 28
