REMARK SMILES O=C(Cc1ccccc1-c1ccn(C(F)F)c(=O)c1)OCCOCCOCCOCCOC(=O)c1ccc(-c2c3nc(c(-c4c(F)cc(S(=O)(=O)[O-])cc4F)c4ccc([nH]4)c(-c4c(F)cc(S(=O)(=O)[O-])cc4F)c4nc(c(-c5c(F)cc(S(=O)(=O)[O-])cc5F)c5ccc2[nH]5)C=C4)C=C3)cc1
REMARK SMILES IDX 26 1 25 2 24 3 23 4 22 5 21 6 20 7 2 8 1 9 3 10 4 11 5 12
REMARK SMILES IDX 9 13 6 14 8 15 7 16 10 17 11 18 19 19 12 20 17 21 13 22
REMARK SMILES IDX 18 23 14 24 15 25 16 26 27 27 28 28 29 29 30 30 31 31 32 32
REMARK SMILES IDX 33 33 34 34 35 35 36 36 100 37 37 38 99 39 38 40 39 41 40 42
REMARK SMILES IDX 93 43 41 44 98 45 92 46 94 47 42 48 97 49 91 50 90 51 43 53
REMARK SMILES IDX 77 54 56 55 76 56 57 57 60 58 75 59 95 60 58 61 59 62 74 64
REMARK SMILES IDX 96 65 61 66 44 67 45 68 54 69 46 70 47 71 53 72 55 73 48 74
REMARK SMILES IDX 49 75 50 76 51 77 52 78 78 79 79 80 88 81 80 82 81 83 87 84
REMARK SMILES IDX 89 85 82 86 83 87 84 88 85 89 86 90 62 91 63 92 72 93 64 94
REMARK SMILES IDX 65 95 71 96 73 97 66 98 67 99 68 100 69 101 70 102
REMARK H PARENT 94 52 60 63
REMARK Flexibility Score: inf
ROOT
ATOM      1  O   UNL     1       2.795   1.556  -3.214  1.00  0.00    -0.377 OA
ENDROOT
BRANCH   1   2
ATOM      2  C   UNL     1       2.124   1.120  -2.042  1.00  0.00     0.188 C 
BRANCH   2   3
ATOM      3  C   UNL     1       2.650   1.726  -0.742  1.00  0.00     0.188 C 
BRANCH   3   4
ATOM      4  O   UNL     1       4.018   1.565  -0.417  1.00  0.00    -0.376 OA
BRANCH   4   5
ATOM      5  C   UNL     1       4.675   0.364  -0.067  1.00  0.00     0.202 C 
BRANCH   5   6
ATOM      6  C   UNL     1       4.016  -1.008  -0.070  1.00  0.00     0.261 C 
BRANCH   6   7
ATOM      7  O   UNL     1       2.608  -1.086   0.187  1.00  0.00    -0.463 OA
BRANCH   7   8
ATOM      8  C   UNL     1       1.942  -0.724   1.298  1.00  0.00     0.310 C 
ATOM      9  O   UNL     1       0.753  -1.024   1.405  1.00  0.00    -0.252 OA
BRANCH   8  10
ATOM     10  C   UNL     1       2.589   0.182   2.316  1.00  0.00     0.158 C 
BRANCH  10  11
ATOM     11  C   UNL     1       3.766  -0.323   3.104  1.00  0.00    -0.029 A 
ATOM     12  C   UNL     1       3.812  -1.698   3.414  1.00  0.00     0.005 A 
ATOM     13  C   UNL     1       4.780   0.546   3.593  1.00  0.00    -0.014 A 
ATOM     14  C   UNL     1       4.847  -2.226   4.175  1.00  0.00     0.000 A 
ATOM     15  C   UNL     1       5.783  -0.015   4.406  1.00  0.00     0.009 A 
ATOM     16  C   UNL     1       5.825  -1.383   4.683  1.00  0.00     0.001 A 
BRANCH  13  17
ATOM     17  C   UNL     1       4.907   2.005   3.251  1.00  0.00    -0.011 A 
ATOM     18  C   UNL     1       3.835   2.987   3.335  1.00  0.00     0.027 A 
ATOM     19  C   UNL     1       6.105   2.441   2.804  1.00  0.00     0.080 A 
ATOM     20  C   UNL     1       4.026   4.260   2.958  1.00  0.00     0.095 A 
ATOM     21  C   UNL     1       6.358   3.866   2.455  1.00  0.00     0.255 A 
ATOM     22  N   UNL     1       5.261   4.704   2.523  1.00  0.00    -0.258 N 
ATOM     23  O   UNL     1       7.500   4.203   2.159  1.00  0.00    -0.269 OA
BRANCH  22  24
ATOM     24  C   UNL     1       5.475   6.089   2.185  1.00  0.00     0.451 C 
ATOM     25  F   UNL     1       6.315   6.677   3.074  1.00  0.00    -0.185 F 
ATOM     26  F   UNL     1       6.013   6.230   0.950  1.00  0.00    -0.185 F 
ENDBRANCH  22  24
ENDBRANCH  13  17
ENDBRANCH  10  11
ENDBRANCH   8  10
ENDBRANCH   7   8
ENDBRANCH   6   7
ENDBRANCH   5   6
ENDBRANCH   4   5
ENDBRANCH   3   4
ENDBRANCH   2   3
ENDBRANCH   1   2
BRANCH   1  27
ATOM     27  C   UNL     1       4.162   1.186  -3.260  1.00  0.00     0.188 C 
BRANCH  27  28
ATOM     28  C   UNL     1       5.146   2.346  -3.007  1.00  0.00     0.188 C 
BRANCH  28  29
ATOM     29  O   UNL     1       4.697   3.600  -2.524  1.00  0.00    -0.376 OA
BRANCH  29  30
ATOM     30  C   UNL     1       3.575   4.251  -3.094  1.00  0.00     0.202 C 
BRANCH  30  31
ATOM     31  C   UNL     1       3.260   4.272  -4.601  1.00  0.00     0.261 C 
BRANCH  31  32
ATOM     32  O   UNL     1       3.650   3.138  -5.375  1.00  0.00    -0.460 OA
BRANCH  32  33
ATOM     33  C   UNL     1       4.810   3.253  -6.062  1.00  0.00     0.338 C 
ATOM     34  O   UNL     1       5.550   4.221  -6.107  1.00  0.00    -0.246 OA
BRANCH  33  35
ATOM     35  C   UNL     1       5.150   1.915  -6.589  1.00  0.00     0.060 A 
ATOM     36  C   UNL     1       6.346   1.311  -6.170  1.00  0.00     0.016 A 
ATOM     37  C   UNL     1       4.268   1.232  -7.427  1.00  0.00     0.016 A 
ATOM     38  C   UNL     1       6.653   0.013  -6.573  1.00  0.00     0.010 A 
ATOM     39  C   UNL     1       4.601  -0.049  -7.871  1.00  0.00     0.010 A 
ATOM     40  C   UNL     1       5.798  -0.659  -7.454  1.00  0.00    -0.014 A 
BRANCH  40  41
ATOM     41  C   UNL     1       6.234  -1.921  -8.091  1.00  0.00     0.031 A 
ATOM     42  C   UNL     1       6.915  -1.834  -9.428  1.00  0.00     0.074 A 
ATOM     43  C   UNL     1       6.004  -3.114  -7.513  1.00  0.00     0.049 A 
ATOM     44  N   UNL     1       7.263  -2.793 -10.242  1.00  0.00    -0.248 NA
ATOM     45  C   UNL     1       7.242  -0.481  -9.912  1.00  0.00     0.031 C 
ATOM     46  C   UNL     1       5.393  -3.315  -6.199  1.00  0.00     0.029 A 
ATOM     47  N   UNL     1       6.233  -4.386  -7.975  1.00  0.00    -0.354 N 
ATOM     48  C   UNL     1       7.827  -2.162 -11.344  1.00  0.00     0.074 A 
ATOM     49  C   UNL     1       7.777  -0.739 -11.096  1.00  0.00     0.031 C 
ATOM     50  C   UNL     1       5.258  -4.635  -5.979  1.00  0.00     0.029 A 
ATOM     51  C   UNL     1       5.734  -5.369  -7.152  1.00  0.00     0.049 A 
ATOM     52  H   UNL     1       6.709  -4.577  -8.816  1.00  0.00     0.167 HD
ATOM     53  C   UNL     1       8.334  -2.725 -12.463  1.00  0.00     0.037 A 
ATOM     54  C   UNL     1       5.629  -6.699  -7.349  1.00  0.00     0.037 A 
ATOM     55  C   UNL     1       8.385  -4.143 -12.696  1.00  0.00     0.049 A 
ATOM     56  C   UNL     1       6.136  -7.293  -8.642  1.00  0.00     0.074 A 
ATOM     57  C   UNL     1       8.927  -4.814 -13.778  1.00  0.00     0.029 A 
ATOM     58  N   UNL     1       7.861  -5.105 -11.847  1.00  0.00    -0.354 N 
ATOM     59  N   UNL     1       6.720  -6.694  -9.654  1.00  0.00    -0.248 NA
ATOM     60  C   UNL     1       5.963  -8.742  -8.827  1.00  0.00     0.031 C 
ATOM     61  C   UNL     1       8.671  -6.178 -13.615  1.00  0.00     0.029 A 
ATOM     62  C   UNL     1       8.025  -6.362 -12.402  1.00  0.00     0.049 A 
ATOM     63  H   UNL     1       7.435  -4.921 -10.979  1.00  0.00     0.167 HD
ATOM     64  C   UNL     1       6.998  -7.694 -10.582  1.00  0.00     0.074 A 
ATOM     65  C   UNL     1       6.542  -8.940 -10.003  1.00  0.00     0.031 C 
ATOM     66  C   UNL     1       7.573  -7.593 -11.806  1.00  0.00     0.037 A 
BRANCH  53  67
ATOM     67  C   UNL     1       8.846  -1.818 -13.545  1.00  0.00     0.058 A 
ATOM     68  C   UNL     1      10.065  -1.135 -13.425  1.00  0.00     0.135 A 
ATOM     69  C   UNL     1       8.146  -1.710 -14.758  1.00  0.00     0.135 A 
ATOM     70  F   UNL     1      10.759  -1.185 -12.277  1.00  0.00    -0.206 F 
ATOM     71  C   UNL     1      10.578  -0.381 -14.475  1.00  0.00     0.059 A 
ATOM     72  C   UNL     1       8.652  -0.982 -15.829  1.00  0.00     0.059 A 
ATOM     73  F   UNL     1       6.969  -2.334 -14.917  1.00  0.00    -0.206 F 
ATOM     74  C   UNL     1       9.871  -0.322 -15.678  1.00  0.00     0.060 A 
BRANCH  74  75
ATOM     75  S   UNL     1      10.587   0.601 -17.054  1.00  0.00     0.124 S 
ATOM     76  O   UNL     1      10.453   1.976 -16.584  1.00  0.00    -0.237 OA
ATOM     77  O   UNL     1      11.949   0.077 -17.102  1.00  0.00    -0.237 OA
ATOM     78  O   UNL     1       9.739   0.240 -18.186  1.00  0.00    -0.744 OA
ENDBRANCH  74  75
ENDBRANCH  53  67
BRANCH  54  79
ATOM     79  C   UNL     1       4.960  -7.566  -6.338  1.00  0.00     0.058 A 
ATOM     80  C   UNL     1       5.666  -8.564  -5.650  1.00  0.00     0.135 A 
ATOM     81  C   UNL     1       3.584  -7.450  -6.081  1.00  0.00     0.135 A 
ATOM     82  F   UNL     1       6.980  -8.727  -5.868  1.00  0.00    -0.206 F 
ATOM     83  C   UNL     1       5.029  -9.437  -4.772  1.00  0.00     0.059 A 
ATOM     84  C   UNL     1       2.931  -8.289  -5.183  1.00  0.00     0.059 A 
ATOM     85  F   UNL     1       2.859  -6.508  -6.704  1.00  0.00    -0.206 F 
ATOM     86  C   UNL     1       3.659  -9.292  -4.547  1.00  0.00     0.060 A 
BRANCH  86  87
ATOM     87  S   UNL     1       2.845 -10.423  -3.398  1.00  0.00     0.124 S 
ATOM     88  O   UNL     1       2.823 -11.660  -4.170  1.00  0.00    -0.237 OA
ATOM     89  O   UNL     1       3.750 -10.399  -2.253  1.00  0.00    -0.237 OA
ATOM     90  O   UNL     1       1.546  -9.794  -3.174  1.00  0.00    -0.744 OA
ENDBRANCH  86  87
ENDBRANCH  54  79
BRANCH  66  91
ATOM     91  C   UNL     1       7.765  -8.857 -12.598  1.00  0.00     0.058 A 
ATOM     92  C   UNL     1       6.683  -9.521 -13.196  1.00  0.00     0.135 A 
ATOM     93  C   UNL     1       9.054  -9.365 -12.831  1.00  0.00     0.135 A 
ATOM     94  F   UNL     1       5.429  -9.083 -13.001  1.00  0.00    -0.206 F 
ATOM     95  C   UNL     1       6.870 -10.652 -13.984  1.00  0.00     0.059 A 
ATOM     96  C   UNL     1       9.268 -10.476 -13.640  1.00  0.00     0.059 A 
ATOM     97  F   UNL     1      10.126  -8.761 -12.292  1.00  0.00    -0.206 F 
ATOM     98  C   UNL     1       8.168 -11.118 -14.207  1.00  0.00     0.060 A 
BRANCH  98  99
ATOM     99  S   UNL     1       8.398 -12.555 -15.275  1.00  0.00     0.124 S 
ATOM    100  O   UNL     1       7.887 -13.632 -14.434  1.00  0.00    -0.237 OA
ATOM    101  O   UNL     1       7.581 -12.214 -16.435  1.00  0.00    -0.237 OA
ATOM    102  O   UNL     1       9.838 -12.575 -15.513  1.00  0.00    -0.744 OA
ENDBRANCH  98  99
ENDBRANCH  66  91
ENDBRANCH  40  41
ENDBRANCH  33  35
ENDBRANCH  32  33
ENDBRANCH  31  32
ENDBRANCH  30  31
ENDBRANCH  29  30
ENDBRANCH  28  29
ENDBRANCH  27  28
ENDBRANCH   1  27
TORSDOF 26
