REMARK SMILES COC(=O)c1ccc(C)c(NC(=O)[C@H]2CC=CC[C@H]2C(=O)OCCOCCOCCOCCOC(=O)c2ccc(-c3c4nc(c(-c5c(F)cc(S(=O)(=O)[O-])cc5F)c5ccc([nH]5)c(-c5c(F)cc(S(=O)(=O)[O-])cc5F)c5nc(c(-c6c(F)cc(S(=O)(=O)[O-])cc6F)c6ccc3[nH]6)C=C5)C=C4)cc2)c1
REMARK SMILES IDX 27 1 26 2 25 3 24 4 23 5 22 6 20 7 21 8 19 9 14 10 15 11
REMARK SMILES IDX 16 12 18 13 17 14 12 15 11 16 13 18 10 19 5 20 6 21 103 22
REMARK SMILES IDX 7 23 8 24 9 25 3 26 4 27 2 28 1 29 28 30 29 31 30 32 31 33
REMARK SMILES IDX 32 34 33 35 34 36 35 37 36 38 37 39 38 40 102 41 39 42
REMARK SMILES IDX 101 43 40 44 41 45 42 46 95 47 43 48 100 49 94 50 96 51
REMARK SMILES IDX 44 52 99 53 93 54 92 55 45 57 79 58 58 59 78 60 59 61 62 62
REMARK SMILES IDX 77 63 97 64 60 65 61 66 76 68 98 69 63 70 46 71 47 72 56 73
REMARK SMILES IDX 48 74 49 75 55 76 57 77 50 78 51 79 52 80 53 81 54 82 80 83
REMARK SMILES IDX 81 84 90 85 82 86 83 87 89 88 91 89 84 90 85 91 86 92 87 93
REMARK SMILES IDX 88 94 64 95 65 96 74 97 66 98 67 99 73 100 75 101 68 102
REMARK SMILES IDX 69 103 70 104 71 105 72 106
REMARK H PARENT 11 17 96 56 62 67
REMARK Flexibility Score: inf
ROOT
ATOM      1  C   UNL     1       8.071   2.583  -5.070  1.00  0.00     0.188 C 
ENDROOT
BRANCH   1   2
ATOM      2  C   UNL     1       6.941   3.528  -5.468  1.00  0.00     0.188 C 
BRANCH   2   3
ATOM      3  O   UNL     1       5.725   2.844  -5.659  1.00  0.00    -0.376 OA
BRANCH   3   4
ATOM      4  C   UNL     1       4.862   2.759  -4.555  1.00  0.00     0.202 C 
BRANCH   4   5
ATOM      5  C   UNL     1       4.659   1.436  -3.868  1.00  0.00     0.261 C 
BRANCH   5   6
ATOM      6  O   UNL     1       5.828   0.662  -3.779  1.00  0.00    -0.463 OA
BRANCH   6   7
ATOM      7  C   UNL     1       6.213   0.028  -4.912  1.00  0.00     0.310 C 
ATOM      8  O   UNL     1       5.937   0.358  -6.056  1.00  0.00    -0.252 OA
BRANCH   7   9
ATOM      9  C   UNL     1       7.134  -1.122  -4.602  1.00  0.00     0.116 C 
ATOM     10  C   UNL     1       7.352  -1.153  -3.118  1.00  0.00     0.097 C 
ATOM     11  C   UNL     1       8.592  -2.028  -2.876  1.00  0.00     0.041 C 
ATOM     12  C   UNL     1       8.323  -3.429  -3.335  1.00  0.00    -0.030 C 
ATOM     13  C   UNL     1       6.765  -2.545  -5.068  1.00  0.00     0.043 C 
ATOM     14  C   UNL     1       7.458  -3.660  -4.331  1.00  0.00    -0.030 C 
BRANCH  10  15
ATOM     15  C   UNL     1       6.116  -1.621  -2.333  1.00  0.00     0.228 C 
ATOM     16  N   UNL     1       4.801  -1.751  -2.654  1.00  0.00    -0.326 N 
ATOM     17  H   UNL     1       4.402  -1.956  -1.777  1.00  0.00     0.169 HD
ATOM     18  O   UNL     1       6.316  -1.887  -1.126  1.00  0.00    -0.274 OA
BRANCH  16  19
ATOM     19  C   UNL     1       3.634  -1.768  -3.518  1.00  0.00     0.044 A 
ATOM     20  C   UNL     1       1.151  -1.988  -3.102  1.00  0.00     0.062 A 
ATOM     21  C   UNL     1       0.860  -1.952  -4.441  1.00  0.00     0.016 A 
ATOM     22  C   UNL     1       2.491  -1.894  -2.672  1.00  0.00     0.042 A 
ATOM     23  C   UNL     1       1.915  -1.793  -5.308  1.00  0.00     0.006 A 
ATOM     24  C   UNL     1       3.297  -1.698  -4.905  1.00  0.00    -0.027 A 
ATOM     25  C   UNL     1       4.022  -1.440  -6.200  1.00  0.00     0.046 C 
BRANCH  20  26
ATOM     26  C   UNL     1       0.023  -1.964  -2.149  1.00  0.00     0.337 C 
ATOM     27  O   UNL     1      -1.128  -1.695  -2.442  1.00  0.00    -0.246 OA
BRANCH  26  28
ATOM     28  O   UNL     1       0.495  -2.203  -0.906  1.00  0.00    -0.465 OA
ATOM     29  C   UNL     1       0.097  -1.208   0.026  1.00  0.00     0.282 C 
ENDBRANCH  26  28
ENDBRANCH  20  26
ENDBRANCH  16  19
ENDBRANCH  10  15
ENDBRANCH   7   9
ENDBRANCH   6   7
ENDBRANCH   5   6
ENDBRANCH   4   5
ENDBRANCH   3   4
ENDBRANCH   2   3
ENDBRANCH   1   2
BRANCH   1  30
ATOM     30  O   UNL     1       8.389   2.601  -3.693  1.00  0.00    -0.377 OA
BRANCH  30  31
ATOM     31  C   UNL     1       9.120   3.776  -3.394  1.00  0.00     0.188 C 
BRANCH  31  32
ATOM     32  C   UNL     1      10.636   3.618  -3.624  1.00  0.00     0.188 C 
BRANCH  32  33
ATOM     33  O   UNL     1      11.353   2.655  -2.808  1.00  0.00    -0.376 OA
BRANCH  33  34
ATOM     34  C   UNL     1      11.732   2.542  -1.370  1.00  0.00     0.202 C 
BRANCH  34  35
ATOM     35  C   UNL     1      11.957   3.468   0.223  1.00  0.00     0.261 C 
BRANCH  35  36
ATOM     36  O   UNL     1      11.284   4.817   1.180  1.00  0.00    -0.460 OA
BRANCH  36  37
ATOM     37  C   UNL     1      10.528   6.124   1.589  1.00  0.00     0.338 C 
ATOM     38  O   UNL     1      10.693   6.438   2.779  1.00  0.00    -0.246 OA
BRANCH  37  39
ATOM     39  C   UNL     1       9.172   7.034   0.796  1.00  0.00     0.060 A 
ATOM     40  C   UNL     1       7.891   7.066   1.364  1.00  0.00     0.016 A 
ATOM     41  C   UNL     1       9.087   7.666  -0.476  1.00  0.00     0.016 A 
ATOM     42  C   UNL     1       6.683   7.195   0.552  1.00  0.00     0.010 A 
ATOM     43  C   UNL     1       7.910   7.606  -1.344  1.00  0.00     0.010 A 
ATOM     44  C   UNL     1       6.682   7.193  -0.870  1.00  0.00    -0.014 A 
BRANCH  44  45
ATOM     45  C   UNL     1       5.670   6.357  -1.684  1.00  0.00     0.031 A 
ATOM     46  C   UNL     1       4.979   6.319  -3.104  1.00  0.00     0.074 A 
ATOM     47  C   UNL     1       5.634   5.111  -1.182  1.00  0.00     0.049 A 
ATOM     48  N   UNL     1       3.824   5.702  -3.380  1.00  0.00    -0.248 NA
ATOM     49  C   UNL     1       5.541   6.904  -4.319  1.00  0.00     0.031 C 
ATOM     50  C   UNL     1       6.010   3.960  -1.965  1.00  0.00     0.029 A 
ATOM     51  N   UNL     1       5.599   4.613   0.087  1.00  0.00    -0.354 N 
ATOM     52  C   UNL     1       3.559   5.733  -4.784  1.00  0.00     0.074 A 
ATOM     53  C   UNL     1       4.667   6.538  -5.282  1.00  0.00     0.031 C 
ATOM     54  C   UNL     1       5.866   2.855  -1.251  1.00  0.00     0.029 A 
ATOM     55  C   UNL     1       5.437   3.270   0.076  1.00  0.00     0.049 A 
ATOM     56  H   UNL     1       5.680   5.159   0.902  1.00  0.00     0.167 HD
ATOM     57  C   UNL     1       2.570   5.000  -5.472  1.00  0.00     0.037 A 
ATOM     58  C   UNL     1       5.515   2.369   1.060  1.00  0.00     0.037 A 
ATOM     59  C   UNL     1       1.954   3.889  -4.650  1.00  0.00     0.049 A 
ATOM     60  C   UNL     1       4.103   1.775   0.630  1.00  0.00     0.074 A 
ATOM     61  C   UNL     1       1.745   2.538  -4.946  1.00  0.00     0.029 A 
ATOM     62  N   UNL     1       1.747   3.963  -3.262  1.00  0.00    -0.354 N 
ATOM     63  N   UNL     1       3.494   1.841  -0.560  1.00  0.00    -0.248 NA
ATOM     64  C   UNL     1       3.091   1.551   1.682  1.00  0.00     0.031 C 
ATOM     65  C   UNL     1       1.551   1.812  -3.757  1.00  0.00     0.029 A 
ATOM     66  C   UNL     1       1.590   2.691  -2.698  1.00  0.00     0.049 A 
ATOM     67  H   UNL     1       1.716   4.803  -2.751  1.00  0.00     0.167 HD
ATOM     68  C   UNL     1       2.109   1.990  -0.391  1.00  0.00     0.074 A 
ATOM     69  C   UNL     1       1.928   1.653   1.013  1.00  0.00     0.031 C 
ATOM     70  C   UNL     1       1.182   2.459  -1.317  1.00  0.00     0.037 A 
BRANCH  57  71
ATOM     71  C   UNL     1       2.280   5.009  -7.093  1.00  0.00     0.058 A 
ATOM     72  C   UNL     1       1.494   4.021  -7.779  1.00  0.00     0.135 A 
ATOM     73  C   UNL     1       2.690   6.019  -8.000  1.00  0.00     0.135 A 
ATOM     74  F   UNL     1       0.757   3.115  -7.130  1.00  0.00    -0.206 F 
ATOM     75  C   UNL     1       1.287   3.945  -9.178  1.00  0.00     0.059 A 
ATOM     76  C   UNL     1       2.463   5.989  -9.413  1.00  0.00     0.059 A 
ATOM     77  F   UNL     1       3.247   7.152  -7.553  1.00  0.00    -0.206 F 
ATOM     78  C   UNL     1       1.777   4.934 -10.002  1.00  0.00     0.060 A 
BRANCH  78  79
ATOM     79  S   UNL     1       1.356   4.889 -11.772  1.00  0.00     0.124 S 
ATOM     80  O   UNL     1       2.083   3.714 -12.242  1.00  0.00    -0.237 OA
ATOM     81  O   UNL     1      -0.098   4.756 -11.750  1.00  0.00    -0.237 OA
ATOM     82  O   UNL     1       1.849   6.168 -12.276  1.00  0.00    -0.744 OA
ENDBRANCH  78  79
ENDBRANCH  57  71
BRANCH  58  83
ATOM     83  C   UNL     1       7.087   2.248   1.215  1.00  0.00     0.058 A 
ATOM     84  C   UNL     1       8.013   1.769   0.272  1.00  0.00     0.135 A 
ATOM     85  C   UNL     1       7.644   3.398   1.773  1.00  0.00     0.135 A 
ATOM     86  F   UNL     1       7.962   0.467  -0.050  1.00  0.00    -0.206 F 
ATOM     87  C   UNL     1       9.044   2.607  -0.422  1.00  0.00     0.059 A 
ATOM     88  C   UNL     1       8.673   4.199   1.124  1.00  0.00     0.059 A 
ATOM     89  F   UNL     1       7.033   3.978   2.827  1.00  0.00    -0.206 F 
ATOM     90  C   UNL     1       9.324   3.967  -0.118  1.00  0.00     0.060 A 
BRANCH  90  91
ATOM     91  S   UNL     1      10.647   5.388  -1.265  1.00  0.00     0.124 S 
ATOM     92  O   UNL     1      11.248   6.455  -0.447  1.00  0.00    -0.237 OA
ATOM     93  O   UNL     1      11.864   4.728  -1.753  1.00  0.00    -0.237 OA
ATOM     94  O   UNL     1       9.790   5.883  -2.283  1.00  0.00    -0.744 OA
ENDBRANCH  90  91
ENDBRANCH  58  83
BRANCH  70  95
ATOM     95  C   UNL     1      -0.344   2.614  -1.092  1.00  0.00     0.058 A 
ATOM     96  C   UNL     1      -0.926   2.993   0.123  1.00  0.00     0.135 A 
ATOM     97  C   UNL     1      -1.283   2.456  -2.161  1.00  0.00     0.135 A 
ATOM     98  F   UNL     1      -0.169   3.357   1.166  1.00  0.00    -0.206 F 
ATOM     99  C   UNL     1      -2.315   3.062   0.308  1.00  0.00     0.059 A 
ATOM    100  C   UNL     1      -2.663   2.585  -2.016  1.00  0.00     0.059 A 
ATOM    101  F   UNL     1      -0.910   2.171  -3.415  1.00  0.00    -0.206 F 
ATOM    102  C   UNL     1      -3.178   2.841  -0.762  1.00  0.00     0.060 A 
BRANCH 102 103
ATOM    103  S   UNL     1      -4.961   2.957  -0.533  1.00  0.00     0.124 S 
ATOM    104  O   UNL     1      -5.290   1.601  -0.105  1.00  0.00    -0.237 OA
ATOM    105  O   UNL     1      -5.082   3.986   0.496  1.00  0.00    -0.237 OA
ATOM    106  O   UNL     1      -5.452   3.342  -1.852  1.00  0.00    -0.744 OA
ENDBRANCH 102 103
ENDBRANCH  70  95
ENDBRANCH  44  45
ENDBRANCH  37  39
ENDBRANCH  36  37
ENDBRANCH  35  36
ENDBRANCH  34  35
ENDBRANCH  33  34
ENDBRANCH  32  33
ENDBRANCH  31  32
ENDBRANCH  30  31
ENDBRANCH   1  30
TORSDOF 27
