REMARK SMILES Cc1c(NC(=O)[C@@H]2CC=CC[C@@H]2C(=O)OCCOCCOCCOCCOC(=O)c2ccc(-c3c4nc(c(-c5c(F)cc(S(=O)(=O)[O-])cc5F)c5ccc([nH]5)c(-c5c(F)cc(S(=O)(=O)[O-])cc5F)c5nc(c(-c6c(F)cc(S(=O)(=O)[O-])cc6F)c6ccc3[nH]6)C=C5)C=C4)cc2)cccc1C(=O)N1CCOCC1
REMARK SMILES IDX 21 1 20 2 19 3 18 4 17 5 16 6 15 7 13 8 14 9 12 10 7 11 8 12
REMARK SMILES IDX 9 13 11 14 10 15 5 16 4 17 6 19 3 20 1 21 2 22 99 23 96 24
REMARK SMILES IDX 98 25 97 26 100 27 101 28 102 29 103 30 107 31 104 32 106 33
REMARK SMILES IDX 105 34 22 35 23 36 24 37 25 38 26 39 27 40 28 41 29 42 30 43
REMARK SMILES IDX 31 44 95 45 32 46 94 47 33 48 34 49 35 50 88 51 36 52 93 53
REMARK SMILES IDX 87 54 89 55 37 56 92 57 86 58 85 59 38 61 72 62 51 63 71 64
REMARK SMILES IDX 52 65 55 66 70 67 90 68 53 69 54 70 69 72 91 73 56 74 39 75
REMARK SMILES IDX 40 76 49 77 41 78 42 79 48 80 50 81 43 82 44 83 45 84 46 85
REMARK SMILES IDX 47 86 73 87 74 88 83 89 75 90 76 91 82 92 84 93 77 94 78 95
REMARK SMILES IDX 79 96 80 97 81 98 57 99 58 100 67 101 59 102 60 103 66 104
REMARK SMILES IDX 68 105 61 106 62 107 63 108 64 109 65 110
REMARK H PARENT 4 18 89 60 55 71
REMARK Flexibility Score: inf
ROOT
ATOM      1  O   UNL     1      -4.224   1.629   0.920  1.00  0.00    -0.377 OA
ENDROOT
BRANCH   1   2
ATOM      2  C   UNL     1      -4.682   1.074  -0.316  1.00  0.00     0.188 C 
BRANCH   2   3
ATOM      3  C   UNL     1      -6.317   0.812  -0.575  1.00  0.00     0.188 C 
BRANCH   3   4
ATOM      4  O   UNL     1      -7.129  -0.401  -1.386  1.00  0.00    -0.376 OA
BRANCH   4   5
ATOM      5  C   UNL     1      -7.034  -2.089  -1.639  1.00  0.00     0.202 C 
BRANCH   5   6
ATOM      6  C   UNL     1      -5.641  -3.389  -1.793  1.00  0.00     0.261 C 
BRANCH   6   7
ATOM      7  O   UNL     1      -3.854  -3.228  -2.030  1.00  0.00    -0.463 OA
BRANCH   7   8
ATOM      8  C   UNL     1      -2.768  -2.608  -2.740  1.00  0.00     0.310 C 
ATOM      9  O   UNL     1      -2.876  -1.893  -3.753  1.00  0.00    -0.252 OA
BRANCH   8  10
ATOM     10  C   UNL     1      -1.216  -2.389  -2.212  1.00  0.00     0.116 C 
ATOM     11  C   UNL     1      -0.185  -3.152  -1.279  1.00  0.00     0.097 C 
ATOM     12  C   UNL     1      -0.063  -2.607   0.174  1.00  0.00     0.041 C 
ATOM     13  C   UNL     1      -0.149  -1.117   0.296  1.00  0.00    -0.030 C 
ATOM     14  C   UNL     1      -0.986  -0.827  -2.051  1.00  0.00     0.043 C 
ATOM     15  C   UNL     1      -0.526  -0.324  -0.710  1.00  0.00    -0.030 C 
BRANCH  11  16
ATOM     16  C   UNL     1      -0.283  -4.648  -1.512  1.00  0.00     0.228 C 
ATOM     17  N   UNL     1       0.255  -5.627  -0.748  1.00  0.00    -0.326 N 
ATOM     18  H   UNL     1      -0.136  -6.502  -0.974  1.00  0.00     0.169 HD
ATOM     19  O   UNL     1      -0.882  -5.070  -2.509  1.00  0.00    -0.274 OA
BRANCH  17  20
ATOM     20  C   UNL     1       1.210  -5.759   0.276  1.00  0.00     0.044 A 
ATOM     21  C   UNL     1      -0.015  -7.870   0.938  1.00  0.00     0.047 C 
ATOM     22  C   UNL     1       1.169  -6.943   1.067  1.00  0.00    -0.015 A 
ATOM     23  C   UNL     1       2.199  -7.189   2.004  1.00  0.00     0.045 A 
ATOM     24  C   UNL     1       2.231  -4.834   0.483  1.00  0.00     0.026 A 
ATOM     25  C   UNL     1       3.148  -6.186   2.258  1.00  0.00     0.014 A 
ATOM     26  C   UNL     1       3.155  -5.010   1.514  1.00  0.00     0.003 A 
BRANCH  23  27
ATOM     27  C   UNL     1       2.287  -8.393   2.883  1.00  0.00     0.254 C 
ATOM     28  O   UNL     1       2.509  -8.194   4.079  1.00  0.00    -0.269 OA
ATOM     29  N   UNL     1       2.142  -9.682   2.379  1.00  0.00    -0.334 N 
ATOM     30  C   UNL     1       2.290 -10.130   0.987  1.00  0.00     0.148 C 
ATOM     31  C   UNL     1       1.983 -10.784   3.330  1.00  0.00     0.148 C 
ATOM     32  C   UNL     1       1.197 -11.149   0.610  1.00  0.00     0.181 C 
ATOM     33  C   UNL     1       0.843 -11.699   2.881  1.00  0.00     0.181 C 
ATOM     34  O   UNL     1       1.112 -12.219   1.568  1.00  0.00    -0.378 OA
ENDBRANCH  23  27
ENDBRANCH  17  20
ENDBRANCH  11  16
ENDBRANCH   8  10
ENDBRANCH   7   8
ENDBRANCH   6   7
ENDBRANCH   5   6
ENDBRANCH   4   5
ENDBRANCH   3   4
ENDBRANCH   2   3
ENDBRANCH   1   2
BRANCH   1  35
ATOM     35  C   UNL     1      -4.987   1.320   2.062  1.00  0.00     0.188 C 
BRANCH  35  36
ATOM     36  C   UNL     1      -5.113   2.560   2.932  1.00  0.00     0.188 C 
BRANCH  36  37
ATOM     37  O   UNL     1      -4.273   2.662   4.068  1.00  0.00    -0.376 OA
BRANCH  37  38
ATOM     38  C   UNL     1      -3.823   1.447   4.658  1.00  0.00     0.202 C 
BRANCH  38  39
ATOM     39  C   UNL     1      -4.866   0.397   5.137  1.00  0.00     0.261 C 
BRANCH  39  40
ATOM     40  O   UNL     1      -6.240   0.818   4.999  1.00  0.00    -0.460 OA
BRANCH  40  41
ATOM     41  C   UNL     1      -7.212  -0.148   4.949  1.00  0.00     0.338 C 
ATOM     42  O   UNL     1      -8.165  -0.190   5.713  1.00  0.00    -0.246 OA
BRANCH  41  43
ATOM     43  C   UNL     1      -7.268  -0.783   3.612  1.00  0.00     0.060 A 
ATOM     44  C   UNL     1      -6.870  -2.066   3.346  1.00  0.00     0.016 A 
ATOM     45  C   UNL     1      -7.870  -0.146   2.551  1.00  0.00     0.016 A 
ATOM     46  C   UNL     1      -6.701  -2.460   1.998  1.00  0.00     0.010 A 
ATOM     47  C   UNL     1      -7.598  -0.605   1.235  1.00  0.00     0.010 A 
ATOM     48  C   UNL     1      -6.578  -1.525   0.960  1.00  0.00    -0.014 A 
BRANCH  48  49
ATOM     49  C   UNL     1      -5.193  -1.526  -0.189  1.00  0.00     0.031 A 
ATOM     50  C   UNL     1      -5.066  -0.964  -2.076  1.00  0.00     0.074 A 
ATOM     51  C   UNL     1      -4.281  -2.324   0.513  1.00  0.00     0.049 A 
ATOM     52  N   UNL     1      -5.166  -1.802  -3.149  1.00  0.00    -0.248 NA
ATOM     53  C   UNL     1      -5.384   0.348  -2.897  1.00  0.00     0.031 C 
ATOM     54  C   UNL     1      -3.006  -2.786   0.110  1.00  0.00     0.029 A 
ATOM     55  N   UNL     1      -4.452  -3.244   1.591  1.00  0.00    -0.354 N 
ATOM     56  C   UNL     1      -5.350  -1.310  -4.427  1.00  0.00     0.074 A 
ATOM     57  C   UNL     1      -5.669   0.033  -4.168  1.00  0.00     0.031 C 
ATOM     58  C   UNL     1      -2.841  -4.091   0.381  1.00  0.00     0.029 A 
ATOM     59  C   UNL     1      -3.890  -4.477   1.246  1.00  0.00     0.049 A 
ATOM     60  H   UNL     1      -4.898  -3.043   2.445  1.00  0.00     0.167 HD
ATOM     61  C   UNL     1      -5.186  -1.996  -5.614  1.00  0.00     0.037 A 
ATOM     62  C   UNL     1      -4.433  -5.715   1.303  1.00  0.00     0.037 A 
ATOM     63  C   UNL     1      -4.576  -3.336  -5.458  1.00  0.00     0.049 A 
ATOM     64  C   UNL     1      -4.581  -6.435  -0.042  1.00  0.00     0.074 A 
ATOM     65  C   UNL     1      -3.289  -3.824  -5.651  1.00  0.00     0.029 A 
ATOM     66  N   UNL     1      -5.226  -4.359  -4.779  1.00  0.00    -0.354 N 
ATOM     67  N   UNL     1      -4.314  -5.919  -1.229  1.00  0.00    -0.248 NA
ATOM     68  C   UNL     1      -5.176  -7.765  -0.152  1.00  0.00     0.031 C 
ATOM     69  C   UNL     1      -3.132  -5.027  -4.887  1.00  0.00     0.029 A 
ATOM     70  C   UNL     1      -4.346  -5.341  -4.296  1.00  0.00     0.049 A 
ATOM     71  H   UNL     1      -6.202  -4.391  -4.649  1.00  0.00     0.167 HD
ATOM     72  C   UNL     1      -4.780  -6.759  -2.232  1.00  0.00     0.074 A 
ATOM     73  C   UNL     1      -5.279  -7.914  -1.484  1.00  0.00     0.031 C 
ATOM     74  C   UNL     1      -4.840  -6.540  -3.595  1.00  0.00     0.037 A 
BRANCH  61  75
ATOM     75  C   UNL     1      -5.281  -1.198  -6.941  1.00  0.00     0.058 A 
ATOM     76  C   UNL     1      -4.333  -1.289  -7.981  1.00  0.00     0.135 A 
ATOM     77  C   UNL     1      -6.278  -0.218  -7.169  1.00  0.00     0.135 A 
ATOM     78  F   UNL     1      -3.428  -2.276  -8.009  1.00  0.00    -0.206 F 
ATOM     79  C   UNL     1      -4.268  -0.364  -9.045  1.00  0.00     0.059 A 
ATOM     80  C   UNL     1      -6.189   0.768  -8.167  1.00  0.00     0.059 A 
ATOM     81  F   UNL     1      -7.385  -0.189  -6.408  1.00  0.00    -0.206 F 
ATOM     82  C   UNL     1      -5.161   0.702  -9.095  1.00  0.00     0.060 A 
BRANCH  82  83
ATOM     83  S   UNL     1      -4.976   1.982 -10.366  1.00  0.00     0.124 S 
ATOM     84  O   UNL     1      -3.559   2.323 -10.276  1.00  0.00    -0.237 OA
ATOM     85  O   UNL     1      -5.380   1.274 -11.576  1.00  0.00    -0.237 OA
ATOM     86  O   UNL     1      -5.888   3.036  -9.927  1.00  0.00    -0.744 OA
ENDBRANCH  82  83
ENDBRANCH  61  75
BRANCH  62  87
ATOM     87  C   UNL     1      -4.640  -6.126   2.736  1.00  0.00     0.058 A 
ATOM     88  C   UNL     1      -3.447  -6.144   3.502  1.00  0.00     0.135 A 
ATOM     89  C   UNL     1      -5.811  -5.787   3.428  1.00  0.00     0.135 A 
ATOM     90  F   UNL     1      -2.302  -6.554   2.932  1.00  0.00    -0.206 F 
ATOM     91  C   UNL     1      -3.358  -5.493   4.731  1.00  0.00     0.059 A 
ATOM     92  C   UNL     1      -5.757  -5.204   4.703  1.00  0.00     0.059 A 
ATOM     93  F   UNL     1      -6.998  -5.839   2.808  1.00  0.00    -0.206 F 
ATOM     94  C   UNL     1      -4.511  -4.934   5.271  1.00  0.00     0.060 A 
BRANCH  94  95
ATOM     95  S   UNL     1      -4.316  -3.547   6.437  1.00  0.00     0.124 S 
ATOM     96  O   UNL     1      -3.932  -4.226   7.669  1.00  0.00    -0.237 OA
ATOM     97  O   UNL     1      -3.279  -2.751   5.785  1.00  0.00    -0.237 OA
ATOM     98  O   UNL     1      -5.631  -2.920   6.430  1.00  0.00    -0.744 OA
ENDBRANCH  94  95
ENDBRANCH  62  87
BRANCH  74  99
ATOM     99  C   UNL     1      -5.410  -7.594  -4.510  1.00  0.00     0.058 A 
ATOM    100  C   UNL     1      -4.886  -8.893  -4.582  1.00  0.00     0.135 A 
ATOM    101  C   UNL     1      -6.408  -7.255  -5.446  1.00  0.00     0.135 A 
ATOM    102  F   UNL     1      -3.908  -9.282  -3.747  1.00  0.00    -0.206 F 
ATOM    103  C   UNL     1      -5.365  -9.826  -5.500  1.00  0.00     0.059 A 
ATOM    104  C   UNL     1      -6.853  -8.146  -6.413  1.00  0.00     0.059 A 
ATOM    105  F   UNL     1      -6.998  -6.049  -5.420  1.00  0.00    -0.206 F 
ATOM    106  C   UNL     1      -6.350  -9.442  -6.411  1.00  0.00     0.060 A 
BRANCH 106 107
ATOM    107  S   UNL     1      -7.003 -10.636  -7.592  1.00  0.00     0.124 S 
ATOM    108  O   UNL     1      -5.885 -11.556  -7.780  1.00  0.00    -0.237 OA
ATOM    109  O   UNL     1      -8.142 -11.172  -6.853  1.00  0.00    -0.237 OA
ATOM    110  O   UNL     1      -7.331  -9.812  -8.751  1.00  0.00    -0.744 OA
ENDBRANCH 106 107
ENDBRANCH  74  99
ENDBRANCH  48  49
ENDBRANCH  41  43
ENDBRANCH  40  41
ENDBRANCH  39  40
ENDBRANCH  38  39
ENDBRANCH  37  38
ENDBRANCH  36  37
ENDBRANCH  35  36
ENDBRANCH   1  35
TORSDOF 26
