REMARK SMILES O=C(Cc1ccn(-c2ccccc2F)c1)OCCOCCOCCOCCOC(=O)c1ccc(-c2c3nc(c(-c4c(F)cc(S(=O)(=O)[O-])cc4F)c4ccc([nH]4)c(-c4c(F)cc(S(=O)(=O)[O-])cc4F)c4nc(c(-c5c(F)cc(S(=O)(=O)[O-])cc5F)c5ccc2[nH]5)C=C4)C=C3)cc1
REMARK SMILES IDX 23 1 22 2 21 3 20 4 19 5 18 6 17 7 16 8 2 9 1 10 3 11 4 12
REMARK SMILES IDX 5 13 15 14 6 15 7 16 8 17 9 18 13 19 10 20 12 21 14 22 11 23
REMARK SMILES IDX 24 24 25 25 26 26 27 27 28 28 29 29 30 30 31 31 32 32 96 33
REMARK SMILES IDX 33 34 95 35 34 36 35 37 36 38 89 39 37 40 94 41 88 42 90 43
REMARK SMILES IDX 38 44 93 45 87 46 86 47 39 49 73 50 52 51 72 52 53 53 56 54
REMARK SMILES IDX 71 55 91 56 54 57 55 58 70 60 92 61 57 62 40 63 41 64 50 65
REMARK SMILES IDX 42 66 43 67 49 68 51 69 44 70 45 71 46 72 47 73 48 74 74 75
REMARK SMILES IDX 75 76 84 77 76 78 77 79 83 80 85 81 78 82 79 83 80 84 81 85
REMARK SMILES IDX 82 86 58 87 59 88 68 89 60 90 61 91 67 92 69 93 62 94 63 95
REMARK SMILES IDX 64 96 65 97 66 98
REMARK H PARENT 90 48 56 59
REMARK Flexibility Score: inf
ROOT
ATOM      1  C   UNL     1       4.275   1.648  -3.249  1.00  0.00     0.188 C 
ENDROOT
BRANCH   1   2
ATOM      2  O   UNL     1       2.917   2.045  -3.200  1.00  0.00    -0.377 OA
BRANCH   2   3
ATOM      3  C   UNL     1       2.158   1.524  -2.121  1.00  0.00     0.188 C 
BRANCH   3   4
ATOM      4  C   UNL     1       2.688   1.798  -0.715  1.00  0.00     0.188 C 
BRANCH   4   5
ATOM      5  O   UNL     1       4.070   1.575  -0.540  1.00  0.00    -0.376 OA
BRANCH   5   6
ATOM      6  C   UNL     1       4.633   0.401  -0.007  1.00  0.00     0.202 C 
BRANCH   6   7
ATOM      7  C   UNL     1       3.950  -0.939  -0.232  1.00  0.00     0.261 C 
BRANCH   7   8
ATOM      8  O   UNL     1       2.539  -1.050   0.071  1.00  0.00    -0.463 OA
BRANCH   8   9
ATOM      9  C   UNL     1       1.843  -0.662   1.163  1.00  0.00     0.310 C 
ATOM     10  O   UNL     1       0.631  -0.882   1.204  1.00  0.00    -0.252 OA
BRANCH   9  11
ATOM     11  C   UNL     1       2.519   0.116   2.279  1.00  0.00     0.159 C 
BRANCH  11  12
ATOM     12  C   UNL     1       3.619  -0.632   2.930  1.00  0.00    -0.019 A 
ATOM     13  C   UNL     1       4.770  -0.128   3.600  1.00  0.00     0.024 A 
ATOM     14  C   UNL     1       3.720  -1.999   2.958  1.00  0.00     0.095 A 
ATOM     15  C   UNL     1       5.526  -1.213   4.000  1.00  0.00     0.091 A 
ATOM     16  N   UNL     1       4.904  -2.346   3.544  1.00  0.00    -0.321 N 
BRANCH  16  17
ATOM     17  C   UNL     1       5.230  -3.684   3.760  1.00  0.00     0.081 A 
ATOM     18  C   UNL     1       4.931  -4.226   5.011  1.00  0.00     0.030 A 
ATOM     19  C   UNL     1       5.411  -4.500   2.643  1.00  0.00     0.147 A 
ATOM     20  C   UNL     1       4.790  -5.607   5.121  1.00  0.00     0.002 A 
ATOM     21  C   UNL     1       5.300  -5.876   2.762  1.00  0.00     0.041 A 
ATOM     22  F   UNL     1       5.635  -3.965   1.433  1.00  0.00    -0.205 F 
ATOM     23  C   UNL     1       4.969  -6.428   4.000  1.00  0.00     0.003 A 
ENDBRANCH  16  17
ENDBRANCH  11  12
ENDBRANCH   9  11
ENDBRANCH   8   9
ENDBRANCH   7   8
ENDBRANCH   6   7
ENDBRANCH   5   6
ENDBRANCH   4   5
ENDBRANCH   3   4
ENDBRANCH   2   3
ENDBRANCH   1   2
BRANCH   1  24
ATOM     24  C   UNL     1       5.265   2.744  -2.810  1.00  0.00     0.188 C 
BRANCH  24  25
ATOM     25  O   UNL     1       4.893   3.749  -1.883  1.00  0.00    -0.376 OA
BRANCH  25  26
ATOM     26  C   UNL     1       3.842   4.694  -2.005  1.00  0.00     0.202 C 
BRANCH  26  27
ATOM     27  C   UNL     1       2.963   5.003  -3.222  1.00  0.00     0.261 C 
BRANCH  27  28
ATOM     28  O   UNL     1       3.251   4.317  -4.407  1.00  0.00    -0.460 OA
BRANCH  28  29
ATOM     29  C   UNL     1       4.426   4.699  -4.923  1.00  0.00     0.338 C 
ATOM     30  O   UNL     1       5.251   5.457  -4.455  1.00  0.00    -0.246 OA
BRANCH  29  31
ATOM     31  C   UNL     1       4.555   4.076  -6.225  1.00  0.00     0.060 A 
ATOM     32  C   UNL     1       5.856   3.772  -6.625  1.00  0.00     0.016 A 
ATOM     33  C   UNL     1       3.479   4.249  -7.099  1.00  0.00     0.016 A 
ATOM     34  C   UNL     1       6.138   3.866  -7.958  1.00  0.00     0.010 A 
ATOM     35  C   UNL     1       3.773   4.402  -8.425  1.00  0.00     0.010 A 
ATOM     36  C   UNL     1       5.108   4.258  -8.822  1.00  0.00    -0.014 A 
BRANCH  36  37
ATOM     37  C   UNL     1       5.435   4.379 -10.232  1.00  0.00     0.031 A 
ATOM     38  C   UNL     1       5.231   3.013 -10.910  1.00  0.00     0.074 A 
ATOM     39  C   UNL     1       5.865   5.627 -10.600  1.00  0.00     0.049 A 
ATOM     40  N   UNL     1       5.708   2.564 -12.023  1.00  0.00    -0.248 NA
ATOM     41  C   UNL     1       4.428   1.950 -10.221  1.00  0.00     0.031 C 
ATOM     42  C   UNL     1       5.967   6.811  -9.703  1.00  0.00     0.029 A 
ATOM     43  N   UNL     1       6.312   6.164 -11.782  1.00  0.00    -0.354 N 
ATOM     44  C   UNL     1       5.088   1.323 -12.282  1.00  0.00     0.074 A 
ATOM     45  C   UNL     1       4.405   0.940 -11.091  1.00  0.00     0.031 C 
ATOM     46  C   UNL     1       6.529   7.862 -10.342  1.00  0.00     0.029 A 
ATOM     47  C   UNL     1       6.807   7.497 -11.716  1.00  0.00     0.049 A 
ATOM     48  H   UNL     1       6.292   5.657 -12.626  1.00  0.00     0.167 HD
ATOM     49  C   UNL     1       5.078   0.752 -13.518  1.00  0.00     0.037 A 
ATOM     50  C   UNL     1       7.431   8.218 -12.702  1.00  0.00     0.037 A 
ATOM     51  C   UNL     1       5.838   1.552 -14.418  1.00  0.00     0.049 A 
ATOM     52  C   UNL     1       7.270   7.384 -13.904  1.00  0.00     0.074 A 
ATOM     53  C   UNL     1       7.192   1.747 -14.507  1.00  0.00     0.029 A 
ATOM     54  N   UNL     1       5.182   2.594 -15.033  1.00  0.00    -0.354 N 
ATOM     55  N   UNL     1       6.144   7.185 -14.524  1.00  0.00    -0.248 NA
ATOM     56  C   UNL     1       8.421   6.599 -14.366  1.00  0.00     0.031 C 
ATOM     57  C   UNL     1       7.299   3.133 -14.729  1.00  0.00     0.029 A 
ATOM     58  C   UNL     1       6.042   3.667 -15.040  1.00  0.00     0.049 A 
ATOM     59  H   UNL     1       4.268   2.574 -15.399  1.00  0.00     0.167 HD
ATOM     60  C   UNL     1       6.386   6.018 -15.203  1.00  0.00     0.074 A 
ATOM     61  C   UNL     1       7.825   5.902 -15.327  1.00  0.00     0.031 C 
ATOM     62  C   UNL     1       5.490   4.999 -15.145  1.00  0.00     0.037 A 
BRANCH  49  63
ATOM     63  C   UNL     1       4.299  -0.391 -14.086  1.00  0.00     0.058 A 
ATOM     64  C   UNL     1       2.951  -0.637 -13.793  1.00  0.00     0.135 A 
ATOM     65  C   UNL     1       4.831  -1.049 -15.220  1.00  0.00     0.135 A 
ATOM     66  F   UNL     1       2.360  -0.068 -12.732  1.00  0.00    -0.206 F 
ATOM     67  C   UNL     1       2.151  -1.415 -14.634  1.00  0.00     0.059 A 
ATOM     68  C   UNL     1       4.046  -1.795 -16.088  1.00  0.00     0.059 A 
ATOM     69  F   UNL     1       6.130  -0.921 -15.541  1.00  0.00    -0.206 F 
ATOM     70  C   UNL     1       2.697  -1.952 -15.801  1.00  0.00     0.060 A 
BRANCH  70  71
ATOM     71  S   UNL     1       1.617  -2.784 -16.983  1.00  0.00     0.124 S 
ATOM     72  O   UNL     1       1.280  -4.008 -16.263  1.00  0.00    -0.237 OA
ATOM     73  O   UNL     1       0.534  -1.821 -17.147  1.00  0.00    -0.237 OA
ATOM     74  O   UNL     1       2.470  -2.966 -18.155  1.00  0.00    -0.744 OA
ENDBRANCH  70  71
ENDBRANCH  49  63
BRANCH  50  75
ATOM     75  C   UNL     1       8.296   9.457 -12.853  1.00  0.00     0.058 A 
ATOM     76  C   UNL     1       9.004   9.657 -14.075  1.00  0.00     0.135 A 
ATOM     77  C   UNL     1       8.627  10.379 -11.852  1.00  0.00     0.135 A 
ATOM     78  F   UNL     1       8.674   9.005 -15.199  1.00  0.00    -0.206 F 
ATOM     79  C   UNL     1      10.111  10.488 -14.209  1.00  0.00     0.059 A 
ATOM     80  C   UNL     1       9.703  11.285 -11.985  1.00  0.00     0.059 A 
ATOM     81  F   UNL     1       7.936  10.430 -10.706  1.00  0.00    -0.206 F 
ATOM     82  C   UNL     1      10.493  11.262 -13.133  1.00  0.00     0.060 A 
BRANCH  82  83
ATOM     83  S   UNL     1      12.048  12.171 -13.264  1.00  0.00     0.124 S 
ATOM     84  O   UNL     1      13.024  11.099 -13.083  1.00  0.00    -0.237 OA
ATOM     85  O   UNL     1      11.980  12.737 -14.608  1.00  0.00    -0.237 OA
ATOM     86  O   UNL     1      11.967  13.138 -12.175  1.00  0.00    -0.744 OA
ENDBRANCH  82  83
ENDBRANCH  50  75
BRANCH  62  87
ATOM     87  C   UNL     1       4.052   5.406 -14.869  1.00  0.00     0.058 A 
ATOM     88  C   UNL     1       3.332   5.079 -13.705  1.00  0.00     0.135 A 
ATOM     89  C   UNL     1       3.372   6.213 -15.795  1.00  0.00     0.135 A 
ATOM     90  F   UNL     1       3.883   4.326 -12.755  1.00  0.00    -0.206 F 
ATOM     91  C   UNL     1       2.020   5.503 -13.473  1.00  0.00     0.059 A 
ATOM     92  C   UNL     1       2.060   6.655 -15.589  1.00  0.00     0.059 A 
ATOM     93  F   UNL     1       3.978   6.568 -16.939  1.00  0.00    -0.206 F 
ATOM     94  C   UNL     1       1.387   6.292 -14.426  1.00  0.00     0.060 A 
BRANCH  94  95
ATOM     95  S   UNL     1      -0.335   6.775 -14.155  1.00  0.00     0.124 S 
ATOM     96  O   UNL     1      -0.982   5.490 -13.906  1.00  0.00    -0.237 OA
ATOM     97  O   UNL     1      -0.235   7.660 -12.999  1.00  0.00    -0.237 OA
ATOM     98  O   UNL     1      -0.709   7.425 -15.408  1.00  0.00    -0.744 OA
ENDBRANCH  94  95
ENDBRANCH  62  87
ENDBRANCH  36  37
ENDBRANCH  29  31
ENDBRANCH  28  29
ENDBRANCH  27  28
ENDBRANCH  26  27
ENDBRANCH  25  26
ENDBRANCH  24  25
ENDBRANCH   1  24
TORSDOF 25
