REMARK SMILES Cc1ccc(C(=O)NC2CC2)cc1NC(=O)[C@@H]1[C@@H](C(=O)OCCOCCOCCOCCOC(=O)c2ccc(-c3c4nc(c(-c5c(F)cc(S(=O)(=O)[O-])cc5F)c5ccc([nH]5)c(-c5c(F)cc(S(=O)(=O)[O-])cc5F)c5nc(c(-c6c(F)cc(S(=O)(=O)[O-])cc6F)c6ccc3[nH]6)C=C5)C=C4)cc2)[C@H]2C=C[C@@H]1C2
REMARK SMILES IDX 26 1 25 2 24 3 23 4 22 5 21 6 19 7 20 8 18 9 17 10 105 11
REMARK SMILES IDX 102 12 104 13 106 14 103 15 15 16 14 17 16 19 13 20 1 21
REMARK SMILES IDX 2 22 3 23 4 24 12 25 5 26 6 27 7 28 8 29 9 31 10 32 11 33
REMARK SMILES IDX 27 34 28 35 29 36 30 37 31 38 32 39 33 40 34 41 35 42 36 43
REMARK SMILES IDX 37 44 101 45 38 46 100 47 39 48 40 49 41 50 94 51 42 52
REMARK SMILES IDX 99 53 93 54 95 55 43 56 98 57 92 58 91 59 44 61 78 62 57 63
REMARK SMILES IDX 77 64 58 65 61 66 76 67 96 68 59 69 60 70 75 72 97 73 62 74
REMARK SMILES IDX 45 75 46 76 55 77 47 78 48 79 54 80 56 81 49 82 50 83 51 84
REMARK SMILES IDX 52 85 53 86 79 87 80 88 89 89 81 90 82 91 88 92 90 93 83 94
REMARK SMILES IDX 84 95 85 96 86 97 87 98 63 99 64 100 73 101 65 102 66 103
REMARK SMILES IDX 72 104 74 105 67 106 68 107 69 108 70 109 71 110
REMARK H PARENT 14 18 8 30 95 60 61 71
REMARK Flexibility Score: inf
ROOT
ATOM      1  C   UNL     1       0.010   5.317  -2.741  1.00  0.00     0.188 C 
ENDROOT
BRANCH   1   2
ATOM      2  C   UNL     1      -1.357   4.779  -3.205  1.00  0.00     0.188 C 
BRANCH   2   3
ATOM      3  O   UNL     1      -2.067   4.071  -2.200  1.00  0.00    -0.376 OA
BRANCH   3   4
ATOM      4  C   UNL     1      -3.364   4.530  -1.849  1.00  0.00     0.202 C 
BRANCH   4   5
ATOM      5  C   UNL     1      -3.772   4.855  -0.391  1.00  0.00     0.261 C 
BRANCH   5   6
ATOM      6  O   UNL     1      -2.868   5.077   0.709  1.00  0.00    -0.463 OA
BRANCH   6   7
ATOM      7  C   UNL     1      -1.615   4.648   0.705  1.00  0.00     0.310 C 
ATOM      8  O   UNL     1      -0.935   4.284  -0.257  1.00  0.00    -0.252 OA
BRANCH   7   9
ATOM      9  C   UNL     1      -0.971   4.470   2.017  1.00  0.00     0.119 C 
ATOM     10  C   UNL     1      -0.533   2.948   2.002  1.00  0.00     0.100 C 
ATOM     11  C   UNL     1      -0.899   2.521   3.435  1.00  0.00     0.025 C 
ATOM     12  C   UNL     1      -1.762   4.602   3.320  1.00  0.00     0.027 C 
ATOM     13  C   UNL     1      -2.415   2.401   3.466  1.00  0.00    -0.027 C 
ATOM     14  C   UNL     1      -0.793   3.832   4.231  1.00  0.00     0.017 C 
ATOM     15  C   UNL     1      -2.923   3.640   3.372  1.00  0.00    -0.027 C 
BRANCH  10  16
ATOM     16  C   UNL     1       0.911   2.781   1.548  1.00  0.00     0.228 C 
ATOM     17  N   UNL     1       1.426   1.665   0.943  1.00  0.00    -0.326 N 
ATOM     18  H   UNL     1       2.381   1.784   0.734  1.00  0.00     0.169 HD
ATOM     19  O   UNL     1       1.733   3.680   1.780  1.00  0.00    -0.274 OA
BRANCH  17  20
ATOM     20  C   UNL     1       0.967   0.387   0.533  1.00  0.00     0.044 A 
ATOM     21  C   UNL     1       3.379  -0.487   0.330  1.00  0.00     0.046 C 
ATOM     22  C   UNL     1       1.886  -0.656   0.334  1.00  0.00    -0.027 A 
ATOM     23  C   UNL     1       1.414  -1.969   0.121  1.00  0.00     0.006 A 
ATOM     24  C   UNL     1       0.055  -2.248   0.023  1.00  0.00     0.014 A 
ATOM     25  C   UNL     1      -0.370   0.093   0.272  1.00  0.00     0.040 A 
ATOM     26  C   UNL     1      -0.872  -1.213   0.059  1.00  0.00     0.041 A 
BRANCH  26  27
ATOM     27  C   UNL     1      -2.315  -1.630  -0.143  1.00  0.00     0.251 C 
ATOM     28  O   UNL     1      -2.590  -2.806  -0.383  1.00  0.00    -0.269 OA
ATOM     29  N   UNL     1      -3.356  -0.744  -0.006  1.00  0.00    -0.349 N 
ATOM     30  H   UNL     1      -4.265  -1.086  -0.164  1.00  0.00     0.164 HD
BRANCH  29  31
ATOM     31  C   UNL     1      -3.227   0.605   0.337  1.00  0.00     0.082 C 
ATOM     32  C   UNL     1      -3.188   1.553  -0.827  1.00  0.00     0.027 C 
ATOM     33  C   UNL     1      -4.232   1.671   0.244  1.00  0.00     0.027 C 
ENDBRANCH  29  31
ENDBRANCH  26  27
ENDBRANCH  17  20
ENDBRANCH  10  16
ENDBRANCH   7   9
ENDBRANCH   6   7
ENDBRANCH   5   6
ENDBRANCH   4   5
ENDBRANCH   3   4
ENDBRANCH   2   3
ENDBRANCH   1   2
BRANCH   1  34
ATOM     34  O   UNL     1       0.341   6.617  -3.242  1.00  0.00    -0.377 OA
BRANCH  34  35
ATOM     35  C   UNL     1       0.310   6.747  -4.647  1.00  0.00     0.188 C 
BRANCH  35  36
ATOM     36  C   UNL     1       1.363   7.713  -5.210  1.00  0.00     0.188 C 
BRANCH  36  37
ATOM     37  O   UNL     1       2.558   7.931  -4.473  1.00  0.00    -0.376 OA
BRANCH  37  38
ATOM     38  C   UNL     1       2.408   8.533  -3.175  1.00  0.00     0.202 C 
BRANCH  38  39
ATOM     39  C   UNL     1       1.563   9.826  -3.037  1.00  0.00     0.261 C 
BRANCH  39  40
ATOM     40  O   UNL     1       0.311   9.770  -3.738  1.00  0.00    -0.460 OA
BRANCH  40  41
ATOM     41  C   UNL     1      -0.738  10.526  -3.372  1.00  0.00     0.338 C 
ATOM     42  O   UNL     1      -0.940  10.947  -2.227  1.00  0.00    -0.246 OA
BRANCH  41  43
ATOM     43  C   UNL     1      -1.702  10.586  -4.529  1.00  0.00     0.060 A 
ATOM     44  C   UNL     1      -3.001  11.019  -4.333  1.00  0.00     0.016 A 
ATOM     45  C   UNL     1      -1.495   9.797  -5.655  1.00  0.00     0.016 A 
ATOM     46  C   UNL     1      -4.048  10.231  -4.847  1.00  0.00     0.010 A 
ATOM     47  C   UNL     1      -2.527   8.965  -6.081  1.00  0.00     0.010 A 
ATOM     48  C   UNL     1      -3.716   8.966  -5.353  1.00  0.00    -0.014 A 
BRANCH  48  49
ATOM     49  C   UNL     1      -3.862   7.761  -4.397  1.00  0.00     0.031 A 
ATOM     50  C   UNL     1      -3.990   6.319  -4.880  1.00  0.00     0.074 A 
ATOM     51  C   UNL     1      -3.612   8.064  -3.087  1.00  0.00     0.049 A 
ATOM     52  N   UNL     1      -4.880   5.446  -4.466  1.00  0.00    -0.248 NA
ATOM     53  C   UNL     1      -3.095   5.740  -5.882  1.00  0.00     0.031 C 
ATOM     54  C   UNL     1      -2.822   7.454  -2.026  1.00  0.00     0.029 A 
ATOM     55  N   UNL     1      -4.274   9.066  -2.376  1.00  0.00    -0.354 N 
ATOM     56  C   UNL     1      -4.580   4.184  -5.020  1.00  0.00     0.074 A 
ATOM     57  C   UNL     1      -3.460   4.454  -5.895  1.00  0.00     0.031 C 
ATOM     58  C   UNL     1      -3.293   7.814  -0.821  1.00  0.00     0.029 A 
ATOM     59  C   UNL     1      -4.416   8.654  -1.064  1.00  0.00     0.049 A 
ATOM     60  H   UNL     1      -4.588   9.923  -2.746  1.00  0.00     0.167 HD
ATOM     61  C   UNL     1      -5.153   2.981  -4.639  1.00  0.00     0.037 A 
ATOM     62  C   UNL     1      -5.364   9.013  -0.190  1.00  0.00     0.037 A 
ATOM     63  C   UNL     1      -6.003   3.093  -3.421  1.00  0.00     0.049 A 
ATOM     64  C   UNL     1      -6.463   7.963  -0.202  1.00  0.00     0.074 A 
ATOM     65  C   UNL     1      -6.125   2.287  -2.301  1.00  0.00     0.029 A 
ATOM     66  N   UNL     1      -6.738   4.253  -3.088  1.00  0.00    -0.354 N 
ATOM     67  N   UNL     1      -6.548   6.874  -0.941  1.00  0.00    -0.248 NA
ATOM     68  C   UNL     1      -7.530   8.056   0.791  1.00  0.00     0.031 C 
ATOM     69  C   UNL     1      -6.801   2.976  -1.283  1.00  0.00     0.029 A 
ATOM     70  C   UNL     1      -7.232   4.177  -1.797  1.00  0.00     0.049 A 
ATOM     71  H   UNL     1      -6.881   5.015  -3.695  1.00  0.00     0.167 HD
ATOM     72  C   UNL     1      -7.723   6.202  -0.601  1.00  0.00     0.074 A 
ATOM     73  C   UNL     1      -8.236   6.949   0.533  1.00  0.00     0.031 C 
ATOM     74  C   UNL     1      -8.216   5.057  -1.186  1.00  0.00     0.037 A 
BRANCH  61  75
ATOM     75  C   UNL     1      -4.690   1.565  -5.229  1.00  0.00     0.058 A 
ATOM     76  C   UNL     1      -4.893   0.306  -4.596  1.00  0.00     0.135 A 
ATOM     77  C   UNL     1      -4.041   1.398  -6.475  1.00  0.00     0.135 A 
ATOM     78  F   UNL     1      -5.805   0.131  -3.638  1.00  0.00    -0.206 F 
ATOM     79  C   UNL     1      -4.287  -0.905  -4.989  1.00  0.00     0.059 A 
ATOM     80  C   UNL     1      -3.423   0.199  -6.904  1.00  0.00     0.059 A 
ATOM     81  F   UNL     1      -4.070   2.374  -7.395  1.00  0.00    -0.206 F 
ATOM     82  C   UNL     1      -3.506  -0.945  -6.127  1.00  0.00     0.060 A 
BRANCH  82  83
ATOM     83  S   UNL     1      -2.785  -2.518  -6.660  1.00  0.00     0.124 S 
ATOM     84  O   UNL     1      -1.684  -2.687  -5.718  1.00  0.00    -0.237 OA
ATOM     85  O   UNL     1      -3.899  -3.450  -6.510  1.00  0.00    -0.237 OA
ATOM     86  O   UNL     1      -2.386  -2.254  -8.041  1.00  0.00    -0.744 OA
ENDBRANCH  82  83
ENDBRANCH  61  75
BRANCH  62  87
ATOM     87  C   UNL     1      -5.447  10.510  -0.195  1.00  0.00     0.058 A 
ATOM     88  C   UNL     1      -4.375  11.143   0.487  1.00  0.00     0.135 A 
ATOM     89  C   UNL     1      -6.029  11.220  -1.255  1.00  0.00     0.135 A 
ATOM     90  F   UNL     1      -3.785  10.512   1.518  1.00  0.00    -0.206 F 
ATOM     91  C   UNL     1      -3.774  12.310   0.013  1.00  0.00     0.059 A 
ATOM     92  C   UNL     1      -5.447  12.401  -1.739  1.00  0.00     0.059 A 
ATOM     93  F   UNL     1      -7.027  10.671  -1.963  1.00  0.00    -0.206 F 
ATOM     94  C   UNL     1      -4.290  12.909  -1.133  1.00  0.00     0.060 A 
BRANCH  94  95
ATOM     95  S   UNL     1      -3.334  14.236  -1.935  1.00  0.00     0.124 S 
ATOM     96  O   UNL     1      -3.614  15.374  -1.070  1.00  0.00    -0.237 OA
ATOM     97  O   UNL     1      -1.967  13.732  -1.893  1.00  0.00    -0.237 OA
ATOM     98  O   UNL     1      -3.916  14.293  -3.273  1.00  0.00    -0.744 OA
ENDBRANCH  94  95
ENDBRANCH  62  87
BRANCH  74  99
ATOM     99  C   UNL     1      -9.619   4.412  -0.958  1.00  0.00     0.058 A 
ATOM    100  C   UNL     1     -10.720   5.034  -0.349  1.00  0.00     0.135 A 
ATOM    101  C   UNL     1      -9.915   3.100  -1.445  1.00  0.00     0.135 A 
ATOM    102  F   UNL     1     -10.704   6.335  -0.032  1.00  0.00    -0.206 F 
ATOM    103  C   UNL     1     -11.937   4.373  -0.107  1.00  0.00     0.059 A 
ATOM    104  C   UNL     1     -11.105   2.416  -1.202  1.00  0.00     0.059 A 
ATOM    105  F   UNL     1      -9.088   2.432  -2.259  1.00  0.00    -0.206 F 
ATOM    106  C   UNL     1     -12.114   3.057  -0.519  1.00  0.00     0.060 A 
BRANCH 106 107
ATOM    107  S   UNL     1     -13.711   2.254  -0.296  1.00  0.00     0.124 S 
ATOM    108  O   UNL     1     -13.760   2.079   1.152  1.00  0.00    -0.237 OA
ATOM    109  O   UNL     1     -14.629   3.247  -0.847  1.00  0.00    -0.237 OA
ATOM    110  O   UNL     1     -13.592   1.023  -1.072  1.00  0.00    -0.744 OA
ENDBRANCH 106 107
ENDBRANCH  74  99
ENDBRANCH  48  49
ENDBRANCH  41  43
ENDBRANCH  40  41
ENDBRANCH  39  40
ENDBRANCH  38  39
ENDBRANCH  37  38
ENDBRANCH  36  37
ENDBRANCH  35  36
ENDBRANCH  34  35
ENDBRANCH   1  34
TORSDOF 27
