REMARK SMILES CC(=O)c1ccc(NC(=O)C[C@H](C(=O)OCCOCCOCCOCCOC(=O)c2ccc(-c3c4nc(c(-c5c(F)cc(S(=O)(=O)[O-])cc5F)c5ccc([nH]5)c(-c5c(F)cc(S(=O)(=O)[O-])cc5F)c5nc(c(-c6c(F)cc(S(=O)(=O)[O-])cc6F)c6ccc3[nH]6)C=C5)C=C4)cc2)[NH+](C)C)cc1
REMARK SMILES IDX 20 1 19 2 18 3 17 4 16 5 15 6 13 7 14 8 12 9 11 10 9 11 8 12
REMARK SMILES IDX 10 14 7 15 4 16 5 17 100 18 6 19 99 20 2 21 1 22 3 23 96 24
REMARK SMILES IDX 97 25 98 26 21 28 22 29 23 30 24 31 25 32 26 33 27 34 28 35
REMARK SMILES IDX 29 36 30 37 31 38 95 39 32 40 94 41 33 42 34 43 35 44 88 45
REMARK SMILES IDX 36 46 93 47 87 48 89 49 37 50 92 51 86 52 85 53 38 55 72 56
REMARK SMILES IDX 51 57 71 58 52 59 55 60 70 61 90 62 53 63 54 64 69 66 91 67
REMARK SMILES IDX 56 68 39 69 40 70 49 71 41 72 42 73 48 74 50 75 43 76 44 77
REMARK SMILES IDX 45 78 46 79 47 80 73 81 74 82 83 83 75 84 76 85 82 86 84 87
REMARK SMILES IDX 77 88 78 89 79 90 80 91 81 92 57 93 58 94 67 95 59 96 60 97
REMARK SMILES IDX 66 98 68 99 61 100 62 101 63 102 64 103 65 104
REMARK H PARENT 8 13 96 27 89 54 55 65
REMARK Flexibility Score: inf
ROOT
ATOM      1  C   UNL     1       1.895   6.304  -0.614  1.00  0.00     0.188 C 
ENDROOT
BRANCH   1   2
ATOM      2  C   UNL     1       1.796   7.333  -1.742  1.00  0.00     0.188 C 
BRANCH   2   3
ATOM      3  O   UNL     1       1.312   8.608  -1.336  1.00  0.00    -0.376 OA
BRANCH   3   4
ATOM      4  C   UNL     1      -0.094   8.809  -1.525  1.00  0.00     0.202 C 
BRANCH   4   5
ATOM      5  C   UNL     1      -0.552   8.911  -3.001  1.00  0.00     0.261 C 
BRANCH   5   6
ATOM      6  O   UNL     1      -0.993   7.624  -3.521  1.00  0.00    -0.459 OA
BRANCH   6   7
ATOM      7  C   UNL     1      -0.361   7.051  -4.578  1.00  0.00     0.365 C 
ATOM      8  O   UNL     1       0.530   7.619  -5.205  1.00  0.00    -0.245 OA
BRANCH   7   9
ATOM      9  C   UNL     1      -0.746   5.542  -4.839  1.00  0.00     0.304 C 
BRANCH   9  10
ATOM     10  C   UNL     1      -0.172   4.579  -3.754  1.00  0.00     0.177 C 
BRANCH  10  11
ATOM     11  C   UNL     1      -0.910   3.373  -3.165  1.00  0.00     0.231 C 
ATOM     12  N   UNL     1      -1.671   3.391  -2.023  1.00  0.00    -0.326 N 
ATOM     13  H   UNL     1      -1.846   2.494  -1.657  1.00  0.00     0.169 HD
ATOM     14  O   UNL     1      -0.714   2.258  -3.671  1.00  0.00    -0.274 OA
BRANCH  12  15
ATOM     15  C   UNL     1      -2.250   4.424  -1.267  1.00  0.00     0.041 A 
ATOM     16  C   UNL     1      -3.490   6.531   0.153  1.00  0.00     0.017 A 
ATOM     17  C   UNL     1      -2.870   6.776  -1.045  1.00  0.00     0.014 A 
ATOM     18  C   UNL     1      -3.571   5.218   0.609  1.00  0.00     0.014 A 
ATOM     19  C   UNL     1      -2.219   5.732  -1.685  1.00  0.00     0.027 A 
ATOM     20  C   UNL     1      -2.974   4.159  -0.110  1.00  0.00     0.027 A 
BRANCH  16  21
ATOM     21  C   UNL     1      -3.945   7.725   0.889  1.00  0.00     0.159 C 
ATOM     22  C   UNL     1      -3.349   7.984   2.242  1.00  0.00     0.093 C 
ATOM     23  O   UNL     1      -4.680   8.533   0.331  1.00  0.00    -0.295 OA
ENDBRANCH  16  21
ENDBRANCH  12  15
ENDBRANCH  10  11
ENDBRANCH   9  10
BRANCH   9  24
ATOM     24  N   UNL     1      -2.075   5.371  -5.488  1.00  0.00    -0.328 N 
ATOM     25  C   UNL     1      -2.075   4.212  -6.388  1.00  0.00     0.333 C 
ATOM     26  C   UNL     1      -3.251   5.312  -4.631  1.00  0.00     0.333 C 
ATOM     27  H   UNL     1      -2.179   6.250  -5.994  1.00  0.00     0.348 HD
ENDBRANCH   9  24
ENDBRANCH   7   9
ENDBRANCH   6   7
ENDBRANCH   5   6
ENDBRANCH   4   5
ENDBRANCH   3   4
ENDBRANCH   2   3
ENDBRANCH   1   2
BRANCH   1  28
ATOM     28  O   UNL     1       0.618   5.875  -0.155  1.00  0.00    -0.377 OA
BRANCH  28  29
ATOM     29  C   UNL     1       0.278   6.286   1.165  1.00  0.00     0.188 C 
BRANCH  29  30
ATOM     30  C   UNL     1       1.166   5.823   2.335  1.00  0.00     0.188 C 
BRANCH  30  31
ATOM     31  O   UNL     1       2.129   4.798   2.143  1.00  0.00    -0.376 OA
BRANCH  31  32
ATOM     32  C   UNL     1       1.769   3.610   1.455  1.00  0.00     0.202 C 
BRANCH  32  33
ATOM     33  C   UNL     1       0.791   2.646   2.122  1.00  0.00     0.261 C 
BRANCH  33  34
ATOM     34  O   UNL     1      -0.532   3.176   2.296  1.00  0.00    -0.460 OA
BRANCH  34  35
ATOM     35  C   UNL     1      -0.893   3.373   3.583  1.00  0.00     0.338 C 
ATOM     36  O   UNL     1      -0.179   3.295   4.577  1.00  0.00    -0.246 OA
BRANCH  35  37
ATOM     37  C   UNL     1      -2.304   3.770   3.656  1.00  0.00     0.060 A 
ATOM     38  C   UNL     1      -2.620   5.006   4.227  1.00  0.00     0.016 A 
ATOM     39  C   UNL     1      -3.314   2.884   3.267  1.00  0.00     0.016 A 
ATOM     40  C   UNL     1      -3.957   5.359   4.419  1.00  0.00     0.010 A 
ATOM     41  C   UNL     1      -4.654   3.242   3.457  1.00  0.00     0.010 A 
ATOM     42  C   UNL     1      -4.982   4.476   4.048  1.00  0.00    -0.014 A 
BRANCH  42  43
ATOM     43  C   UNL     1      -6.373   4.745   4.486  1.00  0.00     0.031 A 
ATOM     44  C   UNL     1      -6.810   4.140   5.788  1.00  0.00     0.074 A 
ATOM     45  C   UNL     1      -7.220   5.515   3.776  1.00  0.00     0.049 A 
ATOM     46  N   UNL     1      -7.969   4.205   6.384  1.00  0.00    -0.248 NA
ATOM     47  C   UNL     1      -5.798   3.354   6.514  1.00  0.00     0.031 C 
ATOM     48  C   UNL     1      -6.904   6.192   2.524  1.00  0.00     0.029 A 
ATOM     49  N   UNL     1      -8.531   5.853   4.008  1.00  0.00    -0.354 N 
ATOM     50  C   UNL     1      -7.825   3.477   7.557  1.00  0.00     0.074 A 
ATOM     51  C   UNL     1      -6.481   2.946   7.571  1.00  0.00     0.031 C 
ATOM     52  C   UNL     1      -7.988   6.856   2.088  1.00  0.00     0.029 A 
ATOM     53  C   UNL     1      -9.090   6.627   3.016  1.00  0.00     0.049 A 
ATOM     54  H   UNL     1      -9.025   5.568   4.811  1.00  0.00     0.167 HD
ATOM     55  C   UNL     1      -8.730   3.278   8.541  1.00  0.00     0.037 A 
ATOM     56  C   UNL     1     -10.351   7.081   2.867  1.00  0.00     0.037 A 
ATOM     57  C   UNL     1     -10.073   3.786   8.511  1.00  0.00     0.049 A 
ATOM     58  C   UNL     1     -11.370   6.768   3.934  1.00  0.00     0.074 A 
ATOM     59  C   UNL     1     -11.071   3.634   9.456  1.00  0.00     0.029 A 
ATOM     60  N   UNL     1     -10.613   4.534   7.474  1.00  0.00    -0.354 N 
ATOM     61  N   UNL     1     -11.212   6.101   5.054  1.00  0.00    -0.248 NA
ATOM     62  C   UNL     1     -12.735   7.270   3.723  1.00  0.00     0.031 C 
ATOM     63  C   UNL     1     -12.230   4.244   8.967  1.00  0.00     0.029 A 
ATOM     64  C   UNL     1     -11.938   4.827   7.744  1.00  0.00     0.049 A 
ATOM     65  H   UNL     1     -10.125   4.813   6.665  1.00  0.00     0.167 HD
ATOM     66  C   UNL     1     -12.446   6.135   5.695  1.00  0.00     0.074 A 
ATOM     67  C   UNL     1     -13.338   6.891   4.841  1.00  0.00     0.031 C 
ATOM     68  C   UNL     1     -12.808   5.594   6.886  1.00  0.00     0.037 A 
BRANCH  55  69
ATOM     69  C   UNL     1      -8.294   2.443   9.709  1.00  0.00     0.058 A 
ATOM     70  C   UNL     1      -7.366   2.920  10.649  1.00  0.00     0.135 A 
ATOM     71  C   UNL     1      -8.805   1.149   9.886  1.00  0.00     0.135 A 
ATOM     72  F   UNL     1      -6.824   4.140  10.507  1.00  0.00    -0.206 F 
ATOM     73  C   UNL     1      -6.940   2.130  11.711  1.00  0.00     0.059 A 
ATOM     74  C   UNL     1      -8.414   0.352  10.956  1.00  0.00     0.059 A 
ATOM     75  F   UNL     1      -9.683   0.642   9.006  1.00  0.00    -0.206 F 
ATOM     76  C   UNL     1      -7.470   0.846  11.855  1.00  0.00     0.060 A 
BRANCH  76  77
ATOM     77  S   UNL     1      -6.904  -0.168  13.236  1.00  0.00     0.124 S 
ATOM     78  O   UNL     1      -5.551  -0.511  12.809  1.00  0.00    -0.237 OA
ATOM     79  O   UNL     1      -6.998   0.758  14.360  1.00  0.00    -0.237 OA
ATOM     80  O   UNL     1      -7.855  -1.275  13.256  1.00  0.00    -0.744 OA
ENDBRANCH  76  77
ENDBRANCH  55  69
BRANCH  56  81
ATOM     81  C   UNL     1     -10.734   7.868   1.661  1.00  0.00     0.058 A 
ATOM     82  C   UNL     1     -11.076   9.226   1.754  1.00  0.00     0.135 A 
ATOM     83  C   UNL     1     -10.790   7.271   0.391  1.00  0.00     0.135 A 
ATOM     84  F   UNL     1     -11.054   9.841   2.946  1.00  0.00    -0.206 F 
ATOM     85  C   UNL     1     -11.482   9.956   0.641  1.00  0.00     0.059 A 
ATOM     86  C   UNL     1     -11.168   7.986  -0.742  1.00  0.00     0.059 A 
ATOM     87  F   UNL     1     -10.468   5.976   0.243  1.00  0.00    -0.206 F 
ATOM     88  C   UNL     1     -11.525   9.327  -0.605  1.00  0.00     0.060 A 
BRANCH  88  89
ATOM     89  S   UNL     1     -12.031  10.290  -2.047  1.00  0.00     0.124 S 
ATOM     90  O   UNL     1     -13.462  10.446  -1.809  1.00  0.00    -0.237 OA
ATOM     91  O   UNL     1     -11.226  11.499  -1.909  1.00  0.00    -0.237 OA
ATOM     92  O   UNL     1     -11.670   9.429  -3.170  1.00  0.00    -0.744 OA
ENDBRANCH  88  89
ENDBRANCH  56  81
BRANCH  68  93
ATOM     93  C   UNL     1     -14.214   5.833   7.364  1.00  0.00     0.058 A 
ATOM     94  C   UNL     1     -15.315   5.189   6.779  1.00  0.00     0.135 A 
ATOM     95  C   UNL     1     -14.451   6.664   8.471  1.00  0.00     0.135 A 
ATOM     96  F   UNL     1     -15.143   4.388   5.715  1.00  0.00    -0.206 F 
ATOM     97  C   UNL     1     -16.605   5.377   7.263  1.00  0.00     0.059 A 
ATOM     98  C   UNL     1     -15.729   6.842   8.991  1.00  0.00     0.059 A 
ATOM     99  F   UNL     1     -13.430   7.293   9.076  1.00  0.00    -0.206 F 
ATOM    100  C   UNL     1     -16.802   6.202   8.373  1.00  0.00     0.060 A 
BRANCH 100 101
ATOM    101  S   UNL     1     -18.476   6.400   9.019  1.00  0.00     0.124 S 
ATOM    102  O   UNL     1     -19.080   7.262   8.010  1.00  0.00    -0.237 OA
ATOM    103  O   UNL     1     -18.962   5.024   9.053  1.00  0.00    -0.237 OA
ATOM    104  O   UNL     1     -18.264   7.016  10.326  1.00  0.00    -0.744 OA
ENDBRANCH 100 101
ENDBRANCH  68  93
ENDBRANCH  42  43
ENDBRANCH  35  37
ENDBRANCH  34  35
ENDBRANCH  33  34
ENDBRANCH  32  33
ENDBRANCH  31  32
ENDBRANCH  30  31
ENDBRANCH  29  30
ENDBRANCH  28  29
ENDBRANCH   1  28
TORSDOF 28
