REMARK SMILES CCn1c(C(=O)OCCOCCOCCOCCOC(=O)c2ccc(-c3c4nc(c(-c5c(F)cc(S(=O)(=O)[O-])cc5F)c5ccc([nH]5)c(-c5c(F)cc(S(=O)(=O)[O-])cc5F)c5nc(c(-c6c(F)cc(S(=O)(=O)[O-])cc6F)c6ccc3[nH]6)C=C5)C=C4)cc2)c(C[NH2+]Cc2ccccc2Cl)c2ccc(C)cc21
REMARK SMILES IDX 12 1 11 2 10 3 9 4 8 5 7 6 5 7 6 8 4 9 3 10 105 11 88 12
REMARK SMILES IDX 99 13 104 14 100 15 102 16 101 17 103 18 2 19 1 20 89 21
REMARK SMILES IDX 90 22 91 25 92 26 93 27 97 28 94 29 96 30 98 31 95 32 13 33
REMARK SMILES IDX 14 34 15 35 16 36 17 37 18 38 19 39 20 40 21 41 22 42 23 43
REMARK SMILES IDX 87 44 24 45 86 46 25 47 26 48 27 49 80 50 28 51 85 52 79 53
REMARK SMILES IDX 81 54 29 55 84 56 78 57 77 58 30 60 64 61 43 62 63 63 44 64
REMARK SMILES IDX 47 65 62 66 82 67 45 68 46 69 61 71 83 72 48 73 31 74 32 75
REMARK SMILES IDX 41 76 33 77 34 78 40 79 42 80 35 81 36 82 37 83 38 84 39 85
REMARK SMILES IDX 65 86 66 87 75 88 67 89 68 90 74 91 76 92 69 93 70 94 71 95
REMARK SMILES IDX 72 96 73 97 49 98 50 99 59 100 51 101 52 102 58 103 60 104
REMARK SMILES IDX 53 105 54 106 55 107 56 108 57 109
REMARK H PARENT 90 23 90 24 81 59 47 70
REMARK Flexibility Score: inf
ROOT
ATOM      1  C   UNL     1       3.509   0.681  -1.375  1.00  0.00     0.188 C 
ENDROOT
BRANCH   1   2
ATOM      2  C   UNL     1       2.897  -0.676  -0.991  1.00  0.00     0.188 C 
BRANCH   2   3
ATOM      3  O   UNL     1       3.193  -1.745  -1.870  1.00  0.00    -0.376 OA
BRANCH   3   4
ATOM      4  C   UNL     1       2.297  -2.200  -2.867  1.00  0.00     0.202 C 
BRANCH   4   5
ATOM      5  C   UNL     1       1.677  -1.253  -3.904  1.00  0.00     0.261 C 
BRANCH   5   6
ATOM      6  O   UNL     1       1.479   0.091  -3.486  1.00  0.00    -0.459 OA
BRANCH   6   7
ATOM      7  C   UNL     1       0.415   0.375  -2.681  1.00  0.00     0.355 C 
ATOM      8  O   UNL     1      -0.393  -0.421  -2.292  1.00  0.00    -0.244 OA
BRANCH   7   9
ATOM      9  C   UNL     1       0.588   1.747  -2.194  1.00  0.00     0.137 A 
ATOM     10  N   UNL     1       0.227   2.193  -0.927  1.00  0.00    -0.335 N 
ATOM     11  C   UNL     1       0.352   3.580  -0.878  1.00  0.00     0.049 A 
ATOM     12  C   UNL     1       1.160   2.837  -2.875  1.00  0.00     0.047 A 
ATOM     13  C   UNL     1       0.946   3.997  -2.066  1.00  0.00     0.009 A 
ATOM     14  C   UNL     1      -0.066   4.507   0.095  1.00  0.00     0.030 A 
ATOM     15  C   UNL     1       1.137   5.380  -2.281  1.00  0.00     0.011 A 
ATOM     16  C   UNL     1       0.062   5.878  -0.164  1.00  0.00    -0.049 A 
ATOM     17  C   UNL     1       0.675   6.306  -1.339  1.00  0.00     0.004 A 
ATOM     18  C   UNL     1      -0.489   6.856   0.830  1.00  0.00     0.044 C 
BRANCH  10  19
ATOM     19  C   UNL     1      -0.418   1.459   0.160  1.00  0.00     0.119 C 
ATOM     20  C   UNL     1       0.127   0.137   0.681  1.00  0.00     0.027 C 
ENDBRANCH  10  19
BRANCH  12  21
ATOM     21  C   UNL     1       1.694   2.881  -4.292  1.00  0.00     0.300 C 
BRANCH  21  22
ATOM     22  N   UNL     1       3.132   2.600  -4.351  1.00  0.00    -0.339 N 
ATOM     23  H   UNL     1       3.306   1.692  -3.921  1.00  0.00     0.346 HD
ATOM     24  H   UNL     1       3.615   3.348  -3.854  1.00  0.00     0.346 HD
BRANCH  22  25
ATOM     25  C   UNL     1       3.645   2.575  -5.731  1.00  0.00     0.299 C 
BRANCH  25  26
ATOM     26  C   UNL     1       3.905   3.952  -6.313  1.00  0.00     0.025 A 
ATOM     27  C   UNL     1       5.196   4.507  -6.206  1.00  0.00     0.011 A 
ATOM     28  C   UNL     1       2.906   4.734  -6.920  1.00  0.00     0.049 A 
ATOM     29  C   UNL     1       5.454   5.821  -6.609  1.00  0.00     0.001 A 
ATOM     30  C   UNL     1       3.150   6.070  -7.252  1.00  0.00     0.021 A 
ATOM     31  Cl  UNL     1       1.356   4.104  -7.350  1.00  0.00    -0.084 Cl
ATOM     32  C   UNL     1       4.420   6.618  -7.089  1.00  0.00     0.002 A 
ENDBRANCH  25  26
ENDBRANCH  22  25
ENDBRANCH  21  22
ENDBRANCH  12  21
ENDBRANCH   7   9
ENDBRANCH   6   7
ENDBRANCH   5   6
ENDBRANCH   4   5
ENDBRANCH   3   4
ENDBRANCH   2   3
ENDBRANCH   1   2
BRANCH   1  33
ATOM     33  O   UNL     1       4.900   0.703  -1.611  1.00  0.00    -0.377 OA
BRANCH  33  34
ATOM     34  C   UNL     1       5.327  -0.354  -2.450  1.00  0.00     0.188 C 
BRANCH  34  35
ATOM     35  C   UNL     1       5.904  -1.526  -1.622  1.00  0.00     0.188 C 
BRANCH  35  36
ATOM     36  O   UNL     1       6.325  -1.307  -0.278  1.00  0.00    -0.376 OA
BRANCH  36  37
ATOM     37  C   UNL     1       6.907  -0.057   0.051  1.00  0.00     0.202 C 
BRANCH  37  38
ATOM     38  C   UNL     1       8.048   0.534  -0.816  1.00  0.00     0.261 C 
BRANCH  38  39
ATOM     39  O   UNL     1       8.032   0.199  -2.218  1.00  0.00    -0.460 OA
BRANCH  39  40
ATOM     40  C   UNL     1       8.960  -0.665  -2.708  1.00  0.00     0.338 C 
ATOM     41  O   UNL     1      10.015  -0.964  -2.176  1.00  0.00    -0.246 OA
BRANCH  40  42
ATOM     42  C   UNL     1       8.334  -1.435  -3.835  1.00  0.00     0.060 A 
ATOM     43  C   UNL     1       7.548  -0.823  -4.815  1.00  0.00     0.016 A 
ATOM     44  C   UNL     1       8.288  -2.835  -3.692  1.00  0.00     0.016 A 
ATOM     45  C   UNL     1       6.636  -1.598  -5.545  1.00  0.00     0.010 A 
ATOM     46  C   UNL     1       7.369  -3.606  -4.423  1.00  0.00     0.010 A 
ATOM     47  C   UNL     1       6.514  -2.993  -5.337  1.00  0.00    -0.014 A 
BRANCH  47  48
ATOM     48  C   UNL     1       5.717  -3.769  -6.319  1.00  0.00     0.031 A 
ATOM     49  C   UNL     1       6.199  -3.510  -7.707  1.00  0.00     0.074 A 
ATOM     50  C   UNL     1       4.791  -4.746  -6.154  1.00  0.00     0.049 A 
ATOM     51  N   UNL     1       5.590  -2.885  -8.660  1.00  0.00    -0.248 NA
ATOM     52  C   UNL     1       7.607  -3.827  -7.995  1.00  0.00     0.031 C 
ATOM     53  C   UNL     1       4.365  -5.411  -4.921  1.00  0.00     0.029 A 
ATOM     54  N   UNL     1       4.072  -5.421  -7.117  1.00  0.00    -0.354 N 
ATOM     55  C   UNL     1       6.468  -2.902  -9.741  1.00  0.00     0.074 A 
ATOM     56  C   UNL     1       7.741  -3.328  -9.223  1.00  0.00     0.031 C 
ATOM     57  C   UNL     1       3.637  -6.515  -5.228  1.00  0.00     0.029 A 
ATOM     58  C   UNL     1       3.419  -6.570  -6.667  1.00  0.00     0.049 A 
ATOM     59  H   UNL     1       4.021  -5.115  -8.051  1.00  0.00     0.167 HD
ATOM     60  C   UNL     1       6.028  -2.776 -11.021  1.00  0.00     0.037 A 
ATOM     61  C   UNL     1       2.773  -7.505  -7.420  1.00  0.00     0.037 A 
ATOM     62  C   UNL     1       4.688  -2.251 -11.065  1.00  0.00     0.049 A 
ATOM     63  C   UNL     1       2.388  -6.856  -8.695  1.00  0.00     0.074 A 
ATOM     64  C   UNL     1       4.070  -1.071 -10.705  1.00  0.00     0.029 A 
ATOM     65  N   UNL     1       3.687  -3.167 -11.260  1.00  0.00    -0.354 N 
ATOM     66  N   UNL     1       1.508  -5.901  -8.800  1.00  0.00    -0.248 NA
ATOM     67  C   UNL     1       3.224  -7.070  -9.866  1.00  0.00     0.031 C 
ATOM     68  C   UNL     1       2.750  -1.439 -10.310  1.00  0.00     0.029 A 
ATOM     69  C   UNL     1       2.617  -2.818 -10.481  1.00  0.00     0.049 A 
ATOM     70  H   UNL     1       3.731  -3.946 -11.860  1.00  0.00     0.167 HD
ATOM     71  C   UNL     1       1.961  -5.128  -9.853  1.00  0.00     0.074 A 
ATOM     72  C   UNL     1       2.924  -5.968 -10.555  1.00  0.00     0.031 C 
ATOM     73  C   UNL     1       1.723  -3.786  -9.883  1.00  0.00     0.037 A 
BRANCH  60  74
ATOM     74  C   UNL     1       6.632  -3.514 -12.200  1.00  0.00     0.058 A 
ATOM     75  C   UNL     1       6.141  -3.250 -13.498  1.00  0.00     0.135 A 
ATOM     76  C   UNL     1       7.435  -4.671 -12.082  1.00  0.00     0.135 A 
ATOM     77  F   UNL     1       5.366  -2.178 -13.731  1.00  0.00    -0.206 F 
ATOM     78  C   UNL     1       6.354  -4.117 -14.570  1.00  0.00     0.059 A 
ATOM     79  C   UNL     1       7.705  -5.519 -13.150  1.00  0.00     0.059 A 
ATOM     80  F   UNL     1       7.917  -5.097 -10.910  1.00  0.00    -0.206 F 
ATOM     81  C   UNL     1       7.123  -5.260 -14.379  1.00  0.00     0.060 A 
BRANCH  81  82
ATOM     82  S   UNL     1       7.299  -6.443 -15.725  1.00  0.00     0.124 S 
ATOM     83  O   UNL     1       5.938  -6.951 -15.843  1.00  0.00    -0.237 OA
ATOM     84  O   UNL     1       7.764  -5.591 -16.814  1.00  0.00    -0.237 OA
ATOM     85  O   UNL     1       8.286  -7.389 -15.212  1.00  0.00    -0.744 OA
ENDBRANCH  81  82
ENDBRANCH  60  74
BRANCH  61  86
ATOM     86  C   UNL     1       2.683  -8.992  -7.275  1.00  0.00     0.058 A 
ATOM     87  C   UNL     1       1.796  -9.759  -8.065  1.00  0.00     0.135 A 
ATOM     88  C   UNL     1       3.692  -9.716  -6.615  1.00  0.00     0.135 A 
ATOM     89  F   UNL     1       0.804  -9.161  -8.743  1.00  0.00    -0.206 F 
ATOM     90  C   UNL     1       1.950 -11.141  -8.250  1.00  0.00     0.059 A 
ATOM     91  C   UNL     1       3.861 -11.095  -6.779  1.00  0.00     0.059 A 
ATOM     92  F   UNL     1       4.608  -9.085  -5.867  1.00  0.00    -0.206 F 
ATOM     93  C   UNL     1       3.006 -11.797  -7.623  1.00  0.00     0.060 A 
BRANCH  93  94
ATOM     94  S   UNL     1       3.329 -13.539  -8.007  1.00  0.00     0.124 S 
ATOM     95  O   UNL     1       2.172 -14.201  -7.414  1.00  0.00    -0.237 OA
ATOM     96  O   UNL     1       3.378 -13.530  -9.465  1.00  0.00    -0.237 OA
ATOM     97  O   UNL     1       4.604 -13.801  -7.345  1.00  0.00    -0.744 OA
ENDBRANCH  93  94
ENDBRANCH  61  86
BRANCH  73  98
ATOM     98  C   UNL     1       0.577  -3.250  -9.070  1.00  0.00     0.058 A 
ATOM     99  C   UNL     1       0.491  -3.277  -7.668  1.00  0.00     0.135 A 
ATOM    100  C   UNL     1      -0.430  -2.560  -9.765  1.00  0.00     0.135 A 
ATOM    101  F   UNL     1       1.455  -3.834  -6.921  1.00  0.00    -0.206 F 
ATOM    102  C   UNL     1      -0.568  -2.665  -6.994  1.00  0.00     0.059 A 
ATOM    103  C   UNL     1      -1.469  -1.909  -9.111  1.00  0.00     0.059 A 
ATOM    104  F   UNL     1      -0.380  -2.467 -11.105  1.00  0.00    -0.206 F 
ATOM    105  C   UNL     1      -1.533  -1.969  -7.723  1.00  0.00     0.060 A 
BRANCH 105 106
ATOM    106  S   UNL     1      -2.822  -1.071  -6.834  1.00  0.00     0.124 S 
ATOM    107  O   UNL     1      -3.599  -2.155  -6.242  1.00  0.00    -0.237 OA
ATOM    108  O   UNL     1      -2.043  -0.260  -5.904  1.00  0.00    -0.237 OA
ATOM    109  O   UNL     1      -3.503  -0.319  -7.886  1.00  0.00    -0.744 OA
ENDBRANCH 105 106
ENDBRANCH  73  98
ENDBRANCH  47  48
ENDBRANCH  40  42
ENDBRANCH  39  40
ENDBRANCH  38  39
ENDBRANCH  37  38
ENDBRANCH  36  37
ENDBRANCH  35  36
ENDBRANCH  34  35
ENDBRANCH  33  34
ENDBRANCH   1  33
TORSDOF 28
