REMARK SMILES CCc1ccc(S(=O)(=O)N[C@H](C(=O)OCCOCCOCCOCCOC(=O)c2ccc(-c3c4nc(c(-c5c(F)cc(S(=O)(=O)[O-])cc5F)c5ccc([nH]5)c(-c5c(F)cc(S(=O)(=O)[O-])cc5F)c5nc(c(-c6c(F)cc(S(=O)(=O)[O-])cc6F)c6ccc3[nH]6)C=C5)C=C4)cc2)C(C)C)cc1
REMARK SMILES IDX 19 1 18 2 17 3 16 4 15 5 14 6 12 7 13 8 11 9 10 10 7 12 8 13
REMARK SMILES IDX 9 14 6 15 3 16 4 17 99 18 5 19 98 20 2 21 1 22 95 23 96 24
REMARK SMILES IDX 97 25 20 26 21 27 22 28 23 29 24 30 25 31 26 32 27 33 28 34
REMARK SMILES IDX 29 35 30 36 94 37 31 38 93 39 32 40 33 41 34 42 87 43 35 44
REMARK SMILES IDX 92 45 86 46 88 47 36 48 91 49 85 50 84 51 37 53 71 54 50 55
REMARK SMILES IDX 70 56 51 57 54 58 69 59 89 60 52 61 53 62 68 64 90 65 55 66
REMARK SMILES IDX 38 67 39 68 48 69 40 70 41 71 47 72 49 73 42 74 43 75 44 76
REMARK SMILES IDX 45 77 46 78 72 79 73 80 82 81 74 82 75 83 81 84 83 85 76 86
REMARK SMILES IDX 77 87 78 88 79 89 80 90 56 91 57 92 66 93 58 94 59 95 65 96
REMARK SMILES IDX 67 97 60 98 61 99 62 100 63 101 64 102
REMARK H PARENT 10 11 88 52 54 63
REMARK Flexibility Score: inf
ROOT
ATOM      1  C   UNL     1       1.851   4.450   7.716  1.00  0.00     0.188 C 
ENDROOT
BRANCH   1   2
ATOM      2  C   UNL     1       2.132   3.015   7.233  1.00  0.00     0.188 C 
BRANCH   2   3
ATOM      3  O   UNL     1       3.237   2.690   6.388  1.00  0.00    -0.376 OA
BRANCH   3   4
ATOM      4  C   UNL     1       4.258   3.646   6.164  1.00  0.00     0.202 C 
BRANCH   4   5
ATOM      5  C   UNL     1       3.977   4.552   4.966  1.00  0.00     0.261 C 
BRANCH   5   6
ATOM      6  O   UNL     1       2.690   5.193   4.969  1.00  0.00    -0.462 OA
BRANCH   6   7
ATOM      7  C   UNL     1       1.712   4.592   4.247  1.00  0.00     0.324 C 
ATOM      8  O   UNL     1       1.780   3.461   3.773  1.00  0.00    -0.250 OA
BRANCH   7   9
ATOM      9  C   UNL     1       0.448   5.453   4.087  1.00  0.00     0.182 C 
BRANCH   9  10
ATOM     10  N   UNL     1      -0.563   5.042   5.104  1.00  0.00    -0.197 NA
ATOM     11  H   UNL     1      -1.362   4.729   4.552  1.00  0.00     0.142 HD
BRANCH  10  12
ATOM     12  S   UNL     1      -1.244   5.927   6.345  1.00  0.00     0.241 S 
ATOM     13  O   UNL     1      -0.252   6.817   6.894  1.00  0.00    -0.207 OA
ATOM     14  O   UNL     1      -1.930   4.960   7.178  1.00  0.00    -0.207 OA
BRANCH  12  15
ATOM     15  C   UNL     1      -2.498   6.889   5.551  1.00  0.00     0.082 A 
ATOM     16  C   UNL     1      -4.035   8.455   3.829  1.00  0.00    -0.048 A 
ATOM     17  C   UNL     1      -3.282   9.051   4.856  1.00  0.00     0.005 A 
ATOM     18  C   UNL     1      -4.125   7.055   3.781  1.00  0.00     0.005 A 
ATOM     19  C   UNL     1      -2.508   8.274   5.715  1.00  0.00     0.022 A 
ATOM     20  C   UNL     1      -3.360   6.268   4.645  1.00  0.00     0.022 A 
BRANCH  16  21
ATOM     21  C   UNL     1      -4.633   9.364   2.779  1.00  0.00     0.032 C 
ATOM     22  C   UNL     1      -5.203   8.688   1.538  1.00  0.00     0.009 C 
ENDBRANCH  16  21
ENDBRANCH  12  15
ENDBRANCH  10  12
ENDBRANCH   9  10
BRANCH   9  23
ATOM     23  C   UNL     1       0.659   6.962   3.825  1.00  0.00     0.012 C 
ATOM     24  C   UNL     1       1.987   7.298   3.123  1.00  0.00     0.009 C 
ATOM     25  C   UNL     1      -0.441   7.499   2.896  1.00  0.00     0.009 C 
ENDBRANCH   9  23
ENDBRANCH   7   9
ENDBRANCH   6   7
ENDBRANCH   5   6
ENDBRANCH   4   5
ENDBRANCH   3   4
ENDBRANCH   2   3
ENDBRANCH   1   2
BRANCH   1  26
ATOM     26  O   UNL     1       2.998   5.187   8.110  1.00  0.00    -0.377 OA
BRANCH  26  27
ATOM     27  C   UNL     1       3.172   5.330   9.511  1.00  0.00     0.188 C 
BRANCH  27  28
ATOM     28  C   UNL     1       3.425   4.000  10.225  1.00  0.00     0.188 C 
BRANCH  28  29
ATOM     29  O   UNL     1       2.247   3.191  10.277  1.00  0.00    -0.376 OA
BRANCH  29  30
ATOM     30  C   UNL     1       1.591   3.129  11.540  1.00  0.00     0.202 C 
BRANCH  30  31
ATOM     31  C   UNL     1       0.641   4.307  11.801  1.00  0.00     0.261 C 
BRANCH  31  32
ATOM     32  O   UNL     1       1.276   5.590  11.925  1.00  0.00    -0.460 OA
BRANCH  32  33
ATOM     33  C   UNL     1       2.229   5.726  12.872  1.00  0.00     0.338 C 
ATOM     34  O   UNL     1       2.558   4.901  13.704  1.00  0.00    -0.246 OA
BRANCH  33  35
ATOM     35  C   UNL     1       2.962   6.980  12.606  1.00  0.00     0.060 A 
ATOM     36  C   UNL     1       4.359   6.930  12.532  1.00  0.00     0.016 A 
ATOM     37  C   UNL     1       2.285   8.192  12.437  1.00  0.00     0.016 A 
ATOM     38  C   UNL     1       5.088   8.102  12.337  1.00  0.00     0.010 A 
ATOM     39  C   UNL     1       3.017   9.370  12.263  1.00  0.00     0.010 A 
ATOM     40  C   UNL     1       4.421   9.333  12.252  1.00  0.00    -0.014 A 
BRANCH  40  41
ATOM     41  C   UNL     1       5.200  10.586  12.384  1.00  0.00     0.031 A 
ATOM     42  C   UNL     1       5.403  11.147  13.766  1.00  0.00     0.074 A 
ATOM     43  C   UNL     1       5.735  11.199  11.315  1.00  0.00     0.049 A 
ATOM     44  N   UNL     1       6.074  12.203  14.143  1.00  0.00    -0.248 NA
ATOM     45  C   UNL     1       4.760  10.415  14.870  1.00  0.00     0.031 C 
ATOM     46  C   UNL     1       5.618  10.745   9.931  1.00  0.00     0.029 A 
ATOM     47  N   UNL     1       6.485  12.345  11.233  1.00  0.00    -0.354 N 
ATOM     48  C   UNL     1       5.945  12.256  15.525  1.00  0.00     0.074 A 
ATOM     49  C   UNL     1       5.102  11.148  15.918  1.00  0.00     0.031 C 
ATOM     50  C   UNL     1       6.266  11.613   9.133  1.00  0.00     0.029 A 
ATOM     51  C   UNL     1       6.833  12.687   9.948  1.00  0.00     0.049 A 
ATOM     52  H   UNL     1       6.750  12.873  12.021  1.00  0.00     0.167 HD
ATOM     53  C   UNL     1       6.487  13.141  16.393  1.00  0.00     0.037 A 
ATOM     54  C   UNL     1       7.523  13.750   9.489  1.00  0.00     0.037 A 
ATOM     55  C   UNL     1       7.308  14.254  16.001  1.00  0.00     0.049 A 
ATOM     56  C   UNL     1       8.075  14.754  10.467  1.00  0.00     0.074 A 
ATOM     57  C   UNL     1       7.918  15.201  16.804  1.00  0.00     0.029 A 
ATOM     58  N   UNL     1       7.622  14.577  14.689  1.00  0.00    -0.354 N 
ATOM     59  N   UNL     1       7.989  14.765  11.777  1.00  0.00    -0.248 NA
ATOM     60  C   UNL     1       8.827  15.887   9.908  1.00  0.00     0.031 C 
ATOM     61  C   UNL     1       8.568  16.121  15.974  1.00  0.00     0.029 A 
ATOM     62  C   UNL     1       8.399  15.722  14.657  1.00  0.00     0.049 A 
ATOM     63  H   UNL     1       7.335  14.067  13.897  1.00  0.00     0.167 HD
ATOM     64  C   UNL     1       8.695  15.887  12.198  1.00  0.00     0.074 A 
ATOM     65  C   UNL     1       9.207  16.529  11.005  1.00  0.00     0.031 C 
ATOM     66  C   UNL     1       8.904  16.343  13.458  1.00  0.00     0.037 A 
BRANCH  53  67
ATOM     67  C   UNL     1       6.183  12.944  17.850  1.00  0.00     0.058 A 
ATOM     68  C   UNL     1       6.767  11.902  18.587  1.00  0.00     0.135 A 
ATOM     69  C   UNL     1       5.292  13.801  18.515  1.00  0.00     0.135 A 
ATOM     70  F   UNL     1       7.607  11.041  17.992  1.00  0.00    -0.206 F 
ATOM     71  C   UNL     1       6.455  11.697  19.927  1.00  0.00     0.059 A 
ATOM     72  C   UNL     1       4.983  13.629  19.860  1.00  0.00     0.059 A 
ATOM     73  F   UNL     1       4.702  14.809  17.852  1.00  0.00    -0.206 F 
ATOM     74  C   UNL     1       5.556  12.563  20.553  1.00  0.00     0.060 A 
BRANCH  74  75
ATOM     75  S   UNL     1       5.144  12.277  22.287  1.00  0.00     0.124 S 
ATOM     76  O   UNL     1       4.238  11.137  22.186  1.00  0.00    -0.237 OA
ATOM     77  O   UNL     1       6.449  11.998  22.878  1.00  0.00    -0.237 OA
ATOM     78  O   UNL     1       4.529  13.534  22.701  1.00  0.00    -0.744 OA
ENDBRANCH  74  75
ENDBRANCH  53  67
BRANCH  54  79
ATOM     79  C   UNL     1       7.738  13.916   8.027  1.00  0.00     0.058 A 
ATOM     80  C   UNL     1       9.000  13.714   7.451  1.00  0.00     0.135 A 
ATOM     81  C   UNL     1       6.679  14.270   7.176  1.00  0.00     0.135 A 
ATOM     82  F   UNL     1      10.046  13.386   8.225  1.00  0.00    -0.206 F 
ATOM     83  C   UNL     1       9.208  13.862   6.083  1.00  0.00     0.059 A 
ATOM     84  C   UNL     1       6.858  14.405   5.803  1.00  0.00     0.059 A 
ATOM     85  F   UNL     1       5.450  14.469   7.679  1.00  0.00    -0.206 F 
ATOM     86  C   UNL     1       8.129  14.205   5.266  1.00  0.00     0.060 A 
BRANCH  86  87
ATOM     87  S   UNL     1       8.393  14.333   3.484  1.00  0.00     0.124 S 
ATOM     88  O   UNL     1       9.087  15.611   3.380  1.00  0.00    -0.237 OA
ATOM     89  O   UNL     1       9.196  13.146   3.205  1.00  0.00    -0.237 OA
ATOM     90  O   UNL     1       7.038  14.304   2.942  1.00  0.00    -0.744 OA
ENDBRANCH  86  87
ENDBRANCH  54  79
BRANCH  66  91
ATOM     91  C   UNL     1       9.745  17.578  13.621  1.00  0.00     0.058 A 
ATOM     92  C   UNL     1       9.244  18.855  13.325  1.00  0.00     0.135 A 
ATOM     93  C   UNL     1      11.046  17.488  14.144  1.00  0.00     0.135 A 
ATOM     94  F   UNL     1       8.008  18.995  12.820  1.00  0.00    -0.206 F 
ATOM     95  C   UNL     1      10.009  19.999  13.527  1.00  0.00     0.059 A 
ATOM     96  C   UNL     1      11.820  18.620  14.374  1.00  0.00     0.059 A 
ATOM     97  F   UNL     1      11.567  16.291  14.454  1.00  0.00    -0.206 F 
ATOM     98  C   UNL     1      11.296  19.872  14.053  1.00  0.00     0.060 A 
BRANCH  98  99
ATOM     99  S   UNL     1      12.266  21.366  14.349  1.00  0.00     0.124 S 
ATOM    100  O   UNL     1      12.703  21.704  12.999  1.00  0.00    -0.237 OA
ATOM    101  O   UNL     1      11.283  22.268  14.941  1.00  0.00    -0.237 OA
ATOM    102  O   UNL     1      13.317  20.913  15.256  1.00  0.00    -0.744 OA
ENDBRANCH  98  99
ENDBRANCH  66  91
ENDBRANCH  40  41
ENDBRANCH  33  35
ENDBRANCH  32  33
ENDBRANCH  31  32
ENDBRANCH  30  31
ENDBRANCH  29  30
ENDBRANCH  28  29
ENDBRANCH  27  28
ENDBRANCH  26  27
ENDBRANCH   1  26
TORSDOF 28
