REMARK SMILES Cc1ccc(S(=O)(=O)n2cc(C(=O)C(=O)N[C@@H](Cc3cnc[nH]3)C(=O)OCCOCCOCCOCCOC(=O)c3ccc(-c4c5nc(c(-c6c(F)cc(S(=O)(=O)[O-])cc6F)c6ccc([nH]6)c(-c6c(F)cc(S(=O)(=O)[O-])cc6F)c6nc(c(-c7c(F)cc(S(=O)(=O)[O-])cc7F)c7ccc4[nH]7)C=C6)C=C5)cc3)c3ccccc32)cc1
REMARK SMILES IDX 31 1 30 2 29 3 28 4 27 5 26 6 24 7 25 8 17 9 16 10 14 11
REMARK SMILES IDX 15 12 12 14 13 15 11 16 9 17 10 18 112 19 107 20 111 21
REMARK SMILES IDX 108 22 110 23 109 24 6 25 7 26 8 27 5 28 1 29 2 30 3 31
REMARK SMILES IDX 114 32 4 33 113 34 18 35 19 36 20 37 23 38 21 39 22 40 32 42
REMARK SMILES IDX 33 43 34 44 35 45 36 46 37 47 38 48 39 49 40 50 41 51 42 52
REMARK SMILES IDX 106 53 43 54 105 55 44 56 45 57 46 58 99 59 47 60 104 61
REMARK SMILES IDX 98 62 100 63 48 64 103 65 97 66 96 67 49 69 83 70 62 71
REMARK SMILES IDX 82 72 63 73 66 74 81 75 101 76 64 77 65 78 80 80 102 81
REMARK SMILES IDX 67 82 50 83 51 84 60 85 52 86 53 87 59 88 61 89 54 90 55 91
REMARK SMILES IDX 56 92 57 93 58 94 84 95 85 96 94 97 86 98 87 99 93 100
REMARK SMILES IDX 95 101 88 102 89 103 90 104 91 105 92 106 68 107 69 108
REMARK SMILES IDX 78 109 70 110 71 111 77 112 79 113 72 114 73 115 74 116
REMARK SMILES IDX 75 117 76 118
REMARK H PARENT 16 13 23 41 100 68 66 79
REMARK Flexibility Score: inf
ROOT
ATOM      1  C   UNL     1      -5.138   5.800   3.406  1.00  0.00     0.188 C 
ENDROOT
BRANCH   1   2
ATOM      2  C   UNL     1      -4.514   6.707   2.339  1.00  0.00     0.188 C 
BRANCH   2   3
ATOM      3  O   UNL     1      -4.344   8.085   2.668  1.00  0.00    -0.376 OA
BRANCH   3   4
ATOM      4  C   UNL     1      -5.464   8.718   3.285  1.00  0.00     0.202 C 
BRANCH   4   5
ATOM      5  C   UNL     1      -6.730   8.798   2.436  1.00  0.00     0.261 C 
BRANCH   5   6
ATOM      6  O   UNL     1      -7.371   7.511   2.318  1.00  0.00    -0.462 OA
BRANCH   6   7
ATOM      7  C   UNL     1      -8.251   7.420   1.290  1.00  0.00     0.329 C 
ATOM      8  O   UNL     1      -8.500   8.336   0.510  1.00  0.00    -0.250 OA
BRANCH   7   9
ATOM      9  C   UNL     1      -8.986   6.068   1.228  1.00  0.00     0.198 C 
BRANCH   9  10
ATOM     10  N   UNL     1      -8.503   4.950   2.065  1.00  0.00    -0.335 N 
ATOM     11  C   UNL     1      -7.512   4.027   1.772  1.00  0.00     0.293 C 
ATOM     12  O   UNL     1      -7.354   3.043   2.483  1.00  0.00    -0.265 OA
ATOM     13  H   UNL     1      -8.941   4.849   2.941  1.00  0.00     0.164 HD
BRANCH  11  14
ATOM     14  C   UNL     1      -6.566   4.281   0.575  1.00  0.00     0.252 C 
ATOM     15  O   UNL     1      -6.685   5.360  -0.002  1.00  0.00    -0.283 OA
BRANCH  14  16
ATOM     16  C   UNL     1      -5.531   3.341   0.117  1.00  0.00     0.054 A 
ATOM     17  N   UNL     1      -4.226   1.558  -0.222  1.00  0.00    -0.240 N 
ATOM     18  C   UNL     1      -5.214   2.076   0.586  1.00  0.00     0.117 A 
ATOM     19  C   UNL     1      -3.903   2.431  -1.239  1.00  0.00     0.065 A 
ATOM     20  C   UNL     1      -4.630   3.597  -0.981  1.00  0.00     0.012 A 
ATOM     21  C   UNL     1      -3.037   2.331  -2.345  1.00  0.00     0.028 A 
ATOM     22  C   UNL     1      -4.408   4.723  -1.807  1.00  0.00     0.011 A 
ATOM     23  C   UNL     1      -2.856   3.458  -3.152  1.00  0.00     0.002 A 
ATOM     24  C   UNL     1      -3.517   4.647  -2.876  1.00  0.00     0.001 A 
BRANCH  17  25
ATOM     25  S   UNL     1      -3.610  -0.024  -0.068  1.00  0.00     0.268 S 
ATOM     26  O   UNL     1      -3.916  -0.655  -1.356  1.00  0.00    -0.201 OA
ATOM     27  O   UNL     1      -4.112  -0.548   1.167  1.00  0.00    -0.201 OA
BRANCH  25  28
ATOM     28  C   UNL     1      -1.838   0.050   0.057  1.00  0.00     0.088 A 
ATOM     29  C   UNL     1       2.468  -0.013   0.059  1.00  0.00     0.044 C 
ATOM     30  C   UNL     1       0.968   0.014   0.071  1.00  0.00    -0.051 A 
ATOM     31  C   UNL     1       0.248  -1.179  -0.062  1.00  0.00     0.005 A 
ATOM     32  C   UNL     1       0.268   1.217   0.235  1.00  0.00     0.005 A 
ATOM     33  C   UNL     1      -1.147  -1.162  -0.076  1.00  0.00     0.022 A 
ATOM     34  C   UNL     1      -1.132   1.239   0.242  1.00  0.00     0.022 A 
ENDBRANCH  25  28
ENDBRANCH  17  25
ENDBRANCH  14  16
ENDBRANCH  11  14
ENDBRANCH   9  10
BRANCH   9  35
ATOM     35  C   UNL     1     -10.499   6.341   1.364  1.00  0.00     0.092 C 
BRANCH  35  36
ATOM     36  C   UNL     1     -11.105   6.133   2.708  1.00  0.00     0.037 A 
ATOM     37  C   UNL     1     -11.715   5.030   3.268  1.00  0.00     0.134 A 
ATOM     38  N   UNL     1     -11.250   7.120   3.650  1.00  0.00    -0.348 N 
ATOM     39  N   UNL     1     -12.272   5.337   4.478  1.00  0.00    -0.245 NA
ATOM     40  C   UNL     1     -11.994   6.605   4.674  1.00  0.00     0.196 A 
ATOM     41  H   UNL     1     -10.885   8.033   3.598  1.00  0.00     0.167 HD
ENDBRANCH  35  36
ENDBRANCH   9  35
ENDBRANCH   7   9
ENDBRANCH   6   7
ENDBRANCH   5   6
ENDBRANCH   4   5
ENDBRANCH   3   4
ENDBRANCH   2   3
ENDBRANCH   1   2
BRANCH   1  42
ATOM     42  O   UNL     1      -4.325   5.431   4.488  1.00  0.00    -0.377 OA
BRANCH  42  43
ATOM     43  C   UNL     1      -3.566   6.401   5.166  1.00  0.00     0.188 C 
BRANCH  43  44
ATOM     44  C   UNL     1      -2.070   6.107   5.011  1.00  0.00     0.188 C 
BRANCH  44  45
ATOM     45  O   UNL     1      -1.629   4.759   4.845  1.00  0.00    -0.376 OA
BRANCH  45  46
ATOM     46  C   UNL     1      -2.338   3.712   5.510  1.00  0.00     0.202 C 
BRANCH  46  47
ATOM     47  C   UNL     1      -2.293   3.678   7.045  1.00  0.00     0.261 C 
BRANCH  47  48
ATOM     48  O   UNL     1      -2.766   4.885   7.657  1.00  0.00    -0.460 OA
BRANCH  48  49
ATOM     49  C   UNL     1      -2.045   5.413   8.682  1.00  0.00     0.338 C 
ATOM     50  O   UNL     1      -0.974   5.049   9.136  1.00  0.00    -0.246 OA
BRANCH  49  51
ATOM     51  C   UNL     1      -2.675   6.724   8.946  1.00  0.00     0.060 A 
ATOM     52  C   UNL     1      -3.881   6.798   9.639  1.00  0.00     0.016 A 
ATOM     53  C   UNL     1      -2.258   7.777   8.132  1.00  0.00     0.016 A 
ATOM     54  C   UNL     1      -4.776   7.822   9.325  1.00  0.00     0.010 A 
ATOM     55  C   UNL     1      -3.199   8.716   7.727  1.00  0.00     0.010 A 
ATOM     56  C   UNL     1      -4.508   8.654   8.223  1.00  0.00    -0.014 A 
BRANCH  56  57
ATOM     57  C   UNL     1      -5.609   9.088   7.326  1.00  0.00     0.031 A 
ATOM     58  C   UNL     1      -5.678  10.428   6.667  1.00  0.00     0.074 A 
ATOM     59  C   UNL     1      -6.485   8.130   6.905  1.00  0.00     0.049 A 
ATOM     60  N   UNL     1      -6.718  10.822   6.008  1.00  0.00    -0.248 NA
ATOM     61  C   UNL     1      -4.635  11.451   6.671  1.00  0.00     0.031 C 
ATOM     62  C   UNL     1      -7.442   8.201   5.802  1.00  0.00     0.029 A 
ATOM     63  N   UNL     1      -6.710   6.846   7.414  1.00  0.00    -0.354 N 
ATOM     64  C   UNL     1      -6.404  11.937   5.274  1.00  0.00     0.074 A 
ATOM     65  C   UNL     1      -5.125  12.348   5.799  1.00  0.00     0.031 C 
ATOM     66  C   UNL     1      -8.174   7.085   5.747  1.00  0.00     0.029 A 
ATOM     67  C   UNL     1      -7.955   6.372   6.975  1.00  0.00     0.049 A 
ATOM     68  H   UNL     1      -6.087   6.350   7.993  1.00  0.00     0.167 HD
ATOM     69  C   UNL     1      -7.229  12.307   4.247  1.00  0.00     0.037 A 
ATOM     70  C   UNL     1      -8.967   6.236   7.881  1.00  0.00     0.037 A 
ATOM     71  C   UNL     1      -8.553  11.635   4.310  1.00  0.00     0.049 A 
ATOM     72  C   UNL     1     -10.028   7.341   7.846  1.00  0.00     0.074 A 
ATOM     73  C   UNL     1      -9.465  11.116   3.403  1.00  0.00     0.029 A 
ATOM     74  N   UNL     1      -9.126  11.382   5.568  1.00  0.00    -0.354 N 
ATOM     75  N   UNL     1     -10.013   8.369   7.021  1.00  0.00    -0.248 NA
ATOM     76  C   UNL     1     -11.193   7.397   8.720  1.00  0.00     0.031 C 
ATOM     77  C   UNL     1     -10.550  10.534   4.129  1.00  0.00     0.029 A 
ATOM     78  C   UNL     1     -10.306  10.675   5.486  1.00  0.00     0.049 A 
ATOM     79  H   UNL     1      -8.726  11.678   6.417  1.00  0.00     0.167 HD
ATOM     80  C   UNL     1     -11.023   9.258   7.309  1.00  0.00     0.074 A 
ATOM     81  C   UNL     1     -11.770   8.556   8.341  1.00  0.00     0.031 C 
ATOM     82  C   UNL     1     -11.129  10.487   6.692  1.00  0.00     0.037 A 
BRANCH  69  83
ATOM     83  C   UNL     1      -6.790  13.239   3.106  1.00  0.00     0.058 A 
ATOM     84  C   UNL     1      -7.719  13.831   2.219  1.00  0.00     0.135 A 
ATOM     85  C   UNL     1      -5.438  13.502   2.772  1.00  0.00     0.135 A 
ATOM     86  F   UNL     1      -9.038  13.653   2.380  1.00  0.00    -0.206 F 
ATOM     87  C   UNL     1      -7.343  14.620   1.116  1.00  0.00     0.059 A 
ATOM     88  C   UNL     1      -5.041  14.337   1.718  1.00  0.00     0.059 A 
ATOM     89  F   UNL     1      -4.427  12.905   3.417  1.00  0.00    -0.206 F 
ATOM     90  C   UNL     1      -5.999  14.880   0.879  1.00  0.00     0.060 A 
BRANCH  90  91
ATOM     91  S   UNL     1      -5.511  15.920  -0.518  1.00  0.00     0.124 S 
ATOM     92  O   UNL     1      -5.737  15.030  -1.651  1.00  0.00    -0.237 OA
ATOM     93  O   UNL     1      -6.426  17.052  -0.405  1.00  0.00    -0.237 OA
ATOM     94  O   UNL     1      -4.111  16.229  -0.236  1.00  0.00    -0.744 OA
ENDBRANCH  90  91
ENDBRANCH  69  83
BRANCH  70  95
ATOM     95  C   UNL     1      -8.641   5.139   8.846  1.00  0.00     0.058 A 
ATOM     96  C   UNL     1      -8.706   3.838   8.297  1.00  0.00     0.135 A 
ATOM     97  C   UNL     1      -7.715   5.327   9.889  1.00  0.00     0.135 A 
ATOM     98  F   UNL     1      -9.589   3.580   7.320  1.00  0.00    -0.206 F 
ATOM     99  C   UNL     1      -7.759   2.854   8.591  1.00  0.00     0.059 A 
ATOM    100  C   UNL     1      -6.764   4.346  10.210  1.00  0.00     0.059 A 
ATOM    101  F   UNL     1      -7.615   6.520  10.493  1.00  0.00    -0.206 F 
ATOM    102  C   UNL     1      -6.748   3.143   9.502  1.00  0.00     0.060 A 
BRANCH 102 103
ATOM    103  S   UNL     1      -5.284   2.069   9.576  1.00  0.00     0.124 S 
ATOM    104  O   UNL     1      -5.655   1.124  10.622  1.00  0.00    -0.237 OA
ATOM    105  O   UNL     1      -5.207   1.523   8.224  1.00  0.00    -0.237 OA
ATOM    106  O   UNL     1      -4.220   3.010   9.917  1.00  0.00    -0.744 OA
ENDBRANCH 102 103
ENDBRANCH  70  95
BRANCH  82 107
ATOM    107  C   UNL     1     -12.000  11.696   7.100  1.00  0.00     0.058 A 
ATOM    108  C   UNL     1     -12.754  11.814   8.279  1.00  0.00     0.135 A 
ATOM    109  C   UNL     1     -11.984  12.891   6.313  1.00  0.00     0.135 A 
ATOM    110  F   UNL     1     -12.821  10.829   9.179  1.00  0.00    -0.206 F 
ATOM    111  C   UNL     1     -13.446  12.982   8.632  1.00  0.00     0.059 A 
ATOM    112  C   UNL     1     -12.626  14.076   6.667  1.00  0.00     0.059 A 
ATOM    113  F   UNL     1     -11.313  12.981   5.158  1.00  0.00    -0.206 F 
ATOM    114  C   UNL     1     -13.368  14.112   7.827  1.00  0.00     0.060 A 
BRANCH 114 115
ATOM    115  S   UNL     1     -14.170  15.639   8.343  1.00  0.00     0.124 S 
ATOM    116  O   UNL     1     -15.565  15.361   8.018  1.00  0.00    -0.237 OA
ATOM    117  O   UNL     1     -13.850  15.691   9.767  1.00  0.00    -0.237 OA
ATOM    118  O   UNL     1     -13.522  16.659   7.526  1.00  0.00    -0.744 OA
ENDBRANCH 114 115
ENDBRANCH  82 107
ENDBRANCH  56  57
ENDBRANCH  49  51
ENDBRANCH  48  49
ENDBRANCH  47  48
ENDBRANCH  46  47
ENDBRANCH  45  46
ENDBRANCH  44  45
ENDBRANCH  43  44
ENDBRANCH  42  43
ENDBRANCH   1  42
TORSDOF 30
