REMARK SMILES Cc1cc(C(=O)N[C@@H]2C(=O)N3C(C(=O)OCCOCCOCCOCCOC(=O)c4ccc(-c5c6nc(c(-c7c(F)cc(S(=O)(=O)[O-])cc7F)c7ccc([nH]7)c(-c7c(F)cc(S(=O)(=O)[O-])cc7F)c7nc(c(-c8c(F)cc(S(=O)(=O)[O-])cc8F)c8ccc5[nH]8)C=C7)C=C6)cc4)=C(CSc4nnc(C)s4)CS[C@H]23)n(C)n1
REMARK SMILES IDX 21 1 20 2 19 3 18 4 17 5 16 6 15 7 13 8 14 9 12 10 8 11 9 12
REMARK SMILES IDX 107 13 10 14 11 15 106 16 105 17 96 18 7 19 5 20 6 21 4 23
REMARK SMILES IDX 1 24 2 25 3 26 110 27 108 28 109 29 97 30 98 31 99 32 100 33
REMARK SMILES IDX 104 34 101 35 102 36 103 37 22 38 23 39 24 40 25 41 26 42
REMARK SMILES IDX 27 43 28 44 29 45 30 46 31 47 95 48 32 49 94 50 33 51 34 52
REMARK SMILES IDX 35 53 88 54 36 55 93 56 87 57 89 58 37 59 92 60 86 61 85 62
REMARK SMILES IDX 38 64 72 65 51 66 71 67 52 68 55 69 70 70 90 71 53 72 54 73
REMARK SMILES IDX 69 75 91 76 56 77 39 78 40 79 49 80 41 81 42 82 48 83 50 84
REMARK SMILES IDX 43 85 44 86 45 87 46 88 47 89 73 90 74 91 83 92 75 93 76 94
REMARK SMILES IDX 82 95 84 96 77 97 78 98 79 99 80 100 81 101 57 102 58 103
REMARK SMILES IDX 67 104 59 105 60 106 66 107 68 108 61 109 62 110 63 111
REMARK SMILES IDX 64 112 65 113
REMARK H PARENT 7 22 89 63 55 74
REMARK Flexibility Score: inf
ROOT
ATOM      1  O   UNL     1      -5.428  -0.536  -0.652  1.00  0.00    -0.377 OA
ENDROOT
BRANCH   1   2
ATOM      2  C   UNL     1      -4.023  -0.757  -0.623  1.00  0.00     0.188 C 
BRANCH   2   3
ATOM      3  C   UNL     1      -2.977   0.381  -0.775  1.00  0.00     0.188 C 
BRANCH   3   4
ATOM      4  O   UNL     1      -3.426   1.516  -1.489  1.00  0.00    -0.376 OA
BRANCH   4   5
ATOM      5  C   UNL     1      -2.984   1.783  -2.800  1.00  0.00     0.202 C 
BRANCH   5   6
ATOM      6  C   UNL     1      -3.119   0.726  -3.907  1.00  0.00     0.261 C 
BRANCH   6   7
ATOM      7  O   UNL     1      -3.271  -0.629  -3.478  1.00  0.00    -0.459 OA
BRANCH   7   8
ATOM      8  C   UNL     1      -2.141  -1.347  -3.326  1.00  0.00     0.355 C 
ATOM      9  O   UNL     1      -1.002  -0.936  -3.507  1.00  0.00    -0.244 OA
BRANCH   8  10
ATOM     10  C   UNL     1      -2.418  -2.742  -2.834  1.00  0.00     0.132 C 
ATOM     11  C   UNL     1      -0.271  -4.148  -0.582  1.00  0.00     0.206 C 
ATOM     12  C   UNL     1      -1.024  -2.797  -0.706  1.00  0.00     0.253 C 
ATOM     13  C   UNL     1      -1.197  -4.586  -1.758  1.00  0.00     0.181 C 
ATOM     14  O   UNL     1      -1.129  -1.812  -0.028  1.00  0.00    -0.272 OA
ATOM     15  N   UNL     1      -1.538  -3.202  -1.899  1.00  0.00    -0.289 N 
ATOM     16  S   UNL     1      -2.720  -5.472  -1.362  1.00  0.00    -0.129 SA
ATOM     17  C   UNL     1      -3.457  -5.054  -2.962  1.00  0.00     0.106 C 
ATOM     18  C   UNL     1      -3.381  -3.571  -3.325  1.00  0.00    -0.019 C 
BRANCH  11  19
ATOM     19  N   UNL     1      -0.302  -4.943   0.670  1.00  0.00    -0.336 N 
ATOM     20  C   UNL     1       0.006  -6.287   0.810  1.00  0.00     0.270 C 
ATOM     21  O   UNL     1      -0.066  -6.782   1.933  1.00  0.00    -0.268 OA
ATOM     22  H   UNL     1      -0.570  -4.465   1.488  1.00  0.00     0.164 HD
BRANCH  20  23
ATOM     23  C   UNL     1       0.320  -7.049  -0.384  1.00  0.00     0.126 A 
ATOM     24  C   UNL     1       0.393  -7.426  -3.998  1.00  0.00     0.069 C 
ATOM     25  C   UNL     1       0.456  -7.599  -2.526  1.00  0.00     0.060 A 
ATOM     26  C   UNL     1       0.947  -6.687  -1.568  1.00  0.00     0.059 A 
ATOM     27  N   UNL     1      -0.076  -8.667  -1.931  1.00  0.00    -0.178 NA
ATOM     28  N   UNL     1      -0.028  -8.362  -0.613  1.00  0.00    -0.263 N 
ATOM     29  C   UNL     1      -0.343  -9.407   0.330  1.00  0.00     0.174 C 
ENDBRANCH  20  23
ENDBRANCH  11  19
BRANCH  18  30
ATOM     30  C   UNL     1      -4.420  -3.205  -4.362  1.00  0.00     0.111 C 
BRANCH  30  31
ATOM     31  S   UNL     1      -5.944  -2.412  -3.806  1.00  0.00    -0.089 SA
BRANCH  31  32
ATOM     32  C   UNL     1      -6.486  -3.145  -2.318  1.00  0.00     0.174 A 
ATOM     33  N   UNL     1      -5.816  -4.036  -1.625  1.00  0.00    -0.132 NA
ATOM     34  S   UNL     1      -7.970  -2.688  -1.577  1.00  0.00    -0.091 S 
ATOM     35  N   UNL     1      -6.399  -4.316  -0.402  1.00  0.00    -0.143 NA
ATOM     36  C   UNL     1      -7.495  -3.613  -0.212  1.00  0.00     0.115 A 
ATOM     37  C   UNL     1      -8.277  -3.585   1.051  1.00  0.00     0.081 C 
ENDBRANCH  31  32
ENDBRANCH  30  31
ENDBRANCH  18  30
ENDBRANCH   8  10
ENDBRANCH   7   8
ENDBRANCH   6   7
ENDBRANCH   5   6
ENDBRANCH   4   5
ENDBRANCH   3   4
ENDBRANCH   2   3
ENDBRANCH   1   2
BRANCH   1  38
ATOM     38  C   UNL     1      -5.902   0.694  -1.164  1.00  0.00     0.188 C 
BRANCH  38  39
ATOM     39  C   UNL     1      -5.782   1.837  -0.141  1.00  0.00     0.188 C 
BRANCH  39  40
ATOM     40  O   UNL     1      -4.974   1.550   0.986  1.00  0.00    -0.376 OA
BRANCH  40  41
ATOM     41  C   UNL     1      -5.442   0.705   2.026  1.00  0.00     0.202 C 
BRANCH  41  42
ATOM     42  C   UNL     1      -6.647  -0.261   1.961  1.00  0.00     0.261 C 
BRANCH  42  43
ATOM     43  O   UNL     1      -7.663  -0.067   0.973  1.00  0.00    -0.460 OA
BRANCH  43  44
ATOM     44  C   UNL     1      -8.553   0.928   1.161  1.00  0.00     0.338 C 
ATOM     45  O   UNL     1      -8.604   1.702   2.096  1.00  0.00    -0.246 OA
BRANCH  44  46
ATOM     46  C   UNL     1      -9.357   1.022  -0.081  1.00  0.00     0.060 A 
ATOM     47  C   UNL     1      -9.233   2.155  -0.897  1.00  0.00     0.016 A 
ATOM     48  C   UNL     1     -10.208  -0.021  -0.452  1.00  0.00     0.016 A 
ATOM     49  C   UNL     1      -9.975   2.258  -2.073  1.00  0.00     0.010 A 
ATOM     50  C   UNL     1     -10.967   0.091  -1.620  1.00  0.00     0.010 A 
ATOM     51  C   UNL     1     -10.882   1.248  -2.415  1.00  0.00    -0.014 A 
BRANCH  51  52
ATOM     52  C   UNL     1     -11.898   1.505  -3.464  1.00  0.00     0.031 A 
ATOM     53  C   UNL     1     -13.283   1.899  -3.023  1.00  0.00     0.074 A 
ATOM     54  C   UNL     1     -11.600   1.426  -4.773  1.00  0.00     0.049 A 
ATOM     55  N   UNL     1     -14.352   2.121  -3.740  1.00  0.00    -0.248 NA
ATOM     56  C   UNL     1     -13.486   2.055  -1.573  1.00  0.00     0.031 C 
ATOM     57  C   UNL     1     -10.285   1.105  -5.324  1.00  0.00     0.029 A 
ATOM     58  N   UNL     1     -12.394   1.605  -5.879  1.00  0.00    -0.354 N 
ATOM     59  C   UNL     1     -15.357   2.430  -2.829  1.00  0.00     0.074 A 
ATOM     60  C   UNL     1     -14.779   2.329  -1.508  1.00  0.00     0.031 C 
ATOM     61  C   UNL     1     -10.366   1.098  -6.667  1.00  0.00     0.029 A 
ATOM     62  C   UNL     1     -11.745   1.376  -7.068  1.00  0.00     0.049 A 
ATOM     63  H   UNL     1     -13.340   1.871  -5.824  1.00  0.00     0.167 HD
ATOM     64  C   UNL     1     -16.642   2.777  -3.073  1.00  0.00     0.037 A 
ATOM     65  C   UNL     1     -12.218   1.367  -8.332  1.00  0.00     0.037 A 
ATOM     66  C   UNL     1     -17.209   2.875  -4.392  1.00  0.00     0.049 A 
ATOM     67  C   UNL     1     -13.674   1.676  -8.577  1.00  0.00     0.074 A 
ATOM     68  C   UNL     1     -18.497   3.233  -4.749  1.00  0.00     0.029 A 
ATOM     69  N   UNL     1     -16.529   2.602  -5.571  1.00  0.00    -0.354 N 
ATOM     70  N   UNL     1     -14.611   1.986  -7.711  1.00  0.00    -0.248 NA
ATOM     71  C   UNL     1     -14.138   1.638  -9.971  1.00  0.00     0.031 C 
ATOM     72  C   UNL     1     -18.614   3.112  -6.137  1.00  0.00     0.029 A 
ATOM     73  C   UNL     1     -17.379   2.752  -6.654  1.00  0.00     0.049 A 
ATOM     74  H   UNL     1     -15.582   2.340  -5.628  1.00  0.00     0.167 HD
ATOM     75  C   UNL     1     -15.764   2.212  -8.458  1.00  0.00     0.074 A 
ATOM     76  C   UNL     1     -15.404   2.013  -9.847  1.00  0.00     0.031 C 
ATOM     77  C   UNL     1     -17.006   2.557  -8.034  1.00  0.00     0.037 A 
BRANCH  64  78
ATOM     78  C   UNL     1     -17.530   3.040  -1.887  1.00  0.00     0.058 A 
ATOM     79  C   UNL     1     -17.351   4.157  -1.054  1.00  0.00     0.135 A 
ATOM     80  C   UNL     1     -18.590   2.168  -1.589  1.00  0.00     0.135 A 
ATOM     81  F   UNL     1     -16.341   5.013  -1.278  1.00  0.00    -0.206 F 
ATOM     82  C   UNL     1     -18.171   4.383   0.047  1.00  0.00     0.059 A 
ATOM     83  C   UNL     1     -19.444   2.393  -0.514  1.00  0.00     0.059 A 
ATOM     84  F   UNL     1     -18.806   1.082  -2.348  1.00  0.00    -0.206 F 
ATOM     85  C   UNL     1     -19.216   3.495   0.308  1.00  0.00     0.060 A 
BRANCH  85  86
ATOM     86  S   UNL     1     -20.271   3.804   1.740  1.00  0.00     0.124 S 
ATOM     87  O   UNL     1     -19.360   3.508   2.842  1.00  0.00    -0.237 OA
ATOM     88  O   UNL     1     -20.623   5.209   1.568  1.00  0.00    -0.237 OA
ATOM     89  O   UNL     1     -21.369   2.858   1.565  1.00  0.00    -0.744 OA
ENDBRANCH  85  86
ENDBRANCH  64  78
BRANCH  65  90
ATOM     90  C   UNL     1     -11.309   1.040  -9.465  1.00  0.00     0.058 A 
ATOM     91  C   UNL     1     -10.964   2.006 -10.423  1.00  0.00     0.135 A 
ATOM     92  C   UNL     1     -10.765  -0.246  -9.613  1.00  0.00     0.135 A 
ATOM     93  F   UNL     1     -11.469   3.246 -10.336  1.00  0.00    -0.206 F 
ATOM     94  C   UNL     1     -10.122   1.708 -11.490  1.00  0.00     0.059 A 
ATOM     95  C   UNL     1      -9.897  -0.560 -10.655  1.00  0.00     0.059 A 
ATOM     96  F   UNL     1     -11.057  -1.207  -8.723  1.00  0.00    -0.206 F 
ATOM     97  C   UNL     1      -9.587   0.423 -11.592  1.00  0.00     0.060 A 
BRANCH  97  98
ATOM     98  S   UNL     1      -8.441   0.067 -12.943  1.00  0.00     0.124 S 
ATOM     99  O   UNL     1      -9.331   0.089 -14.098  1.00  0.00    -0.237 OA
ATOM    100  O   UNL     1      -7.498   1.176 -12.840  1.00  0.00    -0.237 OA
ATOM    101  O   UNL     1      -7.899  -1.241 -12.587  1.00  0.00    -0.744 OA
ENDBRANCH  97  98
ENDBRANCH  65  90
BRANCH  77 102
ATOM    102  C   UNL     1     -18.067   2.788  -9.080  1.00  0.00     0.058 A 
ATOM    103  C   UNL     1     -18.617   1.736  -9.828  1.00  0.00     0.135 A 
ATOM    104  C   UNL     1     -18.584   4.078  -9.289  1.00  0.00     0.135 A 
ATOM    105  F   UNL     1     -18.159   0.484  -9.674  1.00  0.00    -0.206 F 
ATOM    106  C   UNL     1     -19.625   1.958 -10.763  1.00  0.00     0.059 A 
ATOM    107  C   UNL     1     -19.615   4.317 -10.193  1.00  0.00     0.059 A 
ATOM    108  F   UNL     1     -18.104   5.121  -8.593  1.00  0.00    -0.206 F 
ATOM    109  C   UNL     1     -20.120   3.252 -10.935  1.00  0.00     0.060 A 
BRANCH 109 110
ATOM    110  S   UNL     1     -21.452   3.517 -12.124  1.00  0.00     0.124 S 
ATOM    111  O   UNL     1     -20.757   3.324 -13.393  1.00  0.00    -0.237 OA
ATOM    112  O   UNL     1     -22.406   2.474 -11.759  1.00  0.00    -0.237 OA
ATOM    113  O   UNL     1     -21.889   4.882 -11.849  1.00  0.00    -0.744 OA
ENDBRANCH 109 110
ENDBRANCH  77 102
ENDBRANCH  51  52
ENDBRANCH  44  46
ENDBRANCH  43  44
ENDBRANCH  42  43
ENDBRANCH  41  42
ENDBRANCH  40  41
ENDBRANCH  39  40
ENDBRANCH  38  39
ENDBRANCH   1  38
TORSDOF 28
