REMARK SMILES C[C@@H](Sc1nc2ccccc2c(=O)n1N)C(=O)OCCOCCOCCOCCOC(=O)c1ccc(-c2c3nc(c(-c4c(F)cc(S(=O)(=O)[O-])cc4F)c4ccc([nH]4)c(-c4c(F)cc(S(=O)(=O)[O-])cc4F)c4nc(c(-c5c(F)cc(S(=O)(=O)[O-])cc5F)c5ccc2[nH]5)C=C4)C=C3)cc1
REMARK SMILES IDX 24 1 23 2 22 3 21 4 20 5 19 6 18 7 16 8 17 9 2 10 1 11 3 12
REMARK SMILES IDX 4 13 5 14 14 15 6 16 12 17 7 18 11 19 13 20 8 21 10 22 9 23
REMARK SMILES IDX 15 24 25 27 26 28 27 29 28 30 29 31 30 32 31 33 32 34 33 35
REMARK SMILES IDX 34 36 98 37 35 38 97 39 36 40 37 41 38 42 91 43 39 44 96 45
REMARK SMILES IDX 90 46 92 47 40 48 95 49 89 50 88 51 41 53 75 54 54 55 74 56
REMARK SMILES IDX 55 57 58 58 73 59 93 60 56 61 57 62 72 64 94 65 59 66 42 67
REMARK SMILES IDX 43 68 52 69 44 70 45 71 51 72 53 73 46 74 47 75 48 76 49 77
REMARK SMILES IDX 50 78 76 79 77 80 86 81 78 82 79 83 85 84 87 85 80 86 81 87
REMARK SMILES IDX 82 88 83 89 84 90 60 91 61 92 70 93 62 94 63 95 69 96 71 97
REMARK SMILES IDX 64 98 65 99 66 100 67 101 68 102
REMARK H PARENT 15 25 15 26 92 52 58 63
REMARK Flexibility Score: inf
ROOT
ATOM      1  O   UNL     1      -1.971   0.165   0.850  1.00  0.00    -0.377 OA
ENDROOT
BRANCH   1   2
ATOM      2  C   UNL     1      -1.357   1.315   0.311  1.00  0.00     0.188 C 
BRANCH   2   3
ATOM      3  C   UNL     1      -2.017   1.861  -0.965  1.00  0.00     0.188 C 
BRANCH   3   4
ATOM      4  O   UNL     1      -3.324   1.478  -1.364  1.00  0.00    -0.376 OA
BRANCH   4   5
ATOM      5  C   UNL     1      -3.788   0.137  -1.301  1.00  0.00     0.202 C 
BRANCH   5   6
ATOM      6  C   UNL     1      -2.977  -1.062  -1.812  1.00  0.00     0.261 C 
BRANCH   6   7
ATOM      7  O   UNL     1      -1.603  -1.114  -1.419  1.00  0.00    -0.462 OA
BRANCH   7   8
ATOM      8  C   UNL     1      -0.716  -0.684  -2.342  1.00  0.00     0.319 C 
ATOM      9  O   UNL     1      -1.030  -0.243  -3.446  1.00  0.00    -0.251 OA
BRANCH   8  10
ATOM     10  C   UNL     1       0.739  -0.764  -1.880  1.00  0.00     0.161 C 
ATOM     11  C   UNL     1       1.030  -1.157  -0.428  1.00  0.00     0.032 C 
BRANCH  10  12
ATOM     12  S   UNL     1       1.544  -1.890  -3.071  1.00  0.00    -0.071 SA
BRANCH  12  13
ATOM     13  C   UNL     1       3.212  -1.600  -2.678  1.00  0.00     0.191 A 
ATOM     14  N   UNL     1       3.838  -2.569  -2.100  1.00  0.00    -0.222 NA
ATOM     15  N   UNL     1       3.804  -0.402  -3.060  1.00  0.00    -0.202 N 
ATOM     16  C   UNL     1       5.206  -2.428  -1.877  1.00  0.00     0.079 A 
ATOM     17  C   UNL     1       5.181  -0.208  -2.938  1.00  0.00     0.280 A 
ATOM     18  C   UNL     1       5.881  -3.475  -1.249  1.00  0.00     0.029 A 
ATOM     19  C   UNL     1       5.929  -1.319  -2.316  1.00  0.00     0.068 A 
ATOM     20  O   UNL     1       5.765   0.800  -3.334  1.00  0.00    -0.267 OA
ATOM     21  C   UNL     1       7.267  -3.434  -1.102  1.00  0.00     0.002 A 
ATOM     22  C   UNL     1       7.319  -1.270  -2.180  1.00  0.00     0.016 A 
ATOM     23  C   UNL     1       7.987  -2.339  -1.581  1.00  0.00     0.001 A 
BRANCH  15  24
ATOM     24  N   UNL     1       3.042   0.690  -3.595  1.00  0.00    -0.334 N 
ATOM     25  H   UNL     1       2.067   0.604  -3.701  1.00  0.00     0.178 HD
ATOM     26  H   UNL     1       3.493   1.525  -3.856  1.00  0.00     0.178 HD
ENDBRANCH  15  24
ENDBRANCH  12  13
ENDBRANCH  10  12
ENDBRANCH   8  10
ENDBRANCH   7   8
ENDBRANCH   6   7
ENDBRANCH   5   6
ENDBRANCH   4   5
ENDBRANCH   3   4
ENDBRANCH   2   3
ENDBRANCH   1   2
BRANCH   1  27
ATOM     27  C   UNL     1      -2.906   0.356   1.907  1.00  0.00     0.188 C 
BRANCH  27  28
ATOM     28  C   UNL     1      -3.772   1.634   1.903  1.00  0.00     0.188 C 
BRANCH  28  29
ATOM     29  O   UNL     1      -3.033   2.837   1.729  1.00  0.00    -0.376 OA
BRANCH  29  30
ATOM     30  C   UNL     1      -2.691   3.588   2.885  1.00  0.00     0.202 C 
BRANCH  30  31
ATOM     31  C   UNL     1      -1.694   2.950   3.868  1.00  0.00     0.261 C 
BRANCH  31  32
ATOM     32  O   UNL     1      -2.096   1.710   4.469  1.00  0.00    -0.460 OA
BRANCH  32  33
ATOM     33  C   UNL     1      -3.260   1.696   5.147  1.00  0.00     0.338 C 
ATOM     34  O   UNL     1      -3.982   2.657   5.380  1.00  0.00    -0.246 OA
BRANCH  33  35
ATOM     35  C   UNL     1      -3.645   0.293   5.396  1.00  0.00     0.060 A 
ATOM     36  C   UNL     1      -4.904  -0.141   4.962  1.00  0.00     0.016 A 
ATOM     37  C   UNL     1      -2.796  -0.575   6.088  1.00  0.00     0.016 A 
ATOM     38  C   UNL     1      -5.354  -1.417   5.295  1.00  0.00     0.010 A 
ATOM     39  C   UNL     1      -3.256  -1.849   6.437  1.00  0.00     0.010 A 
ATOM     40  C   UNL     1      -4.561  -2.248   6.096  1.00  0.00    -0.014 A 
BRANCH  40  41
ATOM     41  C   UNL     1      -5.208  -3.383   6.800  1.00  0.00     0.031 A 
ATOM     42  C   UNL     1      -5.655  -3.165   8.224  1.00  0.00     0.074 A 
ATOM     43  C   UNL     1      -5.463  -4.549   6.180  1.00  0.00     0.049 A 
ATOM     44  N   UNL     1      -6.264  -3.982   9.042  1.00  0.00    -0.248 NA
ATOM     45  C   UNL     1      -5.372  -1.840   8.803  1.00  0.00     0.031 C 
ATOM     46  C   UNL     1      -5.127  -4.861   4.793  1.00  0.00     0.029 A 
ATOM     47  N   UNL     1      -6.074  -5.686   6.644  1.00  0.00    -0.354 N 
ATOM     48  C   UNL     1      -6.424  -3.278  10.231  1.00  0.00     0.074 A 
ATOM     49  C   UNL     1      -5.817  -1.980  10.041  1.00  0.00     0.031 C 
ATOM     50  C   UNL     1      -5.541  -6.111   4.516  1.00  0.00     0.029 A 
ATOM     51  C   UNL     1      -6.145  -6.695   5.713  1.00  0.00     0.049 A 
ATOM     52  H   UNL     1      -6.429  -5.772   7.559  1.00  0.00     0.167 HD
ATOM     53  C   UNL     1      -7.032  -3.671  11.375  1.00  0.00     0.037 A 
ATOM     54  C   UNL     1      -6.635  -7.947   5.823  1.00  0.00     0.037 A 
ATOM     55  C   UNL     1      -7.641  -4.962  11.555  1.00  0.00     0.049 A 
ATOM     56  C   UNL     1      -7.256  -8.384   7.127  1.00  0.00     0.074 A 
ATOM     57  C   UNL     1      -8.301  -5.455  12.667  1.00  0.00     0.029 A 
ATOM     58  N   UNL     1      -7.658  -5.969  10.601  1.00  0.00    -0.354 N 
ATOM     59  N   UNL     1      -7.419  -7.702   8.237  1.00  0.00    -0.248 NA
ATOM     60  C   UNL     1      -7.770  -9.759   7.188  1.00  0.00     0.031 C 
ATOM     61  C   UNL     1      -8.661  -6.781  12.408  1.00  0.00     0.029 A 
ATOM     62  C   UNL     1      -8.293  -7.090  11.107  1.00  0.00     0.049 A 
ATOM     63  H   UNL     1      -7.275  -5.897   9.697  1.00  0.00     0.167 HD
ATOM     64  C   UNL     1      -8.098  -8.549   9.110  1.00  0.00     0.074 A 
ATOM     65  C   UNL     1      -8.313  -9.792   8.397  1.00  0.00     0.031 C 
ATOM     66  C   UNL     1      -8.514  -8.317  10.380  1.00  0.00     0.037 A 
BRANCH  53  67
ATOM     67  C   UNL     1      -7.025  -2.709  12.534  1.00  0.00     0.058 A 
ATOM     68  C   UNL     1      -7.766  -1.516  12.522  1.00  0.00     0.135 A 
ATOM     69  C   UNL     1      -6.269  -2.996  13.682  1.00  0.00     0.135 A 
ATOM     70  F   UNL     1      -8.489  -1.179  11.442  1.00  0.00    -0.206 F 
ATOM     71  C   UNL     1      -7.729  -0.626  13.591  1.00  0.00     0.059 A 
ATOM     72  C   UNL     1      -6.244  -2.137  14.777  1.00  0.00     0.059 A 
ATOM     73  F   UNL     1      -5.537  -4.120  13.747  1.00  0.00    -0.206 F 
ATOM     74  C   UNL     1      -6.964  -0.946  14.714  1.00  0.00     0.060 A 
BRANCH  74  75
ATOM     75  S   UNL     1      -6.923   0.220  16.092  1.00  0.00     0.124 S 
ATOM     76  O   UNL     1      -6.124   1.305  15.531  1.00  0.00    -0.237 OA
ATOM     77  O   UNL     1      -8.338   0.514  16.293  1.00  0.00    -0.237 OA
ATOM     78  O   UNL     1      -6.285  -0.540  17.162  1.00  0.00    -0.744 OA
ENDBRANCH  74  75
ENDBRANCH  53  67
BRANCH  54  79
ATOM     79  C   UNL     1      -6.577  -8.876   4.661  1.00  0.00     0.058 A 
ATOM     80  C   UNL     1      -7.745  -9.292   4.004  1.00  0.00     0.135 A 
ATOM     81  C   UNL     1      -5.352  -9.375   4.189  1.00  0.00     0.135 A 
ATOM     82  F   UNL     1      -8.942  -8.855   4.424  1.00  0.00    -0.206 F 
ATOM     83  C   UNL     1      -7.704 -10.180   2.934  1.00  0.00     0.059 A 
ATOM     84  C   UNL     1      -5.283 -10.241   3.102  1.00  0.00     0.059 A 
ATOM     85  F   UNL     1      -4.203  -9.004   4.777  1.00  0.00    -0.206 F 
ATOM     86  C   UNL     1      -6.467 -10.646   2.487  1.00  0.00     0.060 A 
BRANCH  86  87
ATOM     87  S   UNL     1      -6.424 -11.758   1.065  1.00  0.00     0.124 S 
ATOM     88  O   UNL     1      -6.983 -12.980   1.629  1.00  0.00    -0.237 OA
ATOM     89  O   UNL     1      -7.267 -11.054   0.103  1.00  0.00    -0.237 OA
ATOM     90  O   UNL     1      -5.005 -11.812   0.723  1.00  0.00    -0.744 OA
ENDBRANCH  86  87
ENDBRANCH  54  79
BRANCH  66  91
ATOM     91  C   UNL     1      -9.312  -9.399  11.062  1.00  0.00     0.058 A 
ATOM     92  C   UNL     1      -8.738 -10.615  11.464  1.00  0.00     0.135 A 
ATOM     93  C   UNL     1     -10.672  -9.192  11.350  1.00  0.00     0.135 A 
ATOM     94  F   UNL     1      -7.443 -10.867  11.216  1.00  0.00    -0.206 F 
ATOM     95  C   UNL     1      -9.494 -11.605  12.085  1.00  0.00     0.059 A 
ATOM     96  C   UNL     1     -11.437 -10.153  12.003  1.00  0.00     0.059 A 
ATOM     97  F   UNL     1     -11.270  -8.040  11.006  1.00  0.00    -0.206 F 
ATOM     98  C   UNL     1     -10.844 -11.365  12.348  1.00  0.00     0.060 A 
BRANCH  98  99
ATOM     99  S   UNL     1     -11.813 -12.655  13.158  1.00  0.00     0.124 S 
ATOM    100  O   UNL     1     -11.961 -13.630  12.082  1.00  0.00    -0.237 OA
ATOM    101  O   UNL     1     -10.944 -13.054  14.260  1.00  0.00    -0.237 OA
ATOM    102  O   UNL     1     -13.038 -11.965  13.551  1.00  0.00    -0.744 OA
ENDBRANCH  98  99
ENDBRANCH  66  91
ENDBRANCH  40  41
ENDBRANCH  33  35
ENDBRANCH  32  33
ENDBRANCH  31  32
ENDBRANCH  30  31
ENDBRANCH  29  30
ENDBRANCH  28  29
ENDBRANCH  27  28
ENDBRANCH   1  27
TORSDOF 26
