REMARK SMILES COC(=O)c1ccc(C)c2c1[C@H]1C=CC[C@H]1[C@@H](c1ccc(C(=O)OCCOCCOCCOCCOC(=O)c3ccc(-c4c5nc(c(-c6c(F)cc(S(=O)(=O)[O-])cc6F)c6ccc([nH]6)c(-c6c(F)cc(S(=O)(=O)[O-])cc6F)c6nc(c(-c7c(F)cc(S(=O)(=O)[O-])cc7F)c7ccc4[nH]7)C=C6)C=C5)cc3)cc1)N2
REMARK SMILES IDX 30 1 29 2 28 3 27 4 26 5 25 6 24 7 22 8 23 9 21 10 18 11
REMARK SMILES IDX 19 12 106 13 20 14 105 15 17 16 5 17 6 18 11 19 7 20 10 21
REMARK SMILES IDX 12 22 8 23 107 24 13 25 16 26 9 27 14 29 15 30 3 31 4 32
REMARK SMILES IDX 2 33 1 34 31 35 32 36 33 37 34 38 35 39 36 40 37 41 38 42
REMARK SMILES IDX 39 43 40 44 104 45 41 46 103 47 42 48 43 49 44 50 97 51
REMARK SMILES IDX 45 52 102 53 96 54 98 55 46 56 101 57 95 58 94 59 47 61
REMARK SMILES IDX 81 62 60 63 80 64 61 65 64 66 79 67 99 68 62 69 63 70 78 72
REMARK SMILES IDX 100 73 65 74 48 75 49 76 58 77 50 78 51 79 57 80 59 81 52 82
REMARK SMILES IDX 53 83 54 84 55 85 56 86 82 87 83 88 92 89 84 90 85 91 91 92
REMARK SMILES IDX 93 93 86 94 87 95 88 96 89 97 90 98 66 99 67 100 76 101
REMARK SMILES IDX 68 102 69 103 75 104 77 105 70 106 71 107 72 108 73 109
REMARK SMILES IDX 74 110
REMARK H PARENT 107 28 98 60 64 71
REMARK Flexibility Score: inf
ROOT
ATOM      1  O   UNL     1       6.966  -5.390  -2.708  1.00  0.00    -0.377 OA
ENDROOT
BRANCH   1   2
ATOM      2  C   UNL     1       5.607  -5.088  -2.432  1.00  0.00     0.188 C 
BRANCH   2   3
ATOM      3  C   UNL     1       4.704  -6.177  -1.817  1.00  0.00     0.188 C 
BRANCH   3   4
ATOM      4  O   UNL     1       5.404  -7.306  -1.321  1.00  0.00    -0.376 OA
BRANCH   4   5
ATOM      5  C   UNL     1       5.249  -8.542  -1.997  1.00  0.00     0.202 C 
BRANCH   5   6
ATOM      6  C   UNL     1       5.755  -8.647  -3.445  1.00  0.00     0.261 C 
BRANCH   6   7
ATOM      7  O   UNL     1       5.386  -7.565  -4.309  1.00  0.00    -0.460 OA
BRANCH   7   8
ATOM      8  C   UNL     1       4.112  -7.549  -4.753  1.00  0.00     0.338 C 
ATOM      9  O   UNL     1       3.247  -8.376  -4.519  1.00  0.00    -0.246 OA
BRANCH   8  10
ATOM     10  C   UNL     1       3.854  -6.214  -5.342  1.00  0.00     0.060 A 
ATOM     11  C   UNL     1       3.346  -3.564  -6.211  1.00  0.00    -0.025 A 
ATOM     12  C   UNL     1       2.487  -4.227  -5.316  1.00  0.00     0.007 A 
ATOM     13  C   UNL     1       4.484  -4.269  -6.649  1.00  0.00     0.007 A 
ATOM     14  C   UNL     1       2.718  -5.539  -4.904  1.00  0.00     0.016 A 
ATOM     15  C   UNL     1       4.748  -5.577  -6.208  1.00  0.00     0.016 A 
BRANCH  11  16
ATOM     16  C   UNL     1       3.068  -2.146  -6.734  1.00  0.00     0.114 C 
ATOM     17  C   UNL     1       0.417  -0.810  -3.677  1.00  0.00     0.065 A 
ATOM     18  C   UNL     1      -0.909  -1.250  -3.719  1.00  0.00     0.016 A 
ATOM     19  C   UNL     1       1.286  -1.031  -4.770  1.00  0.00    -0.003 A 
ATOM     20  C   UNL     1      -1.396  -1.875  -4.861  1.00  0.00     0.006 A 
ATOM     21  C   UNL     1       0.779  -1.655  -5.941  1.00  0.00     0.042 A 
ATOM     22  C   UNL     1       2.745  -0.621  -4.700  1.00  0.00     0.050 C 
ATOM     23  C   UNL     1      -0.574  -2.070  -5.983  1.00  0.00    -0.028 A 
ATOM     24  N   UNL     1       1.642  -1.964  -6.988  1.00  0.00    -0.377 N 
ATOM     25  C   UNL     1       3.593  -1.306  -3.654  1.00  0.00    -0.023 C 
ATOM     26  C   UNL     1       3.571  -0.905  -5.969  1.00  0.00     0.031 C 
ATOM     27  C   UNL     1      -1.197  -2.794  -7.149  1.00  0.00     0.046 C 
ATOM     28  H   UNL     1       1.289  -2.061  -7.902  1.00  0.00     0.161 HD
ATOM     29  C   UNL     1       4.849  -1.490  -4.083  1.00  0.00    -0.030 C 
ATOM     30  C   UNL     1       5.021  -1.000  -5.483  1.00  0.00     0.034 C 
BRANCH  17  31
ATOM     31  C   UNL     1       0.859  -0.072  -2.470  1.00  0.00     0.338 C 
ATOM     32  O   UNL     1       1.434   1.002  -2.490  1.00  0.00    -0.246 OA
BRANCH  31  33
ATOM     33  O   UNL     1       0.539  -0.794  -1.365  1.00  0.00    -0.465 OA
ATOM     34  C   UNL     1       0.970  -0.190  -0.144  1.00  0.00     0.282 C 
ENDBRANCH  31  33
ENDBRANCH  17  31
ENDBRANCH  11  16
ENDBRANCH   8  10
ENDBRANCH   7   8
ENDBRANCH   6   7
ENDBRANCH   5   6
ENDBRANCH   4   5
ENDBRANCH   3   4
ENDBRANCH   2   3
ENDBRANCH   1   2
BRANCH   1  35
ATOM     35  C   UNL     1       7.763  -6.039  -1.721  1.00  0.00     0.188 C 
BRANCH  35  36
ATOM     36  C   UNL     1       7.468  -5.878  -0.210  1.00  0.00     0.188 C 
BRANCH  36  37
ATOM     37  O   UNL     1       6.491  -4.896   0.098  1.00  0.00    -0.376 OA
BRANCH  37  38
ATOM     38  C   UNL     1       6.949  -3.702   0.705  1.00  0.00     0.202 C 
BRANCH  38  39
ATOM     39  C   UNL     1       7.890  -2.817  -0.124  1.00  0.00     0.261 C 
BRANCH  39  40
ATOM     40  O   UNL     1       9.048  -3.458  -0.679  1.00  0.00    -0.460 OA
BRANCH  40  41
ATOM     41  C   UNL     1      10.002  -3.886   0.175  1.00  0.00     0.338 C 
ATOM     42  O   UNL     1       9.991  -3.807   1.392  1.00  0.00    -0.246 OA
BRANCH  41  43
ATOM     43  C   UNL     1      10.995  -4.629  -0.627  1.00  0.00     0.060 A 
ATOM     44  C   UNL     1      11.116  -6.018  -0.473  1.00  0.00     0.016 A 
ATOM     45  C   UNL     1      11.781  -3.947  -1.557  1.00  0.00     0.016 A 
ATOM     46  C   UNL     1      12.033  -6.727  -1.249  1.00  0.00     0.010 A 
ATOM     47  C   UNL     1      12.725  -4.651  -2.305  1.00  0.00     0.010 A 
ATOM     48  C   UNL     1      12.873  -6.038  -2.135  1.00  0.00    -0.014 A 
BRANCH  48  49
ATOM     49  C   UNL     1      14.067  -6.717  -2.691  1.00  0.00     0.031 A 
ATOM     50  C   UNL     1      15.341  -6.644  -1.897  1.00  0.00     0.074 A 
ATOM     51  C   UNL     1      14.027  -7.381  -3.859  1.00  0.00     0.049 A 
ATOM     52  N   UNL     1      16.527  -7.112  -2.182  1.00  0.00    -0.248 NA
ATOM     53  C   UNL     1      15.262  -5.947  -0.601  1.00  0.00     0.031 C 
ATOM     54  C   UNL     1      12.840  -7.562  -4.691  1.00  0.00     0.029 A 
ATOM     55  N   UNL     1      15.026  -8.022  -4.549  1.00  0.00    -0.354 N 
ATOM     56  C   UNL     1      17.331  -6.777  -1.100  1.00  0.00     0.074 A 
ATOM     57  C   UNL     1      16.511  -6.032  -0.171  1.00  0.00     0.031 C 
ATOM     58  C   UNL     1      13.182  -8.262  -5.787  1.00  0.00     0.029 A 
ATOM     59  C   UNL     1      14.617  -8.550  -5.750  1.00  0.00     0.049 A 
ATOM     60  H   UNL     1      15.949  -8.096  -4.215  1.00  0.00     0.167 HD
ATOM     61  C   UNL     1      18.634  -7.075  -0.892  1.00  0.00     0.037 A 
ATOM     62  C   UNL     1      15.325  -9.177  -6.711  1.00  0.00     0.037 A 
ATOM     63  C   UNL     1      19.453  -7.787  -1.835  1.00  0.00     0.049 A 
ATOM     64  C   UNL     1      16.804  -9.400  -6.512  1.00  0.00     0.074 A 
ATOM     65  C   UNL     1      20.789  -8.129  -1.728  1.00  0.00     0.029 A 
ATOM     66  N   UNL     1      19.017  -8.254  -3.067  1.00  0.00    -0.354 N 
ATOM     67  N   UNL     1      17.554  -9.092  -5.479  1.00  0.00    -0.248 NA
ATOM     68  C   UNL     1      17.534 -10.053  -7.608  1.00  0.00     0.031 C 
ATOM     69  C   UNL     1      21.175  -8.752  -2.919  1.00  0.00     0.029 A 
ATOM     70  C   UNL     1      20.065  -8.855  -3.743  1.00  0.00     0.049 A 
ATOM     71  H   UNL     1      18.098  -8.171  -3.410  1.00  0.00     0.167 HD
ATOM     72  C   UNL     1      18.837  -9.536  -5.790  1.00  0.00     0.074 A 
ATOM     73  C   UNL     1      18.758 -10.142  -7.104  1.00  0.00     0.031 C 
ATOM     74  C   UNL     1      19.973  -9.453  -5.054  1.00  0.00     0.037 A 
BRANCH  61  75
ATOM     75  C   UNL     1      19.253  -6.603   0.393  1.00  0.00     0.058 A 
ATOM     76  C   UNL     1      18.901  -7.168   1.630  1.00  0.00     0.135 A 
ATOM     77  C   UNL     1      20.217  -5.582   0.390  1.00  0.00     0.135 A 
ATOM     78  F   UNL     1      17.967  -8.130   1.693  1.00  0.00    -0.206 F 
ATOM     79  C   UNL     1      19.463  -6.719   2.820  1.00  0.00     0.059 A 
ATOM     80  C   UNL     1      20.814  -5.138   1.566  1.00  0.00     0.059 A 
ATOM     81  F   UNL     1      20.583  -5.001  -0.763  1.00  0.00    -0.206 F 
ATOM     82  C   UNL     1      20.420  -5.704   2.778  1.00  0.00     0.060 A 
BRANCH  82  83
ATOM     83  S   UNL     1      21.135  -5.133   4.333  1.00  0.00     0.124 S 
ATOM     84  O   UNL     1      19.994  -4.466   4.952  1.00  0.00    -0.237 OA
ATOM     85  O   UNL     1      21.553  -6.384   4.958  1.00  0.00    -0.237 OA
ATOM     86  O   UNL     1      22.219  -4.254   3.909  1.00  0.00    -0.744 OA
ENDBRANCH  82  83
ENDBRANCH  61  75
BRANCH  62  87
ATOM     87  C   UNL     1      14.639  -9.650  -7.944  1.00  0.00     0.058 A 
ATOM     88  C   UNL     1      14.452 -11.019  -8.184  1.00  0.00     0.135 A 
ATOM     89  C   UNL     1      14.126  -8.746  -8.888  1.00  0.00     0.135 A 
ATOM     90  F   UNL     1      14.940 -11.923  -7.322  1.00  0.00    -0.206 F 
ATOM     91  C   UNL     1      13.773 -11.476  -9.309  1.00  0.00     0.059 A 
ATOM     92  C   UNL     1      13.422  -9.177 -10.009  1.00  0.00     0.059 A 
ATOM     93  F   UNL     1      14.277  -7.425  -8.705  1.00  0.00    -0.206 F 
ATOM     94  C   UNL     1      13.249 -10.546 -10.210  1.00  0.00     0.060 A 
BRANCH  94  95
ATOM     95  S   UNL     1      12.293 -11.153 -11.616  1.00  0.00     0.124 S 
ATOM     96  O   UNL     1      13.319 -11.824 -12.406  1.00  0.00    -0.237 OA
ATOM     97  O   UNL     1      11.317 -12.021 -10.965  1.00  0.00    -0.237 OA
ATOM     98  O   UNL     1      11.744  -9.933 -12.202  1.00  0.00    -0.744 OA
ENDBRANCH  94  95
ENDBRANCH  62  87
BRANCH  74  99
ATOM     99  C   UNL     1      21.233 -10.042  -5.632  1.00  0.00     0.058 A 
ATOM    100  C   UNL     1      21.914  -9.428  -6.694  1.00  0.00     0.135 A 
ATOM    101  C   UNL     1      21.815 -11.183  -5.054  1.00  0.00     0.135 A 
ATOM    102  F   UNL     1      21.402  -8.337  -7.285  1.00  0.00    -0.206 F 
ATOM    103  C   UNL     1      23.120  -9.932  -7.172  1.00  0.00     0.059 A 
ATOM    104  C   UNL     1      23.035 -11.687  -5.497  1.00  0.00     0.059 A 
ATOM    105  F   UNL     1      21.213 -11.803  -4.027  1.00  0.00    -0.206 F 
ATOM    106  C   UNL     1      23.676 -11.057  -6.562  1.00  0.00     0.060 A 
BRANCH 106 107
ATOM    107  S   UNL     1      25.265 -11.668  -7.165  1.00  0.00     0.124 S 
ATOM    108  O   UNL     1      24.901 -12.188  -8.479  1.00  0.00    -0.237 OA
ATOM    109  O   UNL     1      26.082 -10.459  -7.165  1.00  0.00    -0.237 OA
ATOM    110  O   UNL     1      25.642 -12.674  -6.176  1.00  0.00    -0.744 OA
ENDBRANCH 106 107
ENDBRANCH  74  99
ENDBRANCH  48  49
ENDBRANCH  41  43
ENDBRANCH  40  41
ENDBRANCH  39  40
ENDBRANCH  38  39
ENDBRANCH  37  38
ENDBRANCH  36  37
ENDBRANCH  35  36
ENDBRANCH   1  35
TORSDOF 26
