REMARK SMILES O=C(OCCOCCOCCOCCOC(=O)[C@H]1CC2(CC[NH+](C(=O)C3CC3)CC2)CN1C(=O)CCn1cccn1)c1ccc(-c2c3nc(c(-c4c(F)cc(S(=O)(=O)[O-])cc4F)c4ccc([nH]4)c(-c4c(F)cc(S(=O)(=O)[O-])cc4F)c4nc(c(-c5c(F)cc(S(=O)(=O)[O-])cc5F)c5ccc2[nH]5)C=C4)C=C3)cc1
REMARK SMILES IDX 10 1 9 2 8 3 7 4 6 5 5 6 4 7 3 8 2 9 1 10 42 11 43 12 107 13
REMARK SMILES IDX 44 14 106 15 45 16 46 17 47 18 100 19 48 20 105 21 99 22
REMARK SMILES IDX 101 23 49 24 104 25 98 26 97 27 50 29 84 30 63 31 83 32
REMARK SMILES IDX 64 33 67 34 82 35 102 36 65 37 66 38 81 40 103 41 68 42
REMARK SMILES IDX 51 43 52 44 61 45 53 46 54 47 60 48 62 49 55 50 56 51 57 52
REMARK SMILES IDX 58 53 59 54 85 55 86 56 95 57 87 58 88 59 94 60 96 61 89 62
REMARK SMILES IDX 90 63 91 64 92 65 93 66 69 67 70 68 79 69 71 70 72 71 78 72
REMARK SMILES IDX 80 73 73 74 74 75 75 76 76 77 77 78 11 79 12 80 13 81 14 82
REMARK SMILES IDX 15 83 16 84 17 85 18 86 19 87 32 88 20 89 31 90 21 91 30 92
REMARK SMILES IDX 22 93 29 94 23 95 33 97 34 98 35 99 36 100 37 101 38 102
REMARK SMILES IDX 41 103 39 104 40 105 24 106 25 107 26 108 27 109 28 110
REMARK H PARENT 101 28 67 39 23 96
REMARK Flexibility Score: inf
ROOT
ATOM      1  C   UNL     1       4.176   6.434  -2.728  1.00  0.00     0.188 C 
ENDROOT
BRANCH   1   2
ATOM      2  O   UNL     1       3.685   6.920  -3.957  1.00  0.00    -0.377 OA
BRANCH   2   3
ATOM      3  C   UNL     1       3.021   5.977  -4.792  1.00  0.00     0.188 C 
BRANCH   3   4
ATOM      4  C   UNL     1       3.737   4.636  -5.047  1.00  0.00     0.188 C 
BRANCH   4   5
ATOM      5  O   UNL     1       3.947   3.969  -3.813  1.00  0.00    -0.376 OA
BRANCH   5   6
ATOM      6  C   UNL     1       5.034   3.076  -3.669  1.00  0.00     0.202 C 
BRANCH   6   7
ATOM      7  C   UNL     1       6.512   3.515  -3.793  1.00  0.00     0.261 C 
BRANCH   7   8
ATOM      8  O   UNL     1       6.855   4.914  -3.800  1.00  0.00    -0.460 OA
BRANCH   8   9
ATOM      9  C   UNL     1       7.299   5.699  -4.815  1.00  0.00     0.338 C 
ATOM     10  O   UNL     1       7.820   6.787  -4.591  1.00  0.00    -0.246 OA
BRANCH   9  11
ATOM     11  C   UNL     1       6.964   5.332  -6.202  1.00  0.00     0.060 A 
ATOM     12  C   UNL     1       7.238   4.068  -6.721  1.00  0.00     0.016 A 
ATOM     13  C   UNL     1       6.303   6.296  -6.984  1.00  0.00     0.016 A 
ATOM     14  C   UNL     1       6.737   3.716  -7.957  1.00  0.00     0.010 A 
ATOM     15  C   UNL     1       5.847   5.963  -8.253  1.00  0.00     0.010 A 
ATOM     16  C   UNL     1       6.071   4.670  -8.728  1.00  0.00    -0.014 A 
BRANCH  16  17
ATOM     17  C   UNL     1       5.805   4.267 -10.098  1.00  0.00     0.031 A 
ATOM     18  C   UNL     1       4.766   3.227 -10.324  1.00  0.00     0.074 A 
ATOM     19  C   UNL     1       6.588   4.751 -11.079  1.00  0.00     0.049 A 
ATOM     20  N   UNL     1       4.922   2.018 -10.763  1.00  0.00    -0.248 NA
ATOM     21  C   UNL     1       3.388   3.540  -9.921  1.00  0.00     0.031 C 
ATOM     22  C   UNL     1       7.489   5.908 -11.016  1.00  0.00     0.029 A 
ATOM     23  N   UNL     1       6.684   4.347 -12.371  1.00  0.00    -0.354 N 
ATOM     24  C   UNL     1       3.639   1.486 -10.898  1.00  0.00     0.074 A 
ATOM     25  C   UNL     1       2.755   2.408 -10.233  1.00  0.00     0.031 C 
ATOM     26  C   UNL     1       7.862   6.242 -12.268  1.00  0.00     0.029 A 
ATOM     27  C   UNL     1       7.331   5.255 -13.191  1.00  0.00     0.049 A 
ATOM     28  H   UNL     1       6.327   3.489 -12.694  1.00  0.00     0.167 HD
ATOM     29  C   UNL     1       3.375   0.437 -11.728  1.00  0.00     0.037 A 
ATOM     30  C   UNL     1       7.327   5.256 -14.544  1.00  0.00     0.037 A 
ATOM     31  C   UNL     1       4.562  -0.335 -11.996  1.00  0.00     0.049 A 
ATOM     32  C   UNL     1       7.027   3.870 -14.989  1.00  0.00     0.074 A 
ATOM     33  C   UNL     1       5.454  -1.050 -11.219  1.00  0.00     0.029 A 
ATOM     34  N   UNL     1       5.167  -0.206 -13.223  1.00  0.00    -0.354 N 
ATOM     35  N   UNL     1       7.829   2.854 -14.803  1.00  0.00    -0.248 NA
ATOM     36  C   UNL     1       5.642   3.519 -15.264  1.00  0.00     0.031 C 
ATOM     37  C   UNL     1       6.718  -0.893 -11.858  1.00  0.00     0.029 A 
ATOM     38  C   UNL     1       6.517  -0.119 -13.002  1.00  0.00     0.049 A 
ATOM     39  H   UNL     1       4.715  -0.181 -14.098  1.00  0.00     0.167 HD
ATOM     40  C   UNL     1       6.994   1.778 -14.534  1.00  0.00     0.074 A 
ATOM     41  C   UNL     1       5.663   2.225 -14.935  1.00  0.00     0.031 C 
ATOM     42  C   UNL     1       7.408   0.728 -13.764  1.00  0.00     0.037 A 
BRANCH  29  43
ATOM     43  C   UNL     1       2.126   0.325 -12.585  1.00  0.00     0.058 A 
ATOM     44  C   UNL     1       1.936  -0.821 -13.390  1.00  0.00     0.135 A 
ATOM     45  C   UNL     1       1.281   1.417 -12.887  1.00  0.00     0.135 A 
ATOM     46  F   UNL     1       2.660  -1.932 -13.183  1.00  0.00    -0.206 F 
ATOM     47  C   UNL     1       1.071  -0.833 -14.487  1.00  0.00     0.059 A 
ATOM     48  C   UNL     1       0.378   1.409 -13.944  1.00  0.00     0.059 A 
ATOM     49  F   UNL     1       1.353   2.584 -12.239  1.00  0.00    -0.206 F 
ATOM     50  C   UNL     1       0.324   0.304 -14.775  1.00  0.00     0.060 A 
BRANCH  50  51
ATOM     51  S   UNL     1      -0.646   0.373 -16.292  1.00  0.00     0.124 S 
ATOM     52  O   UNL     1       0.406   0.445 -17.299  1.00  0.00    -0.237 OA
ATOM     53  O   UNL     1      -1.393  -0.879 -16.233  1.00  0.00    -0.237 OA
ATOM     54  O   UNL     1      -1.445   1.583 -16.122  1.00  0.00    -0.744 OA
ENDBRANCH  50  51
ENDBRANCH  29  43
BRANCH  30  55
ATOM     55  C   UNL     1       7.159   6.464 -15.390  1.00  0.00     0.058 A 
ATOM     56  C   UNL     1       7.415   6.433 -16.768  1.00  0.00     0.135 A 
ATOM     57  C   UNL     1       6.514   7.623 -14.902  1.00  0.00     0.135 A 
ATOM     58  F   UNL     1       7.991   5.355 -17.322  1.00  0.00    -0.206 F 
ATOM     59  C   UNL     1       7.033   7.479 -17.617  1.00  0.00     0.059 A 
ATOM     60  C   UNL     1       6.146   8.684 -15.721  1.00  0.00     0.059 A 
ATOM     61  F   UNL     1       6.139   7.727 -13.618  1.00  0.00    -0.206 F 
ATOM     62  C   UNL     1       6.389   8.596 -17.083  1.00  0.00     0.060 A 
BRANCH  62  63
ATOM     63  S   UNL     1       5.763   9.881 -18.187  1.00  0.00     0.124 S 
ATOM     64  O   UNL     1       6.998  10.488 -18.672  1.00  0.00    -0.237 OA
ATOM     65  O   UNL     1       5.005   9.106 -19.163  1.00  0.00    -0.237 OA
ATOM     66  O   UNL     1       4.959  10.725 -17.305  1.00  0.00    -0.744 OA
ENDBRANCH  62  63
ENDBRANCH  30  55
BRANCH  42  67
ATOM     67  C   UNL     1       8.878   0.602 -13.460  1.00  0.00     0.058 A 
ATOM     68  C   UNL     1       9.592   1.522 -12.673  1.00  0.00     0.135 A 
ATOM     69  C   UNL     1       9.544  -0.576 -13.832  1.00  0.00     0.135 A 
ATOM     70  F   UNL     1       8.993   2.616 -12.180  1.00  0.00    -0.206 F 
ATOM     71  C   UNL     1      10.921   1.301 -12.307  1.00  0.00     0.059 A 
ATOM     72  C   UNL     1      10.860  -0.832 -13.453  1.00  0.00     0.059 A 
ATOM     73  F   UNL     1       8.893  -1.527 -14.523  1.00  0.00    -0.206 F 
ATOM     74  C   UNL     1      11.546   0.117 -12.699  1.00  0.00     0.060 A 
BRANCH  74  75
ATOM     75  S   UNL     1      13.230  -0.209 -12.132  1.00  0.00     0.124 S 
ATOM     76  O   UNL     1      14.015   0.693 -12.963  1.00  0.00    -0.237 OA
ATOM     77  O   UNL     1      13.160   0.129 -10.714  1.00  0.00    -0.237 OA
ATOM     78  O   UNL     1      13.411  -1.636 -12.412  1.00  0.00    -0.744 OA
ENDBRANCH  74  75
ENDBRANCH  42  67
ENDBRANCH  16  17
ENDBRANCH   9  11
ENDBRANCH   8   9
ENDBRANCH   7   8
ENDBRANCH   6   7
ENDBRANCH   5   6
ENDBRANCH   4   5
ENDBRANCH   3   4
ENDBRANCH   2   3
ENDBRANCH   1   2
BRANCH   1  79
ATOM     79  C   UNL     1       3.254   5.880  -1.626  1.00  0.00     0.188 C 
BRANCH  79  80
ATOM     80  O   UNL     1       1.856   5.755  -1.780  1.00  0.00    -0.376 OA
BRANCH  80  81
ATOM     81  C   UNL     1       1.274   5.071  -0.638  1.00  0.00     0.202 C 
BRANCH  81  82
ATOM     82  C   UNL     1       1.618   5.598   0.794  1.00  0.00     0.261 C 
BRANCH  82  83
ATOM     83  O   UNL     1       2.829   5.061   1.439  1.00  0.00    -0.462 OA
BRANCH  83  84
ATOM     84  C   UNL     1       2.977   5.441   2.754  1.00  0.00     0.328 C 
ATOM     85  O   UNL     1       2.006   5.825   3.416  1.00  0.00    -0.250 OA
BRANCH  84  86
ATOM     86  C   UNL     1       4.442   5.570   3.383  1.00  0.00     0.195 C 
ATOM     87  C   UNL     1       5.730   4.710   3.184  1.00  0.00     0.046 C 
ATOM     88  N   UNL     1       4.993   6.870   3.848  1.00  0.00    -0.328 N 
ATOM     89  C   UNL     1       6.963   5.574   3.711  1.00  0.00     0.001 C 
ATOM     90  C   UNL     1       6.213   6.591   4.613  1.00  0.00     0.128 C 
ATOM     91  C   UNL     1       7.839   6.414   2.731  1.00  0.00     0.071 C 
ATOM     92  C   UNL     1       7.979   4.688   4.454  1.00  0.00     0.071 C 
ATOM     93  C   UNL     1       8.876   5.687   1.865  1.00  0.00     0.270 C 
ATOM     94  C   UNL     1       8.803   3.843   3.469  1.00  0.00     0.270 C 
ATOM     95  N   UNL     1       9.621   4.663   2.571  1.00  0.00    -0.272 N 
ATOM     96  H   UNL     1      10.580   4.843   2.702  1.00  0.00     0.356 HD
BRANCH  88  97
ATOM     97  C   UNL     1       4.865   8.127   3.285  1.00  0.00     0.225 C 
ATOM     98  O   UNL     1       5.510   9.092   3.710  1.00  0.00    -0.275 OA
BRANCH  97  99
ATOM     99  C   UNL     1       3.962   8.361   2.102  1.00  0.00     0.124 C 
BRANCH  99 100
ATOM    100  C   UNL     1       4.763   8.466   0.801  1.00  0.00     0.154 C 
BRANCH 100 101
ATOM    101  N   UNL     1       5.522   7.298   0.389  1.00  0.00    -0.272 N 
ATOM    102  C   UNL     1       6.624   7.250  -0.419  1.00  0.00     0.108 A 
ATOM    103  N   UNL     1       5.090   6.074   0.700  1.00  0.00    -0.182 NA
ATOM    104  C   UNL     1       6.835   5.921  -0.716  1.00  0.00     0.042 A 
ATOM    105  C   UNL     1       5.843   5.239  -0.014  1.00  0.00     0.135 A 
ENDBRANCH 100 101
ENDBRANCH  99 100
ENDBRANCH  97  99
ENDBRANCH  88  97
BRANCH  95 106
ATOM    106  C   UNL     1      10.886   4.162   2.217  1.00  0.00     0.315 C 
ATOM    107  O   UNL     1      11.296   3.119   2.729  1.00  0.00    -0.231 OA
BRANCH 106 108
ATOM    108  C   UNL     1      11.848   4.798   1.254  1.00  0.00     0.119 C 
ATOM    109  C   UNL     1      11.587   5.638   0.038  1.00  0.00     0.019 C 
ATOM    110  C   UNL     1      12.193   6.265   1.267  1.00  0.00     0.019 C 
ENDBRANCH 106 108
ENDBRANCH  95 106
ENDBRANCH  84  86
ENDBRANCH  83  84
ENDBRANCH  82  83
ENDBRANCH  81  82
ENDBRANCH  80  81
ENDBRANCH  79  80
ENDBRANCH   1  79
TORSDOF 29
