REMARK SMILES CC1(C)CCCN(c2cncc(C(=O)OCCOCCOCCOCCOC(=O)c3ccc(-c4c5nc(c(-c6c(F)cc(S(=O)(=O)[O-])cc6F)c6ccc([nH]6)c(-c6c(F)cc(S(=O)(=O)[O-])cc6F)c6nc(c(-c7c(F)cc(S(=O)(=O)[O-])cc7F)c7ccc4[nH]7)C=C6)C=C5)cc3)n2)CC1
REMARK SMILES IDX 20 1 19 2 18 3 17 4 16 5 15 6 13 7 14 8 12 9 8 10 9 11 96 12
REMARK SMILES IDX 10 13 11 14 7 15 6 16 5 17 4 18 2 19 1 20 3 21 97 23 98 24
REMARK SMILES IDX 21 26 22 27 23 28 24 29 25 30 26 31 27 32 28 33 29 34 30 35
REMARK SMILES IDX 31 36 95 37 32 38 94 39 33 40 34 41 35 42 88 43 36 44 93 45
REMARK SMILES IDX 87 46 89 47 37 48 92 49 86 50 85 51 38 53 72 54 51 55 71 56
REMARK SMILES IDX 52 57 55 58 70 59 90 60 53 61 54 62 69 64 91 65 56 66 39 67
REMARK SMILES IDX 40 68 49 69 41 70 42 71 48 72 50 73 43 74 44 75 45 76 46 77
REMARK SMILES IDX 47 78 73 79 74 80 83 81 75 82 76 83 82 84 84 85 77 86 78 87
REMARK SMILES IDX 79 88 80 89 81 90 57 91 58 92 67 93 59 94 60 95 66 96 68 97
REMARK SMILES IDX 61 98 62 99 63 100 64 101 65 102
REMARK H PARENT 89 52 55 63
REMARK Flexibility Score: 80.00
ROOT
ATOM      1  C   UNL     1       2.539   6.661  -6.140  1.00  0.00     0.188 C 
ENDROOT
BRANCH   1   2
ATOM      2  C   UNL     1       2.572   8.199  -6.337  1.00  0.00     0.188 C 
BRANCH   2   3
ATOM      3  O   UNL     1       3.854   8.790  -6.257  1.00  0.00    -0.376 OA
BRANCH   3   4
ATOM      4  C   UNL     1       4.209   9.572  -5.135  1.00  0.00     0.202 C 
BRANCH   4   5
ATOM      5  C   UNL     1       4.242   8.889  -3.762  1.00  0.00     0.261 C 
BRANCH   5   6
ATOM      6  O   UNL     1       3.103   8.081  -3.439  1.00  0.00    -0.458 OA
BRANCH   6   7
ATOM      7  C   UNL     1       1.939   8.711  -3.153  1.00  0.00     0.358 C 
ATOM      8  O   UNL     1       1.744   9.915  -3.162  1.00  0.00    -0.244 OA
BRANCH   7   9
ATOM      9  C   UNL     1       0.871   7.684  -3.088  1.00  0.00     0.169 A 
ATOM     10  C   UNL     1       0.192   5.545  -2.512  1.00  0.00     0.148 A 
ATOM     11  C   UNL     1      -0.907   5.734  -3.365  1.00  0.00     0.157 A 
ATOM     12  N   UNL     1       1.102   6.541  -2.391  1.00  0.00    -0.221 NA
ATOM     13  N   UNL     1      -1.162   6.878  -4.059  1.00  0.00    -0.258 NA
ATOM     14  C   UNL     1      -0.246   7.857  -3.886  1.00  0.00     0.147 A 
BRANCH  10  15
ATOM     15  N   UNL     1       0.353   4.392  -1.752  1.00  0.00    -0.355 N 
BRANCH  15  16
ATOM     16  C   UNL     1       1.099   4.531  -0.509  1.00  0.00     0.118 C 
BRANCH  16  17
ATOM     17  C   UNL     1       0.366   3.849   0.644  1.00  0.00     0.022 C 
BRANCH  17  18
ATOM     18  C   UNL     1       0.759   2.386   0.810  1.00  0.00     0.008 C 
BRANCH  18  19
ATOM     19  C   UNL     1       0.288   1.420  -0.299  1.00  0.00    -0.034 CG0
ATOM     20  C   UNL     1       0.963   0.055  -0.021  1.00  0.00     0.011 C 
ATOM     21  C   UNL     1      -1.235   1.203  -0.214  1.00  0.00     0.011 C 
ATOM     22  G   UNL     1       0.720   1.886  -1.714  1.00  0.00     0.000 G0
ENDBRANCH  18  19
ENDBRANCH  17  18
ENDBRANCH  16  17
ENDBRANCH  15  16
BRANCH  15  23
ATOM     23  C   UNL     1      -0.006   3.096  -2.318  1.00  0.00     0.118 C 
BRANCH  23  24
ATOM     24  C   UNL     1       0.720   1.886  -1.714  1.00  0.00     0.028 CG0
ATOM     25  G   UNL     1       0.288   1.420  -0.299  1.00  0.00     0.000 G0
ENDBRANCH  23  24
ENDBRANCH  15  23
ENDBRANCH  10  15
ENDBRANCH   7   9
ENDBRANCH   6   7
ENDBRANCH   5   6
ENDBRANCH   4   5
ENDBRANCH   3   4
ENDBRANCH   2   3
ENDBRANCH   1   2
BRANCH   1  26
ATOM     26  O   UNL     1       3.675   5.817  -6.321  1.00  0.00    -0.377 OA
BRANCH  26  27
ATOM     27  C   UNL     1       4.926   6.389  -6.668  1.00  0.00     0.188 C 
BRANCH  27  28
ATOM     28  C   UNL     1       4.980   7.042  -8.064  1.00  0.00     0.188 C 
BRANCH  28  29
ATOM     29  O   UNL     1       3.701   7.139  -8.676  1.00  0.00    -0.376 OA
BRANCH  29  30
ATOM     30  C   UNL     1       3.361   6.170  -9.652  1.00  0.00     0.202 C 
BRANCH  30  31
ATOM     31  C   UNL     1       3.443   4.672  -9.310  1.00  0.00     0.261 C 
BRANCH  31  32
ATOM     32  O   UNL     1       4.651   4.200  -8.695  1.00  0.00    -0.460 OA
BRANCH  32  33
ATOM     33  C   UNL     1       5.785   4.222  -9.424  1.00  0.00     0.338 C 
ATOM     34  O   UNL     1       5.909   4.603 -10.578  1.00  0.00    -0.246 OA
BRANCH  33  35
ATOM     35  C   UNL     1       6.901   3.884  -8.514  1.00  0.00     0.060 A 
ATOM     36  C   UNL     1       7.910   4.830  -8.285  1.00  0.00     0.016 A 
ATOM     37  C   UNL     1       6.936   2.646  -7.868  1.00  0.00     0.016 A 
ATOM     38  C   UNL     1       8.971   4.526  -7.431  1.00  0.00     0.010 A 
ATOM     39  C   UNL     1       8.012   2.334  -7.032  1.00  0.00     0.010 A 
ATOM     40  C   UNL     1       9.051   3.261  -6.834  1.00  0.00    -0.014 A 
BRANCH  40  41
ATOM     41  C   UNL     1      10.307   2.841  -6.163  1.00  0.00     0.031 A 
ATOM     42  C   UNL     1      11.277   1.989  -6.940  1.00  0.00     0.074 A 
ATOM     43  C   UNL     1      10.598   3.228  -4.908  1.00  0.00     0.049 A 
ATOM     44  N   UNL     1      12.406   1.455  -6.556  1.00  0.00    -0.248 NA
ATOM     45  C   UNL     1      10.923   1.703  -8.342  1.00  0.00     0.031 C 
ATOM     46  C   UNL     1       9.761   4.085  -4.070  1.00  0.00     0.029 A 
ATOM     47  N   UNL     1      11.682   2.941  -4.114  1.00  0.00    -0.354 N 
ATOM     48  C   UNL     1      12.898   0.775  -7.664  1.00  0.00     0.074 A 
ATOM     49  C   UNL     1      11.928   0.930  -8.725  1.00  0.00     0.031 C 
ATOM     50  C   UNL     1      10.354   4.239  -2.872  1.00  0.00     0.029 A 
ATOM     51  C   UNL     1      11.595   3.466  -2.846  1.00  0.00     0.049 A 
ATOM     52  H   UNL     1      12.450   2.408  -4.425  1.00  0.00     0.167 HD
ATOM     53  C   UNL     1      14.062   0.096  -7.791  1.00  0.00     0.037 A 
ATOM     54  C   UNL     1      12.410   3.315  -1.782  1.00  0.00     0.037 A 
ATOM     55  C   UNL     1      15.024  -0.058  -6.732  1.00  0.00     0.049 A 
ATOM     56  C   UNL     1      13.660   2.479  -1.926  1.00  0.00     0.074 A 
ATOM     57  C   UNL     1      16.232  -0.734  -6.759  1.00  0.00     0.029 A 
ATOM     58  N   UNL     1      14.889   0.469  -5.456  1.00  0.00    -0.354 N 
ATOM     59  N   UNL     1      14.121   1.853  -2.984  1.00  0.00    -0.248 NA
ATOM     60  C   UNL     1      14.505   2.332  -0.731  1.00  0.00     0.031 C 
ATOM     61  C   UNL     1      16.804  -0.657  -5.486  1.00  0.00     0.029 A 
ATOM     62  C   UNL     1      15.983   0.118  -4.683  1.00  0.00     0.049 A 
ATOM     63  H   UNL     1      14.129   1.012  -5.146  1.00  0.00     0.167 HD
ATOM     64  C   UNL     1      15.324   1.272  -2.591  1.00  0.00     0.074 A 
ATOM     65  C   UNL     1      15.528   1.635  -1.204  1.00  0.00     0.031 C 
ATOM     66  C   UNL     1      16.183   0.506  -3.309  1.00  0.00     0.037 A 
BRANCH  53  67
ATOM     67  C   UNL     1      14.366  -0.538  -9.120  1.00  0.00     0.058 A 
ATOM     68  C   UNL     1      14.715   0.233 -10.240  1.00  0.00     0.135 A 
ATOM     69  C   UNL     1      14.380  -1.936  -9.257  1.00  0.00     0.135 A 
ATOM     70  F   UNL     1      14.694   1.574 -10.171  1.00  0.00    -0.206 F 
ATOM     71  C   UNL     1      15.065  -0.358 -11.449  1.00  0.00     0.059 A 
ATOM     72  C   UNL     1      14.754  -2.549 -10.449  1.00  0.00     0.059 A 
ATOM     73  F   UNL     1      14.046  -2.720  -8.220  1.00  0.00    -0.206 F 
ATOM     74  C   UNL     1      15.092  -1.751 -11.541  1.00  0.00     0.060 A 
BRANCH  74  75
ATOM     75  S   UNL     1      15.599  -2.500 -13.103  1.00  0.00     0.124 S 
ATOM     76  O   UNL     1      14.470  -2.168 -13.966  1.00  0.00    -0.237 OA
ATOM     77  O   UNL     1      16.845  -1.798 -13.392  1.00  0.00    -0.237 OA
ATOM     78  O   UNL     1      15.741  -3.914 -12.773  1.00  0.00    -0.744 OA
ENDBRANCH  74  75
ENDBRANCH  53  67
BRANCH  54  79
ATOM     79  C   UNL     1      12.068   3.932  -0.469  1.00  0.00     0.058 A 
ATOM     80  C   UNL     1      12.876   4.925   0.105  1.00  0.00     0.135 A 
ATOM     81  C   UNL     1      10.955   3.494   0.269  1.00  0.00     0.135 A 
ATOM     82  F   UNL     1      13.958   5.372  -0.551  1.00  0.00    -0.206 F 
ATOM     83  C   UNL     1      12.622   5.431   1.377  1.00  0.00     0.059 A 
ATOM     84  C   UNL     1      10.660   4.010   1.527  1.00  0.00     0.059 A 
ATOM     85  F   UNL     1      10.140   2.554  -0.235  1.00  0.00    -0.206 F 
ATOM     86  C   UNL     1      11.512   4.962   2.083  1.00  0.00     0.060 A 
BRANCH  86  87
ATOM     87  S   UNL     1      11.191   5.620   3.733  1.00  0.00     0.124 S 
ATOM     88  O   UNL     1      12.252   4.992   4.511  1.00  0.00    -0.237 OA
ATOM     89  O   UNL     1      11.321   7.058   3.519  1.00  0.00    -0.237 OA
ATOM     90  O   UNL     1       9.837   5.157   4.021  1.00  0.00    -0.744 OA
ENDBRANCH  86  87
ENDBRANCH  54  79
BRANCH  66  91
ATOM     91  C   UNL     1      17.450   0.053  -2.632  1.00  0.00     0.058 A 
ATOM     92  C   UNL     1      17.444  -0.912  -1.613  1.00  0.00     0.135 A 
ATOM     93  C   UNL     1      18.694   0.559  -3.046  1.00  0.00     0.135 A 
ATOM     94  F   UNL     1      16.284  -1.427  -1.176  1.00  0.00    -0.206 F 
ATOM     95  C   UNL     1      18.622  -1.335  -1.005  1.00  0.00     0.059 A 
ATOM     96  C   UNL     1      19.887   0.125  -2.476  1.00  0.00     0.059 A 
ATOM     97  F   UNL     1      18.761   1.473  -4.027  1.00  0.00    -0.206 F 
ATOM     98  C   UNL     1      19.840  -0.812  -1.445  1.00  0.00     0.060 A 
BRANCH  98  99
ATOM     99  S   UNL     1      21.361  -1.389  -0.664  1.00  0.00     0.124 S 
ATOM    100  O   UNL     1      21.281  -0.750   0.645  1.00  0.00    -0.237 OA
ATOM    101  O   UNL     1      21.187  -2.838  -0.675  1.00  0.00    -0.237 OA
ATOM    102  O   UNL     1      22.410  -0.883  -1.546  1.00  0.00    -0.744 OA
ENDBRANCH  98  99
ENDBRANCH  66  91
ENDBRANCH  40  41
ENDBRANCH  33  35
ENDBRANCH  32  33
ENDBRANCH  31  32
ENDBRANCH  30  31
ENDBRANCH  29  30
ENDBRANCH  28  29
ENDBRANCH  27  28
ENDBRANCH  26  27
ENDBRANCH   1  26
TORSDOF 24
