REMARK SMILES CCOc1cc(NC(=O)c2c(C(=O)OCCOCCOCCOCCOC(=O)c3ccc(-c4c5nc(c(-c6c(F)cc(S(=O)(=O)[O-])cc6F)c6ccc([nH]6)c(-c6c(F)cc(S(=O)(=O)[O-])cc6F)c6nc(c(-c7c(F)cc(S(=O)(=O)[O-])cc7F)c7ccc4[nH]7)C=C6)C=C5)cc3)cnn2C)ccc1OC(F)F
REMARK SMILES IDX 19 1 18 2 17 3 16 4 15 5 14 6 12 7 13 8 11 9 10 10 97 11
REMARK SMILES IDX 95 12 96 13 98 14 8 15 7 16 9 18 6 19 4 20 5 21 101 22
REMARK SMILES IDX 100 23 99 24 3 25 2 26 1 27 102 28 103 29 104 30 105 31
REMARK SMILES IDX 20 32 21 33 22 34 23 35 24 36 25 37 26 38 27 39 28 40 29 41
REMARK SMILES IDX 30 42 94 43 31 44 93 45 32 46 33 47 34 48 87 49 35 50 92 51
REMARK SMILES IDX 86 52 88 53 36 54 91 55 85 56 84 57 37 59 71 60 50 61 70 62
REMARK SMILES IDX 51 63 54 64 69 65 89 66 52 67 53 68 68 70 90 71 55 72 38 73
REMARK SMILES IDX 39 74 48 75 40 76 41 77 47 78 49 79 42 80 43 81 44 82 45 83
REMARK SMILES IDX 46 84 72 85 73 86 82 87 74 88 75 89 81 90 83 91 76 92 77 93
REMARK SMILES IDX 78 94 79 95 80 96 56 97 57 98 66 99 58 100 59 101 65 102
REMARK SMILES IDX 67 103 60 104 61 105 62 106 63 107 64 108
REMARK H PARENT 7 17 88 58 54 69
REMARK Flexibility Score: inf
ROOT
ATOM      1  C   UNL     1       0.811  -6.769  -2.730  1.00  0.00     0.188 C 
ENDROOT
BRANCH   1   2
ATOM      2  C   UNL     1      -0.090  -7.624  -3.636  1.00  0.00     0.188 C 
BRANCH   2   3
ATOM      3  O   UNL     1       0.421  -8.923  -3.924  1.00  0.00    -0.376 OA
BRANCH   3   4
ATOM      4  C   UNL     1       0.923  -9.116  -5.242  1.00  0.00     0.202 C 
BRANCH   4   5
ATOM      5  C   UNL     1       2.305  -8.500  -5.482  1.00  0.00     0.261 C 
BRANCH   5   6
ATOM      6  O   UNL     1       2.342  -7.072  -5.339  1.00  0.00    -0.460 OA
BRANCH   6   7
ATOM      7  C   UNL     1       1.632  -6.339  -6.236  1.00  0.00     0.342 C 
ATOM      8  O   UNL     1       0.971  -6.806  -7.143  1.00  0.00    -0.246 OA
BRANCH   7   9
ATOM      9  C   UNL     1       1.617  -4.922  -5.906  1.00  0.00     0.111 A 
ATOM     10  C   UNL     1       2.581  -4.152  -5.257  1.00  0.00     0.140 A 
ATOM     11  N   UNL     1       2.134  -2.862  -5.394  1.00  0.00    -0.262 N 
ATOM     12  C   UNL     1       0.573  -4.022  -6.195  1.00  0.00     0.151 A 
ATOM     13  N   UNL     1       0.855  -2.775  -5.818  1.00  0.00    -0.180 NA
ATOM     14  C   UNL     1       2.893  -1.638  -5.282  1.00  0.00     0.174 C 
BRANCH  10  15
ATOM     15  C   UNL     1       3.881  -4.572  -4.810  1.00  0.00     0.274 C 
ATOM     16  N   UNL     1       4.465  -4.132  -3.649  1.00  0.00    -0.321 N 
ATOM     17  H   UNL     1       5.404  -4.421  -3.591  1.00  0.00     0.170 HD
ATOM     18  O   UNL     1       4.572  -5.316  -5.511  1.00  0.00    -0.267 OA
BRANCH  16  19
ATOM     19  C   UNL     1       4.093  -3.383  -2.518  1.00  0.00     0.045 A 
ATOM     20  C   UNL     1       2.590  -2.179  -1.014  1.00  0.00     0.163 A 
ATOM     21  C   UNL     1       2.809  -2.948  -2.182  1.00  0.00     0.076 A 
ATOM     22  C   UNL     1       3.643  -1.917  -0.129  1.00  0.00     0.168 A 
ATOM     23  C   UNL     1       4.918  -2.376  -0.456  1.00  0.00     0.053 A 
ATOM     24  C   UNL     1       5.141  -3.084  -1.638  1.00  0.00     0.030 A 
BRANCH  20  25
ATOM     25  O   UNL     1       1.322  -1.778  -0.681  1.00  0.00    -0.490 OA
BRANCH  25  26
ATOM     26  C   UNL     1       0.691  -0.984  -1.693  1.00  0.00     0.226 C 
ATOM     27  C   UNL     1      -0.246   0.005  -1.016  1.00  0.00     0.049 C 
ENDBRANCH  25  26
ENDBRANCH  20  25
BRANCH  22  28
ATOM     28  O   UNL     1       3.591  -1.317   1.096  1.00  0.00    -0.431 OA
BRANCH  28  29
ATOM     29  C   UNL     1       2.670  -0.262   1.322  1.00  0.00     0.542 C 
ATOM     30  F   UNL     1       2.588   0.550   0.242  1.00  0.00    -0.167 F 
ATOM     31  F   UNL     1       1.445  -0.751   1.617  1.00  0.00    -0.167 F 
ENDBRANCH  28  29
ENDBRANCH  22  28
ENDBRANCH  16  19
ENDBRANCH  10  15
ENDBRANCH   7   9
ENDBRANCH   6   7
ENDBRANCH   5   6
ENDBRANCH   4   5
ENDBRANCH   3   4
ENDBRANCH   2   3
ENDBRANCH   1   2
BRANCH   1  32
ATOM     32  O   UNL     1       2.039  -7.335  -2.313  1.00  0.00    -0.377 OA
BRANCH  32  33
ATOM     33  C   UNL     1       2.045  -8.562  -1.591  1.00  0.00     0.188 C 
BRANCH  33  34
ATOM     34  C   UNL     1       0.756  -9.169  -0.998  1.00  0.00     0.188 C 
BRANCH  34  35
ATOM     35  O   UNL     1      -0.242  -8.222  -0.632  1.00  0.00    -0.376 OA
BRANCH  35  36
ATOM     36  C   UNL     1      -0.435  -8.029   0.764  1.00  0.00     0.202 C 
BRANCH  36  37
ATOM     37  C   UNL     1       0.621  -7.119   1.397  1.00  0.00     0.261 C 
BRANCH  37  38
ATOM     38  O   UNL     1       1.944  -7.675   1.423  1.00  0.00    -0.460 OA
BRANCH  38  39
ATOM     39  C   UNL     1       2.108  -8.822   2.118  1.00  0.00     0.338 C 
ATOM     40  O   UNL     1       1.267  -9.425   2.760  1.00  0.00    -0.246 OA
BRANCH  39  41
ATOM     41  C   UNL     1       3.462  -9.328   1.835  1.00  0.00     0.060 A 
ATOM     42  C   UNL     1       3.608 -10.630   1.342  1.00  0.00     0.016 A 
ATOM     43  C   UNL     1       4.577  -8.519   2.067  1.00  0.00     0.016 A 
ATOM     44  C   UNL     1       4.885 -11.143   1.118  1.00  0.00     0.010 A 
ATOM     45  C   UNL     1       5.853  -9.039   1.856  1.00  0.00     0.010 A 
ATOM     46  C   UNL     1       6.011 -10.363   1.414  1.00  0.00    -0.014 A 
BRANCH  46  47
ATOM     47  C   UNL     1       7.354 -10.983   1.451  1.00  0.00     0.031 A 
ATOM     48  C   UNL     1       7.857 -11.510   2.765  1.00  0.00     0.074 A 
ATOM     49  C   UNL     1       8.116 -11.060   0.347  1.00  0.00     0.049 A 
ATOM     50  N   UNL     1       9.010 -12.052   3.055  1.00  0.00    -0.248 NA
ATOM     51  C   UNL     1       6.935 -11.403   3.909  1.00  0.00     0.031 C 
ATOM     52  C   UNL     1       7.728 -10.596  -0.984  1.00  0.00     0.029 A 
ATOM     53  N   UNL     1       9.387 -11.546   0.179  1.00  0.00    -0.354 N 
ATOM     54  C   UNL     1       8.953 -12.352   4.410  1.00  0.00     0.074 A 
ATOM     55  C   UNL     1       7.665 -11.905   4.893  1.00  0.00     0.031 C 
ATOM     56  C   UNL     1       8.751 -10.806  -1.832  1.00  0.00     0.029 A 
ATOM     57  C   UNL     1       9.869 -11.398  -1.098  1.00  0.00     0.049 A 
ATOM     58  H   UNL     1       9.905 -11.962   0.906  1.00  0.00     0.167 HD
ATOM     59  C   UNL     1       9.888 -12.954   5.183  1.00  0.00     0.037 A 
ATOM     60  C   UNL     1      11.081 -11.692  -1.609  1.00  0.00     0.037 A 
ATOM     61  C   UNL     1      11.174 -13.381   4.705  1.00  0.00     0.049 A 
ATOM     62  C   UNL     1      12.128 -12.311  -0.719  1.00  0.00     0.074 A 
ATOM     63  C   UNL     1      12.187 -14.015   5.403  1.00  0.00     0.029 A 
ATOM     64  N   UNL     1      11.631 -13.204   3.407  1.00  0.00    -0.354 N 
ATOM     65  N   UNL     1      12.049 -12.627   0.552  1.00  0.00    -0.248 NA
ATOM     66  C   UNL     1      13.428 -12.616  -1.333  1.00  0.00     0.031 C 
ATOM     67  C   UNL     1      13.272 -14.187   4.535  1.00  0.00     0.029 A 
ATOM     68  C   UNL     1      12.919 -13.697   3.287  1.00  0.00     0.049 A 
ATOM     69  H   UNL     1      11.115 -12.790   2.678  1.00  0.00     0.167 HD
ATOM     70  C   UNL     1      13.278 -13.188   0.884  1.00  0.00     0.074 A 
ATOM     71  C   UNL     1      14.081 -13.174  -0.322  1.00  0.00     0.031 C 
ATOM     72  C   UNL     1      13.703 -13.675   2.077  1.00  0.00     0.037 A 
BRANCH  59  73
ATOM     73  C   UNL     1       9.549 -13.154   6.632  1.00  0.00     0.058 A 
ATOM     74  C   UNL     1       8.617 -14.121   7.041  1.00  0.00     0.135 A 
ATOM     75  C   UNL     1      10.151 -12.361   7.621  1.00  0.00     0.135 A 
ATOM     76  F   UNL     1       7.996 -14.890   6.131  1.00  0.00    -0.206 F 
ATOM     77  C   UNL     1       8.267 -14.272   8.378  1.00  0.00     0.059 A 
ATOM     78  C   UNL     1       9.833 -12.511   8.967  1.00  0.00     0.059 A 
ATOM     79  F   UNL     1      11.044 -11.418   7.281  1.00  0.00    -0.206 F 
ATOM     80  C   UNL     1       8.876 -13.456   9.334  1.00  0.00     0.060 A 
BRANCH  80  81
ATOM     81  S   UNL     1       8.396 -13.643  11.064  1.00  0.00     0.124 S 
ATOM     82  O   UNL     1       7.101 -12.970  11.079  1.00  0.00    -0.237 OA
ATOM     83  O   UNL     1       8.358 -15.092  11.226  1.00  0.00    -0.237 OA
ATOM     84  O   UNL     1       9.466 -12.962  11.787  1.00  0.00    -0.744 OA
ENDBRANCH  80  81
ENDBRANCH  59  73
BRANCH  60  85
ATOM     85  C   UNL     1      11.370 -11.402  -3.037  1.00  0.00     0.058 A 
ATOM     86  C   UNL     1      11.473 -12.437  -3.978  1.00  0.00     0.135 A 
ATOM     87  C   UNL     1      11.531 -10.084  -3.491  1.00  0.00     0.135 A 
ATOM     88  F   UNL     1      11.338 -13.713  -3.588  1.00  0.00    -0.206 F 
ATOM     89  C   UNL     1      11.732 -12.177  -5.319  1.00  0.00     0.059 A 
ATOM     90  C   UNL     1      11.771  -9.797  -4.831  1.00  0.00     0.059 A 
ATOM     91  F   UNL     1      11.433  -9.060  -2.630  1.00  0.00    -0.206 F 
ATOM     92  C   UNL     1      11.876 -10.852  -5.737  1.00  0.00     0.060 A 
BRANCH  92  93
ATOM     93  S   UNL     1      12.150 -10.520  -7.492  1.00  0.00     0.124 S 
ATOM     94  O   UNL     1      13.548 -10.905  -7.648  1.00  0.00    -0.237 OA
ATOM     95  O   UNL     1      11.171 -11.397  -8.127  1.00  0.00    -0.237 OA
ATOM     96  O   UNL     1      11.871  -9.092  -7.609  1.00  0.00    -0.744 OA
ENDBRANCH  92  93
ENDBRANCH  60  85
BRANCH  72  97
ATOM     97  C   UNL     1      15.088 -14.255   2.136  1.00  0.00     0.058 A 
ATOM     98  C   UNL     1      16.227 -13.437   2.151  1.00  0.00     0.135 A 
ATOM     99  C   UNL     1      15.273 -15.643   2.244  1.00  0.00     0.135 A 
ATOM    100  F   UNL     1      16.104 -12.105   2.046  1.00  0.00    -0.206 F 
ATOM    101  C   UNL     1      17.506 -13.976   2.255  1.00  0.00     0.059 A 
ATOM    102  C   UNL     1      16.540 -16.202   2.371  1.00  0.00     0.059 A 
ATOM    103  F   UNL     1      14.213 -16.468   2.246  1.00  0.00    -0.206 F 
ATOM    104  C   UNL     1      17.652 -15.361   2.365  1.00  0.00     0.060 A 
BRANCH 104 105
ATOM    105  S   UNL     1      19.312 -16.049   2.541  1.00  0.00     0.124 S 
ATOM    106  O   UNL     1      19.810 -15.967   1.172  1.00  0.00    -0.237 OA
ATOM    107  O   UNL     1      19.933 -15.135   3.496  1.00  0.00    -0.237 OA
ATOM    108  O   UNL     1      19.069 -17.398   3.042  1.00  0.00    -0.744 OA
ENDBRANCH 104 105
ENDBRANCH  72  97
ENDBRANCH  46  47
ENDBRANCH  39  41
ENDBRANCH  38  39
ENDBRANCH  37  38
ENDBRANCH  36  37
ENDBRANCH  35  36
ENDBRANCH  34  35
ENDBRANCH  33  34
ENDBRANCH  32  33
ENDBRANCH   1  32
TORSDOF 29
