REMARK SMILES CN(CC(=O)OCCOCCOCCOCCOC(=O)c1ccc(-c2c3nc(c(-c4c(F)cc(S(=O)(=O)[O-])cc4F)c4ccc([nH]4)c(-c4c(F)cc(S(=O)(=O)[O-])cc4F)c4nc(c(-c5c(F)cc(S(=O)(=O)[O-])cc5F)c5ccc2[nH]5)C=C4)C=C3)cc1)c1nc2cc(N)ccc2[nH]1
REMARK SMILES IDX 12 1 11 2 10 3 9 4 8 5 7 6 6 7 4 8 5 9 3 10 2 11 1 12 87 13
REMARK SMILES IDX 88 14 96 15 89 16 95 17 90 19 94 20 91 21 93 22 92 23 13 26
REMARK SMILES IDX 14 27 15 28 16 29 17 30 18 31 19 32 20 33 21 34 22 35 86 36
REMARK SMILES IDX 23 37 85 38 24 39 25 40 26 41 79 42 27 43 84 44 78 45 80 46
REMARK SMILES IDX 28 47 83 48 77 49 76 50 29 52 63 53 42 54 62 55 43 56 46 57
REMARK SMILES IDX 61 58 81 59 44 60 45 61 60 63 82 64 47 65 30 66 31 67 40 68
REMARK SMILES IDX 32 69 33 70 39 71 41 72 34 73 35 74 36 75 37 76 38 77 64 78
REMARK SMILES IDX 65 79 74 80 66 81 67 82 73 83 75 84 68 85 69 86 70 87 71 88
REMARK SMILES IDX 72 89 48 90 49 91 58 92 50 93 51 94 57 95 59 96 52 97 53 98
REMARK SMILES IDX 54 99 55 100 56 101
REMARK H PARENT 96 18 92 24 92 25 80 51 46 62
REMARK Flexibility Score: inf
ROOT
ATOM      1  O   UNL     1      -2.624  -1.589  -2.597  1.00  0.00    -0.377 OA
ENDROOT
BRANCH   1   2
ATOM      2  C   UNL     1      -1.772  -2.615  -2.139  1.00  0.00     0.188 C 
BRANCH   2   3
ATOM      3  C   UNL     1      -2.414  -3.891  -1.574  1.00  0.00     0.188 C 
BRANCH   3   4
ATOM      4  O   UNL     1      -3.733  -3.879  -1.044  1.00  0.00    -0.376 OA
BRANCH   4   5
ATOM      5  C   UNL     1      -4.302  -2.640  -0.666  1.00  0.00     0.202 C 
BRANCH   5   6
ATOM      6  C   UNL     1      -3.645  -1.855   0.489  1.00  0.00     0.261 C 
BRANCH   6   7
ATOM      7  O   UNL     1      -2.200  -1.707   0.467  1.00  0.00    -0.462 OA
BRANCH   7   8
ATOM      8  C   UNL     1      -1.481  -2.530   1.281  1.00  0.00     0.325 C 
ATOM      9  O   UNL     1      -2.011  -3.301   2.083  1.00  0.00    -0.250 OA
BRANCH   8  10
ATOM     10  C   UNL     1       0.050  -2.336   1.274  1.00  0.00     0.241 C 
BRANCH  10  11
ATOM     11  N   UNL     1       0.790  -2.003   0.029  1.00  0.00    -0.334 N 
ATOM     12  C   UNL     1       1.049  -0.603  -0.263  1.00  0.00     0.147 C 
BRANCH  11  13
ATOM     13  C   UNL     1       1.196  -2.999  -0.809  1.00  0.00     0.204 A 
ATOM     14  N   UNL     1       0.719  -4.221  -0.884  1.00  0.00    -0.213 NA
ATOM     15  N   UNL     1       2.127  -2.801  -1.812  1.00  0.00    -0.324 N 
ATOM     16  C   UNL     1       1.125  -4.705  -2.108  1.00  0.00     0.093 A 
ATOM     17  C   UNL     1       2.061  -3.860  -2.688  1.00  0.00     0.067 A 
ATOM     18  H   UNL     1       2.735  -2.031  -1.887  1.00  0.00     0.170 HD
ATOM     19  C   UNL     1       0.632  -5.794  -2.846  1.00  0.00     0.056 A 
ATOM     20  C   UNL     1       2.640  -4.107  -3.938  1.00  0.00     0.030 A 
ATOM     21  C   UNL     1       1.022  -5.928  -4.187  1.00  0.00     0.034 A 
ATOM     22  C   UNL     1       2.092  -5.170  -4.678  1.00  0.00     0.028 A 
BRANCH  21  23
ATOM     23  N   UNL     1       0.359  -6.833  -5.015  1.00  0.00    -0.399 N 
ATOM     24  H   UNL     1      -0.393  -7.362  -4.664  1.00  0.00     0.156 HD
ATOM     25  H   UNL     1       0.642  -6.942  -5.952  1.00  0.00     0.156 HD
ENDBRANCH  21  23
ENDBRANCH  11  13
ENDBRANCH  10  11
ENDBRANCH   8  10
ENDBRANCH   7   8
ENDBRANCH   6   7
ENDBRANCH   5   6
ENDBRANCH   4   5
ENDBRANCH   3   4
ENDBRANCH   2   3
ENDBRANCH   1   2
BRANCH   1  26
ATOM     26  C   UNL     1      -2.935  -1.510  -3.974  1.00  0.00     0.188 C 
BRANCH  26  27
ATOM     27  C   UNL     1      -3.039  -2.832  -4.732  1.00  0.00     0.188 C 
BRANCH  27  28
ATOM     28  O   UNL     1      -1.855  -3.510  -5.160  1.00  0.00    -0.376 OA
BRANCH  28  29
ATOM     29  C   UNL     1      -0.591  -2.862  -5.117  1.00  0.00     0.202 C 
BRANCH  29  30
ATOM     30  C   UNL     1       0.106  -2.783  -6.467  1.00  0.00     0.261 C 
BRANCH  30  31
ATOM     31  O   UNL     1      -0.320  -1.579  -7.106  1.00  0.00    -0.460 OA
BRANCH  31  32
ATOM     32  C   UNL     1      -1.555  -1.670  -7.644  1.00  0.00     0.338 C 
ATOM     33  O   UNL     1      -2.102  -2.681  -8.056  1.00  0.00    -0.246 OA
BRANCH  32  34
ATOM     34  C   UNL     1      -2.242  -0.382  -7.428  1.00  0.00     0.060 A 
ATOM     35  C   UNL     1      -3.636  -0.411  -7.307  1.00  0.00     0.016 A 
ATOM     36  C   UNL     1      -1.538   0.822  -7.296  1.00  0.00     0.016 A 
ATOM     37  C   UNL     1      -4.339   0.767  -7.110  1.00  0.00     0.010 A 
ATOM     38  C   UNL     1      -2.241   2.008  -7.119  1.00  0.00     0.010 A 
ATOM     39  C   UNL     1      -3.643   1.979  -7.078  1.00  0.00    -0.014 A 
BRANCH  39  40
ATOM     40  C   UNL     1      -4.399   3.224  -7.283  1.00  0.00     0.031 A 
ATOM     41  C   UNL     1      -4.527   3.723  -8.693  1.00  0.00     0.074 A 
ATOM     42  C   UNL     1      -4.978   3.848  -6.246  1.00  0.00     0.049 A 
ATOM     43  N   UNL     1      -5.114   4.797  -9.142  1.00  0.00    -0.248 NA
ATOM     44  C   UNL     1      -3.903   2.894  -9.743  1.00  0.00     0.031 C 
ATOM     45  C   UNL     1      -4.935   3.393  -4.856  1.00  0.00     0.029 A 
ATOM     46  N   UNL     1      -5.712   5.000  -6.205  1.00  0.00    -0.354 N 
ATOM     47  C   UNL     1      -4.933   4.773 -10.520  1.00  0.00     0.074 A 
ATOM     48  C   UNL     1      -4.152   3.600 -10.834  1.00  0.00     0.031 C 
ATOM     49  C   UNL     1      -5.605   4.273  -4.092  1.00  0.00     0.029 A 
ATOM     50  C   UNL     1      -6.092   5.361  -4.936  1.00  0.00     0.049 A 
ATOM     51  H   UNL     1      -5.946   5.520  -7.007  1.00  0.00     0.167 HD
ATOM     52  C   UNL     1      -5.390   5.655 -11.436  1.00  0.00     0.037 A 
ATOM     53  C   UNL     1      -6.738   6.465  -4.516  1.00  0.00     0.037 A 
ATOM     54  C   UNL     1      -6.154   6.820 -11.087  1.00  0.00     0.049 A 
ATOM     55  C   UNL     1      -7.171   7.473  -5.551  1.00  0.00     0.074 A 
ATOM     56  C   UNL     1      -6.676   7.791 -11.920  1.00  0.00     0.029 A 
ATOM     57  N   UNL     1      -6.497   7.175  -9.788  1.00  0.00    -0.354 N 
ATOM     58  N   UNL     1      -7.013   7.436  -6.855  1.00  0.00    -0.248 NA
ATOM     59  C   UNL     1      -7.870   8.667  -5.062  1.00  0.00     0.031 C 
ATOM     60  C   UNL     1      -7.284   8.764 -11.120  1.00  0.00     0.029 A 
ATOM     61  C   UNL     1      -7.198   8.366  -9.793  1.00  0.00     0.049 A 
ATOM     62  H   UNL     1      -6.273   6.654  -8.983  1.00  0.00     0.167 HD
ATOM     63  C   UNL     1      -7.617   8.588  -7.345  1.00  0.00     0.074 A 
ATOM     64  C   UNL     1      -8.156   9.291  -6.197  1.00  0.00     0.031 C 
ATOM     65  C   UNL     1      -7.720   9.032  -8.624  1.00  0.00     0.037 A 
BRANCH  52  66
ATOM     66  C   UNL     1      -5.044   5.409 -12.878  1.00  0.00     0.058 A 
ATOM     67  C   UNL     1      -5.604   4.346 -13.606  1.00  0.00     0.135 A 
ATOM     68  C   UNL     1      -4.154   6.262 -13.550  1.00  0.00     0.135 A 
ATOM     69  F   UNL     1      -6.437   3.479 -13.007  1.00  0.00    -0.206 F 
ATOM     70  C   UNL     1      -5.284   4.130 -14.943  1.00  0.00     0.059 A 
ATOM     71  C   UNL     1      -3.842   6.083 -14.894  1.00  0.00     0.059 A 
ATOM     72  F   UNL     1      -3.576   7.283 -12.898  1.00  0.00    -0.206 F 
ATOM     73  C   UNL     1      -4.405   5.009 -15.580  1.00  0.00     0.060 A 
BRANCH  73  74
ATOM     74  S   UNL     1      -4.021   4.731 -17.322  1.00  0.00     0.124 S 
ATOM     75  O   UNL     1      -3.209   3.521 -17.253  1.00  0.00    -0.237 OA
ATOM     76  O   UNL     1      -5.347   4.572 -17.910  1.00  0.00    -0.237 OA
ATOM     77  O   UNL     1      -3.307   5.943 -17.711  1.00  0.00    -0.744 OA
ENDBRANCH  73  74
ENDBRANCH  52  66
BRANCH  53  78
ATOM     78  C   UNL     1      -6.991   6.678  -3.067  1.00  0.00     0.058 A 
ATOM     79  C   UNL     1      -8.292   6.668  -2.544  1.00  0.00     0.135 A 
ATOM     80  C   UNL     1      -5.931   6.892  -2.171  1.00  0.00     0.135 A 
ATOM     81  F   UNL     1      -9.340   6.472  -3.359  1.00  0.00    -0.206 F 
ATOM     82  C   UNL     1      -8.537   6.880  -1.191  1.00  0.00     0.059 A 
ATOM     83  C   UNL     1      -6.147   7.078  -0.809  1.00  0.00     0.059 A 
ATOM     84  F   UNL     1      -4.664   6.898  -2.615  1.00  0.00    -0.206 F 
ATOM     85  C   UNL     1      -7.456   7.083  -0.331  1.00  0.00     0.060 A 
BRANCH  85  86
ATOM     86  S   UNL     1      -7.782   7.322   1.429  1.00  0.00     0.124 S 
ATOM     87  O   UNL     1      -8.377   8.653   1.439  1.00  0.00    -0.237 OA
ATOM     88  O   UNL     1      -8.685   6.214   1.725  1.00  0.00    -0.237 OA
ATOM     89  O   UNL     1      -6.456   7.219   2.033  1.00  0.00    -0.744 OA
ENDBRANCH  85  86
ENDBRANCH  53  78
BRANCH  65  90
ATOM     90  C   UNL     1      -8.466  10.317  -8.845  1.00  0.00     0.058 A 
ATOM     91  C   UNL     1      -7.929  11.556  -8.467  1.00  0.00     0.135 A 
ATOM     92  C   UNL     1      -9.709  10.310  -9.499  1.00  0.00     0.135 A 
ATOM     93  F   UNL     1      -6.746  11.616  -7.835  1.00  0.00    -0.206 F 
ATOM     94  C   UNL     1      -8.611  12.743  -8.703  1.00  0.00     0.059 A 
ATOM     95  C   UNL     1     -10.393  11.488  -9.777  1.00  0.00     0.059 A 
ATOM     96  F   UNL     1     -10.259   9.151  -9.895  1.00  0.00    -0.206 F 
ATOM     97  C   UNL     1      -9.841  12.699  -9.363  1.00  0.00     0.060 A 
BRANCH  97  98
ATOM     98  S   UNL     1     -10.700  14.251  -9.691  1.00  0.00     0.124 S 
ATOM     99  O   UNL     1     -11.153  14.623  -8.356  1.00  0.00    -0.237 OA
ATOM    100  O   UNL     1      -9.638  15.079 -10.255  1.00  0.00    -0.237 OA
ATOM    101  O   UNL     1     -11.751  13.867 -10.628  1.00  0.00    -0.744 OA
ENDBRANCH  97  98
ENDBRANCH  65  90
ENDBRANCH  39  40
ENDBRANCH  32  34
ENDBRANCH  31  32
ENDBRANCH  30  31
ENDBRANCH  29  30
ENDBRANCH  28  29
ENDBRANCH  27  28
ENDBRANCH  26  27
ENDBRANCH   1  26
TORSDOF 26
