REMARK SMILES Cc1ccc(CCC(=O)N2CCC3(CC2)[C@H](C(=O)OCCOCCOCCOCCOC(=O)c2ccc(-c4c5nc(c(-c6c(F)cc(S(=O)(=O)[O-])cc6F)c6ccc([nH]6)c(-c6c(F)cc(S(=O)(=O)[O-])cc6F)c6nc(c(-c7c(F)cc(S(=O)(=O)[O-])cc7F)c7ccc4[nH]7)C=C6)C=C5)cc2)CC(=O)N3C)cc1
REMARK SMILES IDX 25 1 24 2 23 3 22 4 21 5 20 6 19 7 17 8 18 9 16 10 8 11 9 12
REMARK SMILES IDX 10 13 11 14 15 15 12 16 14 17 13 18 103 19 100 20 101 21
REMARK SMILES IDX 104 22 102 23 7 24 6 25 5 26 1 27 2 28 3 29 106 30 4 31
REMARK SMILES IDX 105 32 26 33 27 34 28 35 29 36 30 37 31 38 32 39 33 40 34 41
REMARK SMILES IDX 35 42 99 43 36 44 98 45 37 46 38 47 39 48 92 49 40 50 97 51
REMARK SMILES IDX 91 52 93 53 41 54 96 55 90 56 89 57 42 59 76 60 55 61 75 62
REMARK SMILES IDX 56 63 59 64 74 65 94 66 57 67 58 68 73 70 95 71 60 72 43 73
REMARK SMILES IDX 44 74 53 75 45 76 46 77 52 78 54 79 47 80 48 81 49 82 50 83
REMARK SMILES IDX 51 84 77 85 78 86 87 87 79 88 80 89 86 90 88 91 81 92 82 93
REMARK SMILES IDX 83 94 84 95 85 96 61 97 62 98 71 99 63 100 64 101 70 102
REMARK SMILES IDX 72 103 65 104 66 105 67 106 68 107 69 108
REMARK H PARENT 93 58 59 69
REMARK Flexibility Score: inf
ROOT
ATOM      1  O   UNL     1      -1.428  -3.656  -4.633  1.00  0.00    -0.377 OA
ENDROOT
BRANCH   1   2
ATOM      2  C   UNL     1      -1.092  -1.871  -4.337  1.00  0.00     0.188 C 
BRANCH   2   3
ATOM      3  C   UNL     1      -0.362  -0.556  -5.274  1.00  0.00     0.188 C 
BRANCH   3   4
ATOM      4  O   UNL     1       1.010  -0.046  -5.210  1.00  0.00    -0.376 OA
BRANCH   4   5
ATOM      5  C   UNL     1       2.222  -0.473  -5.862  1.00  0.00     0.202 C 
BRANCH   5   6
ATOM      6  C   UNL     1       3.287  -1.363  -5.204  1.00  0.00     0.261 C 
BRANCH   6   7
ATOM      7  O   UNL     1       3.701  -1.351  -3.886  1.00  0.00    -0.463 OA
BRANCH   7   8
ATOM      8  C   UNL     1       2.910  -0.570  -3.155  1.00  0.00     0.311 C 
ATOM      9  O   UNL     1       2.739   0.617  -3.400  1.00  0.00    -0.252 OA
BRANCH   8  10
ATOM     10  C   UNL     1       2.521  -1.246  -1.858  1.00  0.00     0.134 C 
ATOM     11  C   UNL     1      -2.837  -2.062  -0.215  1.00  0.00     0.222 C 
ATOM     12  O   UNL     1      -3.746  -2.896  -0.216  1.00  0.00    -0.275 OA
ATOM     13  N   UNL     1      -1.506  -2.453  -0.276  1.00  0.00    -0.343 N 
ATOM     14  C   UNL     1      -0.978  -3.666  -0.855  1.00  0.00     0.122 C 
ATOM     15  C   UNL     1      -0.514  -1.764   0.446  1.00  0.00     0.122 C 
ATOM     16  C   UNL     1       0.347  -3.380  -1.676  1.00  0.00     0.051 C 
ATOM     17  C   UNL     1       0.483  -1.204  -0.503  1.00  0.00     0.051 C 
ATOM     18  C   UNL     1       1.395  -2.251  -1.164  1.00  0.00     0.060 C 
ATOM     19  N   UNL     1       2.301  -2.959  -0.203  1.00  0.00    -0.339 N 
ATOM     20  C   UNL     1       3.884  -1.575  -1.260  1.00  0.00     0.118 C 
ATOM     21  C   UNL     1       3.650  -2.670  -0.311  1.00  0.00     0.223 C 
ATOM     22  C   UNL     1       1.971  -4.180   0.500  1.00  0.00     0.147 C 
ATOM     23  O   UNL     1       4.558  -3.253   0.265  1.00  0.00    -0.275 OA
BRANCH  11  24
ATOM     24  C   UNL     1      -3.155  -0.541  -0.408  1.00  0.00     0.105 C 
BRANCH  24  25
ATOM     25  C   UNL     1      -3.163   0.534   0.710  1.00  0.00     0.045 C 
BRANCH  25  26
ATOM     26  C   UNL     1      -1.820   1.156   1.076  1.00  0.00    -0.047 A 
ATOM     27  C   UNL     1       2.454   1.318   1.204  1.00  0.00     0.044 C 
ATOM     28  C   UNL     1       0.962   1.504   1.324  1.00  0.00    -0.051 A 
ATOM     29  C   UNL     1       0.237   0.857   2.333  1.00  0.00     0.004 A 
ATOM     30  C   UNL     1       0.258   2.152   0.299  1.00  0.00     0.004 A 
ATOM     31  C   UNL     1      -1.158   0.746   2.246  1.00  0.00     0.004 A 
ATOM     32  C   UNL     1      -1.125   1.962   0.164  1.00  0.00     0.004 A 
ENDBRANCH  25  26
ENDBRANCH  24  25
ENDBRANCH  11  24
ENDBRANCH   8  10
ENDBRANCH   7   8
ENDBRANCH   6   7
ENDBRANCH   5   6
ENDBRANCH   4   5
ENDBRANCH   3   4
ENDBRANCH   2   3
ENDBRANCH   1   2
BRANCH   1  33
ATOM     33  C   UNL     1      -2.918  -4.402  -5.843  1.00  0.00     0.188 C 
BRANCH  33  34
ATOM     34  C   UNL     1      -3.796  -2.633  -6.495  1.00  0.00     0.188 C 
BRANCH  34  35
ATOM     35  O   UNL     1      -3.598  -1.259  -5.148  1.00  0.00    -0.376 OA
BRANCH  35  36
ATOM     36  C   UNL     1      -4.131  -1.808  -3.424  1.00  0.00     0.202 C 
BRANCH  36  37
ATOM     37  C   UNL     1      -5.169  -3.478  -3.501  1.00  0.00     0.261 C 
BRANCH  37  38
ATOM     38  O   UNL     1      -5.220  -4.568  -5.032  1.00  0.00    -0.460 OA
BRANCH  38  39
ATOM     39  C   UNL     1      -5.129  -4.958  -6.694  1.00  0.00     0.338 C 
ATOM     40  O   UNL     1      -5.642  -6.077  -6.893  1.00  0.00    -0.246 OA
BRANCH  39  41
ATOM     41  C   UNL     1      -4.095  -4.460  -8.201  1.00  0.00     0.060 A 
ATOM     42  C   UNL     1      -2.965  -5.174  -8.660  1.00  0.00     0.016 A 
ATOM     43  C   UNL     1      -3.878  -3.204  -8.866  1.00  0.00     0.016 A 
ATOM     44  C   UNL     1      -1.582  -4.508  -9.049  1.00  0.00     0.010 A 
ATOM     45  C   UNL     1      -2.439  -2.513  -9.063  1.00  0.00     0.010 A 
ATOM     46  C   UNL     1      -1.177  -3.123  -8.823  1.00  0.00    -0.014 A 
BRANCH  46  47
ATOM     47  C   UNL     1       0.227  -2.391  -7.787  1.00  0.00     0.031 A 
ATOM     48  C   UNL     1       0.817  -1.080  -8.460  1.00  0.00     0.074 A 
ATOM     49  C   UNL     1       0.851  -2.794  -6.398  1.00  0.00     0.049 A 
ATOM     50  N   UNL     1       2.097  -0.798  -8.637  1.00  0.00    -0.248 NA
ATOM     51  C   UNL     1      -0.026   0.008  -8.945  1.00  0.00     0.031 C 
ATOM     52  C   UNL     1       1.305  -2.506  -4.776  1.00  0.00     0.029 A 
ATOM     53  N   UNL     1       0.829  -3.979  -5.807  1.00  0.00    -0.354 N 
ATOM     54  C   UNL     1       2.228   0.595  -8.818  1.00  0.00     0.074 A 
ATOM     55  C   UNL     1       0.871   0.975  -9.195  1.00  0.00     0.031 C 
ATOM     56  C   UNL     1       1.867  -3.563  -4.085  1.00  0.00     0.029 A 
ATOM     57  C   UNL     1       1.348  -4.640  -4.753  1.00  0.00     0.049 A 
ATOM     58  H   UNL     1       0.231  -4.581  -6.306  1.00  0.00     0.167 HD
ATOM     59  C   UNL     1       3.361   1.335  -8.450  1.00  0.00     0.037 A 
ATOM     60  C   UNL     1       1.333  -5.897  -5.139  1.00  0.00     0.037 A 
ATOM     61  C   UNL     1       4.429   0.547  -7.644  1.00  0.00     0.049 A 
ATOM     62  C   UNL     1       2.942  -5.386  -5.929  1.00  0.00     0.074 A 
ATOM     63  C   UNL     1       5.052   0.777  -6.405  1.00  0.00     0.029 A 
ATOM     64  N   UNL     1       4.769  -0.790  -7.924  1.00  0.00    -0.354 N 
ATOM     65  N   UNL     1       3.636  -4.207  -5.878  1.00  0.00    -0.248 NA
ATOM     66  C   UNL     1       3.860  -6.316  -6.613  1.00  0.00     0.031 C 
ATOM     67  C   UNL     1       5.798  -0.404  -5.987  1.00  0.00     0.029 A 
ATOM     68  C   UNL     1       5.506  -1.456  -6.892  1.00  0.00     0.049 A 
ATOM     69  H   UNL     1       4.519  -1.234  -8.767  1.00  0.00     0.167 HD
ATOM     70  C   UNL     1       4.863  -4.123  -6.598  1.00  0.00     0.074 A 
ATOM     71  C   UNL     1       4.954  -5.565  -6.939  1.00  0.00     0.031 C 
ATOM     72  C   UNL     1       5.732  -3.009  -6.981  1.00  0.00     0.037 A 
BRANCH  59  73
ATOM     73  C   UNL     1       3.496   2.935  -8.578  1.00  0.00     0.058 A 
ATOM     74  C   UNL     1       4.612   3.635  -8.037  1.00  0.00     0.135 A 
ATOM     75  C   UNL     1       2.637   3.820  -9.287  1.00  0.00     0.135 A 
ATOM     76  F   UNL     1       5.607   3.002  -7.408  1.00  0.00    -0.206 F 
ATOM     77  C   UNL     1       4.833   5.025  -8.154  1.00  0.00     0.059 A 
ATOM     78  C   UNL     1       2.834   5.217  -9.417  1.00  0.00     0.059 A 
ATOM     79  F   UNL     1       1.584   3.394  -9.983  1.00  0.00    -0.206 F 
ATOM     80  C   UNL     1       3.944   5.816  -8.854  1.00  0.00     0.060 A 
BRANCH  80  81
ATOM     81  S   UNL     1       4.316   7.567  -9.105  1.00  0.00     0.124 S 
ATOM     82  O   UNL     1       4.251   8.095  -7.747  1.00  0.00    -0.237 OA
ATOM     83  O   UNL     1       5.647   7.520  -9.703  1.00  0.00    -0.237 OA
ATOM     84  O   UNL     1       3.254   8.020 -10.001  1.00  0.00    -0.744 OA
ENDBRANCH  80  81
ENDBRANCH  59  73
BRANCH  60  85
ATOM     85  C   UNL     1      -0.550  -5.711  -5.354  1.00  0.00     0.058 A 
ATOM     86  C   UNL     1      -1.605  -5.635  -4.013  1.00  0.00     0.135 A 
ATOM     87  C   UNL     1      -0.966  -4.514  -6.495  1.00  0.00     0.135 A 
ATOM     88  F   UNL     1      -1.364  -6.520  -3.025  1.00  0.00    -0.206 F 
ATOM     89  C   UNL     1      -2.927  -4.473  -3.652  1.00  0.00     0.059 A 
ATOM     90  C   UNL     1      -1.920  -2.929  -6.164  1.00  0.00     0.059 A 
ATOM     91  F   UNL     1      -0.111  -4.748  -7.524  1.00  0.00    -0.206 F 
ATOM     92  C   UNL     1      -3.297  -3.035  -4.733  1.00  0.00     0.060 A 
BRANCH  92  93
ATOM     93  S   UNL     1      -5.550  -2.015  -5.250  1.00  0.00     0.124 S 
ATOM     94  O   UNL     1      -6.485  -3.031  -5.753  1.00  0.00    -0.237 OA
ATOM     95  O   UNL     1      -6.150  -1.349  -4.072  1.00  0.00    -0.237 OA
ATOM     96  O   UNL     1      -5.423  -0.987  -6.326  1.00  0.00    -0.744 OA
ENDBRANCH  92  93
ENDBRANCH  60  85
BRANCH  72  97
ATOM     97  C   UNL     1       7.028  -3.209  -7.775  1.00  0.00     0.058 A 
ATOM     98  C   UNL     1       7.880  -4.305  -7.655  1.00  0.00     0.135 A 
ATOM     99  C   UNL     1       7.481  -2.199  -8.679  1.00  0.00     0.135 A 
ATOM    100  F   UNL     1       7.744  -5.181  -6.648  1.00  0.00    -0.206 F 
ATOM    101  C   UNL     1       8.930  -4.508  -8.554  1.00  0.00     0.059 A 
ATOM    102  C   UNL     1       8.524  -2.362  -9.556  1.00  0.00     0.059 A 
ATOM    103  F   UNL     1       6.967  -0.967  -8.757  1.00  0.00    -0.206 F 
ATOM    104  C   UNL     1       9.210  -3.547  -9.528  1.00  0.00     0.060 A 
BRANCH 104 105
ATOM    105  S   UNL     1      10.534  -3.790 -10.704  1.00  0.00     0.124 S 
ATOM    106  O   UNL     1      11.625  -4.225  -9.838  1.00  0.00    -0.237 OA
ATOM    107  O   UNL     1       9.960  -4.808 -11.576  1.00  0.00    -0.237 OA
ATOM    108  O   UNL     1      10.706  -2.471 -11.308  1.00  0.00    -0.744 OA
ENDBRANCH 104 105
ENDBRANCH  72  97
ENDBRANCH  46  47
ENDBRANCH  39  41
ENDBRANCH  38  39
ENDBRANCH  37  38
ENDBRANCH  36  37
ENDBRANCH  35  36
ENDBRANCH  34  35
ENDBRANCH  33  34
ENDBRANCH   1  33
TORSDOF 26
