REMARK SMILES CCN(CCOC)C(=O)c1cccn1CC(=O)OCCOCCOCCOCCOC(=O)c1ccc(-c2c3nc(c(-c4c(F)cc(S(=O)(=O)[O-])cc4F)c4ccc([nH]4)c(-c4c(F)cc(S(=O)(=O)[O-])cc4F)c4nc(c(-c5c(F)cc(S(=O)(=O)[O-])cc5F)c5ccc2[nH]5)C=C4)C=C3)cc1
REMARK SMILES IDX 22 1 21 2 20 3 19 4 18 5 16 6 17 7 15 8 14 9 10 10 11 11
REMARK SMILES IDX 12 12 13 13 8 14 9 15 3 16 2 17 1 18 4 19 5 20 6 21 7 22
REMARK SMILES IDX 23 23 24 24 25 25 26 26 27 27 28 28 29 29 30 30 31 31 32 32
REMARK SMILES IDX 33 33 34 34 98 35 35 36 97 37 36 38 37 39 38 40 91 41 39 42
REMARK SMILES IDX 96 43 90 44 92 45 40 46 95 47 89 48 88 49 41 51 75 52 54 53
REMARK SMILES IDX 74 54 55 55 58 56 73 57 93 58 56 59 57 60 72 62 94 63 59 64
REMARK SMILES IDX 42 65 43 66 52 67 44 68 45 69 51 70 53 71 46 72 47 73 48 74
REMARK SMILES IDX 49 75 50 76 76 77 77 78 86 79 78 80 79 81 85 82 87 83 80 84
REMARK SMILES IDX 81 85 82 86 83 87 84 88 60 89 61 90 70 91 62 92 63 93 69 94
REMARK SMILES IDX 71 95 64 96 65 97 66 98 67 99 68 100
REMARK H PARENT 92 50 58 61
REMARK Flexibility Score: inf
ROOT
ATOM      1  C   UNL     1       4.720  -4.526  -4.352  1.00  0.00     0.188 C 
ENDROOT
BRANCH   1   2
ATOM      2  O   UNL     1       4.853  -5.228  -3.114  1.00  0.00    -0.376 OA
BRANCH   2   3
ATOM      3  C   UNL     1       3.678  -5.571  -2.406  1.00  0.00     0.202 C 
BRANCH   3   4
ATOM      4  C   UNL     1       3.078  -4.418  -1.591  1.00  0.00     0.261 C 
BRANCH   4   5
ATOM      5  O   UNL     1       3.456  -3.115  -2.073  1.00  0.00    -0.462 OA
BRANCH   5   6
ATOM      6  C   UNL     1       4.600  -2.591  -1.563  1.00  0.00     0.326 C 
ATOM      7  O   UNL     1       5.216  -3.079  -0.616  1.00  0.00    -0.250 OA
BRANCH   6   8
ATOM      8  C   UNL     1       5.105  -1.365  -2.290  1.00  0.00     0.244 C 
BRANCH   8   9
ATOM      9  N   UNL     1       4.381  -0.947  -3.497  1.00  0.00    -0.332 N 
ATOM     10  C   UNL     1       3.121  -0.345  -3.566  1.00  0.00     0.107 A 
ATOM     11  C   UNL     1       2.873  -0.203  -4.928  1.00  0.00     0.033 A 
ATOM     12  C   UNL     1       4.014  -0.590  -5.664  1.00  0.00     0.020 A 
ATOM     13  C   UNL     1       4.948  -1.000  -4.752  1.00  0.00     0.087 A 
BRANCH  10  14
ATOM     14  C   UNL     1       2.379   0.071  -2.372  1.00  0.00     0.270 C 
ATOM     15  O   UNL     1       2.999   0.220  -1.314  1.00  0.00    -0.267 OA
BRANCH  14  16
ATOM     16  N   UNL     1       0.999   0.333  -2.366  1.00  0.00    -0.335 N 
BRANCH  16  17
ATOM     17  C   UNL     1       0.426   0.858  -1.120  1.00  0.00     0.116 C 
ATOM     18  C   UNL     1       0.392  -0.154   0.018  1.00  0.00     0.027 C 
ENDBRANCH  16  17
BRANCH  16  19
ATOM     19  C   UNL     1       0.063   0.218  -3.493  1.00  0.00     0.148 C 
BRANCH  19  20
ATOM     20  C   UNL     1      -0.296   1.575  -4.138  1.00  0.00     0.181 C 
BRANCH  20  21
ATOM     21  O   UNL     1       0.773   2.116  -4.912  1.00  0.00    -0.383 OA
ATOM     22  C   UNL     1       1.579   3.053  -4.213  1.00  0.00     0.194 C 
ENDBRANCH  20  21
ENDBRANCH  19  20
ENDBRANCH  16  19
ENDBRANCH  14  16
ENDBRANCH  10  14
ENDBRANCH   8   9
ENDBRANCH   6   8
ENDBRANCH   5   6
ENDBRANCH   4   5
ENDBRANCH   3   4
ENDBRANCH   2   3
ENDBRANCH   1   2
BRANCH   1  23
ATOM     23  C   UNL     1       3.339  -4.131  -4.922  1.00  0.00     0.188 C 
BRANCH  23  24
ATOM     24  O   UNL     1       2.423  -5.223  -5.017  1.00  0.00    -0.377 OA
BRANCH  24  25
ATOM     25  C   UNL     1       2.131  -5.617  -6.354  1.00  0.00     0.188 C 
BRANCH  25  26
ATOM     26  C   UNL     1       3.266  -6.434  -6.983  1.00  0.00     0.188 C 
BRANCH  26  27
ATOM     27  O   UNL     1       4.507  -5.730  -6.998  1.00  0.00    -0.376 OA
BRANCH  27  28
ATOM     28  C   UNL     1       5.018  -5.316  -8.256  1.00  0.00     0.202 C 
BRANCH  28  29
ATOM     29  C   UNL     1       4.541  -3.913  -8.657  1.00  0.00     0.261 C 
BRANCH  29  30
ATOM     30  O   UNL     1       3.122  -3.775  -8.755  1.00  0.00    -0.460 OA
BRANCH  30  31
ATOM     31  C   UNL     1       2.562  -4.635  -9.624  1.00  0.00     0.338 C 
ATOM     32  O   UNL     1       3.104  -5.518 -10.264  1.00  0.00    -0.246 OA
BRANCH  31  33
ATOM     33  C   UNL     1       1.136  -4.384  -9.749  1.00  0.00     0.060 A 
ATOM     34  C   UNL     1       0.312  -5.515  -9.781  1.00  0.00     0.016 A 
ATOM     35  C   UNL     1       0.769  -3.150 -10.286  1.00  0.00     0.016 A 
ATOM     36  C   UNL     1      -0.825  -5.467 -10.555  1.00  0.00     0.010 A 
ATOM     37  C   UNL     1      -0.342  -3.120 -11.097  1.00  0.00     0.010 A 
ATOM     38  C   UNL     1      -1.076  -4.302 -11.286  1.00  0.00    -0.014 A 
BRANCH  38  39
ATOM     39  C   UNL     1      -2.093  -4.350 -12.341  1.00  0.00     0.031 A 
ATOM     40  C   UNL     1      -3.460  -3.943 -11.841  1.00  0.00     0.074 A 
ATOM     41  C   UNL     1      -1.649  -4.759 -13.567  1.00  0.00     0.049 A 
ATOM     42  N   UNL     1      -4.624  -4.260 -12.309  1.00  0.00    -0.248 NA
ATOM     43  C   UNL     1      -3.565  -3.153 -10.584  1.00  0.00     0.031 C 
ATOM     44  C   UNL     1      -0.260  -5.185 -13.845  1.00  0.00     0.029 A 
ATOM     45  N   UNL     1      -2.233  -4.900 -14.809  1.00  0.00    -0.354 N 
ATOM     46  C   UNL     1      -5.566  -3.543 -11.558  1.00  0.00     0.074 A 
ATOM     47  C   UNL     1      -4.880  -3.007 -10.422  1.00  0.00     0.031 C 
ATOM     48  C   UNL     1      -0.126  -5.580 -15.126  1.00  0.00     0.029 A 
ATOM     49  C   UNL     1      -1.387  -5.426 -15.820  1.00  0.00     0.049 A 
ATOM     50  H   UNL     1      -3.170  -4.652 -14.982  1.00  0.00     0.167 HD
ATOM     51  C   UNL     1      -6.824  -3.284 -12.000  1.00  0.00     0.037 A 
ATOM     52  C   UNL     1      -1.678  -5.735 -17.121  1.00  0.00     0.037 A 
ATOM     53  C   UNL     1      -7.021  -3.804 -13.313  1.00  0.00     0.049 A 
ATOM     54  C   UNL     1      -3.034  -5.205 -17.373  1.00  0.00     0.074 A 
ATOM     55  C   UNL     1      -7.188  -5.075 -13.794  1.00  0.00     0.029 A 
ATOM     56  N   UNL     1      -6.714  -2.966 -14.363  1.00  0.00    -0.354 N 
ATOM     57  N   UNL     1      -3.349  -3.942 -17.400  1.00  0.00    -0.248 NA
ATOM     58  C   UNL     1      -4.148  -6.147 -17.531  1.00  0.00     0.031 C 
ATOM     59  C   UNL     1      -6.610  -5.044 -15.081  1.00  0.00     0.029 A 
ATOM     60  C   UNL     1      -6.208  -3.737 -15.383  1.00  0.00     0.049 A 
ATOM     61  H   UNL     1      -6.835  -1.989 -14.380  1.00  0.00     0.167 HD
ATOM     62  C   UNL     1      -4.714  -3.959 -17.233  1.00  0.00     0.074 A 
ATOM     63  C   UNL     1      -5.158  -5.285 -17.601  1.00  0.00     0.031 C 
ATOM     64  C   UNL     1      -5.281  -3.127 -16.320  1.00  0.00     0.037 A 
BRANCH  51  65
ATOM     65  C   UNL     1      -7.863  -2.364 -11.450  1.00  0.00     0.058 A 
ATOM     66  C   UNL     1      -9.215  -2.679 -11.701  1.00  0.00     0.135 A 
ATOM     67  C   UNL     1      -7.585  -1.066 -10.998  1.00  0.00     0.135 A 
ATOM     68  F   UNL     1      -9.568  -3.916 -12.092  1.00  0.00    -0.206 F 
ATOM     69  C   UNL     1     -10.220  -1.725 -11.632  1.00  0.00     0.059 A 
ATOM     70  C   UNL     1      -8.585  -0.102 -10.883  1.00  0.00     0.059 A 
ATOM     71  F   UNL     1      -6.328  -0.675 -10.747  1.00  0.00    -0.206 F 
ATOM     72  C   UNL     1      -9.887  -0.427 -11.261  1.00  0.00     0.060 A 
BRANCH  72  73
ATOM     73  S   UNL     1     -11.164   0.844 -11.341  1.00  0.00     0.124 S 
ATOM     74  O   UNL     1     -11.216   1.116 -12.773  1.00  0.00    -0.237 OA
ATOM     75  O   UNL     1     -12.326   0.156 -10.785  1.00  0.00    -0.237 OA
ATOM     76  O   UNL     1     -10.623   1.913 -10.509  1.00  0.00    -0.744 OA
ENDBRANCH  72  73
ENDBRANCH  51  65
BRANCH  52  77
ATOM     77  C   UNL     1      -1.029  -6.526 -18.244  1.00  0.00     0.058 A 
ATOM     78  C   UNL     1       0.141  -7.295 -18.145  1.00  0.00     0.135 A 
ATOM     79  C   UNL     1      -1.725  -6.692 -19.476  1.00  0.00     0.135 A 
ATOM     80  F   UNL     1       0.965  -7.193 -17.098  1.00  0.00    -0.206 F 
ATOM     81  C   UNL     1       0.508  -8.249 -19.109  1.00  0.00     0.059 A 
ATOM     82  C   UNL     1      -1.414  -7.671 -20.418  1.00  0.00     0.059 A 
ATOM     83  F   UNL     1      -2.785  -5.932 -19.788  1.00  0.00    -0.206 F 
ATOM     84  C   UNL     1      -0.307  -8.473 -20.212  1.00  0.00     0.060 A 
BRANCH  84  85
ATOM     85  S   UNL     1      -0.024  -9.885 -21.299  1.00  0.00     0.124 S 
ATOM     86  O   UNL     1       0.747  -9.285 -22.381  1.00  0.00    -0.237 OA
ATOM     87  O   UNL     1       0.704 -10.816 -20.441  1.00  0.00    -0.237 OA
ATOM     88  O   UNL     1      -1.381 -10.303 -21.643  1.00  0.00    -0.744 OA
ENDBRANCH  84  85
ENDBRANCH  52  77
BRANCH  64  89
ATOM     89  C   UNL     1      -4.534  -1.819 -16.127  1.00  0.00     0.058 A 
ATOM     90  C   UNL     1      -4.402  -0.913 -17.194  1.00  0.00     0.135 A 
ATOM     91  C   UNL     1      -3.859  -1.472 -14.945  1.00  0.00     0.135 A 
ATOM     92  F   UNL     1      -5.019  -1.159 -18.361  1.00  0.00    -0.206 F 
ATOM     93  C   UNL     1      -3.643   0.259 -17.091  1.00  0.00     0.059 A 
ATOM     94  C   UNL     1      -3.104  -0.305 -14.809  1.00  0.00     0.059 A 
ATOM     95  F   UNL     1      -3.913  -2.271 -13.881  1.00  0.00    -0.206 F 
ATOM     96  C   UNL     1      -2.995   0.555 -15.893  1.00  0.00     0.060 A 
BRANCH  96  97
ATOM     97  S   UNL     1      -2.022   2.073 -15.766  1.00  0.00     0.124 S 
ATOM     98  O   UNL     1      -1.005   1.880 -16.794  1.00  0.00    -0.237 OA
ATOM     99  O   UNL     1      -3.019   3.100 -16.049  1.00  0.00    -0.237 OA
ATOM    100  O   UNL     1      -1.525   2.051 -14.392  1.00  0.00    -0.744 OA
ENDBRANCH  96  97
ENDBRANCH  64  89
ENDBRANCH  38  39
ENDBRANCH  31  33
ENDBRANCH  30  31
ENDBRANCH  29  30
ENDBRANCH  28  29
ENDBRANCH  27  28
ENDBRANCH  26  27
ENDBRANCH  25  26
ENDBRANCH  24  25
ENDBRANCH  23  24
ENDBRANCH   1  23
TORSDOF 30
