REMARK SMILES COc1ccc([C@H](NC(=O)[C@H]2CC(C)=C(C)C[C@@H]2C(=O)OCCOCCOCCOCCOC(=O)c2ccc(-c3c4nc(c(-c5c(F)cc(S(=O)(=O)[O-])cc5F)c5ccc([nH]5)c(-c5c(F)cc(S(=O)(=O)[O-])cc5F)c5nc(c(-c6c(F)cc(S(=O)(=O)[O-])cc6F)c6ccc3[nH]6)C=C5)C=C4)cc2)c2ccccc2)cc1
REMARK SMILES IDX 26 1 25 2 24 3 23 4 22 5 21 6 19 7 20 8 18 9 11 10 12 11
REMARK SMILES IDX 13 12 17 13 14 14 15 15 16 16 9 17 8 18 10 20 7 21 6 22 3 23
REMARK SMILES IDX 4 24 109 25 5 26 108 27 2 28 1 29 102 30 103 31 107 32
REMARK SMILES IDX 104 33 106 34 105 35 27 36 28 37 29 38 30 39 31 40 32 41
REMARK SMILES IDX 33 42 34 43 35 44 36 45 37 46 101 47 38 48 100 49 39 50
REMARK SMILES IDX 40 51 41 52 94 53 42 54 99 55 93 56 95 57 43 58 98 59 92 60
REMARK SMILES IDX 91 61 44 63 78 64 57 65 77 66 58 67 61 68 76 69 96 70 59 71
REMARK SMILES IDX 60 72 75 74 97 75 62 76 45 77 46 78 55 79 47 80 48 81 54 82
REMARK SMILES IDX 56 83 49 84 50 85 51 86 52 87 53 88 79 89 80 90 89 91 81 92
REMARK SMILES IDX 82 93 88 94 90 95 83 96 84 97 85 98 86 99 87 100 63 101
REMARK SMILES IDX 64 102 73 103 65 104 66 105 72 106 74 107 67 108 68 109
REMARK SMILES IDX 69 110 70 111 71 112
REMARK H PARENT 8 19 95 62 61 73
REMARK Flexibility Score: inf
ROOT
ATOM      1  C   UNL     1       4.958   3.375  -6.653  1.00  0.00     0.188 C 
ENDROOT
BRANCH   1   2
ATOM      2  C   UNL     1       4.477   3.672  -8.086  1.00  0.00     0.188 C 
BRANCH   2   3
ATOM      3  O   UNL     1       4.717   4.937  -8.680  1.00  0.00    -0.376 OA
BRANCH   3   4
ATOM      4  C   UNL     1       4.375   6.122  -7.986  1.00  0.00     0.202 C 
BRANCH   4   5
ATOM      5  C   UNL     1       3.123   6.232  -7.119  1.00  0.00     0.261 C 
BRANCH   5   6
ATOM      6  O   UNL     1       2.822   5.177  -6.189  1.00  0.00    -0.463 OA
BRANCH   6   7
ATOM      7  C   UNL     1       1.756   4.404  -6.481  1.00  0.00     0.310 C 
ATOM      8  O   UNL     1       1.096   4.517  -7.512  1.00  0.00    -0.252 OA
BRANCH   7   9
ATOM      9  C   UNL     1       1.440   3.300  -5.471  1.00  0.00     0.116 C 
ATOM     10  C   UNL     1       2.239   3.256  -4.143  1.00  0.00     0.097 C 
ATOM     11  C   UNL     1       3.031   1.931  -3.881  1.00  0.00     0.045 C 
ATOM     12  C   UNL     1       2.897   0.760  -4.838  1.00  0.00    -0.074 C 
ATOM     13  C   UNL     1       1.334   2.012  -6.311  1.00  0.00     0.046 C 
ATOM     14  C   UNL     1       3.674  -0.475  -4.444  1.00  0.00     0.039 C 
ATOM     15  C   UNL     1       2.146   0.812  -5.951  1.00  0.00    -0.073 C 
ATOM     16  C   UNL     1       2.057  -0.306  -6.964  1.00  0.00     0.039 C 
BRANCH  10  17
ATOM     17  C   UNL     1       1.257   3.469  -2.972  1.00  0.00     0.225 C 
ATOM     18  N   UNL     1       0.948   4.693  -2.460  1.00  0.00    -0.345 N 
ATOM     19  H   UNL     1       0.257   4.651  -1.760  1.00  0.00     0.164 HD
ATOM     20  O   UNL     1       0.645   2.509  -2.489  1.00  0.00    -0.275 OA
BRANCH  18  21
ATOM     21  C   UNL     1       1.414   6.065  -2.716  1.00  0.00     0.143 C 
BRANCH  21  22
ATOM     22  C   UNL     1       0.951   6.608  -4.066  1.00  0.00    -0.021 A 
ATOM     23  C   UNL     1       0.101   7.731  -6.503  1.00  0.00     0.118 A 
ATOM     24  C   UNL     1       1.146   8.318  -5.793  1.00  0.00     0.047 A 
ATOM     25  C   UNL     1      -0.604   6.670  -5.939  1.00  0.00     0.047 A 
ATOM     26  C   UNL     1       1.598   7.736  -4.606  1.00  0.00     0.010 A 
ATOM     27  C   UNL     1      -0.202   6.136  -4.712  1.00  0.00     0.010 A 
BRANCH  23  28
ATOM     28  O   UNL     1      -0.145   8.247  -7.745  1.00  0.00    -0.497 OA
ATOM     29  C   UNL     1      -0.462   7.266  -8.733  1.00  0.00     0.278 C 
ENDBRANCH  23  28
ENDBRANCH  21  22
BRANCH  21  30
ATOM     30  C   UNL     1       0.971   7.010  -1.576  1.00  0.00    -0.021 A 
ATOM     31  C   UNL     1       0.126   8.122  -1.809  1.00  0.00     0.006 A 
ATOM     32  C   UNL     1       1.431   6.819  -0.263  1.00  0.00     0.006 A 
ATOM     33  C   UNL     1      -0.200   9.030  -0.805  1.00  0.00     0.000 A 
ATOM     34  C   UNL     1       1.073   7.716   0.754  1.00  0.00     0.000 A 
ATOM     35  C   UNL     1       0.273   8.823   0.478  1.00  0.00     0.000 A 
ENDBRANCH  21  30
ENDBRANCH  18  21
ENDBRANCH  10  17
ENDBRANCH   7   9
ENDBRANCH   6   7
ENDBRANCH   5   6
ENDBRANCH   4   5
ENDBRANCH   3   4
ENDBRANCH   2   3
ENDBRANCH   1   2
BRANCH   1  36
ATOM     36  O   UNL     1       5.239   4.510  -5.856  1.00  0.00    -0.377 OA
BRANCH  36  37
ATOM     37  C   UNL     1       6.577   4.980  -5.811  1.00  0.00     0.188 C 
BRANCH  37  38
ATOM     38  C   UNL     1       7.447   4.853  -7.078  1.00  0.00     0.188 C 
BRANCH  38  39
ATOM     39  O   UNL     1       7.378   3.577  -7.697  1.00  0.00    -0.376 OA
BRANCH  39  40
ATOM     40  C   UNL     1       8.385   2.623  -7.411  1.00  0.00     0.202 C 
BRANCH  40  41
ATOM     41  C   UNL     1       8.524   2.122  -5.965  1.00  0.00     0.261 C 
BRANCH  41  42
ATOM     42  O   UNL     1       8.761   3.105  -4.948  1.00  0.00    -0.460 OA
BRANCH  42  43
ATOM     43  C   UNL     1       9.801   3.952  -5.087  1.00  0.00     0.338 C 
ATOM     44  O   UNL     1      10.629   3.964  -5.981  1.00  0.00    -0.246 OA
BRANCH  43  45
ATOM     45  C   UNL     1       9.643   5.000  -4.056  1.00  0.00     0.060 A 
ATOM     46  C   UNL     1       9.508   6.344  -4.436  1.00  0.00     0.016 A 
ATOM     47  C   UNL     1       9.610   4.637  -2.709  1.00  0.00     0.016 A 
ATOM     48  C   UNL     1       9.382   7.337  -3.462  1.00  0.00     0.010 A 
ATOM     49  C   UNL     1       9.514   5.630  -1.737  1.00  0.00     0.010 A 
ATOM     50  C   UNL     1       9.441   6.986  -2.108  1.00  0.00    -0.014 A 
BRANCH  50  51
ATOM     51  C   UNL     1       9.711   8.003  -1.066  1.00  0.00     0.031 A 
ATOM     52  C   UNL     1      11.144   8.191  -0.652  1.00  0.00     0.074 A 
ATOM     53  C   UNL     1       8.723   8.675  -0.451  1.00  0.00     0.049 A 
ATOM     54  N   UNL     1      11.637   8.819   0.381  1.00  0.00    -0.248 NA
ATOM     55  C   UNL     1      12.158   7.561  -1.516  1.00  0.00     0.031 C 
ATOM     56  C   UNL     1       7.308   8.620  -0.806  1.00  0.00     0.029 A 
ATOM     57  N   UNL     1       8.768   9.514   0.636  1.00  0.00    -0.354 N 
ATOM     58  C   UNL     1      13.012   8.634   0.308  1.00  0.00     0.074 A 
ATOM     59  C   UNL     1      13.277   7.827  -0.860  1.00  0.00     0.031 C 
ATOM     60  C   UNL     1       6.611   9.364   0.072  1.00  0.00     0.029 A 
ATOM     61  C   UNL     1       7.526   9.902   1.079  1.00  0.00     0.049 A 
ATOM     62  H   UNL     1       9.608   9.808   1.057  1.00  0.00     0.167 HD
ATOM     63  C   UNL     1      13.968   9.094   1.148  1.00  0.00     0.037 A 
ATOM     64  C   UNL     1       7.172  10.573   2.195  1.00  0.00     0.037 A 
ATOM     65  C   UNL     1      13.688   9.890   2.311  1.00  0.00     0.049 A 
ATOM     66  C   UNL     1       8.246  11.013   3.162  1.00  0.00     0.074 A 
ATOM     67  C   UNL     1      14.580  10.414   3.228  1.00  0.00     0.029 A 
ATOM     68  N   UNL     1      12.418  10.270   2.719  1.00  0.00    -0.354 N 
ATOM     69  N   UNL     1       9.545  10.834   3.091  1.00  0.00    -0.248 NA
ATOM     70  C   UNL     1       7.810  11.740   4.364  1.00  0.00     0.031 C 
ATOM     71  C   UNL     1      13.845  11.065   4.222  1.00  0.00     0.029 A 
ATOM     72  C   UNL     1      12.501  11.008   3.886  1.00  0.00     0.049 A 
ATOM     73  H   UNL     1      11.582  10.048   2.248  1.00  0.00     0.167 HD
ATOM     74  C   UNL     1      10.081  11.466   4.210  1.00  0.00     0.074 A 
ATOM     75  C   UNL     1       8.967  12.021   4.949  1.00  0.00     0.031 C 
ATOM     76  C   UNL     1      11.379  11.585   4.586  1.00  0.00     0.037 A 
BRANCH  63  77
ATOM     77  C   UNL     1      15.393   8.710   0.862  1.00  0.00     0.058 A 
ATOM     78  C   UNL     1      16.095   9.228  -0.238  1.00  0.00     0.135 A 
ATOM     79  C   UNL     1      16.073   7.827   1.716  1.00  0.00     0.135 A 
ATOM     80  F   UNL     1      15.485  10.056  -1.101  1.00  0.00    -0.206 F 
ATOM     81  C   UNL     1      17.413   8.866  -0.494  1.00  0.00     0.059 A 
ATOM     82  C   UNL     1      17.401   7.476   1.497  1.00  0.00     0.059 A 
ATOM     83  F   UNL     1      15.447   7.295   2.777  1.00  0.00    -0.206 F 
ATOM     84  C   UNL     1      18.058   7.991   0.381  1.00  0.00     0.060 A 
BRANCH  84  85
ATOM     85  S   UNL     1      19.772   7.539   0.039  1.00  0.00     0.124 S 
ATOM     86  O   UNL     1      19.618   6.678  -1.130  1.00  0.00    -0.237 OA
ATOM     87  O   UNL     1      20.392   8.837  -0.208  1.00  0.00    -0.237 OA
ATOM     88  O   UNL     1      20.198   6.866   1.261  1.00  0.00    -0.744 OA
ENDBRANCH  84  85
ENDBRANCH  63  77
BRANCH  64  89
ATOM     89  C   UNL     1       5.736  10.847   2.478  1.00  0.00     0.058 A 
ATOM     90  C   UNL     1       5.229  12.154   2.447  1.00  0.00     0.135 A 
ATOM     91  C   UNL     1       4.843   9.810   2.792  1.00  0.00     0.135 A 
ATOM     92  F   UNL     1       6.045  13.182   2.167  1.00  0.00    -0.206 F 
ATOM     93  C   UNL     1       3.895  12.428   2.732  1.00  0.00     0.059 A 
ATOM     94  C   UNL     1       3.499  10.055   3.056  1.00  0.00     0.059 A 
ATOM     95  F   UNL     1       5.272   8.538   2.828  1.00  0.00    -0.206 F 
ATOM     96  C   UNL     1       3.036  11.369   3.032  1.00  0.00     0.060 A 
BRANCH  96  97
ATOM     97  S   UNL     1       1.303  11.736   3.380  1.00  0.00     0.124 S 
ATOM     98  O   UNL     1       1.402  12.503   4.616  1.00  0.00    -0.237 OA
ATOM     99  O   UNL     1       0.907  12.485   2.191  1.00  0.00    -0.237 OA
ATOM    100  O   UNL     1       0.697  10.414   3.510  1.00  0.00    -0.744 OA
ENDBRANCH  96  97
ENDBRANCH  64  89
BRANCH  76 101
ATOM    101  C   UNL     1      11.697  12.411   5.802  1.00  0.00     0.058 A 
ATOM    102  C   UNL     1      11.466  11.942   7.104  1.00  0.00     0.135 A 
ATOM    103  C   UNL     1      12.364  13.639   5.654  1.00  0.00     0.135 A 
ATOM    104  F   UNL     1      10.827  10.779   7.300  1.00  0.00    -0.206 F 
ATOM    105  C   UNL     1      11.890  12.662   8.217  1.00  0.00     0.059 A 
ATOM    106  C   UNL     1      12.821  14.360   6.752  1.00  0.00     0.059 A 
ATOM    107  F   UNL     1      12.619  14.126   4.429  1.00  0.00    -0.206 F 
ATOM    108  C   UNL     1      12.579  13.863   8.031  1.00  0.00     0.060 A 
BRANCH 108 109
ATOM    109  S   UNL     1      13.203  14.739   9.481  1.00  0.00     0.124 S 
ATOM    110  O   UNL     1      11.970  15.256  10.066  1.00  0.00    -0.237 OA
ATOM    111  O   UNL     1      13.861  13.672  10.229  1.00  0.00    -0.237 OA
ATOM    112  O   UNL     1      14.098  15.743   8.915  1.00  0.00    -0.744 OA
ENDBRANCH 108 109
ENDBRANCH  76 101
ENDBRANCH  50  51
ENDBRANCH  43  45
ENDBRANCH  42  43
ENDBRANCH  41  42
ENDBRANCH  40  41
ENDBRANCH  39  40
ENDBRANCH  38  39
ENDBRANCH  37  38
ENDBRANCH  36  37
ENDBRANCH   1  36
TORSDOF 28
