REMARK SMILES Cc1ccccc1OC1(C(=O)OCCOCCOCCOCCOC(=O)c2ccc(-c3c4nc(c(-c5c(F)cc(S(=O)(=O)[O-])cc5F)c5ccc([nH]5)c(-c5c(F)cc(S(=O)(=O)[O-])cc5F)c5nc(c(-c6c(F)cc(S(=O)(=O)[O-])cc6F)c6ccc3[nH]6)C=C5)C=C4)cc2)CCN(C(=O)[C@H]2CCCCO2)CC1
REMARK SMILES IDX 19 1 18 2 17 3 16 4 15 5 14 6 13 7 12 8 10 9 11 10 9 11
REMARK SMILES IDX 93 12 105 13 94 14 104 15 95 16 96 17 97 18 8 19 7 20 1 21
REMARK SMILES IDX 2 22 3 23 4 24 6 25 5 26 98 27 99 28 103 29 100 30 102 31
REMARK SMILES IDX 101 32 20 33 21 34 22 35 23 36 24 37 25 38 26 39 27 40 28 41
REMARK SMILES IDX 92 42 29 43 91 44 30 45 31 46 32 47 85 48 33 49 90 50 84 51
REMARK SMILES IDX 86 52 34 53 89 54 83 55 82 56 35 58 69 59 48 60 68 61 49 62
REMARK SMILES IDX 52 63 67 64 87 65 50 66 51 67 66 69 88 70 53 71 36 72 37 73
REMARK SMILES IDX 46 74 38 75 39 76 45 77 47 78 40 79 41 80 42 81 43 82 44 83
REMARK SMILES IDX 70 84 71 85 80 86 72 87 73 88 79 89 81 90 74 91 75 92 76 93
REMARK SMILES IDX 77 94 78 95 54 96 55 97 64 98 56 99 57 100 63 101 65 102
REMARK SMILES IDX 58 103 59 104 60 105 61 106 62 107
REMARK H PARENT 86 57 52 68
REMARK Flexibility Score: inf
ROOT
ATOM      1  C   UNL     1       9.381  -7.016  -1.907  1.00  0.00     0.188 C 
ENDROOT
BRANCH   1   2
ATOM      2  O   UNL     1       8.174  -7.051  -1.139  1.00  0.00    -0.377 OA
BRANCH   2   3
ATOM      3  C   UNL     1       7.645  -8.301  -0.722  1.00  0.00     0.188 C 
BRANCH   3   4
ATOM      4  C   UNL     1       6.472  -8.937  -1.504  1.00  0.00     0.188 C 
BRANCH   4   5
ATOM      5  O   UNL     1       6.671  -9.410  -2.825  1.00  0.00    -0.376 OA
BRANCH   5   6
ATOM      6  C   UNL     1       6.553  -8.435  -3.855  1.00  0.00     0.202 C 
BRANCH   6   7
ATOM      7  C   UNL     1       5.173  -7.852  -4.122  1.00  0.00     0.261 C 
BRANCH   7   8
ATOM      8  O   UNL     1       4.974  -6.736  -3.260  1.00  0.00    -0.460 OA
BRANCH   8   9
ATOM      9  C   UNL     1       3.857  -6.746  -2.495  1.00  0.00     0.350 C 
ATOM     10  O   UNL     1       2.912  -7.470  -2.692  1.00  0.00    -0.247 OA
BRANCH   9  11
ATOM     11  C   UNL     1       4.035  -5.738  -1.327  1.00  0.00     0.209 C 
ATOM     12  C   UNL     1       5.451  -5.836  -0.732  1.00  0.00     0.082 C 
ATOM     13  C   UNL     1       3.898  -4.329  -1.927  1.00  0.00     0.082 C 
ATOM     14  C   UNL     1       6.129  -4.584  -0.195  1.00  0.00     0.124 C 
ATOM     15  C   UNL     1       4.134  -3.237  -0.887  1.00  0.00     0.124 C 
ATOM     16  N   UNL     1       5.261  -3.445   0.023  1.00  0.00    -0.340 N 
ATOM     17  C   UNL     1       5.616  -2.582   1.069  1.00  0.00     0.251 C 
ATOM     18  O   UNL     1       6.643  -2.755   1.733  1.00  0.00    -0.272 OA
BRANCH  11  19
ATOM     19  O   UNL     1       2.983  -5.842  -0.357  1.00  0.00    -0.475 OA
BRANCH  19  20
ATOM     20  C   UNL     1       2.846  -6.907   0.500  1.00  0.00     0.123 A 
ATOM     21  C   UNL     1       3.699  -5.426   2.367  1.00  0.00     0.048 C 
ATOM     22  C   UNL     1       2.951  -6.614   1.867  1.00  0.00    -0.009 A 
ATOM     23  C   UNL     1       2.304  -7.418   2.813  1.00  0.00     0.007 A 
ATOM     24  C   UNL     1       1.619  -8.559   2.418  1.00  0.00     0.001 A 
ATOM     25  C   UNL     1       2.231  -8.103   0.122  1.00  0.00     0.047 A 
ATOM     26  C   UNL     1       1.633  -8.933   1.081  1.00  0.00     0.004 A 
ENDBRANCH  19  20
ENDBRANCH  11  19
BRANCH  17  27
ATOM     27  C   UNL     1       4.629  -1.451   1.435  1.00  0.00     0.207 C 
ATOM     28  C   UNL     1       3.491  -2.054   2.267  1.00  0.00     0.042 C 
ATOM     29  O   UNL     1       5.286  -0.437   2.208  1.00  0.00    -0.368 OA
ATOM     30  C   UNL     1       2.528  -0.993   2.769  1.00  0.00     0.006 C 
ATOM     31  C   UNL     1       4.418   0.623   2.587  1.00  0.00     0.161 C 
ATOM     32  C   UNL     1       3.294   0.111   3.478  1.00  0.00     0.029 C 
ENDBRANCH  17  27
ENDBRANCH   9  11
ENDBRANCH   8   9
ENDBRANCH   7   8
ENDBRANCH   6   7
ENDBRANCH   5   6
ENDBRANCH   4   5
ENDBRANCH   3   4
ENDBRANCH   2   3
ENDBRANCH   1   2
BRANCH   1  33
ATOM     33  C   UNL     1      10.340  -8.184  -1.762  1.00  0.00     0.188 C 
BRANCH  33  34
ATOM     34  O   UNL     1       9.727  -9.298  -2.416  1.00  0.00    -0.376 OA
BRANCH  34  35
ATOM     35  C   UNL     1      10.050 -10.586  -1.929  1.00  0.00     0.202 C 
BRANCH  35  36
ATOM     36  C   UNL     1      11.546 -10.849  -1.799  1.00  0.00     0.261 C 
BRANCH  36  37
ATOM     37  O   UNL     1      12.182 -11.219  -3.055  1.00  0.00    -0.460 OA
BRANCH  37  38
ATOM     38  C   UNL     1      12.787 -10.316  -3.887  1.00  0.00     0.338 C 
ATOM     39  O   UNL     1      13.978 -10.381  -4.161  1.00  0.00    -0.246 OA
BRANCH  38  40
ATOM     40  C   UNL     1      11.865  -9.467  -4.689  1.00  0.00     0.060 A 
ATOM     41  C   UNL     1      12.239  -8.211  -5.189  1.00  0.00     0.016 A 
ATOM     42  C   UNL     1      10.591  -9.922  -4.955  1.00  0.00     0.016 A 
ATOM     43  C   UNL     1      11.281  -7.324  -5.732  1.00  0.00     0.010 A 
ATOM     44  C   UNL     1       9.642  -9.027  -5.420  1.00  0.00     0.010 A 
ATOM     45  C   UNL     1       9.942  -7.700  -5.777  1.00  0.00    -0.014 A 
BRANCH  45  46
ATOM     46  C   UNL     1       8.769  -6.822  -6.049  1.00  0.00     0.031 A 
ATOM     47  C   UNL     1       7.662  -7.344  -6.945  1.00  0.00     0.074 A 
ATOM     48  C   UNL     1       8.526  -5.781  -5.207  1.00  0.00     0.049 A 
ATOM     49  N   UNL     1       6.492  -6.818  -7.097  1.00  0.00    -0.248 NA
ATOM     50  C   UNL     1       7.786  -8.569  -7.744  1.00  0.00     0.031 C 
ATOM     51  C   UNL     1       7.204  -5.306  -4.780  1.00  0.00     0.029 A 
ATOM     52  N   UNL     1       9.363  -4.995  -4.428  1.00  0.00    -0.354 N 
ATOM     53  C   UNL     1       5.645  -7.745  -7.692  1.00  0.00     0.074 A 
ATOM     54  C   UNL     1       6.525  -8.790  -8.141  1.00  0.00     0.031 C 
ATOM     55  C   UNL     1       7.319  -4.333  -3.862  1.00  0.00     0.029 A 
ATOM     56  C   UNL     1       8.679  -3.879  -3.928  1.00  0.00     0.049 A 
ATOM     57  H   UNL     1      10.310  -5.195  -4.250  1.00  0.00     0.167 HD
ATOM     58  C   UNL     1       4.285  -7.565  -7.618  1.00  0.00     0.037 A 
ATOM     59  C   UNL     1       8.949  -2.611  -4.373  1.00  0.00     0.037 A 
ATOM     60  C   UNL     1       3.966  -6.231  -7.073  1.00  0.00     0.049 A 
ATOM     61  C   UNL     1       7.842  -2.078  -5.295  1.00  0.00     0.074 A 
ATOM     62  C   UNL     1       3.191  -5.766  -6.025  1.00  0.00     0.029 A 
ATOM     63  N   UNL     1       4.644  -5.117  -7.569  1.00  0.00    -0.354 N 
ATOM     64  N   UNL     1       7.011  -2.870  -5.940  1.00  0.00    -0.248 NA
ATOM     65  C   UNL     1       7.460  -0.675  -5.459  1.00  0.00     0.031 C 
ATOM     66  C   UNL     1       3.533  -4.398  -5.806  1.00  0.00     0.029 A 
ATOM     67  C   UNL     1       4.453  -4.010  -6.772  1.00  0.00     0.049 A 
ATOM     68  H   UNL     1       5.190  -5.122  -8.387  1.00  0.00     0.167 HD
ATOM     69  C   UNL     1       6.006  -2.154  -6.521  1.00  0.00     0.074 A 
ATOM     70  C   UNL     1       6.349  -0.776  -6.218  1.00  0.00     0.031 C 
ATOM     71  C   UNL     1       4.957  -2.712  -7.200  1.00  0.00     0.037 A 
BRANCH  58  72
ATOM     72  C   UNL     1       3.185  -8.618  -7.862  1.00  0.00     0.058 A 
ATOM     73  C   UNL     1       1.823  -8.223  -7.923  1.00  0.00     0.135 A 
ATOM     74  C   UNL     1       3.369 -10.019  -7.925  1.00  0.00     0.135 A 
ATOM     75  F   UNL     1       1.478  -6.928  -7.903  1.00  0.00    -0.206 F 
ATOM     76  C   UNL     1       0.749  -9.124  -8.004  1.00  0.00     0.059 A 
ATOM     77  C   UNL     1       2.308 -10.940  -8.059  1.00  0.00     0.059 A 
ATOM     78  F   UNL     1       4.583 -10.572  -7.816  1.00  0.00    -0.206 F 
ATOM     79  C   UNL     1       0.997 -10.486  -8.077  1.00  0.00     0.060 A 
BRANCH  79  80
ATOM     80  S   UNL     1      -0.401 -11.627  -8.230  1.00  0.00     0.124 S 
ATOM     81  O   UNL     1      -1.022 -11.535  -6.912  1.00  0.00    -0.237 OA
ATOM     82  O   UNL     1      -1.164 -11.044  -9.330  1.00  0.00    -0.237 OA
ATOM     83  O   UNL     1       0.234 -12.908  -8.531  1.00  0.00    -0.744 OA
ENDBRANCH  79  80
ENDBRANCH  58  72
BRANCH  59  84
ATOM     84  C   UNL     1      10.414  -2.306  -4.242  1.00  0.00     0.058 A 
ATOM     85  C   UNL     1      10.835  -2.214  -2.893  1.00  0.00     0.135 A 
ATOM     86  C   UNL     1      11.309  -2.924  -5.135  1.00  0.00     0.135 A 
ATOM     87  F   UNL     1      10.063  -1.571  -2.001  1.00  0.00    -0.206 F 
ATOM     88  C   UNL     1      11.885  -2.989  -2.399  1.00  0.00     0.059 A 
ATOM     89  C   UNL     1      12.378  -3.700  -4.661  1.00  0.00     0.059 A 
ATOM     90  F   UNL     1      11.002  -3.005  -6.439  1.00  0.00    -0.206 F 
ATOM     91  C   UNL     1      12.596  -3.795  -3.283  1.00  0.00     0.060 A 
BRANCH  91  92
ATOM     92  S   UNL     1      13.581  -5.156  -2.589  1.00  0.00     0.124 S 
ATOM     93  O   UNL     1      14.767  -4.464  -2.106  1.00  0.00    -0.237 OA
ATOM     94  O   UNL     1      12.686  -5.697  -1.568  1.00  0.00    -0.237 OA
ATOM     95  O   UNL     1      13.781  -6.028  -3.738  1.00  0.00    -0.744 OA
ENDBRANCH  91  92
ENDBRANCH  59  84
BRANCH  71  96
ATOM     96  C   UNL     1       4.276  -2.049  -8.377  1.00  0.00     0.058 A 
ATOM     97  C   UNL     1       4.888  -1.032  -9.127  1.00  0.00     0.135 A 
ATOM     98  C   UNL     1       3.079  -2.577  -8.931  1.00  0.00     0.135 A 
ATOM     99  F   UNL     1       6.090  -0.540  -8.797  1.00  0.00    -0.206 F 
ATOM    100  C   UNL     1       4.315  -0.509 -10.280  1.00  0.00     0.059 A 
ATOM    101  C   UNL     1       2.525  -2.114 -10.120  1.00  0.00     0.059 A 
ATOM    102  F   UNL     1       2.413  -3.587  -8.354  1.00  0.00    -0.206 F 
ATOM    103  C   UNL     1       3.131  -1.051 -10.766  1.00  0.00     0.060 A 
BRANCH 103 104
ATOM    104  S   UNL     1       2.408  -0.356 -12.256  1.00  0.00     0.124 S 
ATOM    105  O   UNL     1       1.743   0.828 -11.720  1.00  0.00    -0.237 OA
ATOM    106  O   UNL     1       3.581  -0.100 -13.087  1.00  0.00    -0.237 OA
ATOM    107  O   UNL     1       1.527  -1.415 -12.735  1.00  0.00    -0.744 OA
ENDBRANCH 103 104
ENDBRANCH  71  96
ENDBRANCH  45  46
ENDBRANCH  38  40
ENDBRANCH  37  38
ENDBRANCH  36  37
ENDBRANCH  35  36
ENDBRANCH  34  35
ENDBRANCH  33  34
ENDBRANCH   1  33
TORSDOF 26
