REMARK SMILES O=C(OCCOCCOCCOCCOC(=O)c1ccc(-c2c3nc(c(-c4c(F)cc(S(=O)(=O)[O-])cc4F)c4ccc([nH]4)c(-c4c(F)cc(S(=O)(=O)[O-])cc4F)c4nc(c(-c5c(F)cc(S(=O)(=O)[O-])cc5F)c5ccc2[nH]5)C=C4)C=C3)cc1)C1=Cc2cc(Cl)c(Cl)cc2O[C@@H]1C(F)(F)F
REMARK SMILES IDX 10 1 9 2 8 3 7 4 6 5 5 6 4 7 3 8 2 9 1 10 84 11 85 12 95 13
REMARK SMILES IDX 86 14 94 15 87 16 93 17 88 18 92 19 89 20 90 21 91 22 96 23
REMARK SMILES IDX 97 24 98 25 99 26 11 27 12 28 13 29 14 30 15 31 16 32 17 33
REMARK SMILES IDX 18 34 19 35 83 36 20 37 82 38 21 39 22 40 23 41 76 42 24 43
REMARK SMILES IDX 81 44 75 45 77 46 25 47 80 48 74 49 73 50 26 52 60 53 39 54
REMARK SMILES IDX 59 55 40 56 43 57 58 58 78 59 41 60 42 61 57 63 79 64 44 65
REMARK SMILES IDX 27 66 28 67 37 68 29 69 30 70 36 71 38 72 31 73 32 74 33 75
REMARK SMILES IDX 34 76 35 77 61 78 62 79 71 80 63 81 64 82 70 83 72 84 65 85
REMARK SMILES IDX 66 86 67 87 68 88 69 89 45 90 46 91 55 92 47 93 48 94 54 95
REMARK SMILES IDX 56 96 49 97 50 98 51 99 52 100 53 101
REMARK H PARENT 77 51 43 62
REMARK Flexibility Score: inf
ROOT
ATOM      1  C   UNL     1       4.040   1.979   3.102  1.00  0.00     0.188 C 
ENDROOT
BRANCH   1   2
ATOM      2  O   UNL     1       2.709   1.899   3.552  1.00  0.00    -0.377 OA
BRANCH   2   3
ATOM      3  C   UNL     1       1.880   1.262   2.610  1.00  0.00     0.188 C 
BRANCH   3   4
ATOM      4  C   UNL     1       2.245  -0.195   2.280  1.00  0.00     0.188 C 
BRANCH   4   5
ATOM      5  O   UNL     1       3.578  -0.663   1.859  1.00  0.00    -0.376 OA
BRANCH   5   6
ATOM      6  C   UNL     1       4.321  -0.806   0.368  1.00  0.00     0.202 C 
BRANCH   6   7
ATOM      7  C   UNL     1       3.583  -0.019  -1.529  1.00  0.00     0.261 C 
BRANCH   7   8
ATOM      8  O   UNL     1       2.641  -0.716  -2.484  1.00  0.00    -0.460 OA
BRANCH   8   9
ATOM      9  C   UNL     1       2.827  -2.040  -2.498  1.00  0.00     0.338 C 
ATOM     10  O   UNL     1       2.144  -2.883  -3.025  1.00  0.00    -0.246 OA
BRANCH   9  11
ATOM     11  C   UNL     1       3.712  -2.119  -1.344  1.00  0.00     0.087 C 
ATOM     12  C   UNL     1       5.093  -1.697  -1.609  1.00  0.00     0.027 C 
ATOM     13  C   UNL     1       2.478  -1.167  -0.222  1.00  0.00     0.316 C 
ATOM     14  C   UNL     1       5.785  -0.107  -1.127  1.00  0.00     0.019 A 
ATOM     15  O   UNL     1       3.140   0.619   0.200  1.00  0.00    -0.475 OA
ATOM     16  C   UNL     1       7.065   0.209  -1.489  1.00  0.00     0.034 A 
ATOM     17  C   UNL     1       4.841   1.097  -0.321  1.00  0.00     0.129 A 
ATOM     18  C   UNL     1       7.500   1.505  -1.133  1.00  0.00     0.060 A 
ATOM     19  C   UNL     1       5.331   2.342  -0.024  1.00  0.00     0.069 A 
ATOM     20  Cl  UNL     1       9.141   1.863  -1.609  1.00  0.00    -0.083 Cl
ATOM     21  C   UNL     1       6.685   2.509  -0.434  1.00  0.00     0.063 A 
ATOM     22  Cl  UNL     1       7.404   4.049  -0.041  1.00  0.00    -0.083 Cl
BRANCH  13  23
ATOM     23  C   UNL     1       2.182  -2.512   0.735  1.00  0.00     0.430 C 
ATOM     24  F   UNL     1       1.306  -2.399   1.749  1.00  0.00    -0.167 F 
ATOM     25  F   UNL     1       1.611  -3.450  -0.085  1.00  0.00    -0.167 F 
ATOM     26  F   UNL     1       3.288  -3.131   1.221  1.00  0.00    -0.167 F 
ENDBRANCH  13  23
ENDBRANCH   9  11
ENDBRANCH   8   9
ENDBRANCH   7   8
ENDBRANCH   6   7
ENDBRANCH   5   6
ENDBRANCH   4   5
ENDBRANCH   3   4
ENDBRANCH   2   3
ENDBRANCH   1   2
BRANCH   1  27
ATOM     27  C   UNL     1       5.050   1.060   3.801  1.00  0.00     0.188 C 
BRANCH  27  28
ATOM     28  O   UNL     1       4.671   0.013   4.680  1.00  0.00    -0.376 OA
BRANCH  28  29
ATOM     29  C   UNL     1       3.494   0.081   5.463  1.00  0.00     0.202 C 
BRANCH  29  30
ATOM     30  C   UNL     1       3.231   1.218   6.459  1.00  0.00     0.261 C 
BRANCH  30  31
ATOM     31  O   UNL     1       3.513   2.544   6.003  1.00  0.00    -0.460 OA
BRANCH  31  32
ATOM     32  C   UNL     1       4.773   2.972   6.233  1.00  0.00     0.338 C 
ATOM     33  O   UNL     1       5.647   2.378   6.840  1.00  0.00    -0.246 OA
BRANCH  32  34
ATOM     34  C   UNL     1       5.017   4.209   5.459  1.00  0.00     0.060 A 
ATOM     35  C   UNL     1       6.190   4.287   4.690  1.00  0.00     0.016 A 
ATOM     36  C   UNL     1       4.122   5.279   5.489  1.00  0.00     0.016 A 
ATOM     37  C   UNL     1       6.502   5.448   3.994  1.00  0.00     0.010 A 
ATOM     38  C   UNL     1       4.460   6.465   4.834  1.00  0.00     0.010 A 
ATOM     39  C   UNL     1       5.676   6.566   4.133  1.00  0.00    -0.014 A 
BRANCH  39  40
ATOM     40  C   UNL     1       6.225   7.900   3.804  1.00  0.00     0.031 A 
ATOM     41  C   UNL     1       6.778   8.722   4.937  1.00  0.00     0.074 A 
ATOM     42  C   UNL     1       6.268   8.352   2.540  1.00  0.00     0.049 A 
ATOM     43  N   UNL     1       7.227   9.948   4.933  1.00  0.00    -0.248 NA
ATOM     44  C   UNL     1       6.819   8.070   6.258  1.00  0.00     0.031 C 
ATOM     45  C   UNL     1       5.831   7.609   1.360  1.00  0.00     0.029 A 
ATOM     46  N   UNL     1       6.690   9.558   2.046  1.00  0.00    -0.354 N 
ATOM     47  C   UNL     1       7.582  10.221   6.249  1.00  0.00     0.074 A 
ATOM     48  C   UNL     1       7.266   9.047   7.030  1.00  0.00     0.031 C 
ATOM     49  C   UNL     1       5.985   8.389   0.276  1.00  0.00     0.029 A 
ATOM     50  C   UNL     1       6.490   9.696   0.694  1.00  0.00     0.049 A 
ATOM     51  H   UNL     1       7.098  10.258   2.605  1.00  0.00     0.167 HD
ATOM     52  C   UNL     1       8.127  11.351   6.756  1.00  0.00     0.037 A 
ATOM     53  C   UNL     1       6.662  10.770  -0.102  1.00  0.00     0.037 A 
ATOM     54  C   UNL     1       8.432  12.511   5.962  1.00  0.00     0.049 A 
ATOM     55  C   UNL     1       7.187  12.050   0.499  1.00  0.00     0.074 A 
ATOM     56  C   UNL     1       8.997  13.706   6.368  1.00  0.00     0.029 A 
ATOM     57  N   UNL     1       8.186  12.626   4.600  1.00  0.00    -0.354 N 
ATOM     58  N   UNL     1       7.528  12.301   1.742  1.00  0.00    -0.248 NA
ATOM     59  C   UNL     1       7.356  13.192  -0.410  1.00  0.00     0.031 C 
ATOM     60  C   UNL     1       9.020  14.571   5.270  1.00  0.00     0.029 A 
ATOM     61  C   UNL     1       8.553  13.886   4.159  1.00  0.00     0.049 A 
ATOM     62  H   UNL     1       7.806  11.917   4.033  1.00  0.00     0.167 HD
ATOM     63  C   UNL     1       7.987  13.616   1.755  1.00  0.00     0.074 A 
ATOM     64  C   UNL     1       7.888  14.102   0.395  1.00  0.00     0.031 C 
ATOM     65  C   UNL     1       8.455  14.351   2.796  1.00  0.00     0.037 A 
BRANCH  52  66
ATOM     66  C   UNL     1       8.382  11.402   8.239  1.00  0.00     0.058 A 
ATOM     67  C   UNL     1       9.354  10.601   8.861  1.00  0.00     0.135 A 
ATOM     68  C   UNL     1       7.654  12.289   9.050  1.00  0.00     0.135 A 
ATOM     69  F   UNL     1      10.066   9.719   8.142  1.00  0.00    -0.206 F 
ATOM     70  C   UNL     1       9.575  10.657  10.234  1.00  0.00     0.059 A 
ATOM     71  C   UNL     1       7.884  12.389  10.418  1.00  0.00     0.059 A 
ATOM     72  F   UNL     1       6.706  13.074   8.513  1.00  0.00    -0.206 F 
ATOM     73  C   UNL     1       8.838  11.559  11.004  1.00  0.00     0.060 A 
BRANCH  73  74
ATOM     74  S   UNL     1       9.148  11.629  12.780  1.00  0.00     0.124 S 
ATOM     75  O   UNL     1       8.628  10.338  13.220  1.00  0.00    -0.237 OA
ATOM     76  O   UNL     1      10.599  11.780  12.834  1.00  0.00    -0.237 OA
ATOM     77  O   UNL     1       8.383  12.793  13.215  1.00  0.00    -0.744 OA
ENDBRANCH  73  74
ENDBRANCH  52  66
BRANCH  53  78
ATOM     78  C   UNL     1       6.318  10.687  -1.547  1.00  0.00     0.058 A 
ATOM     79  C   UNL     1       7.307  10.777  -2.537  1.00  0.00     0.135 A 
ATOM     80  C   UNL     1       4.989  10.512  -1.969  1.00  0.00     0.135 A 
ATOM     81  F   UNL     1       8.590  10.959  -2.188  1.00  0.00    -0.206 F 
ATOM     82  C   UNL     1       6.994  10.710  -3.891  1.00  0.00     0.059 A 
ATOM     83  C   UNL     1       4.655  10.408  -3.315  1.00  0.00     0.059 A 
ATOM     84  F   UNL     1       4.003  10.412  -1.064  1.00  0.00    -0.206 F 
ATOM     85  C   UNL     1       5.664  10.516  -4.269  1.00  0.00     0.060 A 
BRANCH  85  86
ATOM     86  S   UNL     1       5.280  10.367  -6.027  1.00  0.00     0.124 S 
ATOM     87  O   UNL     1       5.545  11.719  -6.504  1.00  0.00    -0.237 OA
ATOM     88  O   UNL     1       6.223   9.340  -6.457  1.00  0.00    -0.237 OA
ATOM     89  O   UNL     1       3.877   9.960  -6.032  1.00  0.00    -0.744 OA
ENDBRANCH  85  86
ENDBRANCH  53  78
BRANCH  65  90
ATOM     90  C   UNL     1       8.949  15.745   2.502  1.00  0.00     0.058 A 
ATOM     91  C   UNL     1       8.082  16.785   2.137  1.00  0.00     0.135 A 
ATOM     92  C   UNL     1      10.312  16.054   2.653  1.00  0.00     0.135 A 
ATOM     93  F   UNL     1       6.770  16.547   1.974  1.00  0.00    -0.206 F 
ATOM     94  C   UNL     1       8.550  18.074   1.902  1.00  0.00     0.059 A 
ATOM     95  C   UNL     1      10.797  17.344   2.463  1.00  0.00     0.059 A 
ATOM     96  F   UNL     1      11.187  15.102   3.013  1.00  0.00    -0.206 F 
ATOM     97  C   UNL     1       9.909  18.345   2.075  1.00  0.00     0.060 A 
BRANCH  97  98
ATOM     98  S   UNL     1      10.495  20.031   1.804  1.00  0.00     0.124 S 
ATOM     99  O   UNL     1      10.345  20.166   0.359  1.00  0.00    -0.237 OA
ATOM    100  O   UNL     1       9.568  20.814   2.614  1.00  0.00    -0.237 OA
ATOM    101  O   UNL     1      11.871  19.997   2.291  1.00  0.00    -0.744 OA
ENDBRANCH  97  98
ENDBRANCH  65  90
ENDBRANCH  39  40
ENDBRANCH  32  34
ENDBRANCH  31  32
ENDBRANCH  30  31
ENDBRANCH  29  30
ENDBRANCH  28  29
ENDBRANCH  27  28
ENDBRANCH   1  27
TORSDOF 24
