REMARK SMILES C=CC[C@@]1(C(=O)OCCOCCOCCOCCOC(=O)c2ccc(-c3c4nc(c(-c5c(F)cc(S(=O)(=O)[O-])cc5F)c5ccc([nH]5)c(-c5c(F)cc(S(=O)(=O)[O-])cc5F)c5nc(c(-c6c(F)cc(S(=O)(=O)[O-])cc6F)c6ccc3[nH]6)C=C5)C=C4)cc2)CCCN(C(=O)c2ccc3c(c2)OCO3)C1
REMARK SMILES IDX 14 1 13 2 12 3 11 4 10 5 9 6 8 7 7 8 5 9 6 10 4 11 88 12
REMARK SMILES IDX 103 13 89 14 91 15 90 16 3 17 2 18 1 19 92 20 93 21 94 22
REMARK SMILES IDX 95 23 99 24 96 25 98 26 97 27 100 28 102 29 101 30 15 31
REMARK SMILES IDX 16 32 17 33 18 34 19 35 20 36 21 37 22 38 23 39 87 40 24 41
REMARK SMILES IDX 86 42 25 43 26 44 27 45 80 46 28 47 85 48 79 49 81 50 29 51
REMARK SMILES IDX 84 52 78 53 77 54 30 56 64 57 43 58 63 59 44 60 47 61 62 62
REMARK SMILES IDX 82 63 45 64 46 65 61 67 83 68 48 69 31 70 32 71 41 72 33 73
REMARK SMILES IDX 34 74 40 75 42 76 35 77 36 78 37 79 38 80 39 81 65 82 66 83
REMARK SMILES IDX 75 84 67 85 68 86 74 87 76 88 69 89 70 90 71 91 72 92 73 93
REMARK SMILES IDX 49 94 50 95 59 96 51 97 52 98 58 99 60 100 53 101 54 102
REMARK SMILES IDX 55 103 56 104 57 105
REMARK H PARENT 81 55 47 66
REMARK Flexibility Score: inf
ROOT
ATOM      1  C   UNL     1       0.567   2.297   1.103  1.00  0.00     0.188 C 
ENDROOT
BRANCH   1   2
ATOM      2  O   UNL     1       0.152   1.236   0.263  1.00  0.00    -0.377 OA
BRANCH   2   3
ATOM      3  C   UNL     1      -1.224   1.149  -0.031  1.00  0.00     0.188 C 
BRANCH   3   4
ATOM      4  C   UNL     1      -2.029   0.354   1.004  1.00  0.00     0.188 C 
BRANCH   4   5
ATOM      5  O   UNL     1      -1.377  -0.125   2.161  1.00  0.00    -0.376 OA
BRANCH   5   6
ATOM      6  C   UNL     1      -0.166  -0.863   2.160  1.00  0.00     0.202 C 
BRANCH   6   7
ATOM      7  C   UNL     1       0.548  -1.567   0.978  1.00  0.00     0.261 C 
BRANCH   7   8
ATOM      8  O   UNL     1       0.097  -1.378  -0.362  1.00  0.00    -0.463 OA
BRANCH   8   9
ATOM      9  C   UNL     1      -1.066  -1.989  -0.658  1.00  0.00     0.314 C 
ATOM     10  O   UNL     1      -1.707  -2.598   0.195  1.00  0.00    -0.252 OA
BRANCH   9  11
ATOM     11  C   UNL     1      -1.533  -1.777  -2.129  1.00  0.00     0.089 C 
ATOM     12  C   UNL     1      -3.005  -1.249  -2.159  1.00  0.00     0.023 C 
ATOM     13  C   UNL     1      -1.542  -3.189  -2.744  1.00  0.00     0.138 C 
ATOM     14  C   UNL     1      -4.022  -2.189  -1.510  1.00  0.00     0.023 C 
ATOM     15  N   UNL     1      -2.465  -4.059  -2.027  1.00  0.00    -0.337 N 
ATOM     16  C   UNL     1      -3.869  -3.622  -2.017  1.00  0.00     0.120 C 
BRANCH  11  17
ATOM     17  C   UNL     1      -0.558  -0.878  -2.988  1.00  0.00     0.047 C 
BRANCH  17  18
ATOM     18  C   UNL     1      -1.164   0.251  -3.799  1.00  0.00    -0.034 C 
ATOM     19  C   UNL     1      -0.830   1.542  -3.657  1.00  0.00     0.004 C 
ENDBRANCH  17  18
ENDBRANCH  11  17
BRANCH  15  20
ATOM     20  C   UNL     1      -1.913  -5.026  -1.174  1.00  0.00     0.254 C 
ATOM     21  O   UNL     1      -0.714  -5.219  -1.010  1.00  0.00    -0.269 OA
BRANCH  20  22
ATOM     22  C   UNL     1      -2.863  -5.886  -0.463  1.00  0.00     0.043 A 
ATOM     23  C   UNL     1      -3.133  -5.686   0.906  1.00  0.00     0.018 A 
ATOM     24  C   UNL     1      -3.609  -6.759  -1.254  1.00  0.00     0.064 A 
ATOM     25  C   UNL     1      -4.233  -6.325   1.486  1.00  0.00     0.051 A 
ATOM     26  C   UNL     1      -4.710  -7.318  -0.668  1.00  0.00     0.166 A 
ATOM     27  C   UNL     1      -5.023  -7.099   0.658  1.00  0.00     0.165 A 
ATOM     28  O   UNL     1      -5.657  -8.040  -1.321  1.00  0.00    -0.454 OA
ATOM     29  O   UNL     1      -6.215  -7.670   0.990  1.00  0.00    -0.454 OA
ATOM     30  C   UNL     1      -6.691  -8.049  -0.320  1.00  0.00     0.468 C 
ENDBRANCH  20  22
ENDBRANCH  15  20
ENDBRANCH   9  11
ENDBRANCH   8   9
ENDBRANCH   7   8
ENDBRANCH   6   7
ENDBRANCH   5   6
ENDBRANCH   4   5
ENDBRANCH   3   4
ENDBRANCH   2   3
ENDBRANCH   1   2
BRANCH   1  31
ATOM     31  C   UNL     1      -0.408   2.859   2.159  1.00  0.00     0.188 C 
BRANCH  31  32
ATOM     32  O   UNL     1      -1.738   3.059   1.698  1.00  0.00    -0.376 OA
BRANCH  32  33
ATOM     33  C   UNL     1      -2.168   4.349   1.304  1.00  0.00     0.202 C 
BRANCH  33  34
ATOM     34  C   UNL     1      -1.560   4.948   0.026  1.00  0.00     0.261 C 
BRANCH  34  35
ATOM     35  O   UNL     1      -0.131   5.034  -0.020  1.00  0.00    -0.460 OA
BRANCH  35  36
ATOM     36  C   UNL     1       0.481   5.759   0.942  1.00  0.00     0.338 C 
ATOM     37  O   UNL     1      -0.056   6.396   1.832  1.00  0.00    -0.246 OA
BRANCH  36  38
ATOM     38  C   UNL     1       1.929   5.473   0.857  1.00  0.00     0.060 A 
ATOM     39  C   UNL     1       2.578   4.924   1.971  1.00  0.00     0.016 A 
ATOM     40  C   UNL     1       2.627   5.700  -0.331  1.00  0.00     0.016 A 
ATOM     41  C   UNL     1       3.939   4.630   1.910  1.00  0.00     0.010 A 
ATOM     42  C   UNL     1       3.997   5.436  -0.381  1.00  0.00     0.010 A 
ATOM     43  C   UNL     1       4.664   4.933   0.751  1.00  0.00    -0.014 A 
BRANCH  43  44
ATOM     44  C   UNL     1       6.144   4.956   0.802  1.00  0.00     0.031 A 
ATOM     45  C   UNL     1       6.814   6.277   1.067  1.00  0.00     0.074 A 
ATOM     46  C   UNL     1       6.875   3.840   0.636  1.00  0.00     0.049 A 
ATOM     47  N   UNL     1       8.085   6.574   1.095  1.00  0.00    -0.248 NA
ATOM     48  C   UNL     1       5.921   7.420   1.331  1.00  0.00     0.031 C 
ATOM     49  C   UNL     1       6.337   2.498   0.421  1.00  0.00     0.029 A 
ATOM     50  N   UNL     1       8.236   3.666   0.611  1.00  0.00    -0.354 N 
ATOM     51  C   UNL     1       8.146   7.936   1.369  1.00  0.00     0.074 A 
ATOM     52  C   UNL     1       6.785   8.413   1.470  1.00  0.00     0.031 C 
ATOM     53  C   UNL     1       7.361   1.639   0.266  1.00  0.00     0.029 A 
ATOM     54  C   UNL     1       8.622   2.376   0.335  1.00  0.00     0.049 A 
ATOM     55  H   UNL     1       8.876   4.397   0.774  1.00  0.00     0.167 HD
ATOM     56  C   UNL     1       9.240   8.716   1.527  1.00  0.00     0.037 A 
ATOM     57  C   UNL     1       9.852   1.861   0.134  1.00  0.00     0.037 A 
ATOM     58  C   UNL     1      10.590   8.232   1.421  1.00  0.00     0.049 A 
ATOM     59  C   UNL     1      11.056   2.765   0.242  1.00  0.00     0.074 A 
ATOM     60  C   UNL     1      11.770   8.936   1.580  1.00  0.00     0.029 A 
ATOM     61  N   UNL     1      10.941   6.925   1.116  1.00  0.00    -0.354 N 
ATOM     62  N   UNL     1      11.105   4.046   0.524  1.00  0.00    -0.248 NA
ATOM     63  C   UNL     1      12.372   2.154   0.008  1.00  0.00     0.031 C 
ATOM     64  C   UNL     1      12.833   8.069   1.312  1.00  0.00     0.029 A 
ATOM     65  C   UNL     1      12.319   6.808   1.053  1.00  0.00     0.049 A 
ATOM     66  H   UNL     1      10.305   6.189   0.968  1.00  0.00     0.167 HD
ATOM     67  C   UNL     1      12.456   4.385   0.532  1.00  0.00     0.074 A 
ATOM     68  C   UNL     1      13.190   3.173   0.237  1.00  0.00     0.031 C 
ATOM     69  C   UNL     1      13.036   5.589   0.767  1.00  0.00     0.037 A 
BRANCH  56  70
ATOM     70  C   UNL     1       9.020  10.179   1.795  1.00  0.00     0.058 A 
ATOM     71  C   UNL     1       8.503  10.642   3.016  1.00  0.00     0.135 A 
ATOM     72  C   UNL     1       9.358  11.135   0.824  1.00  0.00     0.135 A 
ATOM     73  F   UNL     1       8.139   9.772   3.971  1.00  0.00    -0.206 F 
ATOM     74  C   UNL     1       8.309  11.999   3.255  1.00  0.00     0.059 A 
ATOM     75  C   UNL     1       9.202  12.498   1.053  1.00  0.00     0.059 A 
ATOM     76  F   UNL     1       9.848  10.747  -0.365  1.00  0.00    -0.206 F 
ATOM     77  C   UNL     1       8.665  12.920   2.268  1.00  0.00     0.060 A 
BRANCH  77  78
ATOM     78  S   UNL     1       8.420  14.677   2.600  1.00  0.00     0.124 S 
ATOM     79  O   UNL     1       6.965  14.781   2.559  1.00  0.00    -0.237 OA
ATOM     80  O   UNL     1       9.030  14.832   3.917  1.00  0.00    -0.237 OA
ATOM     81  O   UNL     1       9.127  15.333   1.504  1.00  0.00    -0.744 OA
ENDBRANCH  77  78
ENDBRANCH  56  70
BRANCH  57  82
ATOM     82  C   UNL     1      10.011   0.421  -0.209  1.00  0.00     0.058 A 
ATOM     83  C   UNL     1      10.621  -0.477   0.679  1.00  0.00     0.135 A 
ATOM     84  C   UNL     1       9.561  -0.086  -1.439  1.00  0.00     0.135 A 
ATOM     85  F   UNL     1      11.082  -0.041   1.861  1.00  0.00    -0.206 F 
ATOM     86  C   UNL     1      10.794  -1.820   0.356  1.00  0.00     0.059 A 
ATOM     87  C   UNL     1       9.695  -1.430  -1.773  1.00  0.00     0.059 A 
ATOM     88  F   UNL     1       8.965   0.729  -2.324  1.00  0.00    -0.206 F 
ATOM     89  C   UNL     1      10.323  -2.288  -0.872  1.00  0.00     0.060 A 
BRANCH  89  90
ATOM     90  S   UNL     1      10.512  -4.041  -1.260  1.00  0.00     0.124 S 
ATOM     91  O   UNL     1      11.950  -4.142  -1.475  1.00  0.00    -0.237 OA
ATOM     92  O   UNL     1      10.001  -4.677  -0.050  1.00  0.00    -0.237 OA
ATOM     93  O   UNL     1       9.682  -4.213  -2.449  1.00  0.00    -0.744 OA
ENDBRANCH  89  90
ENDBRANCH  57  82
BRANCH  69  94
ATOM     94  C   UNL     1      14.540   5.656   0.761  1.00  0.00     0.058 A 
ATOM     95  C   UNL     1      15.284   5.550  -0.424  1.00  0.00     0.135 A 
ATOM     96  C   UNL     1      15.242   5.898   1.954  1.00  0.00     0.135 A 
ATOM     97  F   UNL     1      14.666   5.314  -1.592  1.00  0.00    -0.206 F 
ATOM     98  C   UNL     1      16.672   5.659  -0.423  1.00  0.00     0.059 A 
ATOM     99  C   UNL     1      16.626   6.044   1.974  1.00  0.00     0.059 A 
ATOM    100  F   UNL     1      14.580   6.022   3.115  1.00  0.00    -0.206 F 
ATOM    101  C   UNL     1      17.333   5.911   0.780  1.00  0.00     0.060 A 
BRANCH 101 102
ATOM    102  S   UNL     1      19.130   6.090   0.760  1.00  0.00     0.124 S 
ATOM    103  O   UNL     1      19.560   4.715   0.526  1.00  0.00    -0.237 OA
ATOM    104  O   UNL     1      19.338   7.016  -0.348  1.00  0.00    -0.237 OA
ATOM    105  O   UNL     1      19.434   6.626   2.083  1.00  0.00    -0.744 OA
ENDBRANCH 101 102
ENDBRANCH  69  94
ENDBRANCH  43  44
ENDBRANCH  36  38
ENDBRANCH  35  36
ENDBRANCH  34  35
ENDBRANCH  33  34
ENDBRANCH  32  33
ENDBRANCH  31  32
ENDBRANCH   1  31
TORSDOF 27
