REMARK SMILES COc1ccc2c(c1)c(CC(=O)OCCOCCOCCOCCOC(=O)c1ccc(-c3c4nc(c(-c5c(F)cc(S(=O)(=O)[O-])cc5F)c5ccc([nH]5)c(-c5c(F)cc(S(=O)(=O)[O-])cc5F)c5nc(c(-c6c(F)cc(S(=O)(=O)[O-])cc6F)c6ccc3[nH]6)C=C5)C=C4)cc1)c(C(F)(F)F)n2C(=O)c1ccc(Cl)cc1
REMARK SMILES IDX 19 1 18 2 17 3 16 4 15 5 14 6 13 7 11 8 12 9 10 10 9 11 3 12
REMARK SMILES IDX 4 13 8 14 5 15 7 16 6 17 99 18 94 19 2 20 1 21 100 22 101 23
REMARK SMILES IDX 102 24 103 25 108 26 104 27 107 28 105 29 106 30 95 31 96 32
REMARK SMILES IDX 97 33 98 34 20 35 21 36 22 37 23 38 24 39 25 40 26 41 27 42
REMARK SMILES IDX 28 43 29 44 93 45 30 46 92 47 31 48 32 49 33 50 86 51 34 52
REMARK SMILES IDX 91 53 85 54 87 55 35 56 90 57 84 58 83 59 36 61 70 62 49 63
REMARK SMILES IDX 69 64 50 65 53 66 68 67 88 68 51 69 52 70 67 72 89 73 54 74
REMARK SMILES IDX 37 75 38 76 47 77 39 78 40 79 46 80 48 81 41 82 42 83 43 84
REMARK SMILES IDX 44 85 45 86 71 87 72 88 81 89 73 90 74 91 80 92 82 93 75 94
REMARK SMILES IDX 76 95 77 96 78 97 79 98 55 99 56 100 65 101 57 102 58 103
REMARK SMILES IDX 64 104 66 105 59 106 60 107 61 108 62 109 63 110
REMARK H PARENT 87 60 53 71
REMARK Flexibility Score: inf
ROOT
ATOM      1  O   UNL     1       0.107   3.284   2.860  1.00  0.00    -0.377 OA
ENDROOT
BRANCH   1   2
ATOM      2  C   UNL     1      -0.979   2.605   3.414  1.00  0.00     0.188 C 
BRANCH   2   3
ATOM      3  C   UNL     1      -2.406   2.779   2.913  1.00  0.00     0.188 C 
BRANCH   3   4
ATOM      4  O   UNL     1      -3.139   3.961   3.132  1.00  0.00    -0.376 OA
BRANCH   4   5
ATOM      5  C   UNL     1      -3.103   4.745   4.309  1.00  0.00     0.202 C 
BRANCH   5   6
ATOM      6  C   UNL     1      -2.891   4.247   5.756  1.00  0.00     0.261 C 
BRANCH   6   7
ATOM      7  O   UNL     1      -2.182   3.017   5.989  1.00  0.00    -0.463 OA
BRANCH   7   8
ATOM      8  C   UNL     1      -2.933   1.893   6.006  1.00  0.00     0.310 C 
ATOM      9  O   UNL     1      -4.145   1.889   5.794  1.00  0.00    -0.252 OA
BRANCH   8  10
ATOM     10  C   UNL     1      -2.193   0.589   6.288  1.00  0.00     0.161 C 
BRANCH  10  11
ATOM     11  C   UNL     1      -0.682   0.436   6.096  1.00  0.00     0.002 A 
ATOM     12  C   UNL     1       0.398  -0.825   2.626  1.00  0.00     0.119 A 
ATOM     13  C   UNL     1       1.756  -0.749   2.852  1.00  0.00     0.048 A 
ATOM     14  C   UNL     1      -0.490  -0.613   3.694  1.00  0.00     0.057 A 
ATOM     15  C   UNL     1       2.242  -0.390   4.110  1.00  0.00     0.031 A 
ATOM     16  C   UNL     1      -0.024  -0.117   4.945  1.00  0.00     0.008 A 
ATOM     17  C   UNL     1       1.356  -0.038   5.155  1.00  0.00     0.057 A 
ATOM     18  N   UNL     1       1.580   0.414   6.472  1.00  0.00    -0.271 N 
ATOM     19  C   UNL     1       0.320   0.655   7.053  1.00  0.00     0.135 A 
BRANCH  12  20
ATOM     20  O   UNL     1      -0.177  -1.046   1.403  1.00  0.00    -0.497 OA
ATOM     21  C   UNL     1       0.631  -0.771   0.258  1.00  0.00     0.278 C 
ENDBRANCH  12  20
BRANCH  18  22
ATOM     22  C   UNL     1       2.872   0.575   7.066  1.00  0.00     0.262 C 
ATOM     23  O   UNL     1       2.966   0.995   8.213  1.00  0.00    -0.268 OA
BRANCH  22  24
ATOM     24  C   UNL     1       4.166   0.285   6.417  1.00  0.00     0.040 A 
ATOM     25  C   UNL     1       4.772   1.269   5.625  1.00  0.00     0.015 A 
ATOM     26  C   UNL     1       4.773  -0.966   6.591  1.00  0.00     0.015 A 
ATOM     27  C   UNL     1       5.957   0.972   4.946  1.00  0.00     0.021 A 
ATOM     28  C   UNL     1       5.964  -1.252   5.915  1.00  0.00     0.021 A 
ATOM     29  C   UNL     1       6.542  -0.288   5.086  1.00  0.00     0.041 A 
ATOM     30  Cl  UNL     1       7.978  -0.664   4.214  1.00  0.00    -0.084 Cl
ENDBRANCH  22  24
ENDBRANCH  18  22
BRANCH  19  31
ATOM     31  C   UNL     1       0.085   1.091   8.473  1.00  0.00     0.432 C 
ATOM     32  F   UNL     1      -0.138   2.421   8.537  1.00  0.00    -0.165 F 
ATOM     33  F   UNL     1      -1.036   0.478   8.949  1.00  0.00    -0.165 F 
ATOM     34  F   UNL     1       1.036   0.771   9.372  1.00  0.00    -0.165 F 
ENDBRANCH  19  31
ENDBRANCH  10  11
ENDBRANCH   8  10
ENDBRANCH   7   8
ENDBRANCH   6   7
ENDBRANCH   5   6
ENDBRANCH   4   5
ENDBRANCH   3   4
ENDBRANCH   2   3
ENDBRANCH   1   2
BRANCH   1  35
ATOM     35  C   UNL     1      -0.069   4.648   2.650  1.00  0.00     0.188 C 
BRANCH  35  36
ATOM     36  C   UNL     1      -0.420   4.976   1.203  1.00  0.00     0.188 C 
BRANCH  36  37
ATOM     37  O   UNL     1      -0.016   4.144   0.112  1.00  0.00    -0.376 OA
BRANCH  37  38
ATOM     38  C   UNL     1       0.815   3.010   0.313  1.00  0.00     0.202 C 
BRANCH  38  39
ATOM     39  C   UNL     1       2.310   3.257   0.602  1.00  0.00     0.261 C 
BRANCH  39  40
ATOM     40  O   UNL     1       2.560   4.293   1.555  1.00  0.00    -0.460 OA
BRANCH  40  41
ATOM     41  C   UNL     1       3.310   5.362   1.142  1.00  0.00     0.338 C 
ATOM     42  O   UNL     1       4.016   5.445   0.192  1.00  0.00    -0.246 OA
BRANCH  41  43
ATOM     43  C   UNL     1       2.799   6.503   1.952  1.00  0.00     0.060 A 
ATOM     44  C   UNL     1       2.780   6.449   3.349  1.00  0.00     0.016 A 
ATOM     45  C   UNL     1       2.017   7.431   1.252  1.00  0.00     0.016 A 
ATOM     46  C   UNL     1       1.844   7.223   4.033  1.00  0.00     0.010 A 
ATOM     47  C   UNL     1       1.069   8.185   1.938  1.00  0.00     0.010 A 
ATOM     48  C   UNL     1       0.942   8.038   3.321  1.00  0.00    -0.014 A 
BRANCH  48  49
ATOM     49  C   UNL     1       0.075   8.934   4.092  1.00  0.00     0.031 A 
ATOM     50  C   UNL     1       0.873   9.963   4.807  1.00  0.00     0.074 A 
ATOM     51  C   UNL     1      -1.272   9.022   4.061  1.00  0.00     0.049 A 
ATOM     52  N   UNL     1       0.967  10.175   6.077  1.00  0.00    -0.248 NA
ATOM     53  C   UNL     1       1.817  10.741   3.985  1.00  0.00     0.031 C 
ATOM     54  C   UNL     1      -2.201   8.316   3.180  1.00  0.00     0.029 A 
ATOM     55  N   UNL     1      -2.092   9.869   4.759  1.00  0.00    -0.354 N 
ATOM     56  C   UNL     1       1.846  11.246   6.199  1.00  0.00     0.074 A 
ATOM     57  C   UNL     1       2.480  11.415   4.919  1.00  0.00     0.031 C 
ATOM     58  C   UNL     1      -3.420   8.899   3.262  1.00  0.00     0.029 A 
ATOM     59  C   UNL     1      -3.378   9.975   4.240  1.00  0.00     0.049 A 
ATOM     60  H   UNL     1      -1.797  10.360   5.560  1.00  0.00     0.167 HD
ATOM     61  C   UNL     1       1.827  12.086   7.265  1.00  0.00     0.037 A 
ATOM     62  C   UNL     1      -4.302  10.938   4.512  1.00  0.00     0.037 A 
ATOM     63  C   UNL     1       1.166  11.508   8.401  1.00  0.00     0.049 A 
ATOM     64  C   UNL     1      -3.931  11.562   5.811  1.00  0.00     0.074 A 
ATOM     65  C   UNL     1       1.365  10.366   9.151  1.00  0.00     0.029 A 
ATOM     66  N   UNL     1      -0.099  11.945   8.712  1.00  0.00    -0.354 N 
ATOM     67  N   UNL     1      -3.971  10.948   6.963  1.00  0.00    -0.248 NA
ATOM     68  C   UNL     1      -3.110  12.764   5.779  1.00  0.00     0.031 C 
ATOM     69  C   UNL     1       0.060   9.918   9.504  1.00  0.00     0.029 A 
ATOM     70  C   UNL     1      -0.855  10.831   8.976  1.00  0.00     0.049 A 
ATOM     71  H   UNL     1      -0.405  12.880   8.740  1.00  0.00     0.167 HD
ATOM     72  C   UNL     1      -2.876  11.433   7.665  1.00  0.00     0.074 A 
ATOM     73  C   UNL     1      -2.443  12.614   6.926  1.00  0.00     0.031 C 
ATOM     74  C   UNL     1      -2.252  10.684   8.621  1.00  0.00     0.037 A 
BRANCH  61  75
ATOM     75  C   UNL     1       2.131  13.553   7.134  1.00  0.00     0.058 A 
ATOM     76  C   UNL     1       2.393  14.322   8.280  1.00  0.00     0.135 A 
ATOM     77  C   UNL     1       1.934  14.280   5.935  1.00  0.00     0.135 A 
ATOM     78  F   UNL     1       2.558  13.732   9.474  1.00  0.00    -0.206 F 
ATOM     79  C   UNL     1       2.422  15.716   8.244  1.00  0.00     0.059 A 
ATOM     80  C   UNL     1       2.026  15.661   5.863  1.00  0.00     0.059 A 
ATOM     81  F   UNL     1       1.541  13.690   4.798  1.00  0.00    -0.206 F 
ATOM     82  C   UNL     1       2.228  16.374   7.031  1.00  0.00     0.060 A 
BRANCH  82  83
ATOM     83  S   UNL     1       2.151  18.172   6.997  1.00  0.00     0.124 S 
ATOM     84  O   UNL     1       0.882  18.417   7.673  1.00  0.00    -0.237 OA
ATOM     85  O   UNL     1       3.354  18.541   7.735  1.00  0.00    -0.237 OA
ATOM     86  O   UNL     1       2.179  18.482   5.570  1.00  0.00    -0.744 OA
ENDBRANCH  82  83
ENDBRANCH  61  75
BRANCH  62  87
ATOM     87  C   UNL     1      -5.290  11.544   3.567  1.00  0.00     0.058 A 
ATOM     88  C   UNL     1      -6.329  12.391   4.003  1.00  0.00     0.135 A 
ATOM     89  C   UNL     1      -5.096  11.496   2.170  1.00  0.00     0.135 A 
ATOM     90  F   UNL     1      -6.569  12.547   5.314  1.00  0.00    -0.206 F 
ATOM     91  C   UNL     1      -7.108  13.148   3.112  1.00  0.00     0.059 A 
ATOM     92  C   UNL     1      -5.871  12.219   1.265  1.00  0.00     0.059 A 
ATOM     93  F   UNL     1      -4.077  10.812   1.631  1.00  0.00    -0.206 F 
ATOM     94  C   UNL     1      -6.863  13.061   1.742  1.00  0.00     0.060 A 
BRANCH  94  95
ATOM     95  S   UNL     1      -7.761  14.127   0.588  1.00  0.00     0.124 S 
ATOM     96  O   UNL     1      -9.130  13.644   0.731  1.00  0.00    -0.237 OA
ATOM     97  O   UNL     1      -7.493  15.456   1.127  1.00  0.00    -0.237 OA
ATOM     98  O   UNL     1      -7.132  13.841  -0.699  1.00  0.00    -0.744 OA
ENDBRANCH  94  95
ENDBRANCH  62  87
BRANCH  74  99
ATOM     99  C   UNL     1      -2.939   9.449   9.145  1.00  0.00     0.058 A 
ATOM    100  C   UNL     1      -3.207   8.310   8.367  1.00  0.00     0.135 A 
ATOM    101  C   UNL     1      -3.129   9.337  10.533  1.00  0.00     0.135 A 
ATOM    102  F   UNL     1      -2.964   8.298   7.048  1.00  0.00    -0.206 F 
ATOM    103  C   UNL     1      -3.648   7.117   8.942  1.00  0.00     0.059 A 
ATOM    104  C   UNL     1      -3.536   8.147  11.131  1.00  0.00     0.059 A 
ATOM    105  F   UNL     1      -2.840  10.375  11.337  1.00  0.00    -0.206 F 
ATOM    106  C   UNL     1      -3.792   7.040  10.327  1.00  0.00     0.060 A 
BRANCH 106 107
ATOM    107  S   UNL     1      -4.207   5.446  11.070  1.00  0.00     0.124 S 
ATOM    108  O   UNL     1      -5.611   5.295  10.703  1.00  0.00    -0.237 OA
ATOM    109  O   UNL     1      -3.277   4.538  10.404  1.00  0.00    -0.237 OA
ATOM    110  O   UNL     1      -3.951   5.657  12.493  1.00  0.00    -0.744 OA
ENDBRANCH 106 107
ENDBRANCH  74  99
ENDBRANCH  48  49
ENDBRANCH  41  43
ENDBRANCH  40  41
ENDBRANCH  39  40
ENDBRANCH  38  39
ENDBRANCH  37  38
ENDBRANCH  36  37
ENDBRANCH  35  36
ENDBRANCH   1  35
TORSDOF 28
