REMARK SMILES CC[C@@H]1CCCN(S(=O)(=O)c2cc(C(=O)OCCOCCOCCOCCOC(=O)c3ccc(-c4c5nc(c(-c6c(F)cc(S(=O)(=O)[O-])cc6F)c6ccc([nH]6)c(-c6c(F)cc(S(=O)(=O)[O-])cc6F)c6nc(c(-c7c(F)cc(S(=O)(=O)[O-])cc7F)c7ccc4[nH]7)C=C6)C=C5)cc3)ccc2F)C1
REMARK SMILES IDX 22 1 21 2 20 3 19 4 18 5 17 6 16 7 14 8 15 9 13 10 11 11
REMARK SMILES IDX 12 12 99 13 98 14 100 15 97 16 8 17 9 18 10 19 7 20 3 21
REMARK SMILES IDX 4 22 101 23 5 24 6 25 2 26 1 27 23 28 24 29 25 30 26 31
REMARK SMILES IDX 27 32 28 33 29 34 30 35 31 36 32 37 96 38 33 39 95 40 34 41
REMARK SMILES IDX 35 42 36 43 89 44 37 45 94 46 88 47 90 48 38 49 93 50 87 51
REMARK SMILES IDX 86 52 39 54 73 55 52 56 72 57 53 58 56 59 71 60 91 61 54 62
REMARK SMILES IDX 55 63 70 65 92 66 57 67 40 68 41 69 50 70 42 71 43 72 49 73
REMARK SMILES IDX 51 74 44 75 45 76 46 77 47 78 48 79 74 80 75 81 84 82 76 83
REMARK SMILES IDX 77 84 83 85 85 86 78 87 79 88 80 89 81 90 82 91 58 92 59 93
REMARK SMILES IDX 68 94 60 95 61 96 67 97 69 98 62 99 63 100 64 101 65 102
REMARK SMILES IDX 66 103
REMARK H PARENT 90 53 56 64
REMARK Flexibility Score: inf
ROOT
ATOM      1  O   UNL     1       6.186   4.100  -6.221  1.00  0.00    -0.377 OA
ENDROOT
BRANCH   1   2
ATOM      2  C   UNL     1       6.206   3.169  -5.152  1.00  0.00     0.188 C 
BRANCH   2   3
ATOM      3  C   UNL     1       6.135   1.667  -5.485  1.00  0.00     0.188 C 
BRANCH   3   4
ATOM      4  O   UNL     1       6.268   1.382  -6.870  1.00  0.00    -0.376 OA
BRANCH   4   5
ATOM      5  C   UNL     1       5.139   0.852  -7.543  1.00  0.00     0.202 C 
BRANCH   5   6
ATOM      6  C   UNL     1       3.935   1.785  -7.724  1.00  0.00     0.261 C 
BRANCH   6   7
ATOM      7  O   UNL     1       3.495   2.460  -6.540  1.00  0.00    -0.460 OA
BRANCH   7   8
ATOM      8  C   UNL     1       2.847   1.740  -5.592  1.00  0.00     0.338 C 
ATOM      9  O   UNL     1       2.590   0.563  -5.612  1.00  0.00    -0.246 OA
BRANCH   8  10
ATOM     10  C   UNL     1       2.718   2.632  -4.403  1.00  0.00     0.061 A 
ATOM     11  C   UNL     1       3.080   2.980  -2.036  1.00  0.00     0.119 A 
ATOM     12  C   UNL     1       3.013   2.111  -3.136  1.00  0.00     0.040 A 
ATOM     13  C   UNL     1       2.851   4.342  -2.205  1.00  0.00     0.143 A 
ATOM     14  C   UNL     1       2.515   4.853  -3.454  1.00  0.00     0.041 A 
ATOM     15  F   UNL     1       2.909   5.193  -1.172  1.00  0.00    -0.206 F 
ATOM     16  C   UNL     1       2.454   4.001  -4.558  1.00  0.00     0.019 A 
BRANCH  11  17
ATOM     17  S   UNL     1       3.602   2.374  -0.462  1.00  0.00     0.246 S 
ATOM     18  O   UNL     1       4.321   3.411   0.245  1.00  0.00    -0.207 OA
ATOM     19  O   UNL     1       4.234   1.089  -0.691  1.00  0.00    -0.207 OA
BRANCH  17  20
ATOM     20  N   UNL     1       2.137   2.076   0.381  1.00  0.00    -0.197 NA
ATOM     21  C   UNL     1       1.029   0.811   2.222  1.00  0.00     0.004 C 
ATOM     22  C   UNL     1       0.075   1.998   2.429  1.00  0.00     0.006 C 
ATOM     23  C   UNL     1       2.362   1.296   1.637  1.00  0.00     0.106 C 
ATOM     24  C   UNL     1      -0.068   2.854   1.181  1.00  0.00     0.017 C 
ATOM     25  C   UNL     1       1.291   3.276   0.633  1.00  0.00     0.102 C 
BRANCH  21  26
ATOM     26  C   UNL     1       0.375  -0.371   1.465  1.00  0.00     0.001 C 
ATOM     27  C   UNL     1       0.565  -0.447  -0.044  1.00  0.00     0.004 C 
ENDBRANCH  21  26
ENDBRANCH  17  20
ENDBRANCH  11  17
ENDBRANCH   8  10
ENDBRANCH   7   8
ENDBRANCH   6   7
ENDBRANCH   5   6
ENDBRANCH   4   5
ENDBRANCH   3   4
ENDBRANCH   2   3
ENDBRANCH   1   2
BRANCH   1  28
ATOM     28  C   UNL     1       7.096   3.948  -7.308  1.00  0.00     0.188 C 
BRANCH  28  29
ATOM     29  C   UNL     1       8.414   3.150  -7.164  1.00  0.00     0.188 C 
BRANCH  29  30
ATOM     30  O   UNL     1       8.801   2.865  -5.827  1.00  0.00    -0.376 OA
BRANCH  30  31
ATOM     31  C   UNL     1       9.916   3.581  -5.321  1.00  0.00     0.202 C 
BRANCH  31  32
ATOM     32  C   UNL     1       9.682   5.079  -5.095  1.00  0.00     0.261 C 
BRANCH  32  33
ATOM     33  O   UNL     1       9.333   5.836  -6.264  1.00  0.00    -0.460 OA
BRANCH  33  34
ATOM     34  C   UNL     1      10.234   5.893  -7.271  1.00  0.00     0.338 C 
ATOM     35  O   UNL     1      11.335   5.378  -7.308  1.00  0.00    -0.246 OA
BRANCH  34  36
ATOM     36  C   UNL     1       9.563   6.553  -8.409  1.00  0.00     0.060 A 
ATOM     37  C   UNL     1       9.357   5.843  -9.599  1.00  0.00     0.016 A 
ATOM     38  C   UNL     1       9.094   7.861  -8.271  1.00  0.00     0.016 A 
ATOM     39  C   UNL     1       8.674   6.445 -10.659  1.00  0.00     0.010 A 
ATOM     40  C   UNL     1       8.434   8.468  -9.339  1.00  0.00     0.010 A 
ATOM     41  C   UNL     1       8.231   7.770 -10.542  1.00  0.00    -0.014 A 
BRANCH  41  42
ATOM     42  C   UNL     1       7.670   8.495 -11.706  1.00  0.00     0.031 A 
ATOM     43  C   UNL     1       8.580   9.394 -12.494  1.00  0.00     0.074 A 
ATOM     44  C   UNL     1       6.368   8.393 -12.029  1.00  0.00     0.049 A 
ATOM     45  N   UNL     1       8.287  10.238 -13.447  1.00  0.00    -0.248 NA
ATOM     46  C   UNL     1      10.013   9.333 -12.158  1.00  0.00     0.031 C 
ATOM     47  C   UNL     1       5.402   7.515 -11.373  1.00  0.00     0.029 A 
ATOM     48  N   UNL     1       5.631   9.054 -12.982  1.00  0.00    -0.354 N 
ATOM     49  C   UNL     1       9.494  10.815 -13.821  1.00  0.00     0.074 A 
ATOM     50  C   UNL     1      10.521  10.241 -12.979  1.00  0.00     0.031 C 
ATOM     51  C   UNL     1       4.193   7.706 -11.930  1.00  0.00     0.029 A 
ATOM     52  C   UNL     1       4.290   8.753 -12.947  1.00  0.00     0.049 A 
ATOM     53  H   UNL     1       6.026   9.683 -13.628  1.00  0.00     0.167 HD
ATOM     54  C   UNL     1       9.722  11.737 -14.784  1.00  0.00     0.037 A 
ATOM     55  C   UNL     1       3.256   9.289 -13.628  1.00  0.00     0.037 A 
ATOM     56  C   UNL     1       8.693  12.306 -15.612  1.00  0.00     0.049 A 
ATOM     57  C   UNL     1       3.517  10.396 -14.618  1.00  0.00     0.074 A 
ATOM     58  C   UNL     1       8.827  13.235 -16.628  1.00  0.00     0.029 A 
ATOM     59  N   UNL     1       7.341  12.010 -15.513  1.00  0.00    -0.354 N 
ATOM     60  N   UNL     1       4.663  10.925 -14.977  1.00  0.00    -0.248 NA
ATOM     61  C   UNL     1       2.349  10.993 -15.284  1.00  0.00     0.031 C 
ATOM     62  C   UNL     1       7.551  13.544 -17.105  1.00  0.00     0.029 A 
ATOM     63  C   UNL     1       6.626  12.768 -16.424  1.00  0.00     0.049 A 
ATOM     64  H   UNL     1       6.949  11.359 -14.888  1.00  0.00     0.167 HD
ATOM     65  C   UNL     1       4.356  11.903 -15.918  1.00  0.00     0.074 A 
ATOM     66  C   UNL     1       2.918  11.887 -16.083  1.00  0.00     0.031 C 
ATOM     67  C   UNL     1       5.192  12.740 -16.581  1.00  0.00     0.037 A 
BRANCH  54  68
ATOM     68  C   UNL     1      11.134  12.208 -14.988  1.00  0.00     0.058 A 
ATOM     69  C   UNL     1      11.505  13.516 -14.637  1.00  0.00     0.135 A 
ATOM     70  C   UNL     1      12.102  11.392 -15.593  1.00  0.00     0.135 A 
ATOM     71  F   UNL     1      10.620  14.335 -14.046  1.00  0.00    -0.206 F 
ATOM     72  C   UNL     1      12.779  14.005 -14.900  1.00  0.00     0.059 A 
ATOM     73  C   UNL     1      13.391  11.852 -15.842  1.00  0.00     0.059 A 
ATOM     74  F   UNL     1      11.805  10.125 -15.925  1.00  0.00    -0.206 F 
ATOM     75  C   UNL     1      13.715  13.166 -15.506  1.00  0.00     0.060 A 
BRANCH  75  76
ATOM     76  S   UNL     1      15.370  13.812 -15.823  1.00  0.00     0.124 S 
ATOM     77  O   UNL     1      15.115  14.794 -16.870  1.00  0.00    -0.237 OA
ATOM     78  O   UNL     1      15.741  14.353 -14.518  1.00  0.00    -0.237 OA
ATOM     79  O   UNL     1      16.121  12.630 -16.238  1.00  0.00    -0.744 OA
ENDBRANCH  75  76
ENDBRANCH  54  68
BRANCH  55  80
ATOM     80  C   UNL     1       1.872   8.802 -13.376  1.00  0.00     0.058 A 
ATOM     81  C   UNL     1       1.228   9.035 -12.151  1.00  0.00     0.135 A 
ATOM     82  C   UNL     1       1.176   8.069 -14.348  1.00  0.00     0.135 A 
ATOM     83  F   UNL     1       1.847   9.734 -11.186  1.00  0.00    -0.206 F 
ATOM     84  C   UNL     1      -0.039   8.527 -11.883  1.00  0.00     0.059 A 
ATOM     85  C   UNL     1      -0.104   7.571 -14.114  1.00  0.00     0.059 A 
ATOM     86  F   UNL     1       1.739   7.840 -15.544  1.00  0.00    -0.206 F 
ATOM     87  C   UNL     1      -0.694   7.789 -12.870  1.00  0.00     0.060 A 
BRANCH  87  88
ATOM     88  S   UNL     1      -2.322   7.108 -12.488  1.00  0.00     0.124 S 
ATOM     89  O   UNL     1      -1.990   6.108 -11.477  1.00  0.00    -0.237 OA
ATOM     90  O   UNL     1      -3.039   8.284 -12.005  1.00  0.00    -0.237 OA
ATOM     91  O   UNL     1      -2.777   6.579 -13.769  1.00  0.00    -0.744 OA
ENDBRANCH  87  88
ENDBRANCH  55  80
BRANCH  67  92
ATOM     92  C   UNL     1       4.598  13.718 -17.557  1.00  0.00     0.058 A 
ATOM     93  C   UNL     1       4.813  13.569 -18.937  1.00  0.00     0.135 A 
ATOM     94  C   UNL     1       3.943  14.879 -17.117  1.00  0.00     0.135 A 
ATOM     95  F   UNL     1       5.439  12.479 -19.410  1.00  0.00    -0.206 F 
ATOM     96  C   UNL     1       4.440  14.556 -19.842  1.00  0.00     0.059 A 
ATOM     97  C   UNL     1       3.538  15.869 -18.008  1.00  0.00     0.059 A 
ATOM     98  F   UNL     1       3.702  15.062 -15.810  1.00  0.00    -0.206 F 
ATOM     99  C   UNL     1       3.815  15.710 -19.366  1.00  0.00     0.060 A 
BRANCH  99 100
ATOM    100  S   UNL     1       3.387  17.005 -20.550  1.00  0.00     0.124 S 
ATOM    101  O   UNL     1       4.703  17.472 -20.973  1.00  0.00    -0.237 OA
ATOM    102  O   UNL     1       2.625  16.265 -21.551  1.00  0.00    -0.237 OA
ATOM    103  O   UNL     1       2.611  17.951 -19.753  1.00  0.00    -0.744 OA
ENDBRANCH  99 100
ENDBRANCH  67  92
ENDBRANCH  41  42
ENDBRANCH  34  36
ENDBRANCH  33  34
ENDBRANCH  32  33
ENDBRANCH  31  32
ENDBRANCH  30  31
ENDBRANCH  29  30
ENDBRANCH  28  29
ENDBRANCH   1  28
TORSDOF 26
