REMARK SMILES CC1=C(C)C[C@@H](C(=O)OCCOCCOCCOCCOC(=O)c2ccc(-c3c4nc(c(-c5c(F)cc(S(=O)(=O)[O-])cc5F)c5ccc([nH]5)c(-c5c(F)cc(S(=O)(=O)[O-])cc5F)c5nc(c(-c6c(F)cc(S(=O)(=O)[O-])cc6F)c6ccc3[nH]6)C=C5)C=C4)cc2)[C@@H](C(=O)NCC[NH+]2CCOCC2)C1
REMARK SMILES IDX 14 1 13 2 12 3 11 4 10 5 9 6 7 7 8 8 6 9 1 10 2 11 3 12
REMARK SMILES IDX 102 13 4 14 5 15 90 16 91 17 92 18 93 19 94 21 95 22 96 23
REMARK SMILES IDX 97 24 101 25 98 27 100 28 99 29 15 30 16 31 17 32 18 33
REMARK SMILES IDX 19 34 20 35 21 36 22 37 23 38 24 39 25 40 89 41 26 42 88 43
REMARK SMILES IDX 27 44 28 45 29 46 82 47 30 48 87 49 81 50 83 51 31 52 86 53
REMARK SMILES IDX 80 54 79 55 32 57 66 58 45 59 65 60 46 61 49 62 64 63 84 64
REMARK SMILES IDX 47 65 48 66 63 68 85 69 50 70 33 71 34 72 43 73 35 74 36 75
REMARK SMILES IDX 42 76 44 77 37 78 38 79 39 80 40 81 41 82 67 83 68 84 77 85
REMARK SMILES IDX 69 86 70 87 76 88 78 89 71 90 72 91 73 92 74 93 75 94 51 95
REMARK SMILES IDX 52 96 61 97 53 98 54 99 60 100 62 101 55 102 56 103 57 104
REMARK SMILES IDX 58 105 59 106
REMARK H PARENT 93 20 96 26 83 56 49 67
REMARK Flexibility Score: inf
ROOT
ATOM      1  C   UNL     1      -2.919  -0.920  -5.279  1.00  0.00     0.188 C 
ENDROOT
BRANCH   1   2
ATOM      2  C   UNL     1      -3.090  -2.370  -5.747  1.00  0.00     0.188 C 
BRANCH   2   3
ATOM      3  O   UNL     1      -3.838  -3.307  -4.981  1.00  0.00    -0.376 OA
BRANCH   3   4
ATOM      4  C   UNL     1      -3.884  -3.196  -3.562  1.00  0.00     0.202 C 
BRANCH   4   5
ATOM      5  C   UNL     1      -2.913  -4.087  -2.806  1.00  0.00     0.261 C 
BRANCH   5   6
ATOM      6  O   UNL     1      -1.728  -3.342  -2.482  1.00  0.00    -0.463 OA
BRANCH   6   7
ATOM      7  C   UNL     1      -0.783  -3.279  -3.434  1.00  0.00     0.310 C 
ATOM      8  O   UNL     1      -0.773  -3.965  -4.452  1.00  0.00    -0.252 OA
BRANCH   7   9
ATOM      9  C   UNL     1       0.387  -2.395  -3.070  1.00  0.00     0.116 C 
ATOM     10  C   UNL     1       1.613  -0.297   0.563  1.00  0.00     0.039 C 
ATOM     11  C   UNL     1       1.489  -1.119  -0.685  1.00  0.00    -0.074 C 
ATOM     12  C   UNL     1       1.419  -2.465  -0.716  1.00  0.00    -0.073 C 
ATOM     13  C   UNL     1       1.417  -0.373  -1.998  1.00  0.00     0.045 C 
ATOM     14  C   UNL     1       1.563  -3.385   0.462  1.00  0.00     0.039 C 
ATOM     15  C   UNL     1       1.223  -3.170  -2.032  1.00  0.00     0.046 C 
ATOM     16  C   UNL     1       0.227  -0.869  -2.831  1.00  0.00     0.097 C 
BRANCH  16  17
ATOM     17  C   UNL     1      -1.057  -0.275  -2.238  1.00  0.00     0.224 C 
ATOM     18  O   UNL     1      -1.930  -0.896  -1.650  1.00  0.00    -0.275 OA
ATOM     19  N   UNL     1      -1.195   1.095  -2.456  1.00  0.00    -0.350 N 
ATOM     20  H   UNL     1      -1.387   1.446  -3.356  1.00  0.00     0.163 HD
BRANCH  19  21
ATOM     21  C   UNL     1      -1.048   1.998  -1.311  1.00  0.00     0.177 C 
BRANCH  21  22
ATOM     22  C   UNL     1      -1.337   3.498  -1.560  1.00  0.00     0.283 C 
BRANCH  22  23
ATOM     23  N   UNL     1      -2.697   4.057  -1.480  1.00  0.00    -0.330 N 
ATOM     24  C   UNL     1      -3.732   3.192  -0.897  1.00  0.00     0.291 C 
ATOM     25  C   UNL     1      -3.189   4.553  -2.769  1.00  0.00     0.291 C 
ATOM     26  H   UNL     1      -2.554   4.825  -0.824  1.00  0.00     0.348 HD
ATOM     27  C   UNL     1      -4.233   2.077  -1.825  1.00  0.00     0.221 C 
ATOM     28  C   UNL     1      -3.462   3.403  -3.727  1.00  0.00     0.221 C 
ATOM     29  O   UNL     1      -4.379   2.453  -3.195  1.00  0.00    -0.370 OA
ENDBRANCH  22  23
ENDBRANCH  21  22
ENDBRANCH  19  21
ENDBRANCH  16  17
ENDBRANCH   7   9
ENDBRANCH   6   7
ENDBRANCH   5   6
ENDBRANCH   4   5
ENDBRANCH   3   4
ENDBRANCH   2   3
ENDBRANCH   1   2
BRANCH   1  30
ATOM     30  O   UNL     1      -3.955  -0.197  -4.639  1.00  0.00    -0.377 OA
BRANCH  30  31
ATOM     31  C   UNL     1      -5.310  -0.606  -4.753  1.00  0.00     0.188 C 
BRANCH  31  32
ATOM     32  C   UNL     1      -5.938  -0.647  -6.147  1.00  0.00     0.188 C 
BRANCH  32  33
ATOM     33  O   UNL     1      -4.987  -0.437  -7.172  1.00  0.00    -0.376 OA
BRANCH  33  34
ATOM     34  C   UNL     1      -4.859   0.876  -7.690  1.00  0.00     0.202 C 
BRANCH  34  35
ATOM     35  C   UNL     1      -4.951   2.132  -6.803  1.00  0.00     0.261 C 
BRANCH  35  36
ATOM     36  O   UNL     1      -5.728   2.028  -5.601  1.00  0.00    -0.460 OA
BRANCH  36  37
ATOM     37  C   UNL     1      -6.870   2.727  -5.461  1.00  0.00     0.338 C 
ATOM     38  O   UNL     1      -7.454   3.347  -6.339  1.00  0.00    -0.246 OA
BRANCH  37  39
ATOM     39  C   UNL     1      -7.263   2.727  -4.028  1.00  0.00     0.060 A 
ATOM     40  C   UNL     1      -7.951   1.658  -3.442  1.00  0.00     0.016 A 
ATOM     41  C   UNL     1      -6.912   3.826  -3.241  1.00  0.00     0.016 A 
ATOM     42  C   UNL     1      -8.316   1.707  -2.082  1.00  0.00     0.010 A 
ATOM     43  C   UNL     1      -7.218   3.842  -1.872  1.00  0.00     0.010 A 
ATOM     44  C   UNL     1      -7.979   2.813  -1.283  1.00  0.00    -0.014 A 
BRANCH  44  45
ATOM     45  C   UNL     1      -8.601   3.021   0.068  1.00  0.00     0.031 A 
ATOM     46  C   UNL     1      -9.566   4.181   0.228  1.00  0.00     0.074 A 
ATOM     47  C   UNL     1      -8.371   2.221   1.134  1.00  0.00     0.049 A 
ATOM     48  N   UNL     1     -10.224   4.585   1.287  1.00  0.00    -0.248 NA
ATOM     49  C   UNL     1      -9.801   5.014  -0.965  1.00  0.00     0.031 C 
ATOM     50  C   UNL     1      -7.466   1.073   1.168  1.00  0.00     0.029 A 
ATOM     51  N   UNL     1      -8.896   2.259   2.411  1.00  0.00    -0.354 N 
ATOM     52  C   UNL     1     -10.938   5.708   0.881  1.00  0.00     0.074 A 
ATOM     53  C   UNL     1     -10.555   5.986  -0.482  1.00  0.00     0.031 C 
ATOM     54  C   UNL     1      -7.515   0.506   2.390  1.00  0.00     0.029 A 
ATOM     55  C   UNL     1      -8.442   1.255   3.240  1.00  0.00     0.049 A 
ATOM     56  H   UNL     1      -9.539   2.944   2.704  1.00  0.00     0.167 HD
ATOM     57  C   UNL     1     -11.877   6.422   1.545  1.00  0.00     0.037 A 
ATOM     58  C   UNL     1      -8.742   0.968   4.528  1.00  0.00     0.037 A 
ATOM     59  C   UNL     1     -12.306   6.150   2.888  1.00  0.00     0.049 A 
ATOM     60  C   UNL     1      -9.752   1.817   5.275  1.00  0.00     0.074 A 
ATOM     61  C   UNL     1     -13.265   6.813   3.633  1.00  0.00     0.029 A 
ATOM     62  N   UNL     1     -11.813   5.130   3.683  1.00  0.00    -0.354 N 
ATOM     63  N   UNL     1     -10.455   2.840   4.848  1.00  0.00    -0.248 NA
ATOM     64  C   UNL     1     -10.019   1.462   6.680  1.00  0.00     0.031 C 
ATOM     65  C   UNL     1     -13.324   6.218   4.896  1.00  0.00     0.029 A 
ATOM     66  C   UNL     1     -12.441   5.151   4.917  1.00  0.00     0.049 A 
ATOM     67  H   UNL     1     -11.120   4.485   3.412  1.00  0.00     0.167 HD
ATOM     68  C   UNL     1     -11.276   3.213   5.913  1.00  0.00     0.074 A 
ATOM     69  C   UNL     1     -10.992   2.303   6.999  1.00  0.00     0.031 C 
ATOM     70  C   UNL     1     -12.183   4.219   5.984  1.00  0.00     0.037 A 
BRANCH  57  71
ATOM     71  C   UNL     1     -12.532   7.555   0.803  1.00  0.00     0.058 A 
ATOM     72  C   UNL     1     -13.403   7.314  -0.274  1.00  0.00     0.135 A 
ATOM     73  C   UNL     1     -12.309   8.888   1.180  1.00  0.00     0.135 A 
ATOM     74  F   UNL     1     -13.633   6.059  -0.692  1.00  0.00    -0.206 F 
ATOM     75  C   UNL     1     -14.004   8.356  -0.970  1.00  0.00     0.059 A 
ATOM     76  C   UNL     1     -12.928   9.945   0.520  1.00  0.00     0.059 A 
ATOM     77  F   UNL     1     -11.483   9.173   2.199  1.00  0.00    -0.206 F 
ATOM     78  C   UNL     1     -13.763   9.668  -0.562  1.00  0.00     0.060 A 
BRANCH  78  79
ATOM     79  S   UNL     1     -14.569  11.006  -1.466  1.00  0.00     0.124 S 
ATOM     80  O   UNL     1     -13.847  10.978  -2.734  1.00  0.00    -0.237 OA
ATOM     81  O   UNL     1     -15.956  10.554  -1.516  1.00  0.00    -0.237 OA
ATOM     82  O   UNL     1     -14.323  12.177  -0.630  1.00  0.00    -0.744 OA
ENDBRANCH  78  79
ENDBRANCH  57  71
BRANCH  58  83
ATOM     83  C   UNL     1      -8.109  -0.191   5.231  1.00  0.00     0.058 A 
ATOM     84  C   UNL     1      -8.876  -1.289   5.659  1.00  0.00     0.135 A 
ATOM     85  C   UNL     1      -6.747  -0.187   5.571  1.00  0.00     0.135 A 
ATOM     86  F   UNL     1     -10.188  -1.337   5.380  1.00  0.00    -0.206 F 
ATOM     87  C   UNL     1      -8.331  -2.312   6.431  1.00  0.00     0.059 A 
ATOM     88  C   UNL     1      -6.171  -1.215   6.316  1.00  0.00     0.059 A 
ATOM     89  F   UNL     1      -5.962   0.832   5.189  1.00  0.00    -0.206 F 
ATOM     90  C   UNL     1      -6.976  -2.264   6.759  1.00  0.00     0.060 A 
BRANCH  90  91
ATOM     91  S   UNL     1      -6.277  -3.597   7.760  1.00  0.00     0.124 S 
ATOM     92  O   UNL     1      -6.856  -3.318   9.069  1.00  0.00    -0.237 OA
ATOM     93  O   UNL     1      -6.779  -4.787   7.080  1.00  0.00    -0.237 OA
ATOM     94  O   UNL     1      -4.837  -3.381   7.649  1.00  0.00    -0.744 OA
ENDBRANCH  90  91
ENDBRANCH  58  83
BRANCH  70  95
ATOM     95  C   UNL     1     -12.994   4.362   7.246  1.00  0.00     0.058 A 
ATOM     96  C   UNL     1     -12.428   4.809   8.450  1.00  0.00     0.135 A 
ATOM     97  C   UNL     1     -14.378   4.113   7.230  1.00  0.00     0.135 A 
ATOM     98  F   UNL     1     -11.112   5.065   8.524  1.00  0.00    -0.206 F 
ATOM     99  C   UNL     1     -13.197   4.977   9.599  1.00  0.00     0.059 A 
ATOM    100  C   UNL     1     -15.172   4.305   8.358  1.00  0.00     0.059 A 
ATOM    101  F   UNL     1     -14.978   3.700   6.103  1.00  0.00    -0.206 F 
ATOM    102  C   UNL     1     -14.569   4.725   9.542  1.00  0.00     0.060 A 
BRANCH 102 103
ATOM    103  S   UNL     1     -15.559   4.979  11.031  1.00  0.00     0.124 S 
ATOM    104  O   UNL     1     -15.142   3.852  11.858  1.00  0.00    -0.237 OA
ATOM    105  O   UNL     1     -15.115   6.295  11.480  1.00  0.00    -0.237 OA
ATOM    106  O   UNL     1     -16.933   4.923  10.541  1.00  0.00    -0.744 OA
ENDBRANCH 102 103
ENDBRANCH  70  95
ENDBRANCH  44  45
ENDBRANCH  37  39
ENDBRANCH  36  37
ENDBRANCH  35  36
ENDBRANCH  34  35
ENDBRANCH  33  34
ENDBRANCH  32  33
ENDBRANCH  31  32
ENDBRANCH  30  31
ENDBRANCH   1  30
TORSDOF 27
