REMARK SMILES O=C(OCCOCCOCCOCCOC(=O)c1cc(Cl)ccc1N1C(=O)CC2(CCCC2)C1=O)c1ccc(-c2c3nc(c(-c4c(F)cc(S(=O)(=O)[O-])cc4F)c4ccc([nH]4)c(-c4c(F)cc(S(=O)(=O)[O-])cc4F)c4nc(c(-c5c(F)cc(S(=O)(=O)[O-])cc5F)c5ccc2[nH]5)C=C4)C=C3)cc1
REMARK SMILES IDX 8 1 7 2 6 3 5 4 4 5 3 6 2 7 1 8 36 9 37 10 101 11 38 12
REMARK SMILES IDX 100 13 39 14 40 15 41 16 94 17 42 18 99 19 93 20 95 21 43 22
REMARK SMILES IDX 98 23 92 24 91 25 44 27 78 28 57 29 77 30 58 31 61 32 76 33
REMARK SMILES IDX 96 34 59 35 60 36 75 38 97 39 62 40 45 41 46 42 55 43 47 44
REMARK SMILES IDX 48 45 54 46 56 47 49 48 50 49 51 50 52 51 53 52 79 53 80 54
REMARK SMILES IDX 89 55 81 56 82 57 88 58 90 59 83 60 84 61 85 62 86 63 87 64
REMARK SMILES IDX 63 65 64 66 73 67 65 68 66 69 72 70 74 71 67 72 68 73 69 74
REMARK SMILES IDX 70 75 71 76 9 77 10 78 11 79 12 80 13 81 14 82 15 83 16 84
REMARK SMILES IDX 17 85 18 86 19 87 24 88 20 89 23 90 21 91 22 92 25 93 26 94
REMARK SMILES IDX 34 95 27 96 28 97 29 98 35 99 30 100 33 101 31 102 32 103
REMARK H PARENT 95 26 61 37
REMARK Flexibility Score: inf
ROOT
ATOM      1  C   UNL     1       1.017  -2.645  -0.913  1.00  0.00     0.188 C 
ENDROOT
BRANCH   1   2
ATOM      2  C   UNL     1       1.388  -1.573   0.118  1.00  0.00     0.188 C 
BRANCH   2   3
ATOM      3  O   UNL     1       2.719  -1.120  -0.077  1.00  0.00    -0.376 OA
BRANCH   3   4
ATOM      4  C   UNL     1       3.511  -0.777   1.059  1.00  0.00     0.202 C 
BRANCH   4   5
ATOM      5  C   UNL     1       2.945   0.360   1.895  1.00  0.00     0.261 C 
BRANCH   5   6
ATOM      6  O   UNL     1       2.947   1.538   1.085  1.00  0.00    -0.460 OA
BRANCH   6   7
ATOM      7  C   UNL     1       1.853   1.700   0.303  1.00  0.00     0.338 C 
ATOM      8  O   UNL     1       0.690   1.502   0.598  1.00  0.00    -0.246 OA
BRANCH   7   9
ATOM      9  C   UNL     1       2.365   2.140  -1.001  1.00  0.00     0.060 A 
ATOM     10  C   UNL     1       3.316   1.353  -1.667  1.00  0.00     0.016 A 
ATOM     11  C   UNL     1       1.998   3.386  -1.487  1.00  0.00     0.016 A 
ATOM     12  C   UNL     1       4.004   1.850  -2.747  1.00  0.00     0.010 A 
ATOM     13  C   UNL     1       2.657   3.872  -2.610  1.00  0.00     0.010 A 
ATOM     14  C   UNL     1       3.686   3.118  -3.210  1.00  0.00    -0.014 A 
BRANCH  14  15
ATOM     15  C   UNL     1       4.541   3.724  -4.235  1.00  0.00     0.031 A 
ATOM     16  C   UNL     1       5.354   4.908  -3.834  1.00  0.00     0.074 A 
ATOM     17  C   UNL     1       4.586   3.197  -5.468  1.00  0.00     0.049 A 
ATOM     18  N   UNL     1       5.891   5.828  -4.579  1.00  0.00    -0.248 NA
ATOM     19  C   UNL     1       5.558   5.096  -2.386  1.00  0.00     0.031 C 
ATOM     20  C   UNL     1       3.943   1.947  -5.882  1.00  0.00     0.029 A 
ATOM     21  N   UNL     1       5.180   3.664  -6.607  1.00  0.00    -0.354 N 
ATOM     22  C   UNL     1       6.414   6.758  -3.691  1.00  0.00     0.074 A 
ATOM     23  C   UNL     1       6.155   6.277  -2.354  1.00  0.00     0.031 C 
ATOM     24  C   UNL     1       4.157   1.758  -7.192  1.00  0.00     0.029 A 
ATOM     25  C   UNL     1       4.846   2.929  -7.718  1.00  0.00     0.049 A 
ATOM     26  H   UNL     1       5.781   4.443  -6.628  1.00  0.00     0.167 HD
ATOM     27  C   UNL     1       7.020   7.927  -3.999  1.00  0.00     0.037 A 
ATOM     28  C   UNL     1       4.995   3.230  -9.020  1.00  0.00     0.037 A 
ATOM     29  C   UNL     1       7.253   8.326  -5.362  1.00  0.00     0.049 A 
ATOM     30  C   UNL     1       5.621   4.553  -9.354  1.00  0.00     0.074 A 
ATOM     31  C   UNL     1       7.826   9.485  -5.843  1.00  0.00     0.029 A 
ATOM     32  N   UNL     1       6.916   7.549  -6.468  1.00  0.00    -0.354 N 
ATOM     33  N   UNL     1       6.035   5.493  -8.533  1.00  0.00    -0.248 NA
ATOM     34  C   UNL     1       5.787   4.873 -10.773  1.00  0.00     0.031 C 
ATOM     35  C   UNL     1       7.793   9.428  -7.241  1.00  0.00     0.029 A 
ATOM     36  C   UNL     1       7.257   8.207  -7.633  1.00  0.00     0.049 A 
ATOM     37  H   UNL     1       6.495   6.660  -6.426  1.00  0.00     0.167 HD
ATOM     38  C   UNL     1       6.534   6.510  -9.333  1.00  0.00     0.074 A 
ATOM     39  C   UNL     1       6.366   6.067 -10.707  1.00  0.00     0.031 C 
ATOM     40  C   UNL     1       7.084   7.697  -8.975  1.00  0.00     0.037 A 
BRANCH  27  41
ATOM     41  C   UNL     1       7.347   8.853  -2.861  1.00  0.00     0.058 A 
ATOM     42  C   UNL     1       8.315   8.546  -1.890  1.00  0.00     0.135 A 
ATOM     43  C   UNL     1       6.612  10.040  -2.693  1.00  0.00     0.135 A 
ATOM     44  F   UNL     1       9.029   7.413  -1.982  1.00  0.00    -0.206 F 
ATOM     45  C   UNL     1       8.500   9.348  -0.767  1.00  0.00     0.059 A 
ATOM     46  C   UNL     1       6.804  10.873  -1.595  1.00  0.00     0.059 A 
ATOM     47  F   UNL     1       5.668  10.382  -3.583  1.00  0.00    -0.206 F 
ATOM     48  C   UNL     1       7.729  10.503  -0.622  1.00  0.00     0.060 A 
BRANCH  48  49
ATOM     49  S   UNL     1       7.933  11.498   0.871  1.00  0.00     0.124 S 
ATOM     50  O   UNL     1       7.269  10.664   1.869  1.00  0.00    -0.237 OA
ATOM     51  O   UNL     1       9.384  11.592   0.990  1.00  0.00    -0.237 OA
ATOM     52  O   UNL     1       7.251  12.746   0.543  1.00  0.00    -0.744 OA
ENDBRANCH  48  49
ENDBRANCH  27  41
BRANCH  28  53
ATOM     53  C   UNL     1       4.474   2.292 -10.049  1.00  0.00     0.058 A 
ATOM     54  C   UNL     1       5.344   1.535 -10.844  1.00  0.00     0.135 A 
ATOM     55  C   UNL     1       3.095   2.053 -10.183  1.00  0.00     0.135 A 
ATOM     56  F   UNL     1       6.669   1.726 -10.756  1.00  0.00    -0.206 F 
ATOM     57  C   UNL     1       4.870   0.566 -11.724  1.00  0.00     0.059 A 
ATOM     58  C   UNL     1       2.598   1.072 -11.035  1.00  0.00     0.059 A 
ATOM     59  F   UNL     1       2.217   2.737  -9.431  1.00  0.00    -0.206 F 
ATOM     60  C   UNL     1       3.495   0.332 -11.802  1.00  0.00     0.060 A 
BRANCH  60  61
ATOM     61  S   UNL     1       2.901  -0.996 -12.874  1.00  0.00     0.124 S 
ATOM     62  O   UNL     1       3.140  -0.434 -14.198  1.00  0.00    -0.237 OA
ATOM     63  O   UNL     1       3.763  -2.108 -12.488  1.00  0.00    -0.237 OA
ATOM     64  O   UNL     1       1.500  -1.138 -12.491  1.00  0.00    -0.744 OA
ENDBRANCH  60  61
ENDBRANCH  28  53
BRANCH  40  65
ATOM     65  C   UNL     1       7.603   8.569 -10.078  1.00  0.00     0.058 A 
ATOM     66  C   UNL     1       6.745   9.342 -10.872  1.00  0.00     0.135 A 
ATOM     67  C   UNL     1       8.988   8.728 -10.241  1.00  0.00     0.135 A 
ATOM     68  F   UNL     1       5.414   9.212 -10.756  1.00  0.00    -0.206 F 
ATOM     69  C   UNL     1       7.247  10.258 -11.788  1.00  0.00     0.059 A 
ATOM     70  C   UNL     1       9.510   9.656 -11.131  1.00  0.00     0.059 A 
ATOM     71  F   UNL     1       9.844   8.011  -9.494  1.00  0.00    -0.206 F 
ATOM     72  C   UNL     1       8.630  10.418 -11.898  1.00  0.00     0.060 A 
BRANCH  72  73
ATOM     73  S   UNL     1       9.265  11.687 -13.012  1.00  0.00     0.124 S 
ATOM     74  O   UNL     1       9.014  11.084 -14.316  1.00  0.00    -0.237 OA
ATOM     75  O   UNL     1       8.436  12.840 -12.674  1.00  0.00    -0.237 OA
ATOM     76  O   UNL     1      10.671  11.800 -12.632  1.00  0.00    -0.744 OA
ENDBRANCH  72  73
ENDBRANCH  40  65
ENDBRANCH  14  15
ENDBRANCH   7   9
ENDBRANCH   6   7
ENDBRANCH   5   6
ENDBRANCH   4   5
ENDBRANCH   3   4
ENDBRANCH   2   3
ENDBRANCH   1   2
BRANCH   1  77
ATOM     77  O   UNL     1       1.676  -3.900  -0.748  1.00  0.00    -0.377 OA
BRANCH  77  78
ATOM     78  C   UNL     1       3.093  -3.842  -0.611  1.00  0.00     0.188 C 
BRANCH  78  79
ATOM     79  C   UNL     1       3.883  -3.101  -1.713  1.00  0.00     0.188 C 
BRANCH  79  80
ATOM     80  O   UNL     1       3.119  -2.832  -2.869  1.00  0.00    -0.376 OA
BRANCH  80  81
ATOM     81  C   UNL     1       3.362  -3.635  -4.009  1.00  0.00     0.202 C 
BRANCH  81  82
ATOM     82  C   UNL     1       3.257  -5.158  -3.858  1.00  0.00     0.261 C 
BRANCH  82  83
ATOM     83  O   UNL     1       3.892  -5.766  -2.715  1.00  0.00    -0.460 OA
BRANCH  83  84
ATOM     84  C   UNL     1       5.249  -5.804  -2.585  1.00  0.00     0.340 C 
ATOM     85  O   UNL     1       6.066  -5.380  -3.345  1.00  0.00    -0.246 OA
BRANCH  84  86
ATOM     86  C   UNL     1       5.507  -6.350  -1.211  1.00  0.00     0.085 A 
ATOM     87  C   UNL     1       4.771  -7.499  -0.845  1.00  0.00     0.038 A 
ATOM     88  C   UNL     1       6.322  -5.708  -0.251  1.00  0.00     0.066 A 
ATOM     89  C   UNL     1       4.839  -8.003   0.451  1.00  0.00     0.042 A 
ATOM     90  C   UNL     1       6.397  -6.266   1.044  1.00  0.00     0.029 A 
ATOM     91  Cl  UNL     1       3.871  -9.351   0.902  1.00  0.00    -0.084 Cl
ATOM     92  C   UNL     1       5.660  -7.399   1.393  1.00  0.00     0.023 A 
BRANCH  88  93
ATOM     93  N   UNL     1       6.961  -4.444  -0.438  1.00  0.00    -0.249 N 
ATOM     94  C   UNL     1       8.314  -4.366  -0.664  1.00  0.00     0.234 C 
ATOM     95  C   UNL     1       6.563  -3.337   0.280  1.00  0.00     0.240 C 
ATOM     96  O   UNL     1       9.068  -5.287  -0.951  1.00  0.00    -0.274 OA
ATOM     97  C   UNL     1       8.810  -2.992  -0.257  1.00  0.00     0.118 C 
ATOM     98  C   UNL     1       7.540  -2.200   0.048  1.00  0.00     0.059 C 
ATOM     99  O   UNL     1       5.623  -3.282   1.063  1.00  0.00    -0.273 OA
ATOM    100  C   UNL     1       7.644  -1.253   1.260  1.00  0.00     0.017 C 
ATOM    101  C   UNL     1       7.126  -1.287  -1.113  1.00  0.00     0.017 C 
ATOM    102  C   UNL     1       7.654   0.179   0.726  1.00  0.00     0.001 C 
ATOM    103  C   UNL     1       7.728   0.072  -0.785  1.00  0.00     0.001 C 
ENDBRANCH  88  93
ENDBRANCH  84  86
ENDBRANCH  83  84
ENDBRANCH  82  83
ENDBRANCH  81  82
ENDBRANCH  80  81
ENDBRANCH  79  80
ENDBRANCH  78  79
ENDBRANCH  77  78
ENDBRANCH   1  77
TORSDOF 24
