REMARK SMILES CN1C(=O)/C(=C\c2ccc(C(=O)Nc3ccc(O)cc3C(=O)OCCOCCOCCOCCOC(=O)c3ccc(-c4c5nc(c(-c6c(F)cc(S(=O)(=O)[O-])cc6F)c6ccc([nH]6)c(-c6c(F)cc(S(=O)(=O)[O-])cc6F)c6nc(c(-c7c(F)cc(S(=O)(=O)[O-])cc7F)c7ccc4[nH]7)C=C6)C=C5)cc3)cc2)SC1=S
REMARK SMILES IDX 29 1 28 2 27 3 26 4 25 5 24 6 23 7 21 8 22 9 20 10 14 11
REMARK SMILES IDX 15 12 16 13 19 14 17 15 13 16 11 17 12 18 10 20 7 21 8 22
REMARK SMILES IDX 105 23 9 24 104 25 6 26 1 27 2 28 3 29 107 30 4 31 5 32
REMARK SMILES IDX 106 33 108 34 18 35 30 37 31 38 32 39 33 40 34 41 35 42
REMARK SMILES IDX 36 43 37 44 38 45 39 46 103 47 40 48 102 49 41 50 42 51
REMARK SMILES IDX 43 52 96 53 44 54 101 55 95 56 97 57 45 58 100 59 94 60
REMARK SMILES IDX 93 61 46 63 80 64 59 65 79 66 60 67 63 68 78 69 98 70 61 71
REMARK SMILES IDX 62 72 77 74 99 75 64 76 47 77 48 78 57 79 49 80 50 81 56 82
REMARK SMILES IDX 58 83 51 84 52 85 53 86 54 87 55 88 81 89 82 90 91 91 83 92
REMARK SMILES IDX 84 93 90 94 92 95 85 96 86 97 87 98 88 99 89 100 65 101
REMARK SMILES IDX 66 102 75 103 67 104 68 105 74 106 76 107 69 108 70 109
REMARK SMILES IDX 71 110 72 111 73 112
REMARK H PARENT 13 19 18 36 97 62 63 73
REMARK Flexibility Score: inf
ROOT
ATOM      1  O   UNL     1      -8.891   2.234   3.728  1.00  0.00    -0.377 OA
ENDROOT
BRANCH   1   2
ATOM      2  C   UNL     1      -8.226   2.377   4.963  1.00  0.00     0.188 C 
BRANCH   2   3
ATOM      3  C   UNL     1      -7.185   3.512   5.085  1.00  0.00     0.188 C 
BRANCH   3   4
ATOM      4  O   UNL     1      -7.184   4.623   4.211  1.00  0.00    -0.376 OA
BRANCH   4   5
ATOM      5  C   UNL     1      -7.009   4.536   2.810  1.00  0.00     0.202 C 
BRANCH   5   6
ATOM      6  C   UNL     1      -6.402   3.355   2.056  1.00  0.00     0.261 C 
BRANCH   6   7
ATOM      7  O   UNL     1      -6.489   2.069   2.655  1.00  0.00    -0.460 OA
BRANCH   7   8
ATOM      8  C   UNL     1      -5.405   1.705   3.364  1.00  0.00     0.340 C 
ATOM      9  O   UNL     1      -4.447   2.422   3.625  1.00  0.00    -0.246 OA
BRANCH   8  10
ATOM     10  C   UNL     1      -5.572   0.355   3.961  1.00  0.00     0.087 A 
ATOM     11  C   UNL     1      -6.301  -0.734   3.431  1.00  0.00     0.056 A 
ATOM     12  C   UNL     1      -6.429  -1.881   4.239  1.00  0.00     0.031 A 
ATOM     13  C   UNL     1      -5.798  -1.981   5.485  1.00  0.00     0.048 A 
ATOM     14  C   UNL     1      -4.948   0.245   5.225  1.00  0.00     0.064 A 
ATOM     15  C   UNL     1      -5.056  -0.918   5.966  1.00  0.00     0.116 A 
BRANCH  11  16
ATOM     16  N   UNL     1      -6.897  -0.867   2.147  1.00  0.00    -0.321 N 
ATOM     17  C   UNL     1      -6.586  -0.374   0.890  1.00  0.00     0.255 C 
ATOM     18  O   UNL     1      -7.395  -0.488  -0.028  1.00  0.00    -0.269 OA
ATOM     19  H   UNL     1      -7.705  -1.429   2.152  1.00  0.00     0.170 HD
BRANCH  17  20
ATOM     20  C   UNL     1      -5.265   0.233   0.611  1.00  0.00     0.040 A 
ATOM     21  C   UNL     1      -3.030   1.897   0.761  1.00  0.00    -0.024 A 
ATOM     22  C   UNL     1      -4.033   2.162  -0.181  1.00  0.00     0.009 A 
ATOM     23  C   UNL     1      -3.132   0.733   1.524  1.00  0.00     0.009 A 
ATOM     24  C   UNL     1      -5.166   1.339  -0.243  1.00  0.00     0.014 A 
ATOM     25  C   UNL     1      -4.165  -0.169   1.349  1.00  0.00     0.014 A 
BRANCH  21  26
ATOM     26  C   UNL     1      -1.953   2.862   1.018  1.00  0.00     0.029 C 
ATOM     27  C   UNL     1       1.810   0.059   0.133  1.00  0.00     0.155 C 
ATOM     28  N   UNL     1       1.226   1.286   0.643  1.00  0.00    -0.296 N 
ATOM     29  C   UNL     1      -0.043   1.194   1.159  1.00  0.00     0.265 C 
ATOM     30  C   UNL     1       1.802   2.529   0.692  1.00  0.00     0.148 C 
ATOM     31  O   UNL     1      -0.515   0.151   1.583  1.00  0.00    -0.268 OA
ATOM     32  C   UNL     1      -0.662   2.547   1.204  1.00  0.00     0.081 C 
ATOM     33  S   UNL     1       0.612   3.713   1.251  1.00  0.00    -0.054 SA
ATOM     34  S   UNL     1       3.365   2.944   0.294  1.00  0.00    -0.052 S 
ENDBRANCH  21  26
ENDBRANCH  17  20
ENDBRANCH  11  16
BRANCH  15  35
ATOM     35  O   UNL     1      -4.449  -1.041   7.179  1.00  0.00    -0.508 OA
ATOM     36  H   UNL     1      -4.534  -1.837   7.666  1.00  0.00     0.293 HD
ENDBRANCH  15  35
ENDBRANCH   8  10
ENDBRANCH   7   8
ENDBRANCH   6   7
ENDBRANCH   5   6
ENDBRANCH   4   5
ENDBRANCH   3   4
ENDBRANCH   2   3
ENDBRANCH   1   2
BRANCH   1  37
ATOM     37  C   UNL     1      -9.905   3.158   3.356  1.00  0.00     0.188 C 
BRANCH  37  38
ATOM     38  C   UNL     1     -10.156   4.455   4.159  1.00  0.00     0.188 C 
BRANCH  38  39
ATOM     39  O   UNL     1      -9.803   4.392   5.528  1.00  0.00    -0.376 OA
BRANCH  39  40
ATOM     40  C   UNL     1     -10.810   4.195   6.501  1.00  0.00     0.202 C 
BRANCH  40  41
ATOM     41  C   UNL     1     -11.662   2.921   6.421  1.00  0.00     0.261 C 
BRANCH  41  42
ATOM     42  O   UNL     1     -12.293   2.653   5.164  1.00  0.00    -0.460 OA
BRANCH  42  43
ATOM     43  C   UNL     1     -13.200   3.556   4.722  1.00  0.00     0.338 C 
ATOM     44  O   UNL     1     -13.552   4.572   5.276  1.00  0.00    -0.246 OA
BRANCH  43  45
ATOM     45  C   UNL     1     -13.542   3.175   3.333  1.00  0.00     0.060 A 
ATOM     46  C   UNL     1     -13.268   4.069   2.289  1.00  0.00     0.016 A 
ATOM     47  C   UNL     1     -14.112   1.928   3.072  1.00  0.00     0.016 A 
ATOM     48  C   UNL     1     -13.602   3.731   0.978  1.00  0.00     0.010 A 
ATOM     49  C   UNL     1     -14.471   1.602   1.765  1.00  0.00     0.010 A 
ATOM     50  C   UNL     1     -14.252   2.518   0.720  1.00  0.00    -0.014 A 
BRANCH  50  51
ATOM     51  C   UNL     1     -14.921   2.302  -0.584  1.00  0.00     0.031 A 
ATOM     52  C   UNL     1     -16.393   2.599  -0.671  1.00  0.00     0.074 A 
ATOM     53  C   UNL     1     -14.246   1.857  -1.657  1.00  0.00     0.049 A 
ATOM     54  N   UNL     1     -17.225   2.402  -1.658  1.00  0.00    -0.248 NA
ATOM     55  C   UNL     1     -17.009   3.195   0.528  1.00  0.00     0.031 C 
ATOM     56  C   UNL     1     -12.811   1.585  -1.703  1.00  0.00     0.029 A 
ATOM     57  N   UNL     1     -14.692   1.539  -2.915  1.00  0.00    -0.354 N 
ATOM     58  C   UNL     1     -18.463   2.835  -1.197  1.00  0.00     0.074 A 
ATOM     59  C   UNL     1     -18.280   3.278   0.167  1.00  0.00     0.031 C 
ATOM     60  C   UNL     1     -12.496   1.122  -2.926  1.00  0.00     0.029 A 
ATOM     61  C   UNL     1     -13.712   1.027  -3.733  1.00  0.00     0.049 A 
ATOM     62  H   UNL     1     -15.624   1.665  -3.205  1.00  0.00     0.167 HD
ATOM     63  C   UNL     1     -19.644   2.866  -1.856  1.00  0.00     0.037 A 
ATOM     64  C   UNL     1     -13.800   0.513  -4.976  1.00  0.00     0.037 A 
ATOM     65  C   UNL     1     -19.814   2.414  -3.212  1.00  0.00     0.049 A 
ATOM     66  C   UNL     1     -15.144   0.477  -5.663  1.00  0.00     0.074 A 
ATOM     67  C   UNL     1     -20.965   2.408  -3.978  1.00  0.00     0.029 A 
ATOM     68  N   UNL     1     -18.804   1.878  -3.999  1.00  0.00    -0.354 N 
ATOM     69  N   UNL     1     -16.308   0.902  -5.227  1.00  0.00    -0.248 NA
ATOM     70  C   UNL     1     -15.189  -0.108  -7.010  1.00  0.00     0.031 C 
ATOM     71  C   UNL     1     -20.665   1.812  -5.207  1.00  0.00     0.029 A 
ATOM     72  C   UNL     1     -19.312   1.511  -5.233  1.00  0.00     0.049 A 
ATOM     73  H   UNL     1     -17.866   1.774  -3.720  1.00  0.00     0.167 HD
ATOM     74  C   UNL     1     -17.213   0.667  -6.258  1.00  0.00     0.074 A 
ATOM     75  C   UNL     1     -16.461   0.069  -7.341  1.00  0.00     0.031 C 
ATOM     76  C   UNL     1     -18.544   0.927  -6.307  1.00  0.00     0.037 A 
BRANCH  63  77
ATOM     77  C   UNL     1     -20.847   3.370  -1.106  1.00  0.00     0.058 A 
ATOM     78  C   UNL     1     -20.985   4.720  -0.743  1.00  0.00     0.135 A 
ATOM     79  C   UNL     1     -21.885   2.491  -0.758  1.00  0.00     0.135 A 
ATOM     80  F   UNL     1     -20.012   5.601  -1.029  1.00  0.00    -0.206 F 
ATOM     81  C   UNL     1     -22.094   5.174  -0.037  1.00  0.00     0.059 A 
ATOM     82  C   UNL     1     -23.019   2.929  -0.081  1.00  0.00     0.059 A 
ATOM     83  F   UNL     1     -21.804   1.189  -1.074  1.00  0.00    -0.206 F 
ATOM     84  C   UNL     1     -23.107   4.270   0.288  1.00  0.00     0.060 A 
BRANCH  84  85
ATOM     85  S   UNL     1     -24.541   4.876   1.202  1.00  0.00     0.124 S 
ATOM     86  O   UNL     1     -23.962   5.127   2.519  1.00  0.00    -0.237 OA
ATOM     87  O   UNL     1     -24.916   6.062   0.440  1.00  0.00    -0.237 OA
ATOM     88  O   UNL     1     -25.484   3.765   1.134  1.00  0.00    -0.744 OA
ENDBRANCH  84  85
ENDBRANCH  63  77
BRANCH  64  89
ATOM     89  C   UNL     1     -12.585  -0.019  -5.651  1.00  0.00     0.058 A 
ATOM     90  C   UNL     1     -12.043   0.618  -6.777  1.00  0.00     0.135 A 
ATOM     91  C   UNL     1     -11.939  -1.176  -5.184  1.00  0.00     0.135 A 
ATOM     92  F   UNL     1     -12.631   1.718  -7.272  1.00  0.00    -0.206 F 
ATOM     93  C   UNL     1     -10.915   0.124  -7.424  1.00  0.00     0.059 A 
ATOM     94  C   UNL     1     -10.791  -1.673  -5.796  1.00  0.00     0.059 A 
ATOM     95  F   UNL     1     -12.414  -1.824  -4.109  1.00  0.00    -0.206 F 
ATOM     96  C   UNL     1     -10.291  -1.020  -6.921  1.00  0.00     0.060 A 
BRANCH  96  97
ATOM     97  S   UNL     1      -8.800  -1.621  -7.745  1.00  0.00     0.124 S 
ATOM     98  O   UNL     1      -9.340  -2.120  -9.004  1.00  0.00    -0.237 OA
ATOM     99  O   UNL     1      -7.992  -0.409  -7.833  1.00  0.00    -0.237 OA
ATOM    100  O   UNL     1      -8.295  -2.639  -6.829  1.00  0.00    -0.744 OA
ENDBRANCH  96  97
ENDBRANCH  64  89
BRANCH  76 101
ATOM    101  C   UNL     1     -19.274   0.617  -7.587  1.00  0.00     0.058 A 
ATOM    102  C   UNL     1     -19.543  -0.700  -7.989  1.00  0.00     0.135 A 
ATOM    103  C   UNL     1     -19.777   1.660  -8.383  1.00  0.00     0.135 A 
ATOM    104  F   UNL     1     -19.082  -1.735  -7.269  1.00  0.00    -0.206 F 
ATOM    105  C   UNL     1     -20.270  -0.973  -9.145  1.00  0.00     0.059 A 
ATOM    106  C   UNL     1     -20.533   1.411  -9.524  1.00  0.00     0.059 A 
ATOM    107  F   UNL     1     -19.560   2.939  -8.039  1.00  0.00    -0.206 F 
ATOM    108  C   UNL     1     -20.767   0.090  -9.902  1.00  0.00     0.060 A 
BRANCH 108 109
ATOM    109  S   UNL     1     -21.749  -0.280 -11.371  1.00  0.00     0.124 S 
ATOM    110  O   UNL     1     -20.732  -0.790 -12.285  1.00  0.00    -0.237 OA
ATOM    111  O   UNL     1     -22.701  -1.265 -10.868  1.00  0.00    -0.237 OA
ATOM    112  O   UNL     1     -22.324   1.013 -11.731  1.00  0.00    -0.744 OA
ENDBRANCH 108 109
ENDBRANCH  76 101
ENDBRANCH  50  51
ENDBRANCH  43  45
ENDBRANCH  42  43
ENDBRANCH  41  42
ENDBRANCH  40  41
ENDBRANCH  39  40
ENDBRANCH  38  39
ENDBRANCH  37  38
ENDBRANCH   1  37
TORSDOF 27
