REMARK SMILES C[C@@H]1[C@@H](C(=O)OCCOCCOCCOCCOC(=O)c2ccc(-c3c4nc(c(-c5c(F)cc(S(=O)(=O)[O-])cc5F)c5ccc([nH]5)c(-c5c(F)cc(S(=O)(=O)[O-])cc5F)c5nc(c(-c6c(F)cc(S(=O)(=O)[O-])cc6F)c6ccc3[nH]6)C=C5)C=C4)cc2)CCN1C(=O)N(C)Cc1ccsc1
REMARK SMILES IDX 11 1 10 2 9 3 8 4 7 5 6 6 4 7 5 8 3 9 1 10 2 11 89 12 87 13
REMARK SMILES IDX 88 14 90 15 91 16 92 17 93 18 94 19 95 20 96 21 99 22 97 23
REMARK SMILES IDX 98 24 12 25 13 26 14 27 15 28 16 29 17 30 18 31 19 32 20 33
REMARK SMILES IDX 21 34 22 35 86 36 23 37 85 38 24 39 25 40 26 41 79 42 27 43
REMARK SMILES IDX 84 44 78 45 80 46 28 47 83 48 77 49 76 50 29 52 63 53 42 54
REMARK SMILES IDX 62 55 43 56 46 57 61 58 81 59 44 60 45 61 60 63 82 64 47 65
REMARK SMILES IDX 30 66 31 67 40 68 32 69 33 70 39 71 41 72 34 73 35 74 36 75
REMARK SMILES IDX 37 76 38 77 64 78 65 79 74 80 66 81 67 82 73 83 75 84 68 85
REMARK SMILES IDX 69 86 70 87 71 88 72 89 48 90 49 91 58 92 50 93 51 94 57 95
REMARK SMILES IDX 59 96 52 97 53 98 54 99 55 100 56 101
REMARK H PARENT 80 51 46 62
REMARK Flexibility Score: inf
ROOT
ATOM      1  C   UNL     1       0.311   3.322  -2.277  1.00  0.00     0.188 C 
ENDROOT
BRANCH   1   2
ATOM      2  C   UNL     1       0.621   2.160  -3.233  1.00  0.00     0.188 C 
BRANCH   2   3
ATOM      3  O   UNL     1      -0.087   2.064  -4.451  1.00  0.00    -0.376 OA
BRANCH   3   4
ATOM      4  C   UNL     1      -1.472   1.771  -4.575  1.00  0.00     0.202 C 
BRANCH   4   5
ATOM      5  C   UNL     1      -2.487   1.400  -3.474  1.00  0.00     0.261 C 
BRANCH   5   6
ATOM      6  O   UNL     1      -2.057   1.454  -2.122  1.00  0.00    -0.463 OA
BRANCH   6   7
ATOM      7  C   UNL     1      -1.409   0.346  -1.709  1.00  0.00     0.311 C 
ATOM      8  O   UNL     1      -1.256  -0.657  -2.393  1.00  0.00    -0.252 OA
BRANCH   7   9
ATOM      9  C   UNL     1      -0.791   0.588  -0.340  1.00  0.00     0.123 C 
ATOM     10  C   UNL     1       1.441   0.223   0.827  1.00  0.00     0.032 C 
ATOM     11  C   UNL     1       0.456  -0.293  -0.227  1.00  0.00     0.098 C 
ATOM     12  N   UNL     1      -0.112  -1.585   0.137  1.00  0.00    -0.321 N 
ATOM     13  C   UNL     1      -1.687   0.096   0.777  1.00  0.00     0.039 C 
ATOM     14  C   UNL     1      -1.444  -1.400   0.730  1.00  0.00     0.122 C 
BRANCH  12  15
ATOM     15  C   UNL     1       0.155  -2.830  -0.368  1.00  0.00     0.320 C 
ATOM     16  O   UNL     1      -0.729  -3.694  -0.282  1.00  0.00    -0.248 OA
BRANCH  15  17
ATOM     17  N   UNL     1       1.391  -3.175  -0.875  1.00  0.00    -0.323 N 
ATOM     18  C   UNL     1       2.585  -2.397  -1.169  1.00  0.00     0.149 C 
BRANCH  17  19
ATOM     19  C   UNL     1       1.555  -4.606  -1.115  1.00  0.00     0.157 C 
BRANCH  19  20
ATOM     20  C   UNL     1       1.693  -5.362   0.189  1.00  0.00    -0.018 A 
ATOM     21  C   UNL     1       1.693  -6.795   0.268  1.00  0.00     0.017 A 
ATOM     22  C   UNL     1       1.762  -4.816   1.463  1.00  0.00     0.070 A 
ATOM     23  C   UNL     1       1.725  -7.258   1.564  1.00  0.00     0.065 A 
ATOM     24  S   UNL     1       1.788  -5.989   2.702  1.00  0.00    -0.152 S 
ENDBRANCH  19  20
ENDBRANCH  17  19
ENDBRANCH  15  17
ENDBRANCH  12  15
ENDBRANCH   7   9
ENDBRANCH   6   7
ENDBRANCH   5   6
ENDBRANCH   4   5
ENDBRANCH   3   4
ENDBRANCH   2   3
ENDBRANCH   1   2
BRANCH   1  25
ATOM     25  O   UNL     1      -0.998   3.826  -2.414  1.00  0.00    -0.377 OA
BRANCH  25  26
ATOM     26  C   UNL     1      -1.201   4.879  -3.350  1.00  0.00     0.188 C 
BRANCH  26  27
ATOM     27  C   UNL     1      -0.259   5.051  -4.567  1.00  0.00     0.188 C 
BRANCH  27  28
ATOM     28  O   UNL     1       1.121   4.843  -4.295  1.00  0.00    -0.376 OA
BRANCH  28  29
ATOM     29  C   UNL     1       1.961   5.975  -4.141  1.00  0.00     0.202 C 
BRANCH  29  30
ATOM     30  C   UNL     1       1.719   6.863  -2.910  1.00  0.00     0.261 C 
BRANCH  30  31
ATOM     31  O   UNL     1       0.396   7.402  -2.773  1.00  0.00    -0.460 OA
BRANCH  31  32
ATOM     32  C   UNL     1      -0.045   8.213  -3.758  1.00  0.00     0.338 C 
ATOM     33  O   UNL     1       0.582   8.579  -4.739  1.00  0.00    -0.246 OA
BRANCH  32  34
ATOM     34  C   UNL     1      -1.495   8.422  -3.559  1.00  0.00     0.060 A 
ATOM     35  C   UNL     1      -2.380   8.043  -4.578  1.00  0.00     0.016 A 
ATOM     36  C   UNL     1      -1.979   8.975  -2.372  1.00  0.00     0.016 A 
ATOM     37  C   UNL     1      -3.749   8.258  -4.430  1.00  0.00     0.010 A 
ATOM     38  C   UNL     1      -3.349   9.212  -2.234  1.00  0.00     0.010 A 
ATOM     39  C   UNL     1      -4.235   8.890  -3.278  1.00  0.00    -0.014 A 
BRANCH  39  40
ATOM     40  C   UNL     1      -5.625   9.410  -3.257  1.00  0.00     0.031 A 
ATOM     41  C   UNL     1      -5.840  10.867  -3.570  1.00  0.00     0.074 A 
ATOM     42  C   UNL     1      -6.673   8.610  -2.991  1.00  0.00     0.049 A 
ATOM     43  N   UNL     1      -6.944  11.565  -3.561  1.00  0.00    -0.248 NA
ATOM     44  C   UNL     1      -4.642  11.640  -3.940  1.00  0.00     0.031 C 
ATOM     45  C   UNL     1      -6.596   7.176  -2.719  1.00  0.00     0.029 A 
ATOM     46  N   UNL     1      -8.011   8.900  -2.898  1.00  0.00    -0.354 N 
ATOM     47  C   UNL     1      -6.576  12.858  -3.914  1.00  0.00     0.074 A 
ATOM     48  C   UNL     1      -5.141  12.856  -4.098  1.00  0.00     0.031 C 
ATOM     49  C   UNL     1      -7.835   6.714  -2.474  1.00  0.00     0.029 A 
ATOM     50  C   UNL     1      -8.786   7.824  -2.537  1.00  0.00     0.049 A 
ATOM     51  H   UNL     1      -8.382   9.796  -3.073  1.00  0.00     0.167 HD
ATOM     52  C   UNL     1      -7.363  13.947  -4.078  1.00  0.00     0.037 A 
ATOM     53  C   UNL     1     -10.104   7.751  -2.263  1.00  0.00     0.037 A 
ATOM     54  C   UNL     1      -8.790  13.942  -3.890  1.00  0.00     0.049 A 
ATOM     55  C   UNL     1     -10.951   8.996  -2.377  1.00  0.00     0.074 A 
ATOM     56  C   UNL     1      -9.680  14.990  -4.044  1.00  0.00     0.029 A 
ATOM     57  N   UNL     1      -9.534  12.839  -3.496  1.00  0.00    -0.354 N 
ATOM     58  N   UNL     1     -10.595  10.209  -2.731  1.00  0.00    -0.248 NA
ATOM     59  C   UNL     1     -12.380   8.861  -2.057  1.00  0.00     0.031 C 
ATOM     60  C   UNL     1     -10.954  14.536  -3.685  1.00  0.00     0.029 A 
ATOM     61  C   UNL     1     -10.868  13.188  -3.374  1.00  0.00     0.049 A 
ATOM     62  H   UNL     1      -9.167  11.941  -3.328  1.00  0.00     0.167 HD
ATOM     63  C   UNL     1     -11.760  10.971  -2.709  1.00  0.00     0.074 A 
ATOM     64  C   UNL     1     -12.832  10.080  -2.317  1.00  0.00     0.031 C 
ATOM     65  C   UNL     1     -11.929  12.287  -2.992  1.00  0.00     0.037 A 
BRANCH  52  66
ATOM     66  C   UNL     1      -6.694  15.243  -4.449  1.00  0.00     0.058 A 
ATOM     67  C   UNL     1      -6.123  15.448  -5.716  1.00  0.00     0.135 A 
ATOM     68  C   UNL     1      -6.651  16.307  -3.533  1.00  0.00     0.135 A 
ATOM     69  F   UNL     1      -6.115  14.459  -6.623  1.00  0.00    -0.206 F 
ATOM     70  C   UNL     1      -5.513  16.653  -6.052  1.00  0.00     0.059 A 
ATOM     71  C   UNL     1      -6.075  17.531  -3.859  1.00  0.00     0.059 A 
ATOM     72  F   UNL     1      -7.176  16.164  -2.306  1.00  0.00    -0.206 F 
ATOM     73  C   UNL     1      -5.497  17.689  -5.117  1.00  0.00     0.060 A 
BRANCH  73  74
ATOM     74  S   UNL     1      -4.711  19.249  -5.574  1.00  0.00     0.124 S 
ATOM     75  O   UNL     1      -3.302  18.869  -5.596  1.00  0.00    -0.237 OA
ATOM     76  O   UNL     1      -5.311  19.529  -6.875  1.00  0.00    -0.237 OA
ATOM     77  O   UNL     1      -5.099  20.155  -4.498  1.00  0.00    -0.744 OA
ENDBRANCH  73  74
ENDBRANCH  52  66
BRANCH  53  78
ATOM     78  C   UNL     1     -10.710   6.459  -1.838  1.00  0.00     0.058 A 
ATOM     79  C   UNL     1     -11.633   5.785  -2.652  1.00  0.00     0.135 A 
ATOM     80  C   UNL     1     -10.386   5.877  -0.602  1.00  0.00     0.135 A 
ATOM     81  F   UNL     1     -11.988   6.307  -3.837  1.00  0.00    -0.206 F 
ATOM     82  C   UNL     1     -12.226   4.592  -2.252  1.00  0.00     0.059 A 
ATOM     83  C   UNL     1     -10.943   4.669  -0.192  1.00  0.00     0.059 A 
ATOM     84  F   UNL     1      -9.504   6.475   0.213  1.00  0.00    -0.206 F 
ATOM     85  C   UNL     1     -11.870   4.039  -1.020  1.00  0.00     0.060 A 
BRANCH  85  86
ATOM     86  S   UNL     1     -12.611   2.466  -0.532  1.00  0.00     0.124 S 
ATOM     87  O   UNL     1     -13.987   2.862  -0.255  1.00  0.00    -0.237 OA
ATOM     88  O   UNL     1     -12.408   1.651  -1.726  1.00  0.00    -0.237 OA
ATOM     89  O   UNL     1     -11.822   2.071   0.631  1.00  0.00    -0.744 OA
ENDBRANCH  85  86
ENDBRANCH  53  78
BRANCH  65  90
ATOM     90  C   UNL     1     -13.328  12.843  -2.937  1.00  0.00     0.058 A 
ATOM     91  C   UNL     1     -14.009  13.025  -1.723  1.00  0.00     0.135 A 
ATOM     92  C   UNL     1     -13.973  13.254  -4.116  1.00  0.00     0.135 A 
ATOM     93  F   UNL     1     -13.442  12.647  -0.567  1.00  0.00    -0.206 F 
ATOM     94  C   UNL     1     -15.289  13.570  -1.682  1.00  0.00     0.059 A 
ATOM     95  C   UNL     1     -15.239  13.832  -4.096  1.00  0.00     0.059 A 
ATOM     96  F   UNL     1     -13.364  13.115  -5.304  1.00  0.00    -0.206 F 
ATOM     97  C   UNL     1     -15.894  13.974  -2.874  1.00  0.00     0.060 A 
BRANCH  97  98
ATOM     98  S   UNL     1     -17.541  14.710  -2.803  1.00  0.00     0.124 S 
ATOM     99  O   UNL     1     -18.368  13.550  -2.484  1.00  0.00    -0.237 OA
ATOM    100  O   UNL     1     -17.395  15.697  -1.737  1.00  0.00    -0.237 OA
ATOM    101  O   UNL     1     -17.726  15.263  -4.141  1.00  0.00    -0.744 OA
ENDBRANCH  97  98
ENDBRANCH  65  90
ENDBRANCH  39  40
ENDBRANCH  32  34
ENDBRANCH  31  32
ENDBRANCH  30  31
ENDBRANCH  29  30
ENDBRANCH  28  29
ENDBRANCH  27  28
ENDBRANCH  26  27
ENDBRANCH  25  26
ENDBRANCH   1  25
TORSDOF 27
