REMARK SMILES CN1C(=O)C[C@@H](C(=O)OCCOCCOCCOCCOC(=O)c2ccc(-c3c4nc(c(-c5c(F)cc(S(=O)(=O)[O-])cc5F)c5ccc([nH]5)c(-c5c(F)cc(S(=O)(=O)[O-])cc5F)c5nc(c(-c6c(F)cc(S(=O)(=O)[O-])cc6F)c6ccc3[nH]6)C=C5)C=C4)cc2)C12CCN(C(=O)c1cccc3ccccc13)CC2
REMARK SMILES IDX 16 1 15 2 14 3 13 4 12 5 11 6 10 7 9 8 7 9 8 10 6 11 1 12
REMARK SMILES IDX 2 13 3 14 90 15 4 16 5 17 91 18 107 19 92 20 106 21 93 22
REMARK SMILES IDX 94 23 95 24 96 25 97 26 105 27 98 28 100 29 104 30 99 31
REMARK SMILES IDX 101 32 103 33 102 34 17 35 18 36 19 37 20 38 21 39 22 40
REMARK SMILES IDX 23 41 24 42 25 43 89 44 26 45 88 46 27 47 28 48 29 49 82 50
REMARK SMILES IDX 30 51 87 52 81 53 83 54 31 55 86 56 80 57 79 58 32 60 66 61
REMARK SMILES IDX 45 62 65 63 46 64 49 65 64 66 84 67 47 68 48 69 63 71 85 72
REMARK SMILES IDX 50 73 33 74 34 75 43 76 35 77 36 78 42 79 44 80 37 81 38 82
REMARK SMILES IDX 39 83 40 84 41 85 67 86 68 87 77 88 69 89 70 90 76 91 78 92
REMARK SMILES IDX 71 93 72 94 73 95 74 96 75 97 51 98 52 99 61 100 53 101
REMARK SMILES IDX 54 102 60 103 62 104 55 105 56 106 57 107 58 108 59 109
REMARK H PARENT 83 59 49 70
REMARK Flexibility Score: inf
ROOT
ATOM      1  C   UNL     1      -0.499  -3.031  -5.286  1.00  0.00     0.188 C 
ENDROOT
BRANCH   1   2
ATOM      2  O   UNL     1      -1.095  -1.755  -5.052  1.00  0.00    -0.377 OA
BRANCH   2   3
ATOM      3  C   UNL     1      -2.081  -1.253  -5.934  1.00  0.00     0.188 C 
BRANCH   3   4
ATOM      4  C   UNL     1      -1.576  -0.329  -7.039  1.00  0.00     0.188 C 
BRANCH   4   5
ATOM      5  O   UNL     1      -0.371  -0.703  -7.672  1.00  0.00    -0.376 OA
BRANCH   5   6
ATOM      6  C   UNL     1       0.866  -0.516  -6.982  1.00  0.00     0.202 C 
BRANCH   6   7
ATOM      7  C   UNL     1       1.066   0.590  -5.922  1.00  0.00     0.261 C 
BRANCH   7   8
ATOM      8  O   UNL     1       0.507   0.346  -4.596  1.00  0.00    -0.463 OA
BRANCH   8   9
ATOM      9  C   UNL     1      -0.489   1.179  -4.225  1.00  0.00     0.311 C 
ATOM     10  O   UNL     1      -1.006   1.998  -4.991  1.00  0.00    -0.252 OA
BRANCH   9  11
ATOM     11  C   UNL     1      -0.901   1.238  -2.763  1.00  0.00     0.134 C 
ATOM     12  C   UNL     1       1.349  -0.022  -0.017  1.00  0.00     0.147 C 
ATOM     13  N   UNL     1       0.624   0.655  -1.079  1.00  0.00    -0.339 N 
ATOM     14  C   UNL     1       0.894   1.988  -1.362  1.00  0.00     0.223 C 
ATOM     15  C   UNL     1      -0.683   0.218  -1.610  1.00  0.00     0.060 C 
ATOM     16  O   UNL     1       1.799   2.666  -0.905  1.00  0.00    -0.275 OA
ATOM     17  C   UNL     1      -0.195   2.513  -2.252  1.00  0.00     0.118 C 
ATOM     18  C   UNL     1      -0.724  -1.289  -1.942  1.00  0.00     0.051 C 
ATOM     19  C   UNL     1      -1.754   0.482  -0.493  1.00  0.00     0.051 C 
ATOM     20  C   UNL     1      -2.126  -1.885  -2.158  1.00  0.00     0.122 C 
ATOM     21  C   UNL     1      -3.125  -0.108  -0.796  1.00  0.00     0.122 C 
ATOM     22  N   UNL     1      -3.047  -1.530  -1.083  1.00  0.00    -0.338 N 
ATOM     23  C   UNL     1      -3.975  -2.374  -0.464  1.00  0.00     0.254 C 
ATOM     24  O   UNL     1      -4.672  -2.021   0.487  1.00  0.00    -0.269 OA
BRANCH  23  25
ATOM     25  C   UNL     1      -4.278  -3.710  -1.027  1.00  0.00     0.047 A 
ATOM     26  C   UNL     1      -5.399  -3.760  -1.873  1.00  0.00     0.014 A 
ATOM     27  C   UNL     1      -3.597  -4.893  -0.646  1.00  0.00    -0.006 A 
ATOM     28  C   UNL     1      -5.857  -4.979  -2.361  1.00  0.00     0.001 A 
ATOM     29  C   UNL     1      -4.071  -6.128  -1.166  1.00  0.00    -0.018 A 
ATOM     30  C   UNL     1      -2.462  -4.923   0.195  1.00  0.00     0.009 A 
ATOM     31  C   UNL     1      -5.203  -6.155  -2.001  1.00  0.00     0.009 A 
ATOM     32  C   UNL     1      -3.370  -7.316  -0.904  1.00  0.00     0.009 A 
ATOM     33  C   UNL     1      -1.779  -6.117   0.447  1.00  0.00     0.001 A 
ATOM     34  C   UNL     1      -2.221  -7.308  -0.117  1.00  0.00     0.001 A 
ENDBRANCH  23  25
ENDBRANCH   9  11
ENDBRANCH   8   9
ENDBRANCH   7   8
ENDBRANCH   6   7
ENDBRANCH   5   6
ENDBRANCH   4   5
ENDBRANCH   3   4
ENDBRANCH   2   3
ENDBRANCH   1   2
BRANCH   1  35
ATOM     35  C   UNL     1      -1.076  -3.949  -6.371  1.00  0.00     0.188 C 
BRANCH  35  36
ATOM     36  O   UNL     1      -2.467  -4.274  -6.270  1.00  0.00    -0.376 OA
BRANCH  36  37
ATOM     37  C   UNL     1      -2.986  -4.461  -4.957  1.00  0.00     0.202 C 
BRANCH  37  38
ATOM     38  C   UNL     1      -2.525  -5.750  -4.304  1.00  0.00     0.261 C 
BRANCH  38  39
ATOM     39  O   UNL     1      -1.119  -5.747  -4.067  1.00  0.00    -0.460 OA
BRANCH  39  40
ATOM     40  C   UNL     1      -0.572  -6.979  -4.066  1.00  0.00     0.338 C 
ATOM     41  O   UNL     1      -1.129  -8.050  -4.211  1.00  0.00    -0.246 OA
BRANCH  40  42
ATOM     42  C   UNL     1       0.874  -6.823  -3.924  1.00  0.00     0.060 A 
ATOM     43  C   UNL     1       1.659  -6.879  -5.077  1.00  0.00     0.016 A 
ATOM     44  C   UNL     1       1.441  -6.762  -2.649  1.00  0.00     0.016 A 
ATOM     45  C   UNL     1       3.038  -6.972  -4.949  1.00  0.00     0.010 A 
ATOM     46  C   UNL     1       2.826  -6.846  -2.524  1.00  0.00     0.010 A 
ATOM     47  C   UNL     1       3.618  -7.015  -3.672  1.00  0.00    -0.014 A 
BRANCH  47  48
ATOM     48  C   UNL     1       5.026  -7.446  -3.553  1.00  0.00     0.031 A 
ATOM     49  C   UNL     1       5.308  -8.896  -3.266  1.00  0.00     0.074 A 
ATOM     50  C   UNL     1       6.019  -6.568  -3.769  1.00  0.00     0.049 A 
ATOM     51  N   UNL     1       6.455  -9.517  -3.195  1.00  0.00    -0.248 NA
ATOM     52  C   UNL     1       4.140  -9.763  -3.032  1.00  0.00     0.031 C 
ATOM     53  C   UNL     1       5.835  -5.148  -4.068  1.00  0.00     0.029 A 
ATOM     54  N   UNL     1       7.376  -6.743  -3.777  1.00  0.00    -0.354 N 
ATOM     55  C   UNL     1       6.148 -10.844  -2.913  1.00  0.00     0.074 A 
ATOM     56  C   UNL     1       4.711 -10.933  -2.790  1.00  0.00     0.031 C 
ATOM     57  C   UNL     1       7.041  -4.578  -4.229  1.00  0.00     0.029 A 
ATOM     58  C   UNL     1       8.076  -5.590  -4.031  1.00  0.00     0.049 A 
ATOM     59  H   UNL     1       7.809  -7.613  -3.616  1.00  0.00     0.167 HD
ATOM     60  C   UNL     1       6.993 -11.893  -2.781  1.00  0.00     0.037 A 
ATOM     61  C   UNL     1       9.405  -5.381  -4.089  1.00  0.00     0.037 A 
ATOM     62  C   UNL     1       8.422 -11.779  -2.904  1.00  0.00     0.049 A 
ATOM     63  C   UNL     1      10.328  -6.557  -3.913  1.00  0.00     0.074 A 
ATOM     64  C   UNL     1       9.380 -12.772  -2.807  1.00  0.00     0.029 A 
ATOM     65  N   UNL     1       9.098 -10.591  -3.146  1.00  0.00    -0.354 N 
ATOM     66  N   UNL     1      10.024  -7.814  -3.687  1.00  0.00    -0.248 NA
ATOM     67  C   UNL     1      11.768  -6.293  -4.013  1.00  0.00     0.031 C 
ATOM     68  C   UNL     1      10.638 -12.176  -2.948  1.00  0.00     0.029 A 
ATOM     69  C   UNL     1      10.462 -10.819  -3.178  1.00  0.00     0.049 A 
ATOM     70  H   UNL     1       8.670  -9.714  -3.275  1.00  0.00     0.167 HD
ATOM     71  C   UNL     1      11.234  -8.495  -3.631  1.00  0.00     0.074 A 
ATOM     72  C   UNL     1      12.273  -7.511  -3.864  1.00  0.00     0.031 C 
ATOM     73  C   UNL     1      11.469  -9.813  -3.409  1.00  0.00     0.037 A 
BRANCH  60  74
ATOM     74  C   UNL     1       6.393 -13.235  -2.466  1.00  0.00     0.058 A 
ATOM     75  C   UNL     1       5.665 -13.963  -3.421  1.00  0.00     0.135 A 
ATOM     76  C   UNL     1       6.552 -13.805  -1.193  1.00  0.00     0.135 A 
ATOM     77  F   UNL     1       5.464 -13.457  -4.648  1.00  0.00    -0.206 F 
ATOM     78  C   UNL     1       5.092 -15.195  -3.117  1.00  0.00     0.059 A 
ATOM     79  C   UNL     1       6.008 -15.046  -0.873  1.00  0.00     0.059 A 
ATOM     80  F   UNL     1       7.233 -13.150  -0.240  1.00  0.00    -0.206 F 
ATOM     81  C   UNL     1       5.266 -15.727  -1.838  1.00  0.00     0.060 A 
BRANCH  81  82
ATOM     82  S   UNL     1       4.510 -17.321  -1.452  1.00  0.00     0.124 S 
ATOM     83  O   UNL     1       3.103 -16.953  -1.327  1.00  0.00    -0.237 OA
ATOM     84  O   UNL     1       4.853 -18.122  -2.623  1.00  0.00    -0.237 OA
ATOM     85  O   UNL     1       5.168 -17.718  -0.211  1.00  0.00    -0.744 OA
ENDBRANCH  81  82
ENDBRANCH  60  74
BRANCH  61  86
ATOM     86  C   UNL     1       9.924  -4.009  -4.328  1.00  0.00     0.058 A 
ATOM     87  C   UNL     1      10.520  -3.655  -5.546  1.00  0.00     0.135 A 
ATOM     88  C   UNL     1       9.791  -3.010  -3.350  1.00  0.00     0.135 A 
ATOM     89  F   UNL     1      10.674  -4.575  -6.510  1.00  0.00    -0.206 F 
ATOM     90  C   UNL     1      10.971  -2.360  -5.787  1.00  0.00     0.059 A 
ATOM     91  C   UNL     1      10.213  -1.704  -3.575  1.00  0.00     0.059 A 
ATOM     92  F   UNL     1       9.213  -3.295  -2.173  1.00  0.00    -0.206 F 
ATOM     93  C   UNL     1      10.807  -1.390  -4.796  1.00  0.00     0.060 A 
BRANCH  93  94
ATOM     94  S   UNL     1      11.328   0.304  -5.145  1.00  0.00     0.124 S 
ATOM     95  O   UNL     1      12.778   0.190  -5.053  1.00  0.00    -0.237 OA
ATOM     96  O   UNL     1      10.787   0.522  -6.483  1.00  0.00    -0.237 OA
ATOM     97  O   UNL     1      10.685   1.076  -4.086  1.00  0.00    -0.744 OA
ENDBRANCH  93  94
ENDBRANCH  61  86
BRANCH  73  98
ATOM     98  C   UNL     1      12.901 -10.262  -3.421  1.00  0.00     0.058 A 
ATOM     99  C   UNL     1      13.763  -9.989  -2.349  1.00  0.00     0.135 A 
ATOM    100  C   UNL     1      13.398 -11.022  -4.492  1.00  0.00     0.135 A 
ATOM    101  F   UNL     1      13.333  -9.262  -1.305  1.00  0.00    -0.206 F 
ATOM    102  C   UNL     1      15.079 -10.435  -2.347  1.00  0.00     0.059 A 
ATOM    103  C   UNL     1      14.704 -11.499  -4.500  1.00  0.00     0.059 A 
ATOM    104  F   UNL     1      12.608 -11.319  -5.535  1.00  0.00    -0.206 F 
ATOM    105  C   UNL     1      15.540 -11.190  -3.427  1.00  0.00     0.060 A 
BRANCH 105 106
ATOM    106  S   UNL     1      17.242 -11.792  -3.400  1.00  0.00     0.124 S 
ATOM    107  O   UNL     1      17.985 -10.582  -3.733  1.00  0.00    -0.237 OA
ATOM    108  O   UNL     1      17.385 -12.267  -2.027  1.00  0.00    -0.237 OA
ATOM    109  O   UNL     1      17.248 -12.836  -4.421  1.00  0.00    -0.744 OA
ENDBRANCH 105 106
ENDBRANCH  73  98
ENDBRANCH  47  48
ENDBRANCH  40  42
ENDBRANCH  39  40
ENDBRANCH  38  39
ENDBRANCH  37  38
ENDBRANCH  36  37
ENDBRANCH  35  36
ENDBRANCH   1  35
TORSDOF 24
