REMARK SMILES Cc1c(Cl)cccc1NC(=O)NCc1cn([C@@H]2C[NH2+][C@H](C(=O)OCCOCCOCCOCCOC(=O)c3ccc(-c4c5nc(c(-c6c(F)cc(S(=O)(=O)[O-])cc6F)c6ccc([nH]6)c(-c6c(F)cc(S(=O)(=O)[O-])cc6F)c6nc(c(-c7c(F)cc(S(=O)(=O)[O-])cc7F)c7ccc4[nH]7)C=C6)C=C5)cc3)C2)nn1
REMARK SMILES IDX 28 1 27 2 26 3 25 4 24 5 23 6 21 7 22 8 20 9 17 10 18 11
REMARK SMILES IDX 104 12 19 13 16 16 14 17 15 18 106 19 105 20 13 21 12 22
REMARK SMILES IDX 9 23 10 24 11 26 8 28 1 29 2 30 3 31 4 32 5 33 7 34 6 35
REMARK SMILES IDX 29 36 30 37 31 38 32 39 33 40 34 41 35 42 36 43 37 44 38 45
REMARK SMILES IDX 39 46 103 47 40 48 102 49 41 50 42 51 43 52 96 53 44 54
REMARK SMILES IDX 101 55 95 56 97 57 45 58 100 59 94 60 93 61 46 63 80 64
REMARK SMILES IDX 59 65 79 66 60 67 63 68 78 69 98 70 61 71 62 72 77 74 99 75
REMARK SMILES IDX 64 76 47 77 48 78 57 79 49 80 50 81 56 82 58 83 51 84 52 85
REMARK SMILES IDX 53 86 54 87 55 88 81 89 82 90 91 91 83 92 84 93 90 94 92 95
REMARK SMILES IDX 85 96 86 97 87 98 88 99 89 100 65 101 66 102 75 103 67 104
REMARK SMILES IDX 68 105 74 106 76 107 69 108 70 109 71 110 72 111 73 112
REMARK H PARENT 19 14 19 15 9 25 12 27 97 62 63 73
REMARK Flexibility Score: inf
ROOT
ATOM      1  C   UNL     1      -3.725  -8.767   2.430  1.00  0.00     0.188 C 
ENDROOT
BRANCH   1   2
ATOM      2  C   UNL     1      -5.026  -8.757   1.594  1.00  0.00     0.188 C 
BRANCH   2   3
ATOM      3  O   UNL     1      -4.997  -9.055   0.206  1.00  0.00    -0.376 OA
BRANCH   3   4
ATOM      4  C   UNL     1      -4.096  -8.415  -0.685  1.00  0.00     0.202 C 
BRANCH   4   5
ATOM      5  C   UNL     1      -3.566  -6.978  -0.501  1.00  0.00     0.261 C 
BRANCH   5   6
ATOM      6  O   UNL     1      -3.645  -6.446   0.821  1.00  0.00    -0.459 OA
BRANCH   6   7
ATOM      7  C   UNL     1      -4.631  -5.557   1.103  1.00  0.00     0.365 C 
ATOM      8  O   UNL     1      -5.366  -5.042   0.269  1.00  0.00    -0.245 OA
BRANCH   7   9
ATOM      9  C   UNL     1      -4.796  -5.411   2.635  1.00  0.00     0.295 C 
ATOM     10  C   UNL     1      -4.692  -3.182   3.564  1.00  0.00     0.170 C 
ATOM     11  C   UNL     1      -3.299  -3.788   3.405  1.00  0.00     0.289 C 
ATOM     12  C   UNL     1      -5.667  -4.241   3.051  1.00  0.00     0.110 C 
ATOM     13  N   UNL     1      -3.503  -5.232   3.331  1.00  0.00    -0.333 N 
ATOM     14  H   UNL     1      -3.543  -5.635   4.268  1.00  0.00     0.347 HD
ATOM     15  H   UNL     1      -2.740  -5.698   2.840  1.00  0.00     0.347 HD
BRANCH  10  16
ATOM     16  N   UNL     1      -4.817  -1.940   2.844  1.00  0.00    -0.243 N 
ATOM     17  C   UNL     1      -4.895  -0.420   1.319  1.00  0.00     0.102 A 
ATOM     18  C   UNL     1      -4.617  -1.750   1.514  1.00  0.00     0.137 A 
ATOM     19  N   UNL     1      -5.293   0.132   2.511  1.00  0.00    -0.134 NA
ATOM     20  N   UNL     1      -5.242  -0.816   3.442  1.00  0.00    -0.067 NA
BRANCH  17  21
ATOM     21  C   UNL     1      -4.908   0.285   0.026  1.00  0.00     0.178 C 
BRANCH  21  22
ATOM     22  N   UNL     1      -4.521   1.664   0.124  1.00  0.00    -0.332 N 
ATOM     23  N   UNL     1      -2.233   2.080  -0.504  1.00  0.00    -0.308 N 
ATOM     24  C   UNL     1      -3.501   2.425  -0.245  1.00  0.00     0.319 C 
ATOM     25  H   UNL     1      -1.724   2.859  -0.826  1.00  0.00     0.171 HD
ATOM     26  O   UNL     1      -3.733   3.643  -0.270  1.00  0.00    -0.248 OA
ATOM     27  H   UNL     1      -5.204   2.191   0.598  1.00  0.00     0.165 HD
BRANCH  23  28
ATOM     28  C   UNL     1      -1.412   0.939  -0.454  1.00  0.00     0.047 A 
ATOM     29  C   UNL     1       0.590   2.408   0.233  1.00  0.00     0.048 C 
ATOM     30  C   UNL     1      -0.066   1.070  -0.021  1.00  0.00    -0.009 A 
ATOM     31  C   UNL     1       0.721  -0.099   0.116  1.00  0.00     0.046 A 
ATOM     32  Cl  UNL     1       2.372  -0.040   0.639  1.00  0.00    -0.084 Cl
ATOM     33  C   UNL     1       0.207  -1.357  -0.193  1.00  0.00     0.021 A 
ATOM     34  C   UNL     1      -1.833  -0.307  -0.912  1.00  0.00     0.026 A 
ATOM     35  C   UNL     1      -1.059  -1.457  -0.745  1.00  0.00     0.004 A 
ENDBRANCH  23  28
ENDBRANCH  21  22
ENDBRANCH  17  21
ENDBRANCH  10  16
ENDBRANCH   7   9
ENDBRANCH   6   7
ENDBRANCH   5   6
ENDBRANCH   4   5
ENDBRANCH   3   4
ENDBRANCH   2   3
ENDBRANCH   1   2
BRANCH   1  36
ATOM     36  O   UNL     1      -2.554  -8.806   1.638  1.00  0.00    -0.377 OA
BRANCH  36  37
ATOM     37  C   UNL     1      -2.021 -10.096   1.377  1.00  0.00     0.188 C 
BRANCH  37  38
ATOM     38  C   UNL     1      -2.981 -11.289   1.123  1.00  0.00     0.188 C 
BRANCH  38  39
ATOM     39  O   UNL     1      -4.162 -11.314   1.927  1.00  0.00    -0.376 OA
BRANCH  39  40
ATOM     40  C   UNL     1      -4.341 -12.310   2.923  1.00  0.00     0.202 C 
BRANCH  40  41
ATOM     41  C   UNL     1      -3.603 -12.044   4.234  1.00  0.00     0.261 C 
BRANCH  41  42
ATOM     42  O   UNL     1      -2.244 -11.701   4.025  1.00  0.00    -0.460 OA
BRANCH  42  43
ATOM     43  C   UNL     1      -1.509 -12.651   3.438  1.00  0.00     0.338 C 
ATOM     44  O   UNL     1      -1.907 -13.749   3.020  1.00  0.00    -0.246 OA
BRANCH  43  45
ATOM     45  C   UNL     1      -0.111 -12.241   3.432  1.00  0.00     0.060 A 
ATOM     46  C   UNL     1       0.771 -13.205   2.952  1.00  0.00     0.016 A 
ATOM     47  C   UNL     1       0.267 -11.228   4.330  1.00  0.00     0.016 A 
ATOM     48  C   UNL     1       1.896 -13.419   3.694  1.00  0.00     0.010 A 
ATOM     49  C   UNL     1       1.381 -11.455   5.082  1.00  0.00     0.010 A 
ATOM     50  C   UNL     1       2.090 -12.623   4.827  1.00  0.00    -0.014 A 
BRANCH  50  51
ATOM     51  C   UNL     1       3.063 -13.076   5.780  1.00  0.00     0.031 A 
ATOM     52  C   UNL     1       4.437 -12.782   5.353  1.00  0.00     0.074 A 
ATOM     53  C   UNL     1       2.689 -13.644   6.938  1.00  0.00     0.049 A 
ATOM     54  N   UNL     1       5.338 -13.623   4.978  1.00  0.00    -0.248 NA
ATOM     55  C   UNL     1       4.768 -11.372   5.094  1.00  0.00     0.031 C 
ATOM     56  C   UNL     1       1.349 -13.723   7.530  1.00  0.00     0.029 A 
ATOM     57  N   UNL     1       3.479 -14.179   7.898  1.00  0.00    -0.354 N 
ATOM     58  C   UNL     1       6.438 -12.845   4.649  1.00  0.00     0.074 A 
ATOM     59  C   UNL     1       5.964 -11.493   4.522  1.00  0.00     0.031 C 
ATOM     60  C   UNL     1       1.468 -14.050   8.837  1.00  0.00     0.029 A 
ATOM     61  C   UNL     1       2.868 -14.301   9.135  1.00  0.00     0.049 A 
ATOM     62  H   UNL     1       4.408 -14.458   7.731  1.00  0.00     0.167 HD
ATOM     63  C   UNL     1       7.700 -13.330   4.765  1.00  0.00     0.037 A 
ATOM     64  C   UNL     1       3.523 -14.459  10.313  1.00  0.00     0.037 A 
ATOM     65  C   UNL     1       7.705 -14.768   4.859  1.00  0.00     0.049 A 
ATOM     66  C   UNL     1       4.892 -14.962   9.982  1.00  0.00     0.074 A 
ATOM     67  C   UNL     1       7.279 -15.783   4.023  1.00  0.00     0.029 A 
ATOM     68  N   UNL     1       7.838 -15.331   6.107  1.00  0.00    -0.354 N 
ATOM     69  N   UNL     1       5.126 -16.141   9.466  1.00  0.00    -0.248 NA
ATOM     70  C   UNL     1       5.951 -13.981   9.769  1.00  0.00     0.031 C 
ATOM     71  C   UNL     1       6.750 -16.782   4.887  1.00  0.00     0.029 A 
ATOM     72  C   UNL     1       6.921 -16.348   6.204  1.00  0.00     0.049 A 
ATOM     73  H   UNL     1       8.476 -15.055   6.804  1.00  0.00     0.167 HD
ATOM     74  C   UNL     1       6.140 -15.940   8.536  1.00  0.00     0.074 A 
ATOM     75  C   UNL     1       6.666 -14.610   8.830  1.00  0.00     0.031 C 
ATOM     76  C   UNL     1       6.262 -16.739   7.433  1.00  0.00     0.037 A 
BRANCH  63  77
ATOM     77  C   UNL     1       8.875 -12.479   5.157  1.00  0.00     0.058 A 
ATOM     78  C   UNL     1      10.172 -13.011   5.047  1.00  0.00     0.135 A 
ATOM     79  C   UNL     1       8.765 -11.271   5.885  1.00  0.00     0.135 A 
ATOM     80  F   UNL     1      10.386 -14.157   4.381  1.00  0.00    -0.206 F 
ATOM     81  C   UNL     1      11.267 -12.429   5.683  1.00  0.00     0.059 A 
ATOM     82  C   UNL     1       9.852 -10.641   6.471  1.00  0.00     0.059 A 
ATOM     83  F   UNL     1       7.587 -10.696   6.158  1.00  0.00    -0.206 F 
ATOM     84  C   UNL     1      11.089 -11.255   6.409  1.00  0.00     0.060 A 
BRANCH  84  85
ATOM     85  S   UNL     1      12.463 -10.579   7.353  1.00  0.00     0.124 S 
ATOM     86  O   UNL     1      12.587 -11.565   8.421  1.00  0.00    -0.237 OA
ATOM     87  O   UNL     1      13.534 -10.566   6.363  1.00  0.00    -0.237 OA
ATOM     88  O   UNL     1      11.975  -9.265   7.760  1.00  0.00    -0.744 OA
ENDBRANCH  84  85
ENDBRANCH  63  77
BRANCH  64  89
ATOM     89  C   UNL     1       3.163 -13.842  11.619  1.00  0.00     0.058 A 
ATOM     90  C   UNL     1       3.800 -14.231  12.810  1.00  0.00     0.135 A 
ATOM     91  C   UNL     1       2.358 -12.684  11.702  1.00  0.00     0.135 A 
ATOM     92  F   UNL     1       4.609 -15.301  12.822  1.00  0.00    -0.206 F 
ATOM     93  C   UNL     1       3.675 -13.499  13.998  1.00  0.00     0.059 A 
ATOM     94  C   UNL     1       2.203 -11.952  12.876  1.00  0.00     0.059 A 
ATOM     95  F   UNL     1       1.763 -12.165  10.619  1.00  0.00    -0.206 F 
ATOM     96  C   UNL     1       2.884 -12.350  14.016  1.00  0.00     0.060 A 
BRANCH  96  97
ATOM     97  S   UNL     1       2.849 -11.305  15.491  1.00  0.00     0.124 S 
ATOM     98  O   UNL     1       2.103 -12.135  16.430  1.00  0.00    -0.237 OA
ATOM     99  O   UNL     1       4.269 -11.131  15.778  1.00  0.00    -0.237 OA
ATOM    100  O   UNL     1       2.157 -10.101  15.037  1.00  0.00    -0.744 OA
ENDBRANCH  96  97
ENDBRANCH  64  89
BRANCH  76 101
ATOM    101  C   UNL     1       5.447 -18.007   7.379  1.00  0.00     0.058 A 
ATOM    102  C   UNL     1       4.042 -18.032   7.319  1.00  0.00     0.135 A 
ATOM    103  C   UNL     1       6.116 -19.226   7.196  1.00  0.00     0.135 A 
ATOM    104  F   UNL     1       3.332 -16.898   7.369  1.00  0.00    -0.206 F 
ATOM    105  C   UNL     1       3.334 -19.219   7.127  1.00  0.00     0.059 A 
ATOM    106  C   UNL     1       5.431 -20.418   6.970  1.00  0.00     0.059 A 
ATOM    107  F   UNL     1       7.459 -19.259   7.172  1.00  0.00    -0.206 F 
ATOM    108  C   UNL     1       4.038 -20.409   6.949  1.00  0.00     0.060 A 
BRANCH 108 109
ATOM    109  S   UNL     1       3.123 -21.926   6.600  1.00  0.00     0.124 S 
ATOM    110  O   UNL     1       2.558 -22.249   7.905  1.00  0.00    -0.237 OA
ATOM    111  O   UNL     1       2.166 -21.496   5.584  1.00  0.00    -0.237 OA
ATOM    112  O   UNL     1       4.155 -22.843   6.121  1.00  0.00    -0.744 OA
ENDBRANCH 108 109
ENDBRANCH  76 101
ENDBRANCH  50  51
ENDBRANCH  43  45
ENDBRANCH  42  43
ENDBRANCH  41  42
ENDBRANCH  40  41
ENDBRANCH  39  40
ENDBRANCH  38  39
ENDBRANCH  37  38
ENDBRANCH  36  37
ENDBRANCH   1  36
TORSDOF 27
