REMARK SMILES CN1C(=O)/C(=C\c2ccc(OCC(=O)OCCOCCOCCOCCOC(=O)c3ccc(-c4c5nc(c(-c6c(F)cc(S(=O)(=O)[O-])cc6F)c6ccc([nH]6)c(-c6c(F)cc(S(=O)(=O)[O-])cc6F)c6nc(c(-c7c(F)cc(S(=O)(=O)[O-])cc7F)c7ccc4[nH]7)C=C6)C=C5)cc3)cc2)C(O)=NC1=S
REMARK SMILES IDX 20 1 19 2 18 3 17 4 16 5 15 6 13 7 14 8 12 9 11 10 10 11
REMARK SMILES IDX 7 12 8 13 97 14 9 15 96 16 6 17 1 18 2 19 3 20 101 21 4 22
REMARK SMILES IDX 5 23 100 24 102 25 98 26 99 27 21 29 22 30 23 31 24 32 25 33
REMARK SMILES IDX 26 34 27 35 28 36 29 37 30 38 31 39 95 40 32 41 94 42 33 43
REMARK SMILES IDX 34 44 35 45 88 46 36 47 93 48 87 49 89 50 37 51 92 52 86 53
REMARK SMILES IDX 85 54 38 56 72 57 51 58 71 59 52 60 55 61 70 62 90 63 53 64
REMARK SMILES IDX 54 65 69 67 91 68 56 69 39 70 40 71 49 72 41 73 42 74 48 75
REMARK SMILES IDX 50 76 43 77 44 78 45 79 46 80 47 81 73 82 74 83 83 84 75 85
REMARK SMILES IDX 76 86 82 87 84 88 77 89 78 90 79 91 80 92 81 93 57 94 58 95
REMARK SMILES IDX 67 96 59 97 60 98 66 99 68 100 61 101 62 102 63 103 64 104
REMARK SMILES IDX 65 105
REMARK H PARENT 99 28 89 55 55 66
REMARK Flexibility Score: inf
ROOT
ATOM      1  C   UNL     1      -2.814  -2.984  -2.554  1.00  0.00     0.188 C 
ENDROOT
BRANCH   1   2
ATOM      2  C   UNL     1      -3.423  -2.926  -1.137  1.00  0.00     0.188 C 
BRANCH   2   3
ATOM      3  O   UNL     1      -4.018  -4.090  -0.565  1.00  0.00    -0.376 OA
BRANCH   3   4
ATOM      4  C   UNL     1      -4.080  -5.235  -1.394  1.00  0.00     0.202 C 
BRANCH   4   5
ATOM      5  C   UNL     1      -5.261  -5.215  -2.379  1.00  0.00     0.261 C 
BRANCH   5   6
ATOM      6  O   UNL     1      -5.588  -3.898  -2.896  1.00  0.00    -0.461 OA
BRANCH   6   7
ATOM      7  C   UNL     1      -6.464  -3.147  -2.172  1.00  0.00     0.344 C 
ATOM      8  O   UNL     1      -7.106  -3.561  -1.213  1.00  0.00    -0.248 OA
BRANCH   7   9
ATOM      9  C   UNL     1      -6.638  -1.717  -2.737  1.00  0.00     0.351 C 
BRANCH   9  10
ATOM     10  O   UNL     1      -5.523  -1.007  -3.269  1.00  0.00    -0.482 OA
BRANCH  10  11
ATOM     11  C   UNL     1      -5.098   0.169  -2.701  1.00  0.00     0.120 A 
ATOM     12  C   UNL     1      -3.637   2.436  -1.701  1.00  0.00    -0.024 A 
ATOM     13  C   UNL     1      -3.763   2.198  -3.076  1.00  0.00     0.012 A 
ATOM     14  C   UNL     1      -4.369   1.592  -0.848  1.00  0.00     0.012 A 
ATOM     15  C   UNL     1      -4.453   1.063  -3.564  1.00  0.00     0.047 A 
ATOM     16  C   UNL     1      -5.102   0.476  -1.342  1.00  0.00     0.047 A 
BRANCH  12  17
ATOM     17  C   UNL     1      -2.855   3.598  -1.188  1.00  0.00     0.027 C 
ATOM     18  C   UNL     1       0.894   1.697   1.104  1.00  0.00     0.156 C 
ATOM     19  N   UNL     1       0.136   2.885   0.701  1.00  0.00    -0.286 N 
ATOM     20  C   UNL     1      -0.461   2.830  -0.543  1.00  0.00     0.265 C 
ATOM     21  C   UNL     1       0.258   4.118   1.349  1.00  0.00     0.205 C 
ATOM     22  O   UNL     1       0.037   2.235  -1.485  1.00  0.00    -0.268 OA
ATOM     23  C   UNL     1      -1.588   3.769  -0.724  1.00  0.00     0.103 C 
ATOM     24  N   UNL     1      -0.320   5.228   0.763  1.00  0.00    -0.184 NA
ATOM     25  S   UNL     1       1.145   4.321   2.779  1.00  0.00    -0.038 S 
ATOM     26  C   UNL     1      -1.159   5.068  -0.196  1.00  0.00     0.226 C 
BRANCH  26  27
ATOM     27  O   UNL     1      -1.622   6.149  -0.847  1.00  0.00    -0.493 OA
ATOM     28  H   UNL     1      -2.235   6.047  -1.548  1.00  0.00     0.295 HD
ENDBRANCH  26  27
ENDBRANCH  12  17
ENDBRANCH  10  11
ENDBRANCH   9  10
ENDBRANCH   7   9
ENDBRANCH   6   7
ENDBRANCH   5   6
ENDBRANCH   4   5
ENDBRANCH   3   4
ENDBRANCH   2   3
ENDBRANCH   1   2
BRANCH   1  29
ATOM     29  O   UNL     1      -1.575  -3.687  -2.564  1.00  0.00    -0.377 OA
BRANCH  29  30
ATOM     30  C   UNL     1      -0.447  -2.853  -2.811  1.00  0.00     0.188 C 
BRANCH  30  31
ATOM     31  C   UNL     1       0.040  -2.156  -1.541  1.00  0.00     0.188 C 
BRANCH  31  32
ATOM     32  O   UNL     1      -0.860  -1.295  -0.865  1.00  0.00    -0.376 OA
BRANCH  32  33
ATOM     33  C   UNL     1      -1.513  -0.212  -1.501  1.00  0.00     0.202 C 
BRANCH  33  34
ATOM     34  C   UNL     1      -1.160   0.285  -2.898  1.00  0.00     0.261 C 
BRANCH  34  35
ATOM     35  O   UNL     1       0.222   0.183  -3.149  1.00  0.00    -0.460 OA
BRANCH  35  36
ATOM     36  C   UNL     1       0.677   0.996  -4.121  1.00  0.00     0.338 C 
ATOM     37  O   UNL     1       0.145   1.987  -4.606  1.00  0.00    -0.246 OA
BRANCH  36  38
ATOM     38  C   UNL     1       1.723   0.190  -4.747  1.00  0.00     0.060 A 
ATOM     39  C   UNL     1       2.538  -0.650  -3.969  1.00  0.00     0.016 A 
ATOM     40  C   UNL     1       1.706   0.118  -6.139  1.00  0.00     0.016 A 
ATOM     41  C   UNL     1       3.309  -1.612  -4.588  1.00  0.00     0.010 A 
ATOM     42  C   UNL     1       2.494  -0.829  -6.762  1.00  0.00     0.010 A 
ATOM     43  C   UNL     1       3.297  -1.678  -5.984  1.00  0.00    -0.014 A 
BRANCH  43  44
ATOM     44  C   UNL     1       4.330  -2.458  -6.663  1.00  0.00     0.031 A 
ATOM     45  C   UNL     1       5.589  -1.726  -7.001  1.00  0.00     0.074 A 
ATOM     46  C   UNL     1       4.097  -3.737  -6.986  1.00  0.00     0.049 A 
ATOM     47  N   UNL     1       6.619  -2.131  -7.684  1.00  0.00    -0.248 NA
ATOM     48  C   UNL     1       5.690  -0.335  -6.516  1.00  0.00     0.031 C 
ATOM     49  C   UNL     1       2.884  -4.490  -6.658  1.00  0.00     0.029 A 
ATOM     50  N   UNL     1       4.868  -4.622  -7.683  1.00  0.00    -0.354 N 
ATOM     51  C   UNL     1       7.481  -1.043  -7.726  1.00  0.00     0.074 A 
ATOM     52  C   UNL     1       6.851   0.046  -7.020  1.00  0.00     0.031 C 
ATOM     53  C   UNL     1       2.989  -5.727  -7.175  1.00  0.00     0.029 A 
ATOM     54  C   UNL     1       4.260  -5.836  -7.883  1.00  0.00     0.049 A 
ATOM     55  H   UNL     1       5.772  -4.409  -8.010  1.00  0.00     0.167 HD
ATOM     56  C   UNL     1       8.696  -0.973  -8.310  1.00  0.00     0.037 A 
ATOM     57  C   UNL     1       4.700  -6.898  -8.581  1.00  0.00     0.037 A 
ATOM     58  C   UNL     1       9.273  -2.079  -9.018  1.00  0.00     0.049 A 
ATOM     59  C   UNL     1       6.054  -6.793  -9.230  1.00  0.00     0.074 A 
ATOM     60  C   UNL     1      10.493  -2.157  -9.659  1.00  0.00     0.029 A 
ATOM     61  N   UNL     1       8.648  -3.311  -9.178  1.00  0.00    -0.354 N 
ATOM     62  N   UNL     1       6.880  -5.770  -9.249  1.00  0.00    -0.248 NA
ATOM     63  C   UNL     1       6.542  -7.977  -9.942  1.00  0.00     0.031 C 
ATOM     64  C   UNL     1      10.593  -3.431 -10.232  1.00  0.00     0.029 A 
ATOM     65  C   UNL     1       9.453  -4.157  -9.914  1.00  0.00     0.049 A 
ATOM     66  H   UNL     1       7.762  -3.545  -8.820  1.00  0.00     0.167 HD
ATOM     67  C   UNL     1       8.000  -6.195  -9.951  1.00  0.00     0.074 A 
ATOM     68  C   UNL     1       7.743  -7.572 -10.334  1.00  0.00     0.031 C 
ATOM     69  C   UNL     1       9.139  -5.523 -10.256  1.00  0.00     0.037 A 
BRANCH  56  70
ATOM     70  C   UNL     1       9.420   0.338  -8.227  1.00  0.00     0.058 A 
ATOM     71  C   UNL     1       9.960   0.807  -7.017  1.00  0.00     0.135 A 
ATOM     72  C   UNL     1       9.536   1.160  -9.358  1.00  0.00     0.135 A 
ATOM     73  F   UNL     1       9.840   0.079  -5.896  1.00  0.00    -0.206 F 
ATOM     74  C   UNL     1      10.566   2.056  -6.927  1.00  0.00     0.059 A 
ATOM     75  C   UNL     1      10.160   2.402  -9.296  1.00  0.00     0.059 A 
ATOM     76  F   UNL     1       9.016   0.770 -10.532  1.00  0.00    -0.206 F 
ATOM     77  C   UNL     1      10.659   2.848  -8.072  1.00  0.00     0.060 A 
BRANCH  77  78
ATOM     78  S   UNL     1      11.446   4.468  -7.944  1.00  0.00     0.124 S 
ATOM     79  O   UNL     1      10.402   5.246  -7.283  1.00  0.00    -0.237 OA
ATOM     80  O   UNL     1      12.627   4.179  -7.136  1.00  0.00    -0.237 OA
ATOM     81  O   UNL     1      11.713   4.825  -9.333  1.00  0.00    -0.744 OA
ENDBRANCH  77  78
ENDBRANCH  56  70
BRANCH  57  82
ATOM     82  C   UNL     1       3.874  -8.129  -8.668  1.00  0.00     0.058 A 
ATOM     83  C   UNL     1       4.239  -9.290  -7.972  1.00  0.00     0.135 A 
ATOM     84  C   UNL     1       2.683  -8.162  -9.411  1.00  0.00     0.135 A 
ATOM     85  F   UNL     1       5.368  -9.309  -7.247  1.00  0.00    -0.206 F 
ATOM     86  C   UNL     1       3.462 -10.444  -8.016  1.00  0.00     0.059 A 
ATOM     87  C   UNL     1       1.878  -9.297  -9.455  1.00  0.00     0.059 A 
ATOM     88  F   UNL     1       2.277  -7.071 -10.080  1.00  0.00    -0.206 F 
ATOM     89  C   UNL     1       2.280 -10.436  -8.758  1.00  0.00     0.060 A 
BRANCH  89  90
ATOM     90  S   UNL     1       1.246 -11.918  -8.758  1.00  0.00     0.124 S 
ATOM     91  O   UNL     1       2.001 -12.803  -9.638  1.00  0.00    -0.237 OA
ATOM     92  O   UNL     1       1.230 -12.283  -7.345  1.00  0.00    -0.237 OA
ATOM     93  O   UNL     1      -0.028 -11.438  -9.286  1.00  0.00    -0.744 OA
ENDBRANCH  89  90
ENDBRANCH  57  82
BRANCH  69  94
ATOM     94  C   UNL     1      10.189  -6.288 -11.001  1.00  0.00     0.058 A 
ATOM     95  C   UNL     1      10.068  -6.550 -12.373  1.00  0.00     0.135 A 
ATOM     96  C   UNL     1      11.350  -6.716 -10.339  1.00  0.00     0.135 A 
ATOM     97  F   UNL     1       8.972  -6.159 -13.043  1.00  0.00    -0.206 F 
ATOM     98  C   UNL     1      11.056  -7.239 -13.063  1.00  0.00     0.059 A 
ATOM     99  C   UNL     1      12.361  -7.385 -11.015  1.00  0.00     0.059 A 
ATOM    100  F   UNL     1      11.512  -6.472  -9.029  1.00  0.00    -0.206 F 
ATOM    101  C   UNL     1      12.198  -7.655 -12.374  1.00  0.00     0.060 A 
BRANCH 101 102
ATOM    102  S   UNL     1      13.487  -8.531 -13.281  1.00  0.00     0.124 S 
ATOM    103  O   UNL     1      12.918  -9.871 -13.372  1.00  0.00    -0.237 OA
ATOM    104  O   UNL     1      13.555  -7.784 -14.533  1.00  0.00    -0.237 OA
ATOM    105  O   UNL     1      14.656  -8.400 -12.417  1.00  0.00    -0.744 OA
ENDBRANCH 101 102
ENDBRANCH  69  94
ENDBRANCH  43  44
ENDBRANCH  36  38
ENDBRANCH  35  36
ENDBRANCH  34  35
ENDBRANCH  33  34
ENDBRANCH  32  33
ENDBRANCH  31  32
ENDBRANCH  30  31
ENDBRANCH  29  30
ENDBRANCH   1  29
TORSDOF 27
