REMARK SMILES CCOC(=O)c1c(-c2cccs2)csc1NC(=O)[C@@H]1CC=CC[C@@H]1C(=O)OCCOCCOCCOCCOC(=O)c1ccc(-c2c3nc(c(-c4c(F)cc(S(=O)(=O)[O-])cc4F)c4ccc([nH]4)c(-c4c(F)cc(S(=O)(=O)[O-])cc4F)c4nc(c(-c5c(F)cc(S(=O)(=O)[O-])cc5F)c5ccc2[nH]5)C=C4)C=C3)cc1
REMARK SMILES IDX 32 1 31 2 30 3 29 4 28 5 27 6 25 7 26 8 24 9 19 10 20 11
REMARK SMILES IDX 21 12 23 13 22 14 17 15 16 16 18 18 15 19 6 20 7 21 13 22
REMARK SMILES IDX 14 23 4 24 5 25 3 26 2 27 1 28 8 29 9 30 12 31 10 32 11 33
REMARK SMILES IDX 33 34 34 35 35 36 36 37 37 38 38 39 39 40 40 41 41 42 42 43
REMARK SMILES IDX 43 44 107 45 44 46 106 47 45 48 46 49 47 50 100 51 48 52
REMARK SMILES IDX 105 53 99 54 101 55 49 56 104 57 98 58 97 59 50 61 84 62
REMARK SMILES IDX 63 63 83 64 64 65 67 66 82 67 102 68 65 69 66 70 81 72
REMARK SMILES IDX 103 73 68 74 51 75 52 76 61 77 53 78 54 79 60 80 62 81 55 82
REMARK SMILES IDX 56 83 57 84 58 85 59 86 85 87 86 88 95 89 87 90 88 91 94 92
REMARK SMILES IDX 96 93 89 94 90 95 91 96 92 97 93 98 69 99 70 100 79 101
REMARK SMILES IDX 71 102 72 103 78 104 80 105 73 106 74 107 75 108 76 109
REMARK SMILES IDX 77 110
REMARK H PARENT 16 17 101 60 67 71
REMARK Flexibility Score: inf
ROOT
ATOM      1  C   UNL     1       8.126   1.372  -8.325  1.00  0.00     0.188 C 
ENDROOT
BRANCH   1   2
ATOM      2  C   UNL     1       7.067   1.359  -9.442  1.00  0.00     0.188 C 
BRANCH   2   3
ATOM      3  O   UNL     1       6.624   2.564 -10.061  1.00  0.00    -0.376 OA
BRANCH   3   4
ATOM      4  C   UNL     1       6.799   3.813  -9.413  1.00  0.00     0.202 C 
BRANCH   4   5
ATOM      5  C   UNL     1       6.017   4.075  -8.120  1.00  0.00     0.261 C 
BRANCH   5   6
ATOM      6  O   UNL     1       6.120   3.072  -7.094  1.00  0.00    -0.463 OA
BRANCH   6   7
ATOM      7  C   UNL     1       5.056   2.237  -6.975  1.00  0.00     0.310 C 
ATOM      8  O   UNL     1       4.137   2.162  -7.786  1.00  0.00    -0.252 OA
BRANCH   7   9
ATOM      9  C   UNL     1       5.111   1.329  -5.741  1.00  0.00     0.116 C 
ATOM     10  C   UNL     1       5.987   1.788  -4.530  1.00  0.00     0.097 C 
ATOM     11  C   UNL     1       7.423   1.286  -4.628  1.00  0.00     0.041 C 
ATOM     12  C   UNL     1       7.582  -0.106  -5.163  1.00  0.00    -0.030 C 
ATOM     13  C   UNL     1       5.303  -0.137  -6.170  1.00  0.00     0.043 C 
ATOM     14  C   UNL     1       6.626  -0.750  -5.838  1.00  0.00    -0.030 C 
BRANCH  10  15
ATOM     15  C   UNL     1       5.702   3.271  -4.235  1.00  0.00     0.229 C 
ATOM     16  N   UNL     1       6.243   4.087  -3.309  1.00  0.00    -0.317 N 
ATOM     17  H   UNL     1       5.631   4.838  -3.133  1.00  0.00     0.170 HD
ATOM     18  O   UNL     1       4.683   3.775  -4.748  1.00  0.00    -0.274 OA
BRANCH  16  19
ATOM     19  C   UNL     1       7.371   4.219  -2.528  1.00  0.00     0.110 A 
ATOM     20  C   UNL     1       7.506   5.135  -1.486  1.00  0.00     0.103 A 
ATOM     21  C   UNL     1       8.820   5.081  -0.894  1.00  0.00     0.019 A 
ATOM     22  C   UNL     1       9.650   4.234  -1.597  1.00  0.00     0.077 A 
ATOM     23  S   UNL     1       8.839   3.474  -2.886  1.00  0.00    -0.125 S 
BRANCH  20  24
ATOM     24  C   UNL     1       6.427   6.051  -1.139  1.00  0.00     0.341 C 
ATOM     25  O   UNL     1       5.248   5.710  -1.116  1.00  0.00    -0.246 OA
BRANCH  24  26
ATOM     26  O   UNL     1       6.867   7.328  -0.990  1.00  0.00    -0.462 OA
BRANCH  26  27
ATOM     27  C   UNL     1       5.871   8.320  -0.713  1.00  0.00     0.230 C 
ATOM     28  C   UNL     1       5.157   8.742  -1.984  1.00  0.00     0.049 C 
ENDBRANCH  26  27
ENDBRANCH  24  26
ENDBRANCH  20  24
BRANCH  21  29
ATOM     29  C   UNL     1       9.299   5.822   0.329  1.00  0.00     0.036 A 
ATOM     30  C   UNL     1      10.609   6.198   0.551  1.00  0.00     0.020 A 
ATOM     31  S   UNL     1       8.294   6.266   1.643  1.00  0.00    -0.144 S 
ATOM     32  C   UNL     1      10.767   6.919   1.774  1.00  0.00     0.012 A 
ATOM     33  C   UNL     1       9.583   7.021   2.468  1.00  0.00     0.065 A 
ENDBRANCH  21  29
ENDBRANCH  16  19
ENDBRANCH  10  15
ENDBRANCH   7   9
ENDBRANCH   6   7
ENDBRANCH   5   6
ENDBRANCH   4   5
ENDBRANCH   3   4
ENDBRANCH   2   3
ENDBRANCH   1   2
BRANCH   1  34
ATOM     34  O   UNL     1       8.949   2.520  -8.294  1.00  0.00    -0.377 OA
BRANCH  34  35
ATOM     35  C   UNL     1      10.203   2.434  -8.948  1.00  0.00     0.188 C 
BRANCH  35  36
ATOM     36  C   UNL     1      10.230   1.743 -10.317  1.00  0.00     0.188 C 
BRANCH  36  37
ATOM     37  O   UNL     1       9.810   0.377 -10.271  1.00  0.00    -0.376 OA
BRANCH  37  38
ATOM     38  C   UNL     1      10.828  -0.616 -10.243  1.00  0.00     0.202 C 
BRANCH  38  39
ATOM     39  C   UNL     1      11.432  -0.877  -8.854  1.00  0.00     0.261 C 
BRANCH  39  40
ATOM     40  O   UNL     1      12.208   0.200  -8.305  1.00  0.00    -0.460 OA
BRANCH  40  41
ATOM     41  C   UNL     1      13.236   0.655  -9.053  1.00  0.00     0.338 C 
ATOM     42  O   UNL     1      13.647   0.186 -10.098  1.00  0.00    -0.246 OA
BRANCH  41  43
ATOM     43  C   UNL     1      13.677   1.949  -8.499  1.00  0.00     0.060 A 
ATOM     44  C   UNL     1      13.730   3.051  -9.360  1.00  0.00     0.016 A 
ATOM     45  C   UNL     1      14.072   2.064  -7.163  1.00  0.00     0.016 A 
ATOM     46  C   UNL     1      14.256   4.257  -8.906  1.00  0.00     0.010 A 
ATOM     47  C   UNL     1      14.615   3.270  -6.713  1.00  0.00     0.010 A 
ATOM     48  C   UNL     1      14.760   4.349  -7.602  1.00  0.00    -0.014 A 
BRANCH  48  49
ATOM     49  C   UNL     1      15.676   5.467  -7.278  1.00  0.00     0.031 A 
ATOM     50  C   UNL     1      17.152   5.244  -7.477  1.00  0.00     0.074 A 
ATOM     51  C   UNL     1      15.213   6.663  -6.877  1.00  0.00     0.049 A 
ATOM     52  N   UNL     1      18.148   6.076  -7.323  1.00  0.00    -0.248 NA
ATOM     53  C   UNL     1      17.555   3.895  -7.911  1.00  0.00     0.031 C 
ATOM     54  C   UNL     1      13.807   6.999  -6.666  1.00  0.00     0.029 A 
ATOM     55  N   UNL     1      15.889   7.818  -6.576  1.00  0.00    -0.354 N 
ATOM     56  C   UNL     1      19.291   5.358  -7.656  1.00  0.00     0.074 A 
ATOM     57  C   UNL     1      18.872   4.010  -7.970  1.00  0.00     0.031 C 
ATOM     58  C   UNL     1      13.725   8.277  -6.255  1.00  0.00     0.029 A 
ATOM     59  C   UNL     1      15.071   8.842  -6.166  1.00  0.00     0.049 A 
ATOM     60  H   UNL     1      16.867   7.904  -6.647  1.00  0.00     0.167 HD
ATOM     61  C   UNL     1      20.574   5.786  -7.714  1.00  0.00     0.037 A 
ATOM     62  C   UNL     1      15.380  10.090  -5.760  1.00  0.00     0.037 A 
ATOM     63  C   UNL     1      20.989   7.120  -7.375  1.00  0.00     0.049 A 
ATOM     64  C   UNL     1      16.819  10.538  -5.789  1.00  0.00     0.074 A 
ATOM     65  C   UNL     1      22.264   7.656  -7.382  1.00  0.00     0.029 A 
ATOM     66  N   UNL     1      20.132   8.128  -6.957  1.00  0.00    -0.354 N 
ATOM     67  N   UNL     1      17.889   9.859  -6.133  1.00  0.00    -0.248 NA
ATOM     68  C   UNL     1      17.091  11.927  -5.395  1.00  0.00     0.031 C 
ATOM     69  C   UNL     1      22.182   8.979  -6.931  1.00  0.00     0.029 A 
ATOM     70  C   UNL     1      20.850   9.281  -6.690  1.00  0.00     0.049 A 
ATOM     71  H   UNL     1      19.156   8.037  -6.865  1.00  0.00     0.167 HD
ATOM     72  C   UNL     1      18.957  10.743  -6.020  1.00  0.00     0.074 A 
ATOM     73  C   UNL     1      18.401  12.010  -5.586  1.00  0.00     0.031 C 
ATOM     74  C   UNL     1      20.276  10.531  -6.257  1.00  0.00     0.037 A 
BRANCH  61  75
ATOM     75  C   UNL     1      21.608   4.779  -8.134  1.00  0.00     0.058 A 
ATOM     76  C   UNL     1      21.680   4.307  -9.456  1.00  0.00     0.135 A 
ATOM     77  C   UNL     1      22.514   4.252  -7.201  1.00  0.00     0.135 A 
ATOM     78  F   UNL     1      20.821   4.760 -10.383  1.00  0.00    -0.206 F 
ATOM     79  C   UNL     1      22.585   3.318  -9.827  1.00  0.00     0.059 A 
ATOM     80  C   UNL     1      23.446   3.282  -7.557  1.00  0.00     0.059 A 
ATOM     81  F   UNL     1      22.484   4.663  -5.924  1.00  0.00    -0.206 F 
ATOM     82  C   UNL     1      23.458   2.805  -8.867  1.00  0.00     0.060 A 
BRANCH  82  83
ATOM     83  S   UNL     1      24.601   1.494  -9.350  1.00  0.00     0.124 S 
ATOM     84  O   UNL     1      23.707   0.343  -9.424  1.00  0.00    -0.237 OA
ATOM     85  O   UNL     1      25.116   1.980 -10.626  1.00  0.00    -0.237 OA
ATOM     86  O   UNL     1      25.568   1.468  -8.257  1.00  0.00    -0.744 OA
ENDBRANCH  82  83
ENDBRANCH  61  75
BRANCH  62  87
ATOM     87  C   UNL     1      14.299  10.999  -5.298  1.00  0.00     0.058 A 
ATOM     88  C   UNL     1      13.884  12.096  -6.066  1.00  0.00     0.135 A 
ATOM     89  C   UNL     1      13.636  10.764  -4.083  1.00  0.00     0.135 A 
ATOM     90  F   UNL     1      14.494  12.368  -7.230  1.00  0.00    -0.206 F 
ATOM     91  C   UNL     1      12.853  12.931  -5.647  1.00  0.00     0.059 A 
ATOM     92  C   UNL     1      12.588  11.570  -3.653  1.00  0.00     0.059 A 
ATOM     93  F   UNL     1      13.988   9.720  -3.315  1.00  0.00    -0.206 F 
ATOM     94  C   UNL     1      12.206  12.655  -4.440  1.00  0.00     0.060 A 
BRANCH  94  95
ATOM     95  S   UNL     1      10.818  13.697  -3.939  1.00  0.00     0.124 S 
ATOM     96  O   UNL     1      11.501  14.912  -3.513  1.00  0.00    -0.237 OA
ATOM     97  O   UNL     1      10.047  13.796  -5.175  1.00  0.00    -0.237 OA
ATOM     98  O   UNL     1      10.184  12.922  -2.876  1.00  0.00    -0.744 OA
ENDBRANCH  94  95
ENDBRANCH  62  87
BRANCH  74  99
ATOM     99  C   UNL     1      21.207  11.699  -6.082  1.00  0.00     0.058 A 
ATOM    100  C   UNL     1      21.548  12.189  -4.812  1.00  0.00     0.135 A 
ATOM    101  C   UNL     1      21.800  12.307  -7.201  1.00  0.00     0.135 A 
ATOM    102  F   UNL     1      21.009  11.645  -3.710  1.00  0.00    -0.206 F 
ATOM    103  C   UNL     1      22.421  13.262  -4.659  1.00  0.00     0.059 A 
ATOM    104  C   UNL     1      22.696  13.363  -7.070  1.00  0.00     0.059 A 
ATOM    105  F   UNL     1      21.520  11.866  -8.438  1.00  0.00    -0.206 F 
ATOM    106  C   UNL     1      22.988  13.845  -5.794  1.00  0.00     0.060 A 
BRANCH 106 107
ATOM    107  S   UNL     1      24.130  15.227  -5.583  1.00  0.00     0.124 S 
ATOM    108  O   UNL     1      23.212  16.320  -5.281  1.00  0.00    -0.237 OA
ATOM    109  O   UNL     1      24.967  14.777  -4.475  1.00  0.00    -0.237 OA
ATOM    110  O   UNL     1      24.804  15.310  -6.875  1.00  0.00    -0.744 OA
ENDBRANCH 106 107
ENDBRANCH  74  99
ENDBRANCH  48  49
ENDBRANCH  41  43
ENDBRANCH  40  41
ENDBRANCH  39  40
ENDBRANCH  38  39
ENDBRANCH  37  38
ENDBRANCH  36  37
ENDBRANCH  35  36
ENDBRANCH  34  35
ENDBRANCH   1  34
TORSDOF 29
