REMARK SMILES O=C(OCCOCCOCCOCCOC(=O)C1CCN(c2ccc(C(F)(F)F)cc2[N+](=O)[O-])CC1)c1ccc(-c2c3nc(c(-c4c(F)cc(S(=O)(=O)[O-])cc4F)c4ccc([nH]4)c(-c4c(F)cc(S(=O)(=O)[O-])cc4F)c4nc(c(-c5c(F)cc(S(=O)(=O)[O-])cc5F)c5ccc2[nH]5)C=C4)C=C3)cc1
REMARK SMILES IDX 8 1 7 2 6 3 5 4 4 5 3 6 2 7 1 8 37 9 38 10 102 11 39 12
REMARK SMILES IDX 101 13 40 14 41 15 42 16 95 17 43 18 100 19 94 20 96 21
REMARK SMILES IDX 44 22 99 23 93 24 92 25 45 27 79 28 58 29 78 30 59 31 62 32
REMARK SMILES IDX 77 33 97 34 60 35 61 36 76 38 98 39 63 40 46 41 47 42 56 43
REMARK SMILES IDX 48 44 49 45 55 46 57 47 50 48 51 49 52 50 53 51 54 52 80 53
REMARK SMILES IDX 81 54 90 55 82 56 83 57 89 58 91 59 84 60 85 61 86 62 87 63
REMARK SMILES IDX 88 64 64 65 65 66 74 67 66 68 67 69 73 70 75 71 68 72 69 73
REMARK SMILES IDX 70 74 71 75 72 76 9 77 10 78 11 79 12 80 13 81 14 82 15 83
REMARK SMILES IDX 16 84 17 85 18 86 19 87 36 88 20 89 35 90 21 91 22 92 23 93
REMARK SMILES IDX 31 94 24 95 30 96 25 97 32 98 33 99 34 100 26 101 27 102
REMARK SMILES IDX 28 103 29 104
REMARK H PARENT 96 26 62 37
REMARK Flexibility Score: inf
ROOT
ATOM      1  C   UNL     1       2.136   2.317  -0.891  1.00  0.00     0.188 C 
ENDROOT
BRANCH   1   2
ATOM      2  C   UNL     1       2.467   0.842  -1.015  1.00  0.00     0.188 C 
BRANCH   2   3
ATOM      3  O   UNL     1       3.779   0.646  -0.493  1.00  0.00    -0.376 OA
BRANCH   3   4
ATOM      4  C   UNL     1       4.528  -0.389  -1.121  1.00  0.00     0.202 C 
BRANCH   4   5
ATOM      5  C   UNL     1       4.266  -1.770  -0.520  1.00  0.00     0.261 C 
BRANCH   5   6
ATOM      6  O   UNL     1       2.905  -1.945  -0.096  1.00  0.00    -0.460 OA
BRANCH   6   7
ATOM      7  C   UNL     1       2.357  -1.677   1.117  1.00  0.00     0.338 C 
ATOM      8  O   UNL     1       1.180  -1.994   1.295  1.00  0.00    -0.246 OA
BRANCH   7   9
ATOM      9  C   UNL     1       3.066  -0.993   2.250  1.00  0.00     0.060 A 
ATOM     10  C   UNL     1       4.242  -0.248   2.145  1.00  0.00     0.016 A 
ATOM     11  C   UNL     1       2.461  -1.064   3.519  1.00  0.00     0.016 A 
ATOM     12  C   UNL     1       4.811   0.394   3.229  1.00  0.00     0.010 A 
ATOM     13  C   UNL     1       3.042  -0.447   4.634  1.00  0.00     0.010 A 
ATOM     14  C   UNL     1       4.237   0.262   4.484  1.00  0.00    -0.014 A 
BRANCH  14  15
ATOM     15  C   UNL     1       5.087   0.641   5.621  1.00  0.00     0.031 A 
ATOM     16  C   UNL     1       5.858  -0.462   6.283  1.00  0.00     0.074 A 
ATOM     17  C   UNL     1       5.320   1.938   5.882  1.00  0.00     0.049 A 
ATOM     18  N   UNL     1       6.652  -0.417   7.313  1.00  0.00    -0.248 NA
ATOM     19  C   UNL     1       5.733  -1.803   5.678  1.00  0.00     0.031 C 
ATOM     20  C   UNL     1       4.752   3.065   5.135  1.00  0.00     0.029 A 
ATOM     21  N   UNL     1       6.125   2.529   6.816  1.00  0.00    -0.354 N 
ATOM     22  C   UNL     1       7.086  -1.723   7.505  1.00  0.00     0.074 A 
ATOM     23  C   UNL     1       6.480  -2.540   6.483  1.00  0.00     0.031 C 
ATOM     24  C   UNL     1       5.234   4.212   5.640  1.00  0.00     0.029 A 
ATOM     25  C   UNL     1       6.079   3.903   6.787  1.00  0.00     0.049 A 
ATOM     26  H   UNL     1       6.683   2.020   7.447  1.00  0.00     0.167 HD
ATOM     27  C   UNL     1       7.911  -2.188   8.469  1.00  0.00     0.037 A 
ATOM     28  C   UNL     1       6.629   4.793   7.634  1.00  0.00     0.037 A 
ATOM     29  C   UNL     1       8.490  -1.328   9.463  1.00  0.00     0.049 A 
ATOM     30  C   UNL     1       7.445   4.244   8.775  1.00  0.00     0.074 A 
ATOM     31  C   UNL     1       9.265  -1.662  10.555  1.00  0.00     0.029 A 
ATOM     32  N   UNL     1       8.348   0.056   9.472  1.00  0.00    -0.354 N 
ATOM     33  N   UNL     1       7.762   2.993   9.032  1.00  0.00    -0.248 NA
ATOM     34  C   UNL     1       7.960   5.209   9.751  1.00  0.00     0.031 C 
ATOM     35  C   UNL     1       9.551  -0.482  11.252  1.00  0.00     0.029 A 
ATOM     36  C   UNL     1       9.006   0.592  10.560  1.00  0.00     0.049 A 
ATOM     37  H   UNL     1       7.851   0.576   8.800  1.00  0.00     0.167 HD
ATOM     38  C   UNL     1       8.530   3.022  10.188  1.00  0.00     0.074 A 
ATOM     39  C   UNL     1       8.642   4.418  10.570  1.00  0.00     0.031 C 
ATOM     40  C   UNL     1       9.091   1.998  10.880  1.00  0.00     0.037 A 
BRANCH  27  41
ATOM     41  C   UNL     1       8.126  -3.674   8.532  1.00  0.00     0.058 A 
ATOM     42  C   UNL     1       8.886  -4.367   7.576  1.00  0.00     0.135 A 
ATOM     43  C   UNL     1       7.507  -4.427   9.543  1.00  0.00     0.135 A 
ATOM     44  F   UNL     1       9.465  -3.704   6.562  1.00  0.00    -0.206 F 
ATOM     45  C   UNL     1       9.002  -5.754   7.605  1.00  0.00     0.059 A 
ATOM     46  C   UNL     1       7.630  -5.812   9.606  1.00  0.00     0.059 A 
ATOM     47  F   UNL     1       6.749  -3.820  10.470  1.00  0.00    -0.206 F 
ATOM     48  C   UNL     1       8.367  -6.468   8.623  1.00  0.00     0.060 A 
BRANCH  48  49
ATOM     49  S   UNL     1       8.514  -8.268   8.640  1.00  0.00     0.124 S 
ATOM     50  O   UNL     1       7.671  -8.640   7.508  1.00  0.00    -0.237 OA
ATOM     51  O   UNL     1       9.947  -8.465   8.454  1.00  0.00    -0.237 OA
ATOM     52  O   UNL     1       7.998  -8.639   9.954  1.00  0.00    -0.744 OA
ENDBRANCH  48  49
ENDBRANCH  27  41
BRANCH  28  53
ATOM     53  C   UNL     1       6.363   6.251   7.481  1.00  0.00     0.058 A 
ATOM     54  C   UNL     1       7.391   7.165   7.206  1.00  0.00     0.135 A 
ATOM     55  C   UNL     1       5.061   6.766   7.614  1.00  0.00     0.135 A 
ATOM     56  F   UNL     1       8.655   6.733   7.077  1.00  0.00    -0.206 F 
ATOM     57  C   UNL     1       7.144   8.531   7.085  1.00  0.00     0.059 A 
ATOM     58  C   UNL     1       4.784   8.122   7.467  1.00  0.00     0.059 A 
ATOM     59  F   UNL     1       4.034   5.942   7.872  1.00  0.00    -0.206 F 
ATOM     60  C   UNL     1       5.835   9.000   7.217  1.00  0.00     0.060 A 
BRANCH  60  61
ATOM     61  S   UNL     1       5.523  10.772   7.046  1.00  0.00     0.124 S 
ATOM     62  O   UNL     1       6.097  11.295   8.268  1.00  0.00    -0.237 OA
ATOM     63  O   UNL     1       6.238  11.090   5.809  1.00  0.00    -0.237 OA
ATOM     64  O   UNL     1       4.062  10.846   6.945  1.00  0.00    -0.744 OA
ENDBRANCH  60  61
ENDBRANCH  28  53
BRANCH  40  65
ATOM     65  C   UNL     1       9.905   2.362  12.086  1.00  0.00     0.058 A 
ATOM     66  C   UNL     1       9.303   2.785  13.279  1.00  0.00     0.135 A 
ATOM     67  C   UNL     1      11.300   2.215  12.059  1.00  0.00     0.135 A 
ATOM     68  F   UNL     1       7.972   2.945  13.348  1.00  0.00    -0.206 F 
ATOM     69  C   UNL     1      10.063   3.073  14.405  1.00  0.00     0.059 A 
ATOM     70  C   UNL     1      12.076   2.466  13.183  1.00  0.00     0.059 A 
ATOM     71  F   UNL     1      11.917   1.799  10.942  1.00  0.00    -0.206 F 
ATOM     72  C   UNL     1      11.449   2.905  14.348  1.00  0.00     0.060 A 
BRANCH  72  73
ATOM     73  S   UNL     1      12.420   3.238  15.830  1.00  0.00     0.124 S 
ATOM     74  O   UNL     1      12.398   4.697  15.872  1.00  0.00    -0.237 OA
ATOM     75  O   UNL     1      11.648   2.561  16.867  1.00  0.00    -0.237 OA
ATOM     76  O   UNL     1      13.716   2.637  15.529  1.00  0.00    -0.744 OA
ENDBRANCH  72  73
ENDBRANCH  40  65
ENDBRANCH  14  15
ENDBRANCH   7   9
ENDBRANCH   6   7
ENDBRANCH   5   6
ENDBRANCH   4   5
ENDBRANCH   3   4
ENDBRANCH   2   3
ENDBRANCH   1   2
BRANCH   1  77
ATOM     77  O   UNL     1       2.932   3.145  -1.734  1.00  0.00    -0.377 OA
BRANCH  77  78
ATOM     78  C   UNL     1       4.341   3.112  -1.563  1.00  0.00     0.188 C 
BRANCH  78  79
ATOM     79  C   UNL     1       5.008   3.702  -0.327  1.00  0.00     0.188 C 
BRANCH  79  80
ATOM     80  O   UNL     1       4.597   4.944   0.217  1.00  0.00    -0.376 OA
BRANCH  80  81
ATOM     81  C   UNL     1       3.340   5.501  -0.121  1.00  0.00     0.202 C 
BRANCH  81  82
ATOM     82  C   UNL     1       3.371   6.409  -1.361  1.00  0.00     0.261 C 
BRANCH  82  83
ATOM     83  O   UNL     1       3.454   5.747  -2.649  1.00  0.00    -0.463 OA
BRANCH  83  84
ATOM     84  C   UNL     1       4.656   5.761  -3.284  1.00  0.00     0.309 C 
ATOM     85  O   UNL     1       5.696   6.189  -2.795  1.00  0.00    -0.252 OA
BRANCH  84  86
ATOM     86  C   UNL     1       4.627   5.148  -4.693  1.00  0.00     0.103 C 
ATOM     87  C   UNL     1       3.320   5.383  -5.455  1.00  0.00     0.037 C 
ATOM     88  C   UNL     1       5.166   3.702  -4.835  1.00  0.00     0.037 C 
ATOM     89  C   UNL     1       2.326   4.235  -5.311  1.00  0.00     0.117 C 
ATOM     90  C   UNL     1       4.115   2.580  -4.900  1.00  0.00     0.117 C 
ATOM     91  N   UNL     1       2.998   3.007  -5.724  1.00  0.00    -0.366 N 
BRANCH  91  92
ATOM     92  C   UNL     1       2.338   2.103  -6.533  1.00  0.00     0.116 A 
ATOM     93  C   UNL     1       2.543   2.242  -7.915  1.00  0.00     0.034 A 
ATOM     94  C   UNL     1       1.520   1.036  -6.130  1.00  0.00     0.293 A 
ATOM     95  C   UNL     1       1.990   1.354  -8.845  1.00  0.00     0.016 A 
ATOM     96  C   UNL     1       0.957   0.129  -7.054  1.00  0.00     0.101 A 
ATOM     97  C   UNL     1       1.196   0.280  -8.425  1.00  0.00     0.062 A 
BRANCH  94  98
ATOM     98  N   UNL     1       1.201   0.808  -4.733  1.00  0.00     0.064 N 
ATOM     99  O   UNL     1       1.408  -0.334  -4.296  1.00  0.00    -0.258 OA
ATOM    100  O   UNL     1       0.672   1.730  -4.098  1.00  0.00    -0.258 OA
ENDBRANCH  94  98
BRANCH  97 101
ATOM    101  C   UNL     1       0.628  -0.678  -9.442  1.00  0.00     0.416 C 
ATOM    102  F   UNL     1      -0.172  -0.056 -10.350  1.00  0.00    -0.166 F 
ATOM    103  F   UNL     1       1.599  -1.301 -10.166  1.00  0.00    -0.166 F 
ATOM    104  F   UNL     1      -0.126  -1.671  -8.896  1.00  0.00    -0.166 F 
ENDBRANCH  97 101
ENDBRANCH  91  92
ENDBRANCH  84  86
ENDBRANCH  83  84
ENDBRANCH  82  83
ENDBRANCH  81  82
ENDBRANCH  80  81
ENDBRANCH  79  80
ENDBRANCH  78  79
ENDBRANCH  77  78
ENDBRANCH   1  77
TORSDOF 26
