REMARK SMILES Cc1cccc(C[C@H](CC(=O)OCCOCCOCCOCCOC(=O)c2ccc(-c3c4nc(c(-c5c(F)cc(S(=O)(=O)[O-])cc5F)c5ccc([nH]5)c(-c5c(F)cc(S(=O)(=O)[O-])cc5F)c5nc(c(-c6c(F)cc(S(=O)(=O)[O-])cc6F)c6ccc3[nH]6)C=C5)C=C4)cc2)NC(=O)OC(C)(C)C)c1
REMARK SMILES IDX 17 1 16 2 15 3 14 4 13 5 12 6 10 7 11 8 9 9 8 10 7 11 6 12
REMARK SMILES IDX 1 13 2 14 3 15 101 16 4 17 5 18 93 19 94 20 95 22 96 23
REMARK SMILES IDX 97 24 98 25 99 26 100 27 18 28 19 29 20 30 21 31 22 32 23 33
REMARK SMILES IDX 24 34 25 35 26 36 27 37 28 38 92 39 29 40 91 41 30 42 31 43
REMARK SMILES IDX 32 44 85 45 33 46 90 47 84 48 86 49 34 50 89 51 83 52 82 53
REMARK SMILES IDX 35 55 69 56 48 57 68 58 49 59 52 60 67 61 87 62 50 63 51 64
REMARK SMILES IDX 66 66 88 67 53 68 36 69 37 70 46 71 38 72 39 73 45 74 47 75
REMARK SMILES IDX 40 76 41 77 42 78 43 79 44 80 70 81 71 82 80 83 72 84 73 85
REMARK SMILES IDX 79 86 81 87 74 88 75 89 76 90 77 91 78 92 54 93 55 94 64 95
REMARK SMILES IDX 56 96 57 97 63 98 65 99 58 100 59 101 60 102 61 103 62 104
REMARK H PARENT 93 21 86 54 52 65
REMARK Flexibility Score: inf
ROOT
ATOM      1  C   UNL     1      -3.346  -1.388  -0.350  1.00  0.00     0.188 C 
ENDROOT
BRANCH   1   2
ATOM      2  C   UNL     1      -3.193  -2.035   1.164  1.00  0.00     0.188 C 
BRANCH   2   3
ATOM      3  O   UNL     1      -3.762  -1.706   2.836  1.00  0.00    -0.376 OA
BRANCH   3   4
ATOM      4  C   UNL     1      -3.881  -0.289   3.860  1.00  0.00     0.202 C 
BRANCH   4   5
ATOM      5  C   UNL     1      -3.106   1.413   3.619  1.00  0.00     0.261 C 
BRANCH   5   6
ATOM      6  O   UNL     1      -1.800   1.900   2.420  1.00  0.00    -0.463 OA
BRANCH   6   7
ATOM      7  C   UNL     1      -0.974   1.377   1.222  1.00  0.00     0.307 C 
ATOM      8  O   UNL     1      -0.574   0.216   1.049  1.00  0.00    -0.252 OA
BRANCH   7   9
ATOM      9  C   UNL     1      -0.565   2.368  -0.069  1.00  0.00     0.148 C 
BRANCH   9  10
ATOM     10  C   UNL     1      -1.313   2.731  -1.541  1.00  0.00     0.101 C 
BRANCH  10  11
ATOM     11  C   UNL     1      -2.408   1.755  -2.088  1.00  0.00     0.061 C 
BRANCH  11  12
ATOM     12  C   UNL     1      -3.210   1.842  -3.423  1.00  0.00    -0.046 A 
ATOM     13  C   UNL     1      -4.835  -0.701  -5.855  1.00  0.00     0.044 C 
ATOM     14  C   UNL     1      -4.441   0.597  -5.198  1.00  0.00    -0.051 A 
ATOM     15  C   UNL     1      -5.197   1.730  -5.493  1.00  0.00     0.003 A 
ATOM     16  C   UNL     1      -3.434   0.670  -4.196  1.00  0.00     0.007 A 
ATOM     17  C   UNL     1      -5.005   2.888  -4.753  1.00  0.00     0.001 A 
ATOM     18  C   UNL     1      -4.053   2.929  -3.717  1.00  0.00     0.004 A 
ENDBRANCH  11  12
ENDBRANCH  10  11
BRANCH  10  19
ATOM     19  N   UNL     1      -1.821   4.115  -1.532  1.00  0.00    -0.318 N 
ATOM     20  C   UNL     1      -1.991   5.081  -2.476  1.00  0.00     0.407 C 
ATOM     21  H   UNL     1      -2.101   4.409  -0.636  1.00  0.00     0.167 HD
ATOM     22  O   UNL     1      -2.628   6.070  -2.199  1.00  0.00    -0.225 OA
BRANCH  20  23
ATOM     23  O   UNL     1      -1.438   4.801  -3.682  1.00  0.00    -0.444 OA
BRANCH  23  24
ATOM     24  C   UNL     1      -1.604   5.775  -4.750  1.00  0.00     0.106 C 
ATOM     25  C   UNL     1      -3.058   5.898  -5.236  1.00  0.00     0.056 C 
ATOM     26  C   UNL     1      -1.054   7.152  -4.351  1.00  0.00     0.056 C 
ATOM     27  C   UNL     1      -0.762   5.216  -5.903  1.00  0.00     0.056 C 
ENDBRANCH  23  24
ENDBRANCH  20  23
ENDBRANCH  10  19
ENDBRANCH   9  10
ENDBRANCH   7   9
ENDBRANCH   6   7
ENDBRANCH   5   6
ENDBRANCH   4   5
ENDBRANCH   3   4
ENDBRANCH   2   3
ENDBRANCH   1   2
BRANCH   1  28
ATOM     28  O   UNL     1      -3.904  -0.178  -0.826  1.00  0.00    -0.377 OA
BRANCH  28  29
ATOM     29  C   UNL     1      -5.202   0.065  -1.349  1.00  0.00     0.188 C 
BRANCH  29  30
ATOM     30  C   UNL     1      -5.891  -0.953  -2.196  1.00  0.00     0.188 C 
BRANCH  30  31
ATOM     31  O   UNL     1      -5.492  -2.239  -1.774  1.00  0.00    -0.376 OA
BRANCH  31  32
ATOM     32  C   UNL     1      -5.923  -3.266  -2.632  1.00  0.00     0.202 C 
BRANCH  32  33
ATOM     33  C   UNL     1      -7.441  -3.428  -2.552  1.00  0.00     0.261 C 
BRANCH  33  34
ATOM     34  O   UNL     1      -7.838  -3.666  -1.180  1.00  0.00    -0.460 OA
BRANCH  34  35
ATOM     35  C   UNL     1      -8.574  -2.675  -0.564  1.00  0.00     0.338 C 
ATOM     36  O   UNL     1      -9.751  -2.479  -0.797  1.00  0.00    -0.246 OA
BRANCH  35  37
ATOM     37  C   UNL     1      -7.729  -1.981   0.462  1.00  0.00     0.060 A 
ATOM     38  C   UNL     1      -7.795  -0.658   0.910  1.00  0.00     0.016 A 
ATOM     39  C   UNL     1      -6.717  -2.701   0.994  1.00  0.00     0.016 A 
ATOM     40  C   UNL     1      -6.648   0.020   1.518  1.00  0.00     0.010 A 
ATOM     41  C   UNL     1      -5.659  -2.012   1.578  1.00  0.00     0.010 A 
ATOM     42  C   UNL     1      -5.377  -0.580   1.619  1.00  0.00    -0.014 A 
BRANCH  42  43
ATOM     43  C   UNL     1      -3.715   0.282   1.667  1.00  0.00     0.031 A 
ATOM     44  C   UNL     1      -2.092  -0.469   2.607  1.00  0.00     0.074 A 
ATOM     45  C   UNL     1      -3.954   1.644   1.167  1.00  0.00     0.049 A 
ATOM     46  N   UNL     1      -1.322   0.183   3.516  1.00  0.00    -0.248 NA
ATOM     47  C   UNL     1      -1.551  -1.965   3.092  1.00  0.00     0.031 C 
ATOM     48  C   UNL     1      -3.119   2.870   0.926  1.00  0.00     0.029 A 
ATOM     49  N   UNL     1      -5.202   2.329   1.017  1.00  0.00    -0.354 N 
ATOM     50  C   UNL     1      -0.524  -0.477   4.398  1.00  0.00     0.074 A 
ATOM     51  C   UNL     1      -0.689  -1.844   4.099  1.00  0.00     0.031 C 
ATOM     52  C   UNL     1      -3.735   4.034   0.901  1.00  0.00     0.029 A 
ATOM     53  C   UNL     1      -5.051   3.719   1.195  1.00  0.00     0.049 A 
ATOM     54  H   UNL     1      -6.058   1.886   0.815  1.00  0.00     0.167 HD
ATOM     55  C   UNL     1       0.191   0.184   5.355  1.00  0.00     0.037 A 
ATOM     56  C   UNL     1      -5.686   4.548   2.039  1.00  0.00     0.037 A 
ATOM     57  C   UNL     1       0.094   1.644   5.231  1.00  0.00     0.049 A 
ATOM     58  C   UNL     1      -4.755   5.082   3.143  1.00  0.00     0.074 A 
ATOM     59  C   UNL     1       0.729   2.505   4.352  1.00  0.00     0.029 A 
ATOM     60  N   UNL     1      -0.957   2.389   5.784  1.00  0.00    -0.354 N 
ATOM     61  N   UNL     1      -3.752   4.374   3.657  1.00  0.00    -0.248 NA
ATOM     62  C   UNL     1      -4.771   6.440   3.677  1.00  0.00     0.031 C 
ATOM     63  C   UNL     1      -0.056   3.688   4.231  1.00  0.00     0.029 A 
ATOM     64  C   UNL     1      -1.142   3.609   5.096  1.00  0.00     0.049 A 
ATOM     65  H   UNL     1      -1.498   2.100   6.555  1.00  0.00     0.167 HD
ATOM     66  C   UNL     1      -3.097   5.098   4.638  1.00  0.00     0.074 A 
ATOM     67  C   UNL     1      -3.755   6.401   4.561  1.00  0.00     0.031 C 
ATOM     68  C   UNL     1      -2.122   4.639   5.509  1.00  0.00     0.037 A 
BRANCH  55  69
ATOM     69  C   UNL     1       1.240  -0.616   6.095  1.00  0.00     0.058 A 
ATOM     70  C   UNL     1       2.604  -0.310   5.947  1.00  0.00     0.135 A 
ATOM     71  C   UNL     1       0.953  -1.816   6.786  1.00  0.00     0.135 A 
ATOM     72  F   UNL     1       2.989   0.815   5.328  1.00  0.00    -0.206 F 
ATOM     73  C   UNL     1       3.617  -1.180   6.366  1.00  0.00     0.059 A 
ATOM     74  C   UNL     1       1.949  -2.721   7.180  1.00  0.00     0.059 A 
ATOM     75  F   UNL     1      -0.322  -2.173   7.019  1.00  0.00    -0.206 F 
ATOM     76  C   UNL     1       3.283  -2.400   6.952  1.00  0.00     0.060 A 
BRANCH  76  77
ATOM     77  S   UNL     1       4.606  -3.578   7.331  1.00  0.00     0.124 S 
ATOM     78  O   UNL     1       5.409  -3.557   6.112  1.00  0.00    -0.237 OA
ATOM     79  O   UNL     1       5.223  -2.972   8.506  1.00  0.00    -0.237 OA
ATOM     80  O   UNL     1       3.891  -4.829   7.572  1.00  0.00    -0.744 OA
ENDBRANCH  76  77
ENDBRANCH  55  69
BRANCH  56  81
ATOM     81  C   UNL     1      -7.053   4.711   1.470  1.00  0.00     0.058 A 
ATOM     82  C   UNL     1      -7.111   5.123   0.101  1.00  0.00     0.135 A 
ATOM     83  C   UNL     1      -7.971   3.725   1.857  1.00  0.00     0.135 A 
ATOM     84  F   UNL     1      -6.243   6.045  -0.355  1.00  0.00    -0.206 F 
ATOM     85  C   UNL     1      -7.821   4.396  -0.862  1.00  0.00     0.059 A 
ATOM     86  C   UNL     1      -8.718   3.011   0.909  1.00  0.00     0.059 A 
ATOM     87  F   UNL     1      -7.943   3.265   3.117  1.00  0.00    -0.206 F 
ATOM     88  C   UNL     1      -8.575   3.300  -0.451  1.00  0.00     0.060 A 
BRANCH  88  89
ATOM     89  S   UNL     1      -9.176   2.152  -1.724  1.00  0.00     0.124 S 
ATOM     90  O   UNL     1     -10.155   2.966  -2.433  1.00  0.00    -0.237 OA
ATOM     91  O   UNL     1      -7.950   1.839  -2.454  1.00  0.00    -0.237 OA
ATOM     92  O   UNL     1      -9.724   1.048  -0.950  1.00  0.00    -0.744 OA
ENDBRANCH  88  89
ENDBRANCH  56  81
BRANCH  68  93
ATOM     93  C   UNL     1      -1.929   5.252   6.897  1.00  0.00     0.058 A 
ATOM     94  C   UNL     1      -2.965   5.897   7.601  1.00  0.00     0.135 A 
ATOM     95  C   UNL     1      -0.748   5.023   7.648  1.00  0.00     0.135 A 
ATOM     96  F   UNL     1      -4.178   6.079   7.061  1.00  0.00    -0.206 F 
ATOM     97  C   UNL     1      -2.822   6.339   8.915  1.00  0.00     0.059 A 
ATOM     98  C   UNL     1      -0.616   5.381   8.988  1.00  0.00     0.059 A 
ATOM     99  F   UNL     1       0.322   4.414   7.117  1.00  0.00    -0.206 F 
ATOM    100  C   UNL     1      -1.649   6.067   9.605  1.00  0.00     0.060 A 
BRANCH 100 101
ATOM    101  S   UNL     1      -1.501   6.558  11.329  1.00  0.00     0.124 S 
ATOM    102  O   UNL     1      -0.952   7.904  11.197  1.00  0.00    -0.237 OA
ATOM    103  O   UNL     1      -2.880   6.484  11.805  1.00  0.00    -0.237 OA
ATOM    104  O   UNL     1      -0.601   5.555  11.886  1.00  0.00    -0.744 OA
ENDBRANCH 100 101
ENDBRANCH  68  93
ENDBRANCH  42  43
ENDBRANCH  35  37
ENDBRANCH  34  35
ENDBRANCH  33  34
ENDBRANCH  32  33
ENDBRANCH  31  32
ENDBRANCH  30  31
ENDBRANCH  29  30
ENDBRANCH  28  29
ENDBRANCH   1  28
TORSDOF 29
