REMARK SMILES CS(=O)(=O)N1C[C@@H]2CN(C(=O)c3ccco3)C[C@@]2(C(=O)OCCOCCOCCOCCOC(=O)c2ccc(-c3c4nc(c(-c5c(F)cc(S(=O)(=O)[O-])cc5F)c5ccc([nH]5)c(-c5c(F)cc(S(=O)(=O)[O-])cc5F)c5nc(c(-c6c(F)cc(S(=O)(=O)[O-])cc6F)c6ccc3[nH]6)C=C5)C=C4)cc2)C1
REMARK SMILES IDX 28 1 27 2 26 3 25 4 24 5 23 6 22 7 21 8 19 9 20 10 18 11
REMARK SMILES IDX 5 12 6 13 102 14 7 15 8 16 17 17 9 18 2 19 1 20 3 21 4 22
REMARK SMILES IDX 10 23 11 24 12 25 13 26 16 27 14 28 15 29 29 30 30 31 31 32
REMARK SMILES IDX 32 33 33 34 34 35 35 36 36 37 37 38 101 39 38 40 100 41
REMARK SMILES IDX 39 42 40 43 41 44 94 45 42 46 99 47 93 48 95 49 43 50 98 51
REMARK SMILES IDX 92 52 91 53 44 55 78 56 57 57 77 58 58 59 61 60 76 61 96 62
REMARK SMILES IDX 59 63 60 64 75 66 97 67 62 68 45 69 46 70 55 71 47 72 48 73
REMARK SMILES IDX 54 74 56 75 49 76 50 77 51 78 52 79 53 80 79 81 80 82 89 83
REMARK SMILES IDX 81 84 82 85 88 86 90 87 83 88 84 89 85 90 86 91 87 92 63 93
REMARK SMILES IDX 64 94 73 95 65 96 66 97 72 98 74 99 67 100 68 101 69 102
REMARK SMILES IDX 70 103 71 104
REMARK H PARENT 95 54 61 65
REMARK Flexibility Score: inf
ROOT
ATOM      1  C   UNL     1       6.241  -5.626   0.347  1.00  0.00     0.188 C 
ENDROOT
BRANCH   1   2
ATOM      2  O   UNL     1       4.978  -5.017   0.613  1.00  0.00    -0.377 OA
BRANCH   2   3
ATOM      3  C   UNL     1       4.521  -3.981  -0.230  1.00  0.00     0.188 C 
BRANCH   3   4
ATOM      4  C   UNL     1       5.129  -2.575  -0.029  1.00  0.00     0.188 C 
BRANCH   4   5
ATOM      5  O   UNL     1       6.457  -2.428   0.441  1.00  0.00    -0.376 OA
BRANCH   5   6
ATOM      6  C   UNL     1       6.812  -2.626   1.813  1.00  0.00     0.202 C 
BRANCH   6   7
ATOM      7  C   UNL     1       5.781  -2.652   2.960  1.00  0.00     0.261 C 
BRANCH   7   8
ATOM      8  O   UNL     1       4.560  -3.211   2.497  1.00  0.00    -0.463 OA
BRANCH   8   9
ATOM      9  C   UNL     1       3.366  -2.966   3.109  1.00  0.00     0.315 C 
ATOM     10  O   UNL     1       3.220  -2.416   4.185  1.00  0.00    -0.251 OA
BRANCH   9  11
ATOM     11  C   UNL     1       2.296  -3.511   2.111  1.00  0.00     0.105 C 
ATOM     12  N   UNL     1       0.702  -1.580   2.166  1.00  0.00    -0.201 NA
ATOM     13  C   UNL     1      -0.116  -2.765   2.300  1.00  0.00     0.109 C 
ATOM     14  C   UNL     1       2.064  -1.974   1.782  1.00  0.00     0.123 C 
ATOM     15  C   UNL     1       0.800  -3.824   1.737  1.00  0.00     0.044 C 
ATOM     16  C   UNL     1       0.377  -5.244   2.057  1.00  0.00     0.126 C 
ATOM     17  C   UNL     1       2.454  -4.795   2.994  1.00  0.00     0.140 C 
ATOM     18  N   UNL     1       1.595  -5.835   2.489  1.00  0.00    -0.334 N 
BRANCH  12  19
ATOM     19  S   UNL     1       0.076  -0.081   1.785  1.00  0.00     0.211 S 
ATOM     20  C   UNL     1       0.503   0.130   0.065  1.00  0.00     0.176 C 
ATOM     21  O   UNL     1       0.829   0.912   2.516  1.00  0.00    -0.213 OA
ATOM     22  O   UNL     1      -1.368  -0.155   1.879  1.00  0.00    -0.213 OA
ENDBRANCH  12  19
BRANCH  18  23
ATOM     23  C   UNL     1       1.841  -7.202   2.372  1.00  0.00     0.289 C 
ATOM     24  O   UNL     1       0.969  -7.928   1.889  1.00  0.00    -0.265 OA
BRANCH  23  25
ATOM     25  C   UNL     1       3.145  -7.719   2.770  1.00  0.00     0.191 A 
ATOM     26  C   UNL     1       4.066  -7.388   3.753  1.00  0.00     0.056 A 
ATOM     27  O   UNL     1       3.647  -8.773   2.045  1.00  0.00    -0.459 OA
ATOM     28  C   UNL     1       5.202  -8.208   3.558  1.00  0.00     0.043 A 
ATOM     29  C   UNL     1       4.882  -9.052   2.526  1.00  0.00     0.196 A 
ENDBRANCH  23  25
ENDBRANCH  18  23
ENDBRANCH   9  11
ENDBRANCH   8   9
ENDBRANCH   7   8
ENDBRANCH   6   7
ENDBRANCH   5   6
ENDBRANCH   4   5
ENDBRANCH   3   4
ENDBRANCH   2   3
ENDBRANCH   1   2
BRANCH   1  30
ATOM     30  C   UNL     1       7.075  -5.191  -0.874  1.00  0.00     0.188 C 
BRANCH  30  31
ATOM     31  O   UNL     1       6.309  -4.912  -2.033  1.00  0.00    -0.376 OA
BRANCH  31  32
ATOM     32  C   UNL     1       6.104  -5.923  -3.005  1.00  0.00     0.202 C 
BRANCH  32  33
ATOM     33  C   UNL     1       5.517  -7.278  -2.582  1.00  0.00     0.261 C 
BRANCH  33  34
ATOM     34  O   UNL     1       6.211  -8.001  -1.557  1.00  0.00    -0.460 OA
BRANCH  34  35
ATOM     35  C   UNL     1       7.508  -8.314  -1.768  1.00  0.00     0.338 C 
ATOM     36  O   UNL     1       8.178  -8.056  -2.745  1.00  0.00    -0.246 OA
BRANCH  35  37
ATOM     37  C   UNL     1       8.029  -8.883  -0.508  1.00  0.00     0.060 A 
ATOM     38  C   UNL     1       9.082  -8.238   0.148  1.00  0.00     0.016 A 
ATOM     39  C   UNL     1       7.489 -10.064   0.007  1.00  0.00     0.016 A 
ATOM     40  C   UNL     1       9.636  -8.805   1.296  1.00  0.00     0.010 A 
ATOM     41  C   UNL     1       8.047 -10.631   1.156  1.00  0.00     0.010 A 
ATOM     42  C   UNL     1       9.152 -10.028   1.782  1.00  0.00    -0.014 A 
BRANCH  42  43
ATOM     43  C   UNL     1       9.924 -10.760   2.819  1.00  0.00     0.031 A 
ATOM     44  C   UNL     1      10.752 -11.946   2.393  1.00  0.00     0.074 A 
ATOM     45  C   UNL     1       9.943 -10.342   4.099  1.00  0.00     0.049 A 
ATOM     46  N   UNL     1      11.510 -12.730   3.115  1.00  0.00    -0.248 NA
ATOM     47  C   UNL     1      10.722 -12.295   0.962  1.00  0.00     0.031 C 
ATOM     48  C   UNL     1       9.211  -9.190   4.624  1.00  0.00     0.029 A 
ATOM     49  N   UNL     1      10.608 -10.839   5.192  1.00  0.00    -0.354 N 
ATOM     50  C   UNL     1      12.055 -13.651   2.226  1.00  0.00     0.074 A 
ATOM     51  C   UNL     1      11.494 -13.370   0.924  1.00  0.00     0.031 C 
ATOM     52  C   UNL     1       9.462  -9.073   5.940  1.00  0.00     0.029 A 
ATOM     53  C   UNL     1      10.354 -10.152   6.356  1.00  0.00     0.049 A 
ATOM     54  H   UNL     1      11.210 -11.617   5.147  1.00  0.00     0.167 HD
ATOM     55  C   UNL     1      12.964 -14.625   2.466  1.00  0.00     0.037 A 
ATOM     56  C   UNL     1      10.787 -10.377   7.613  1.00  0.00     0.037 A 
ATOM     57  C   UNL     1      13.525 -14.900   3.762  1.00  0.00     0.049 A 
ATOM     58  C   UNL     1      11.741 -11.520   7.864  1.00  0.00     0.074 A 
ATOM     59  C   UNL     1      14.448 -15.871   4.112  1.00  0.00     0.029 A 
ATOM     60  N   UNL     1      13.222 -14.201   4.921  1.00  0.00    -0.354 N 
ATOM     61  N   UNL     1      12.262 -12.367   7.008  1.00  0.00    -0.248 NA
ATOM     62  C   UNL     1      12.178 -11.728   9.252  1.00  0.00     0.031 C 
ATOM     63  C   UNL     1      14.668 -15.788   5.490  1.00  0.00     0.029 A 
ATOM     64  C   UNL     1      13.928 -14.728   5.989  1.00  0.00     0.049 A 
ATOM     65  H   UNL     1      12.597 -13.442   4.976  1.00  0.00     0.167 HD
ATOM     66  C   UNL     1      13.113 -13.183   7.749  1.00  0.00     0.074 A 
ATOM     67  C   UNL     1      13.058 -12.709   9.115  1.00  0.00     0.031 C 
ATOM     68  C   UNL     1      13.870 -14.233   7.341  1.00  0.00     0.037 A 
BRANCH  55  69
ATOM     69  C   UNL     1      13.422 -15.460   1.302  1.00  0.00     0.058 A 
ATOM     70  C   UNL     1      14.256 -14.931   0.303  1.00  0.00     0.135 A 
ATOM     71  C   UNL     1      13.082 -16.820   1.217  1.00  0.00     0.135 A 
ATOM     72  F   UNL     1      14.590 -13.630   0.320  1.00  0.00    -0.206 F 
ATOM     73  C   UNL     1      14.733 -15.718  -0.739  1.00  0.00     0.059 A 
ATOM     74  C   UNL     1      13.571 -17.633   0.199  1.00  0.00     0.059 A 
ATOM     75  F   UNL     1      12.280 -17.374   2.139  1.00  0.00    -0.206 F 
ATOM     76  C   UNL     1      14.394 -17.072  -0.776  1.00  0.00     0.060 A 
BRANCH  76  77
ATOM     77  S   UNL     1      15.069 -18.088  -2.107  1.00  0.00     0.124 S 
ATOM     78  O   UNL     1      14.351 -17.566  -3.266  1.00  0.00    -0.237 OA
ATOM     79  O   UNL     1      16.492 -17.771  -2.046  1.00  0.00    -0.237 OA
ATOM     80  O   UNL     1      14.714 -19.447  -1.711  1.00  0.00    -0.744 OA
ENDBRANCH  76  77
ENDBRANCH  55  69
BRANCH  56  81
ATOM     81  C   UNL     1      10.322  -9.525   8.745  1.00  0.00     0.058 A 
ATOM     82  C   UNL     1      11.216  -8.729   9.477  1.00  0.00     0.135 A 
ATOM     83  C   UNL     1       8.981  -9.546   9.162  1.00  0.00     0.135 A 
ATOM     84  F   UNL     1      12.510  -8.675   9.124  1.00  0.00    -0.206 F 
ATOM     85  C   UNL     1      10.812  -8.025  10.608  1.00  0.00     0.059 A 
ATOM     86  C   UNL     1       8.545  -8.824  10.268  1.00  0.00     0.059 A 
ATOM     87  F   UNL     1       8.078 -10.275   8.488  1.00  0.00    -0.206 F 
ATOM     88  C   UNL     1       9.474  -8.086  11.000  1.00  0.00     0.060 A 
BRANCH  88  89
ATOM     89  S   UNL     1       8.959  -7.179  12.474  1.00  0.00     0.124 S 
ATOM     90  O   UNL     1       9.551  -7.985  13.535  1.00  0.00    -0.237 OA
ATOM     91  O   UNL     1       9.563  -5.869  12.252  1.00  0.00    -0.237 OA
ATOM     92  O   UNL     1       7.502  -7.210  12.393  1.00  0.00    -0.744 OA
ENDBRANCH  88  89
ENDBRANCH  56  81
BRANCH  68  93
ATOM     93  C   UNL     1      14.732 -14.905   8.377  1.00  0.00     0.058 A 
ATOM     94  C   UNL     1      14.182 -15.663   9.423  1.00  0.00     0.135 A 
ATOM     95  C   UNL     1      16.132 -14.802   8.312  1.00  0.00     0.135 A 
ATOM     96  F   UNL     1      12.850 -15.795   9.533  1.00  0.00    -0.206 F 
ATOM     97  C   UNL     1      14.983 -16.248  10.397  1.00  0.00     0.059 A 
ATOM     98  C   UNL     1      16.955 -15.411   9.253  1.00  0.00     0.059 A 
ATOM     99  F   UNL     1      16.715 -14.105   7.322  1.00  0.00    -0.206 F 
ATOM    100  C   UNL     1      16.370 -16.113  10.306  1.00  0.00     0.060 A 
BRANCH 100 101
ATOM    101  S   UNL     1      17.398 -16.872  11.580  1.00  0.00     0.124 S 
ATOM    102  O   UNL     1      17.154 -15.991  12.717  1.00  0.00    -0.237 OA
ATOM    103  O   UNL     1      16.829 -18.212  11.682  1.00  0.00    -0.237 OA
ATOM    104  O   UNL     1      18.742 -16.809  11.014  1.00  0.00    -0.744 OA
ENDBRANCH 100 101
ENDBRANCH  68  93
ENDBRANCH  42  43
ENDBRANCH  35  37
ENDBRANCH  34  35
ENDBRANCH  33  34
ENDBRANCH  32  33
ENDBRANCH  31  32
ENDBRANCH  30  31
ENDBRANCH   1  30
TORSDOF 26
