REMARK SMILES [NH3+][C@@H]1C=C[C@H](C(=O)N(CC(=O)OCCOCCOCCOCCOC(=O)c2ccc(-c3c4nc(c(-c5c(F)cc(S(=O)(=O)[O-])cc5F)c5ccc([nH]5)c(-c5c(F)cc(S(=O)(=O)[O-])cc5F)c5nc(c(-c6c(F)cc(S(=O)(=O)[O-])cc6F)c6ccc3[nH]6)C=C5)C=C4)cc2)c2ccccc2)C1
REMARK SMILES IDX 17 1 16 2 15 3 14 4 13 5 12 6 10 7 11 8 9 9 8 10 6 11 7 12
REMARK SMILES IDX 5 13 2 14 3 15 99 16 4 17 1 18 93 22 94 23 98 24 95 25 97 26
REMARK SMILES IDX 96 27 18 28 19 29 20 30 21 31 22 32 23 33 24 34 25 35 26 36
REMARK SMILES IDX 27 37 28 38 92 39 29 40 91 41 30 42 31 43 32 44 85 45 33 46
REMARK SMILES IDX 90 47 84 48 86 49 34 50 89 51 83 52 82 53 35 55 69 56 48 57
REMARK SMILES IDX 68 58 49 59 52 60 67 61 87 62 50 63 51 64 66 66 88 67 53 68
REMARK SMILES IDX 36 69 37 70 46 71 38 72 39 73 45 74 47 75 40 76 41 77 42 78
REMARK SMILES IDX 43 79 44 80 70 81 71 82 80 83 72 84 73 85 79 86 81 87 74 88
REMARK SMILES IDX 75 89 76 90 77 91 78 92 54 93 55 94 64 95 56 96 57 97 63 98
REMARK SMILES IDX 65 99 58 100 59 101 60 102 61 103 62 104
REMARK H PARENT 1 19 1 20 1 21 86 54 52 65
REMARK Flexibility Score: inf
ROOT
ATOM      1  C   UNL     1      -1.427   9.640  -1.984  1.00  0.00     0.188 C 
ENDROOT
BRANCH   1   2
ATOM      2  C   UNL     1      -0.464  10.105  -0.893  1.00  0.00     0.188 C 
BRANCH   2   3
ATOM      3  O   UNL     1       0.698  10.783  -1.350  1.00  0.00    -0.376 OA
BRANCH   3   4
ATOM      4  C   UNL     1       1.593  10.066  -2.205  1.00  0.00     0.202 C 
BRANCH   4   5
ATOM      5  C   UNL     1       2.143   8.702  -1.714  1.00  0.00     0.261 C 
BRANCH   5   6
ATOM      6  O   UNL     1       1.223   7.567  -1.819  1.00  0.00    -0.462 OA
BRANCH   6   7
ATOM      7  C   UNL     1       0.897   6.939  -0.661  1.00  0.00     0.326 C 
ATOM      8  O   UNL     1       1.393   7.249   0.425  1.00  0.00    -0.250 OA
BRANCH   7   9
ATOM      9  C   UNL     1      -0.335   5.996  -0.674  1.00  0.00     0.248 C 
BRANCH   9  10
ATOM     10  N   UNL     1      -0.822   5.007  -1.677  1.00  0.00    -0.301 N 
BRANCH  10  11
ATOM     11  C   UNL     1      -0.150   3.810  -1.967  1.00  0.00     0.234 C 
ATOM     12  O   UNL     1      -0.519   3.084  -2.902  1.00  0.00    -0.274 OA
BRANCH  11  13
ATOM     13  C   UNL     1       1.086   3.379  -1.140  1.00  0.00     0.108 C 
ATOM     14  C   UNL     1       0.682   1.014  -0.572  1.00  0.00     0.205 C 
ATOM     15  C   UNL     1       0.611   1.884   0.639  1.00  0.00     0.033 C 
ATOM     16  C   UNL     1       1.485   1.929  -1.519  1.00  0.00     0.087 C 
ATOM     17  C   UNL     1       0.845   3.168   0.336  1.00  0.00    -0.012 C 
BRANCH  14  18
ATOM     18  N   UNL     1      -0.667   0.688  -1.020  1.00  0.00    -0.352 N 
ATOM     19  H   UNL     1      -1.116   0.082  -0.332  1.00  0.00     0.345 HD
ATOM     20  H   UNL     1      -0.620   0.206  -1.918  1.00  0.00     0.345 HD
ATOM     21  H   UNL     1      -1.208   1.546  -1.122  1.00  0.00     0.345 HD
ENDBRANCH  14  18
ENDBRANCH  11  13
ENDBRANCH  10  11
BRANCH  10  22
ATOM     22  C   UNL     1      -2.242   5.067  -2.022  1.00  0.00     0.044 A 
ATOM     23  C   UNL     1      -2.883   6.287  -2.208  1.00  0.00     0.026 A 
ATOM     24  C   UNL     1      -3.058   3.926  -2.124  1.00  0.00     0.026 A 
ATOM     25  C   UNL     1      -4.255   6.398  -2.464  1.00  0.00     0.002 A 
ATOM     26  C   UNL     1      -4.434   4.021  -2.394  1.00  0.00     0.002 A 
ATOM     27  C   UNL     1      -5.035   5.261  -2.565  1.00  0.00     0.000 A 
ENDBRANCH  10  22
ENDBRANCH   9  10
ENDBRANCH   7   9
ENDBRANCH   6   7
ENDBRANCH   5   6
ENDBRANCH   4   5
ENDBRANCH   3   4
ENDBRANCH   2   3
ENDBRANCH   1   2
BRANCH   1  28
ATOM     28  O   UNL     1      -0.817   8.667  -2.816  1.00  0.00    -0.377 OA
BRANCH  28  29
ATOM     29  C   UNL     1      -0.810   8.786  -4.238  1.00  0.00     0.188 C 
BRANCH  29  30
ATOM     30  C   UNL     1      -1.363  10.074  -4.848  1.00  0.00     0.188 C 
BRANCH  30  31
ATOM     31  O   UNL     1      -2.763  10.335  -4.694  1.00  0.00    -0.376 OA
BRANCH  31  32
ATOM     32  C   UNL     1      -3.638   9.223  -4.553  1.00  0.00     0.202 C 
BRANCH  32  33
ATOM     33  C   UNL     1      -4.140   8.582  -5.844  1.00  0.00     0.261 C 
BRANCH  33  34
ATOM     34  O   UNL     1      -3.066   8.052  -6.626  1.00  0.00    -0.460 OA
BRANCH  34  35
ATOM     35  C   UNL     1      -2.644   8.868  -7.617  1.00  0.00     0.338 C 
ATOM     36  O   UNL     1      -3.100   9.962  -7.923  1.00  0.00    -0.246 OA
BRANCH  35  37
ATOM     37  C   UNL     1      -1.408   8.324  -8.192  1.00  0.00     0.060 A 
ATOM     38  C   UNL     1      -0.321   9.195  -8.341  1.00  0.00     0.016 A 
ATOM     39  C   UNL     1      -1.336   7.000  -8.631  1.00  0.00     0.016 A 
ATOM     40  C   UNL     1       0.835   8.758  -8.971  1.00  0.00     0.010 A 
ATOM     41  C   UNL     1      -0.186   6.569  -9.288  1.00  0.00     0.010 A 
ATOM     42  C   UNL     1       0.880   7.462  -9.494  1.00  0.00    -0.014 A 
BRANCH  42  43
ATOM     43  C   UNL     1       1.945   7.122 -10.456  1.00  0.00     0.031 A 
ATOM     44  C   UNL     1       1.624   7.233 -11.919  1.00  0.00     0.074 A 
ATOM     45  C   UNL     1       3.160   6.748 -10.025  1.00  0.00     0.049 A 
ATOM     46  N   UNL     1       2.350   6.905 -12.951  1.00  0.00    -0.248 NA
ATOM     47  C   UNL     1       0.301   7.785 -12.264  1.00  0.00     0.031 C 
ATOM     48  C   UNL     1       3.570   6.665  -8.623  1.00  0.00     0.029 A 
ATOM     49  N   UNL     1       4.267   6.348 -10.726  1.00  0.00    -0.354 N 
ATOM     50  C   UNL     1       1.566   7.184 -14.064  1.00  0.00     0.074 A 
ATOM     51  C   UNL     1       0.304   7.698 -13.585  1.00  0.00     0.031 C 
ATOM     52  C   UNL     1       4.833   6.207  -8.566  1.00  0.00     0.029 A 
ATOM     53  C   UNL     1       5.299   5.927  -9.922  1.00  0.00     0.049 A 
ATOM     54  H   UNL     1       4.318   6.361 -11.709  1.00  0.00     0.167 HD
ATOM     55  C   UNL     1       1.880   7.020 -15.369  1.00  0.00     0.037 A 
ATOM     56  C   UNL     1       6.465   5.340 -10.254  1.00  0.00     0.037 A 
ATOM     57  C   UNL     1       3.150   6.514 -15.816  1.00  0.00     0.049 A 
ATOM     58  C   UNL     1       6.769   5.117 -11.714  1.00  0.00     0.074 A 
ATOM     59  C   UNL     1       3.594   6.333 -17.112  1.00  0.00     0.029 A 
ATOM     60  N   UNL     1       4.173   6.096 -14.976  1.00  0.00    -0.354 N 
ATOM     61  N   UNL     1       6.035   5.411 -12.763  1.00  0.00    -0.248 NA
ATOM     62  C   UNL     1       8.056   4.489 -12.039  1.00  0.00     0.031 C 
ATOM     63  C   UNL     1       4.861   5.746 -17.056  1.00  0.00     0.029 A 
ATOM     64  C   UNL     1       5.236   5.628 -15.726  1.00  0.00     0.049 A 
ATOM     65  H   UNL     1       4.145   6.129 -13.992  1.00  0.00     0.167 HD
ATOM     66  C   UNL     1       6.785   5.032 -13.871  1.00  0.00     0.074 A 
ATOM     67  C   UNL     1       8.032   4.498 -13.365  1.00  0.00     0.031 C 
ATOM     68  C   UNL     1       6.475   5.120 -15.189  1.00  0.00     0.037 A 
BRANCH  55  69
ATOM     69  C   UNL     1       0.834   7.345 -16.398  1.00  0.00     0.058 A 
ATOM     70  C   UNL     1       0.448   8.664 -16.681  1.00  0.00     0.135 A 
ATOM     71  C   UNL     1       0.252   6.316 -17.157  1.00  0.00     0.135 A 
ATOM     72  F   UNL     1       0.951   9.685 -15.969  1.00  0.00    -0.206 F 
ATOM     73  C   UNL     1      -0.483   8.951 -17.675  1.00  0.00     0.059 A 
ATOM     74  C   UNL     1      -0.658   6.582 -18.175  1.00  0.00     0.059 A 
ATOM     75  F   UNL     1       0.576   5.035 -16.918  1.00  0.00    -0.206 F 
ATOM     76  C   UNL     1      -1.022   7.903 -18.424  1.00  0.00     0.060 A 
BRANCH  76  77
ATOM     77  S   UNL     1      -2.190   8.298 -19.743  1.00  0.00     0.124 S 
ATOM     78  O   UNL     1      -3.356   8.733 -18.980  1.00  0.00    -0.237 OA
ATOM     79  O   UNL     1      -1.486   9.344 -20.477  1.00  0.00    -0.237 OA
ATOM     80  O   UNL     1      -2.344   7.032 -20.453  1.00  0.00    -0.744 OA
ENDBRANCH  76  77
ENDBRANCH  55  69
BRANCH  56  81
ATOM     81  C   UNL     1       7.403   4.888  -9.191  1.00  0.00     0.058 A 
ATOM     82  C   UNL     1       8.663   5.481  -9.027  1.00  0.00     0.135 A 
ATOM     83  C   UNL     1       7.057   3.842  -8.319  1.00  0.00     0.135 A 
ATOM     84  F   UNL     1       9.045   6.480  -9.836  1.00  0.00    -0.206 F 
ATOM     85  C   UNL     1       9.556   5.038  -8.055  1.00  0.00     0.059 A 
ATOM     86  C   UNL     1       7.919   3.403  -7.320  1.00  0.00     0.059 A 
ATOM     87  F   UNL     1       5.857   3.248  -8.422  1.00  0.00    -0.206 F 
ATOM     88  C   UNL     1       9.174   3.998  -7.206  1.00  0.00     0.060 A 
BRANCH  88  89
ATOM     89  S   UNL     1      10.329   3.452  -5.930  1.00  0.00     0.124 S 
ATOM     90  O   UNL     1      11.346   2.775  -6.726  1.00  0.00    -0.237 OA
ATOM     91  O   UNL     1      10.730   4.716  -5.321  1.00  0.00    -0.237 OA
ATOM     92  O   UNL     1       9.511   2.589  -5.083  1.00  0.00    -0.744 OA
ENDBRANCH  88  89
ENDBRANCH  56  81
BRANCH  68  93
ATOM     93  C   UNL     1       7.515   4.680 -16.181  1.00  0.00     0.058 A 
ATOM     94  C   UNL     1       7.823   3.327 -16.382  1.00  0.00     0.135 A 
ATOM     95  C   UNL     1       8.147   5.628 -17.003  1.00  0.00     0.135 A 
ATOM     96  F   UNL     1       7.252   2.382 -15.617  1.00  0.00    -0.206 F 
ATOM     97  C   UNL     1       8.733   2.928 -17.355  1.00  0.00     0.059 A 
ATOM     98  C   UNL     1       9.033   5.250 -18.004  1.00  0.00     0.059 A 
ATOM     99  F   UNL     1       7.877   6.936 -16.858  1.00  0.00    -0.206 F 
ATOM    100  C   UNL     1       9.326   3.898 -18.167  1.00  0.00     0.060 A 
BRANCH 100 101
ATOM    101  S   UNL     1      10.459   3.361 -19.465  1.00  0.00     0.124 S 
ATOM    102  O   UNL     1      11.618   2.938 -18.686  1.00  0.00    -0.237 OA
ATOM    103  O   UNL     1       9.706   2.291 -20.112  1.00  0.00    -0.237 OA
ATOM    104  O   UNL     1      10.649   4.563 -20.270  1.00  0.00    -0.744 OA
ENDBRANCH 100 101
ENDBRANCH  68  93
ENDBRANCH  42  43
ENDBRANCH  35  37
ENDBRANCH  34  35
ENDBRANCH  33  34
ENDBRANCH  32  33
ENDBRANCH  31  32
ENDBRANCH  30  31
ENDBRANCH  29  30
ENDBRANCH  28  29
ENDBRANCH   1  28
TORSDOF 28
