REMARK SMILES COc1ccc(-c2cc3c(N4CCC[C@@H](C(=O)OCCOCCOCCOCCOC(=O)c5ccc(-c6c7nc(c(-c8c(F)cc(S(=O)(=O)[O-])cc8F)c8ccc([nH]8)c(-c8c(F)cc(S(=O)(=O)[O-])cc8F)c8nc(c(-c9c(F)cc(S(=O)(=O)[O-])cc9F)c9ccc6[nH]9)C=C8)C=C7)cc5)C4)nccn3n2)cc1OC
REMARK SMILES IDX 24 1 23 2 22 3 21 4 20 5 19 6 18 7 16 8 17 9 15 10 11 11
REMARK SMILES IDX 12 12 99 13 13 14 14 15 10 16 7 17 8 18 104 19 9 20 103 21
REMARK SMILES IDX 102 22 100 23 101 24 6 25 3 26 4 27 106 28 5 29 105 30 2 31
REMARK SMILES IDX 1 32 107 33 108 34 25 35 26 36 27 37 28 38 29 39 30 40 31 41
REMARK SMILES IDX 32 42 33 43 34 44 98 45 35 46 97 47 36 48 37 49 38 50 91 51
REMARK SMILES IDX 39 52 96 53 90 54 92 55 40 56 95 57 89 58 88 59 41 61 75 62
REMARK SMILES IDX 54 63 74 64 55 65 58 66 73 67 93 68 56 69 57 70 72 72 94 73
REMARK SMILES IDX 59 74 42 75 43 76 52 77 44 78 45 79 51 80 53 81 46 82 47 83
REMARK SMILES IDX 48 84 49 85 50 86 76 87 77 88 86 89 78 90 79 91 85 92 87 93
REMARK SMILES IDX 80 94 81 95 82 96 83 97 84 98 60 99 61 100 70 101 62 102
REMARK SMILES IDX 63 103 69 104 71 105 64 106 65 107 66 108 67 109 68 110
REMARK H PARENT 92 60 58 71
REMARK Flexibility Score: inf
ROOT
ATOM      1  O   UNL     1      -5.914   4.536  -9.312  1.00  0.00    -0.377 OA
ENDROOT
BRANCH   1   2
ATOM      2  C   UNL     1      -4.854   5.448  -9.089  1.00  0.00     0.188 C 
BRANCH   2   3
ATOM      3  C   UNL     1      -4.213   6.026 -10.377  1.00  0.00     0.188 C 
BRANCH   3   4
ATOM      4  O   UNL     1      -4.698   5.671 -11.663  1.00  0.00    -0.376 OA
BRANCH   4   5
ATOM      5  C   UNL     1      -5.199   4.365 -11.891  1.00  0.00     0.202 C 
BRANCH   5   6
ATOM      6  C   UNL     1      -4.427   3.118 -11.413  1.00  0.00     0.261 C 
BRANCH   6   7
ATOM      7  O   UNL     1      -3.457   3.296 -10.364  1.00  0.00    -0.463 OA
BRANCH   7   8
ATOM      8  C   UNL     1      -2.208   3.605 -10.791  1.00  0.00     0.310 C 
ATOM      9  O   UNL     1      -1.901   3.699 -11.974  1.00  0.00    -0.252 OA
BRANCH   8  10
ATOM     10  C   UNL     1      -1.217   3.774  -9.640  1.00  0.00     0.118 C 
ATOM     11  N   UNL     1       1.061   4.407  -9.222  1.00  0.00    -0.354 N 
ATOM     12  C   UNL     1       0.816   5.397  -8.193  1.00  0.00     0.118 C 
ATOM     13  C   UNL     1       0.055   4.336 -10.269  1.00  0.00     0.133 C 
ATOM     14  C   UNL     1      -0.526   5.152  -7.517  1.00  0.00     0.022 C 
ATOM     15  C   UNL     1      -1.632   4.692  -8.471  1.00  0.00     0.019 C 
BRANCH  11  16
ATOM     16  C   UNL     1       2.009   3.409  -9.167  1.00  0.00     0.154 A 
ATOM     17  C   UNL     1       2.104   1.207  -6.250  1.00  0.00     0.094 A 
ATOM     18  C   UNL     1       1.456   2.284  -6.889  1.00  0.00     0.063 A 
ATOM     19  N   UNL     1       3.127   0.754  -6.989  1.00  0.00    -0.168 NA
ATOM     20  C   UNL     1       2.149   2.495  -8.053  1.00  0.00     0.109 A 
ATOM     21  N   UNL     1       3.106   1.507  -8.115  1.00  0.00    -0.235 N 
ATOM     22  C   UNL     1       3.881   1.378  -9.252  1.00  0.00     0.133 A 
ATOM     23  N   UNL     1       2.758   3.244 -10.236  1.00  0.00    -0.235 NA
ATOM     24  C   UNL     1       3.685   2.230 -10.265  1.00  0.00     0.133 A 
BRANCH  17  25
ATOM     25  C   UNL     1       1.773   0.657  -4.942  1.00  0.00     0.006 A 
ATOM     26  C   UNL     1       1.187  -0.309  -2.373  1.00  0.00     0.160 A 
ATOM     27  C   UNL     1       0.161  -0.123  -3.311  1.00  0.00     0.051 A 
ATOM     28  C   UNL     1       2.515  -0.027  -2.720  1.00  0.00     0.161 A 
ATOM     29  C   UNL     1       0.450   0.370  -4.587  1.00  0.00     0.014 A 
ATOM     30  C   UNL     1       2.791   0.452  -4.006  1.00  0.00     0.060 A 
BRANCH  26  31
ATOM     31  O   UNL     1       0.865  -0.892  -1.178  1.00  0.00    -0.493 OA
ATOM     32  C   UNL     1       0.220   0.021  -0.287  1.00  0.00     0.278 C 
ENDBRANCH  26  31
BRANCH  28  33
ATOM     33  O   UNL     1       3.646  -0.177  -1.965  1.00  0.00    -0.493 OA
ATOM     34  C   UNL     1       3.501  -0.311  -0.561  1.00  0.00     0.278 C 
ENDBRANCH  28  33
ENDBRANCH  17  25
ENDBRANCH  11  16
ENDBRANCH   8  10
ENDBRANCH   7   8
ENDBRANCH   6   7
ENDBRANCH   5   6
ENDBRANCH   4   5
ENDBRANCH   3   4
ENDBRANCH   2   3
ENDBRANCH   1   2
BRANCH   1  35
ATOM     35  C   UNL     1      -7.208   5.089  -9.125  1.00  0.00     0.188 C 
BRANCH  35  36
ATOM     36  C   UNL     1      -7.516   6.401  -9.889  1.00  0.00     0.188 C 
BRANCH  36  37
ATOM     37  O   UNL     1      -6.471   7.372  -9.861  1.00  0.00    -0.376 OA
BRANCH  37  38
ATOM     38  C   UNL     1      -6.554   8.563  -9.093  1.00  0.00     0.202 C 
BRANCH  38  39
ATOM     39  C   UNL     1      -6.356   8.429  -7.582  1.00  0.00     0.261 C 
BRANCH  39  40
ATOM     40  O   UNL     1      -7.058   7.333  -7.036  1.00  0.00    -0.460 OA
BRANCH  40  41
ATOM     41  C   UNL     1      -8.391   7.414  -7.157  1.00  0.00     0.338 C 
ATOM     42  O   UNL     1      -9.037   8.278  -7.744  1.00  0.00    -0.246 OA
BRANCH  41  43
ATOM     43  C   UNL     1      -8.986   6.320  -6.403  1.00  0.00     0.060 A 
ATOM     44  C   UNL     1     -10.370   6.193  -6.520  1.00  0.00     0.016 A 
ATOM     45  C   UNL     1      -8.248   5.821  -5.322  1.00  0.00     0.016 A 
ATOM     46  C   UNL     1     -11.061   5.901  -5.378  1.00  0.00     0.010 A 
ATOM     47  C   UNL     1      -8.936   5.582  -4.174  1.00  0.00     0.010 A 
ATOM     48  C   UNL     1     -10.321   5.738  -4.208  1.00  0.00    -0.014 A 
BRANCH  48  49
ATOM     49  C   UNL     1     -11.027   5.708  -2.957  1.00  0.00     0.031 A 
ATOM     50  C   UNL     1     -11.559   4.365  -2.673  1.00  0.00     0.074 A 
ATOM     51  C   UNL     1     -10.998   6.790  -2.156  1.00  0.00     0.049 A 
ATOM     52  N   UNL     1     -12.798   4.011  -2.608  1.00  0.00    -0.248 NA
ATOM     53  C   UNL     1     -10.615   3.231  -2.724  1.00  0.00     0.031 C 
ATOM     54  C   UNL     1     -10.245   8.035  -2.353  1.00  0.00     0.029 A 
ATOM     55  N   UNL     1     -11.500   6.930  -0.903  1.00  0.00    -0.354 N 
ATOM     56  C   UNL     1     -12.756   2.655  -2.314  1.00  0.00     0.074 A 
ATOM     57  C   UNL     1     -11.449   2.194  -2.688  1.00  0.00     0.031 C 
ATOM     58  C   UNL     1     -10.140   8.678  -1.169  1.00  0.00     0.029 A 
ATOM     59  C   UNL     1     -10.878   7.937  -0.165  1.00  0.00     0.049 A 
ATOM     60  H   UNL     1     -12.233   6.375  -0.549  1.00  0.00     0.167 HD
ATOM     61  C   UNL     1     -13.653   2.107  -1.454  1.00  0.00     0.037 A 
ATOM     62  C   UNL     1     -10.850   7.976   1.193  1.00  0.00     0.037 A 
ATOM     63  C   UNL     1     -14.818   2.946  -1.314  1.00  0.00     0.049 A 
ATOM     64  C   UNL     1     -11.992   7.123   1.657  1.00  0.00     0.074 A 
ATOM     65  C   UNL     1     -15.710   3.496  -2.216  1.00  0.00     0.029 A 
ATOM     66  N   UNL     1     -14.948   3.680  -0.157  1.00  0.00    -0.354 N 
ATOM     67  N   UNL     1     -13.249   7.410   1.424  1.00  0.00    -0.248 NA
ATOM     68  C   UNL     1     -11.720   5.711   1.905  1.00  0.00     0.031 C 
ATOM     69  C   UNL     1     -15.962   4.811  -1.732  1.00  0.00     0.029 A 
ATOM     70  C   UNL     1     -15.285   4.961  -0.520  1.00  0.00     0.049 A 
ATOM     71  H   UNL     1     -14.823   3.348   0.761  1.00  0.00     0.167 HD
ATOM     72  C   UNL     1     -13.836   6.198   1.074  1.00  0.00     0.074 A 
ATOM     73  C   UNL     1     -12.858   5.179   1.448  1.00  0.00     0.031 C 
ATOM     74  C   UNL     1     -14.919   6.136   0.241  1.00  0.00     0.037 A 
BRANCH  61  75
ATOM     75  C   UNL     1     -13.279   1.040  -0.458  1.00  0.00     0.058 A 
ATOM     76  C   UNL     1     -14.301   0.379   0.244  1.00  0.00     0.135 A 
ATOM     77  C   UNL     1     -11.965   0.823   0.027  1.00  0.00     0.135 A 
ATOM     78  F   UNL     1     -15.585   0.530  -0.119  1.00  0.00    -0.206 F 
ATOM     79  C   UNL     1     -14.045  -0.389   1.379  1.00  0.00     0.059 A 
ATOM     80  C   UNL     1     -11.683   0.011   1.114  1.00  0.00     0.059 A 
ATOM     81  F   UNL     1     -10.895   1.463  -0.458  1.00  0.00    -0.206 F 
ATOM     82  C   UNL     1     -12.732  -0.555   1.811  1.00  0.00     0.060 A 
BRANCH  82  83
ATOM     83  S   UNL     1     -12.403  -1.457   3.331  1.00  0.00     0.124 S 
ATOM     84  O   UNL     1     -12.940  -0.542   4.330  1.00  0.00    -0.237 OA
ATOM     85  O   UNL     1     -13.154  -2.689   3.116  1.00  0.00    -0.237 OA
ATOM     86  O   UNL     1     -10.950  -1.606   3.324  1.00  0.00    -0.744 OA
ENDBRANCH  82  83
ENDBRANCH  61  75
BRANCH  62  87
ATOM     87  C   UNL     1      -9.660   8.300   2.039  1.00  0.00     0.058 A 
ATOM     88  C   UNL     1      -9.767   8.411   3.438  1.00  0.00     0.135 A 
ATOM     89  C   UNL     1      -8.341   8.265   1.532  1.00  0.00     0.135 A 
ATOM     90  F   UNL     1     -10.976   8.431   4.021  1.00  0.00    -0.206 F 
ATOM     91  C   UNL     1      -8.643   8.437   4.278  1.00  0.00     0.059 A 
ATOM     92  C   UNL     1      -7.212   8.313   2.344  1.00  0.00     0.059 A 
ATOM     93  F   UNL     1      -8.090   8.088   0.229  1.00  0.00    -0.206 F 
ATOM     94  C   UNL     1      -7.367   8.368   3.720  1.00  0.00     0.060 A 
BRANCH  94  95
ATOM     95  S   UNL     1      -5.913   8.211   4.784  1.00  0.00     0.124 S 
ATOM     96  O   UNL     1      -5.838   9.535   5.391  1.00  0.00    -0.237 OA
ATOM     97  O   UNL     1      -6.299   7.120   5.673  1.00  0.00    -0.237 OA
ATOM     98  O   UNL     1      -4.839   7.894   3.846  1.00  0.00    -0.744 OA
ENDBRANCH  94  95
ENDBRANCH  62  87
BRANCH  74  99
ATOM     99  C   UNL     1     -15.657   7.407  -0.103  1.00  0.00     0.058 A 
ATOM    100  C   UNL     1     -15.090   8.501  -0.781  1.00  0.00     0.135 A 
ATOM    101  C   UNL     1     -17.047   7.433   0.097  1.00  0.00     0.135 A 
ATOM    102  F   UNL     1     -13.793   8.504  -1.120  1.00  0.00    -0.206 F 
ATOM    103  C   UNL     1     -15.860   9.590  -1.197  1.00  0.00     0.059 A 
ATOM    104  C   UNL     1     -17.839   8.489  -0.342  1.00  0.00     0.059 A 
ATOM    105  F   UNL     1     -17.663   6.388   0.674  1.00  0.00    -0.206 F 
ATOM    106  C   UNL     1     -17.237   9.573  -0.975  1.00  0.00     0.060 A 
BRANCH 106 107
ATOM    107  S   UNL     1     -18.244  10.949  -1.571  1.00  0.00     0.124 S 
ATOM    108  O   UNL     1     -17.846  12.029  -0.674  1.00  0.00    -0.237 OA
ATOM    109  O   UNL     1     -17.808  11.083  -2.958  1.00  0.00    -0.237 OA
ATOM    110  O   UNL     1     -19.613  10.469  -1.401  1.00  0.00    -0.744 OA
ENDBRANCH 106 107
ENDBRANCH  74  99
ENDBRANCH  48  49
ENDBRANCH  41  43
ENDBRANCH  40  41
ENDBRANCH  39  40
ENDBRANCH  38  39
ENDBRANCH  37  38
ENDBRANCH  36  37
ENDBRANCH  35  36
ENDBRANCH   1  35
TORSDOF 27
