REMARK SMILES O=C(CSc1ccnc(C(=O)OCCOCCOCCOCCOC(=O)c2ccc(-c3c4nc(c(-c5c(F)cc(S(=O)(=O)[O-])cc5F)c5ccc([nH]5)c(-c5c(F)cc(S(=O)(=O)[O-])cc5F)c5nc(c(-c6c(F)cc(S(=O)(=O)[O-])cc6F)c6ccc3[nH]6)C=C5)C=C4)cc2)c1)NCC(F)(F)F
REMARK SMILES IDX 17 1 16 2 15 3 14 4 13 5 12 6 10 7 11 8 9 9 5 10 6 11 93 12
REMARK SMILES IDX 7 13 8 14 4 15 3 16 2 17 1 18 94 19 95 21 96 22 97 23 98 24
REMARK SMILES IDX 99 25 18 26 19 27 20 28 21 29 22 30 23 31 24 32 25 33 26 34
REMARK SMILES IDX 27 35 28 36 92 37 29 38 91 39 30 40 31 41 32 42 85 43 33 44
REMARK SMILES IDX 90 45 84 46 86 47 34 48 89 49 83 50 82 51 35 53 69 54 48 55
REMARK SMILES IDX 68 56 49 57 52 58 67 59 87 60 50 61 51 62 66 64 88 65 53 66
REMARK SMILES IDX 36 67 37 68 46 69 38 70 39 71 45 72 47 73 40 74 41 75 42 76
REMARK SMILES IDX 43 77 44 78 70 79 71 80 80 81 72 82 73 83 79 84 81 85 74 86
REMARK SMILES IDX 75 87 76 88 77 89 78 90 54 91 55 92 64 93 56 94 57 95 63 96
REMARK SMILES IDX 65 97 58 98 59 99 60 100 61 101 62 102
REMARK H PARENT 94 20 86 52 52 63
REMARK Flexibility Score: inf
ROOT
ATOM      1  C   UNL     1       1.035   3.921   3.675  1.00  0.00     0.188 C 
ENDROOT
BRANCH   1   2
ATOM      2  C   UNL     1      -0.229   4.797   3.540  1.00  0.00     0.188 C 
BRANCH   2   3
ATOM      3  O   UNL     1      -1.406   4.177   4.027  1.00  0.00    -0.376 OA
BRANCH   3   4
ATOM      4  C   UNL     1      -2.400   3.759   3.110  1.00  0.00     0.202 C 
BRANCH   4   5
ATOM      5  C   UNL     1      -2.028   2.746   2.018  1.00  0.00     0.261 C 
BRANCH   5   6
ATOM      6  O   UNL     1      -0.775   2.969   1.363  1.00  0.00    -0.459 OA
BRANCH   6   7
ATOM      7  C   UNL     1      -0.709   3.964   0.444  1.00  0.00     0.357 C 
ATOM      8  O   UNL     1      -1.628   4.686   0.099  1.00  0.00    -0.244 OA
BRANCH   7   9
ATOM      9  C   UNL     1       0.736   4.134   0.088  1.00  0.00     0.149 A 
ATOM     10  C   UNL     1       2.923   3.214  -0.262  1.00  0.00     0.012 A 
ATOM     11  C   UNL     1       3.410   4.524  -0.281  1.00  0.00     0.035 A 
ATOM     12  C   UNL     1       1.559   3.021  -0.060  1.00  0.00     0.051 A 
ATOM     13  C   UNL     1       2.520   5.574  -0.127  1.00  0.00     0.113 A 
ATOM     14  N   UNL     1       1.194   5.413   0.049  1.00  0.00    -0.249 NA
BRANCH  10  15
ATOM     15  S   UNL     1       4.130   1.904  -0.438  1.00  0.00    -0.116 SA
BRANCH  15  16
ATOM     16  C   UNL     1       3.146   0.489  -1.059  1.00  0.00     0.174 C 
BRANCH  16  17
ATOM     17  C   UNL     1       2.333  -0.171   0.042  1.00  0.00     0.230 C 
ATOM     18  O   UNL     1       1.158  -0.481  -0.130  1.00  0.00    -0.274 OA
ATOM     19  N   UNL     1       2.997  -0.392   1.224  1.00  0.00    -0.346 N 
ATOM     20  H   UNL     1       3.953  -0.164   1.283  1.00  0.00     0.163 HD
BRANCH  19  21
ATOM     21  C   UNL     1       2.328  -0.957   2.398  1.00  0.00     0.231 C 
BRANCH  21  22
ATOM     22  C   UNL     1       2.689  -2.410   2.699  1.00  0.00     0.405 C 
ATOM     23  F   UNL     1       4.027  -2.527   2.891  1.00  0.00    -0.169 F 
ATOM     24  F   UNL     1       2.083  -2.826   3.832  1.00  0.00    -0.169 F 
ATOM     25  F   UNL     1       2.343  -3.241   1.697  1.00  0.00    -0.169 F 
ENDBRANCH  21  22
ENDBRANCH  19  21
ENDBRANCH  16  17
ENDBRANCH  15  16
ENDBRANCH  10  15
ENDBRANCH   7   9
ENDBRANCH   6   7
ENDBRANCH   5   6
ENDBRANCH   4   5
ENDBRANCH   3   4
ENDBRANCH   2   3
ENDBRANCH   1   2
BRANCH   1  26
ATOM     26  O   UNL     1       0.893   2.543   3.994  1.00  0.00    -0.377 OA
BRANCH  26  27
ATOM     27  C   UNL     1       0.064   2.148   5.088  1.00  0.00     0.188 C 
BRANCH  27  28
ATOM     28  C   UNL     1      -0.260   3.106   6.261  1.00  0.00     0.188 C 
BRANCH  28  29
ATOM     29  O   UNL     1       0.490   4.309   6.266  1.00  0.00    -0.376 OA
BRANCH  29  30
ATOM     30  C   UNL     1       1.486   4.457   7.260  1.00  0.00     0.202 C 
BRANCH  30  31
ATOM     31  C   UNL     1       2.665   3.476   7.204  1.00  0.00     0.261 C 
BRANCH  31  32
ATOM     32  O   UNL     1       2.329   2.081   7.190  1.00  0.00    -0.460 OA
BRANCH  32  33
ATOM     33  C   UNL     1       1.751   1.574   8.302  1.00  0.00     0.338 C 
ATOM     34  O   UNL     1       1.480   2.177   9.328  1.00  0.00    -0.246 OA
BRANCH  33  35
ATOM     35  C   UNL     1       1.327   0.194   7.991  1.00  0.00     0.060 A 
ATOM     36  C   UNL     1      -0.034  -0.136   8.043  1.00  0.00     0.016 A 
ATOM     37  C   UNL     1       2.275  -0.766   7.628  1.00  0.00     0.016 A 
ATOM     38  C   UNL     1      -0.447  -1.439   7.761  1.00  0.00     0.010 A 
ATOM     39  C   UNL     1       1.861  -2.074   7.365  1.00  0.00     0.010 A 
ATOM     40  C   UNL     1       0.502  -2.425   7.462  1.00  0.00    -0.014 A 
BRANCH  40  41
ATOM     41  C   UNL     1       0.106  -3.854   7.439  1.00  0.00     0.031 A 
ATOM     42  C   UNL     1       0.367  -4.686   8.666  1.00  0.00     0.074 A 
ATOM     43  C   UNL     1      -0.481  -4.404   6.361  1.00  0.00     0.049 A 
ATOM     44  N   UNL     1       0.171  -5.962   8.864  1.00  0.00    -0.248 NA
ATOM     45  C   UNL     1       0.931  -3.977   9.828  1.00  0.00     0.031 C 
ATOM     46  C   UNL     1      -0.821  -3.694   5.129  1.00  0.00     0.029 A 
ATOM     47  N   UNL     1      -0.882  -5.696   6.126  1.00  0.00    -0.354 N 
ATOM     48  C   UNL     1       0.594  -6.213  10.164  1.00  0.00     0.074 A 
ATOM     49  C   UNL     1       1.087  -4.962  10.698  1.00  0.00     0.031 C 
ATOM     50  C   UNL     1      -1.363  -4.565   4.260  1.00  0.00     0.029 A 
ATOM     51  C   UNL     1      -1.377  -5.899   4.860  1.00  0.00     0.049 A 
ATOM     52  H   UNL     1      -0.820  -6.410   6.801  1.00  0.00     0.167 HD
ATOM     53  C   UNL     1       0.565  -7.378  10.854  1.00  0.00     0.037 A 
ATOM     54  C   UNL     1      -1.769  -7.035   4.248  1.00  0.00     0.037 A 
ATOM     55  C   UNL     1       0.076  -8.619  10.313  1.00  0.00     0.049 A 
ATOM     56  C   UNL     1      -1.719  -8.338   5.009  1.00  0.00     0.074 A 
ATOM     57  C   UNL     1      -0.014  -9.851  10.936  1.00  0.00     0.029 A 
ATOM     58  N   UNL     1      -0.392  -8.790   9.018  1.00  0.00    -0.354 N 
ATOM     59  N   UNL     1      -1.346  -8.557   6.249  1.00  0.00    -0.248 NA
ATOM     60  C   UNL     1      -2.145  -9.547   4.290  1.00  0.00     0.031 C 
ATOM     61  C   UNL     1      -0.478 -10.780  10.000  1.00  0.00     0.029 A 
ATOM     62  C   UNL     1      -0.743 -10.115   8.813  1.00  0.00     0.049 A 
ATOM     63  H   UNL     1      -0.465  -8.076   8.345  1.00  0.00     0.167 HD
ATOM     64  C   UNL     1      -1.520  -9.922   6.465  1.00  0.00     0.074 A 
ATOM     65  C   UNL     1      -2.044 -10.474   5.233  1.00  0.00     0.031 C 
ATOM     66  C   UNL     1      -1.271 -10.651   7.582  1.00  0.00     0.037 A 
BRANCH  53  67
ATOM     67  C   UNL     1       1.107  -7.372  12.257  1.00  0.00     0.058 A 
ATOM     68  C   UNL     1       0.443  -6.717  13.307  1.00  0.00     0.135 A 
ATOM     69  C   UNL     1       2.294  -8.057  12.563  1.00  0.00     0.135 A 
ATOM     70  F   UNL     1      -0.685  -6.029  13.070  1.00  0.00    -0.206 F 
ATOM     71  C   UNL     1       0.950  -6.720  14.603  1.00  0.00     0.059 A 
ATOM     72  C   UNL     1       2.803  -8.100  13.857  1.00  0.00     0.059 A 
ATOM     73  F   UNL     1       2.973  -8.697  11.597  1.00  0.00    -0.206 F 
ATOM     74  C   UNL     1       2.131  -7.416  14.868  1.00  0.00     0.060 A 
BRANCH  74  75
ATOM     75  S   UNL     1       2.770  -7.414  16.556  1.00  0.00     0.124 S 
ATOM     76  O   UNL     1       3.225  -6.034  16.694  1.00  0.00    -0.237 OA
ATOM     77  O   UNL     1       1.591  -7.774  17.336  1.00  0.00    -0.237 OA
ATOM     78  O   UNL     1       3.827  -8.421  16.521  1.00  0.00    -0.744 OA
ENDBRANCH  74  75
ENDBRANCH  53  67
BRANCH  54  79
ATOM     79  C   UNL     1      -2.231  -7.000   2.833  1.00  0.00     0.058 A 
ATOM     80  C   UNL     1      -3.566  -7.269   2.498  1.00  0.00     0.135 A 
ATOM     81  C   UNL     1      -1.344  -6.704   1.785  1.00  0.00     0.135 A 
ATOM     82  F   UNL     1      -4.451  -7.573   3.460  1.00  0.00    -0.206 F 
ATOM     83  C   UNL     1      -4.004  -7.260   1.177  1.00  0.00     0.059 A 
ATOM     84  C   UNL     1      -1.764  -6.658   0.459  1.00  0.00     0.059 A 
ATOM     85  F   UNL     1      -0.056  -6.436   2.050  1.00  0.00    -0.206 F 
ATOM     86  C   UNL     1      -3.095  -6.948   0.164  1.00  0.00     0.060 A 
BRANCH  86  87
ATOM     87  S   UNL     1      -3.688  -6.895  -1.542  1.00  0.00     0.124 S 
ATOM     88  O   UNL     1      -3.930  -8.307  -1.814  1.00  0.00    -0.237 OA
ATOM     89  O   UNL     1      -4.876  -6.055  -1.425  1.00  0.00    -0.237 OA
ATOM     90  O   UNL     1      -2.573  -6.295  -2.269  1.00  0.00    -0.744 OA
ENDBRANCH  86  87
ENDBRANCH  54  79
BRANCH  66  91
ATOM     91  C   UNL     1      -1.594 -12.122   7.545  1.00  0.00     0.058 A 
ATOM     92  C   UNL     1      -0.832 -13.031   6.795  1.00  0.00     0.135 A 
ATOM     93  C   UNL     1      -2.643 -12.638   8.324  1.00  0.00     0.135 A 
ATOM     94  F   UNL     1       0.180 -12.594   6.028  1.00  0.00    -0.206 F 
ATOM     95  C   UNL     1      -1.112 -14.394   6.800  1.00  0.00     0.059 A 
ATOM     96  C   UNL     1      -2.921 -14.001   8.370  1.00  0.00     0.059 A 
ATOM     97  F   UNL     1      -3.398 -11.816   9.072  1.00  0.00    -0.206 F 
ATOM     98  C   UNL     1      -2.157 -14.870   7.595  1.00  0.00     0.060 A 
BRANCH  98  99
ATOM     99  S   UNL     1      -2.483 -16.646   7.622  1.00  0.00     0.124 S 
ATOM    100  O   UNL     1      -3.056 -16.860   6.297  1.00  0.00    -0.237 OA
ATOM    101  O   UNL     1      -1.152 -17.204   7.835  1.00  0.00    -0.237 OA
ATOM    102  O   UNL     1      -3.410 -16.806   8.739  1.00  0.00    -0.744 OA
ENDBRANCH  98  99
ENDBRANCH  66  91
ENDBRANCH  40  41
ENDBRANCH  33  35
ENDBRANCH  32  33
ENDBRANCH  31  32
ENDBRANCH  30  31
ENDBRANCH  29  30
ENDBRANCH  28  29
ENDBRANCH  27  28
ENDBRANCH  26  27
ENDBRANCH   1  26
TORSDOF 28
