REMARK SMILES CC(C)(C)N(CC(=O)OCCOCCOCCOCCOC(=O)c1ccc(-c2c3nc(c(-c4c(F)cc(S(=O)(=O)[O-])cc4F)c4ccc([nH]4)c(-c4c(F)cc(S(=O)(=O)[O-])cc4F)c4nc(c(-c5c(F)cc(S(=O)(=O)[O-])cc5F)c5ccc2[nH]5)C=C4)C=C3)cc1)c1cccc(C#N)n1
REMARK SMILES IDX 15 1 14 2 13 3 12 4 11 5 10 6 9 7 7 8 8 9 6 10 5 11 2 12
REMARK SMILES IDX 1 13 3 14 4 15 90 16 91 17 97 18 92 19 94 20 93 21 95 22
REMARK SMILES IDX 96 23 16 24 17 25 18 26 19 27 20 28 21 29 22 30 23 31 24 32
REMARK SMILES IDX 25 33 89 34 26 35 88 36 27 37 28 38 29 39 82 40 30 41 87 42
REMARK SMILES IDX 81 43 83 44 31 45 86 46 80 47 79 48 32 50 66 51 45 52 65 53
REMARK SMILES IDX 46 54 49 55 64 56 84 57 47 58 48 59 63 61 85 62 50 63 33 64
REMARK SMILES IDX 34 65 43 66 35 67 36 68 42 69 44 70 37 71 38 72 39 73 40 74
REMARK SMILES IDX 41 75 67 76 68 77 77 78 69 79 70 80 76 81 78 82 71 83 72 84
REMARK SMILES IDX 73 85 74 86 75 87 51 88 52 89 61 90 53 91 54 92 60 93 62 94
REMARK SMILES IDX 55 95 56 96 57 97 58 98 59 99
REMARK H PARENT 83 49 49 60
REMARK Flexibility Score: inf
ROOT
ATOM      1  O   UNL     1       3.791   2.971  -3.781  1.00  0.00    -0.377 OA
ENDROOT
BRANCH   1   2
ATOM      2  C   UNL     1       3.214   4.150  -3.271  1.00  0.00     0.188 C 
BRANCH   2   3
ATOM      3  C   UNL     1       4.037   4.832  -2.169  1.00  0.00     0.188 C 
BRANCH   3   4
ATOM      4  O   UNL     1       5.437   4.614  -2.125  1.00  0.00    -0.376 OA
BRANCH   4   5
ATOM      5  C   UNL     1       5.900   3.263  -2.108  1.00  0.00     0.202 C 
BRANCH   5   6
ATOM      6  C   UNL     1       5.246   2.241  -1.146  1.00  0.00     0.261 C 
BRANCH   6   7
ATOM      7  O   UNL     1       3.801   2.105  -1.242  1.00  0.00    -0.462 OA
BRANCH   7   8
ATOM      8  C   UNL     1       3.088   2.246  -0.094  1.00  0.00     0.325 C 
ATOM      9  O   UNL     1       3.611   2.439   1.005  1.00  0.00    -0.250 OA
BRANCH   8  10
ATOM     10  C   UNL     1       1.562   2.375  -0.252  1.00  0.00     0.241 C 
BRANCH  10  11
ATOM     11  N   UNL     1       0.836   1.510  -1.193  1.00  0.00    -0.341 N 
BRANCH  11  12
ATOM     12  C   UNL     1       0.578   0.056  -1.014  1.00  0.00     0.034 C 
ATOM     13  C   UNL     1       1.153  -0.473   0.307  1.00  0.00     0.034 C 
ATOM     14  C   UNL     1       1.198  -0.778  -2.157  1.00  0.00     0.034 C 
ATOM     15  C   UNL     1      -0.951  -0.204  -0.995  1.00  0.00     0.034 C 
ENDBRANCH  11  12
BRANCH  11  16
ATOM     16  C   UNL     1       0.301   2.098  -2.322  1.00  0.00     0.131 A 
ATOM     17  C   UNL     1      -0.858   2.873  -2.297  1.00  0.00     0.047 A 
ATOM     18  N   UNL     1       0.849   1.734  -3.481  1.00  0.00    -0.220 NA
ATOM     19  C   UNL     1      -1.441   3.282  -3.502  1.00  0.00     0.007 A 
ATOM     20  C   UNL     1       0.232   2.053  -4.628  1.00  0.00     0.142 A 
ATOM     21  C   UNL     1      -0.880   2.868  -4.703  1.00  0.00     0.040 A 
BRANCH  20  22
ATOM     22  C   UNL     1       0.690   1.283  -5.745  1.00  0.00     0.120 C 
ATOM     23  N   UNL     1       0.996   0.594  -6.618  1.00  0.00    -0.191 NA
ENDBRANCH  20  22
ENDBRANCH  11  16
ENDBRANCH  10  11
ENDBRANCH   8  10
ENDBRANCH   7   8
ENDBRANCH   6   7
ENDBRANCH   5   6
ENDBRANCH   4   5
ENDBRANCH   3   4
ENDBRANCH   2   3
ENDBRANCH   1   2
BRANCH   1  24
ATOM     24  C   UNL     1       4.109   2.847  -5.156  1.00  0.00     0.188 C 
BRANCH  24  25
ATOM     25  C   UNL     1       4.521   4.099  -5.939  1.00  0.00     0.188 C 
BRANCH  25  26
ATOM     26  O   UNL     1       3.556   5.126  -6.182  1.00  0.00    -0.376 OA
BRANCH  26  27
ATOM     27  C   UNL     1       2.202   4.774  -6.447  1.00  0.00     0.202 C 
BRANCH  27  28
ATOM     28  C   UNL     1       1.887   4.228  -7.836  1.00  0.00     0.261 C 
BRANCH  28  29
ATOM     29  O   UNL     1       2.312   2.863  -7.954  1.00  0.00    -0.460 OA
BRANCH  29  30
ATOM     30  C   UNL     1       3.383   2.647  -8.749  1.00  0.00     0.338 C 
ATOM     31  O   UNL     1       3.966   3.484  -9.419  1.00  0.00    -0.246 OA
BRANCH  30  32
ATOM     32  C   UNL     1       3.913   1.284  -8.541  1.00  0.00     0.060 A 
ATOM     33  C   UNL     1       5.271   1.175  -8.229  1.00  0.00     0.016 A 
ATOM     34  C   UNL     1       3.140   0.134  -8.712  1.00  0.00     0.016 A 
ATOM     35  C   UNL     1       5.872  -0.077  -8.138  1.00  0.00     0.010 A 
ATOM     36  C   UNL     1       3.740  -1.128  -8.603  1.00  0.00     0.010 A 
ATOM     37  C   UNL     1       5.123  -1.236  -8.371  1.00  0.00    -0.014 A 
BRANCH  37  38
ATOM     38  C   UNL     1       5.844  -2.516  -8.596  1.00  0.00     0.031 A 
ATOM     39  C   UNL     1       6.009  -3.004 -10.013  1.00  0.00     0.074 A 
ATOM     40  C   UNL     1       6.430  -3.179  -7.582  1.00  0.00     0.049 A 
ATOM     41  N   UNL     1       6.605  -4.080 -10.458  1.00  0.00    -0.248 NA
ATOM     42  C   UNL     1       5.429  -2.160 -11.072  1.00  0.00     0.031 C 
ATOM     43  C   UNL     1       6.401  -2.774  -6.177  1.00  0.00     0.029 A 
ATOM     44  N   UNL     1       7.173  -4.335  -7.583  1.00  0.00    -0.354 N 
ATOM     45  C   UNL     1       6.464  -4.046 -11.842  1.00  0.00     0.074 A 
ATOM     46  C   UNL     1       5.697  -2.863 -12.162  1.00  0.00     0.031 C 
ATOM     47  C   UNL     1       7.092  -3.671  -5.451  1.00  0.00     0.029 A 
ATOM     48  C   UNL     1       7.576  -4.734  -6.330  1.00  0.00     0.049 A 
ATOM     49  H   UNL     1       7.397  -4.830  -8.403  1.00  0.00     0.167 HD
ATOM     50  C   UNL     1       6.940  -4.915 -12.764  1.00  0.00     0.037 A 
ATOM     51  C   UNL     1       8.232  -5.845  -5.936  1.00  0.00     0.037 A 
ATOM     52  C   UNL     1       7.710  -6.088 -12.440  1.00  0.00     0.049 A 
ATOM     53  C   UNL     1       8.671  -6.849  -6.975  1.00  0.00     0.074 A 
ATOM     54  C   UNL     1       8.245  -7.028 -13.303  1.00  0.00     0.029 A 
ATOM     55  N   UNL     1       8.047  -6.488 -11.155  1.00  0.00    -0.354 N 
ATOM     56  N   UNL     1       8.542  -6.800  -8.280  1.00  0.00    -0.248 NA
ATOM     57  C   UNL     1       9.348  -8.060  -6.487  1.00  0.00     0.031 C 
ATOM     58  C   UNL     1       8.843  -8.033 -12.537  1.00  0.00     0.029 A 
ATOM     59  C   UNL     1       8.751  -7.681 -11.200  1.00  0.00     0.049 A 
ATOM     60  H   UNL     1       7.820  -5.998 -10.332  1.00  0.00     0.167 HD
ATOM     61  C   UNL     1       9.145  -7.956  -8.768  1.00  0.00     0.074 A 
ATOM     62  C   UNL     1       9.657  -8.674  -7.621  1.00  0.00     0.031 C 
ATOM     63  C   UNL     1       9.264  -8.385 -10.050  1.00  0.00     0.037 A 
BRANCH  50  64
ATOM     64  C   UNL     1       6.616  -4.655 -14.211  1.00  0.00     0.058 A 
ATOM     65  C   UNL     1       7.181  -3.584 -14.922  1.00  0.00     0.135 A 
ATOM     66  C   UNL     1       5.765  -5.526 -14.911  1.00  0.00     0.135 A 
ATOM     67  F   UNL     1       7.985  -2.707 -14.301  1.00  0.00    -0.206 F 
ATOM     68  C   UNL     1       6.900  -3.377 -16.270  1.00  0.00     0.059 A 
ATOM     69  C   UNL     1       5.497  -5.358 -16.266  1.00  0.00     0.059 A 
ATOM     70  F   UNL     1       5.192  -6.564 -14.281  1.00  0.00    -0.206 F 
ATOM     71  C   UNL     1       6.062  -4.274 -16.935  1.00  0.00     0.060 A 
BRANCH  71  72
ATOM     72  S   UNL     1       5.732  -4.007 -18.689  1.00  0.00     0.124 S 
ATOM     73  O   UNL     1       4.924  -2.792 -18.654  1.00  0.00    -0.237 OA
ATOM     74  O   UNL     1       7.077  -3.858 -19.237  1.00  0.00    -0.237 OA
ATOM     75  O   UNL     1       5.024  -5.217 -19.093  1.00  0.00    -0.744 OA
ENDBRANCH  71  72
ENDBRANCH  50  64
BRANCH  51  76
ATOM     76  C   UNL     1       8.486  -6.094  -4.488  1.00  0.00     0.058 A 
ATOM     77  C   UNL     1       9.789  -6.142  -3.969  1.00  0.00     0.135 A 
ATOM     78  C   UNL     1       7.425  -6.320  -3.596  1.00  0.00     0.135 A 
ATOM     79  F   UNL     1      10.842  -5.951  -4.779  1.00  0.00    -0.206 F 
ATOM     80  C   UNL     1      10.032  -6.424  -2.627  1.00  0.00     0.059 A 
ATOM     81  C   UNL     1       7.640  -6.568  -2.244  1.00  0.00     0.059 A 
ATOM     82  F   UNL     1       6.157  -6.285  -4.036  1.00  0.00    -0.206 F 
ATOM     83  C   UNL     1       8.949  -6.631  -1.771  1.00  0.00     0.060 A 
BRANCH  83  84
ATOM     84  S   UNL     1       9.274  -6.956  -0.025  1.00  0.00     0.124 S 
ATOM     85  O   UNL     1       9.859  -8.291  -0.077  1.00  0.00    -0.237 OA
ATOM     86  O   UNL     1      10.185  -5.871   0.322  1.00  0.00    -0.237 OA
ATOM     87  O   UNL     1       7.950  -6.872   0.585  1.00  0.00    -0.744 OA
ENDBRANCH  83  84
ENDBRANCH  51  76
BRANCH  63  88
ATOM     88  C   UNL     1      10.009  -9.672 -10.293  1.00  0.00     0.058 A 
ATOM     89  C   UNL     1       9.489 -10.918  -9.908  1.00  0.00     0.135 A 
ATOM     90  C   UNL     1      11.240  -9.663 -10.973  1.00  0.00     0.135 A 
ATOM     91  F   UNL     1       8.319 -10.988  -9.252  1.00  0.00    -0.206 F 
ATOM     92  C   UNL     1      10.173 -12.103 -10.160  1.00  0.00     0.059 A 
ATOM     93  C   UNL     1      11.923 -10.839 -11.269  1.00  0.00     0.059 A 
ATOM     94  F   UNL     1      11.781  -8.503 -11.378  1.00  0.00    -0.206 F 
ATOM     95  C   UNL     1      11.388 -12.054 -10.846  1.00  0.00     0.060 A 
BRANCH  95  96
ATOM     96  S   UNL     1      12.247 -13.603 -11.195  1.00  0.00     0.124 S 
ATOM     97  O   UNL     1      12.687 -14.003  -9.862  1.00  0.00    -0.237 OA
ATOM     98  O   UNL     1      11.189 -14.418 -11.784  1.00  0.00    -0.237 OA
ATOM     99  O   UNL     1      13.310 -13.206 -12.113  1.00  0.00    -0.744 OA
ENDBRANCH  95  96
ENDBRANCH  63  88
ENDBRANCH  37  38
ENDBRANCH  30  32
ENDBRANCH  29  30
ENDBRANCH  28  29
ENDBRANCH  27  28
ENDBRANCH  26  27
ENDBRANCH  25  26
ENDBRANCH  24  25
ENDBRANCH   1  24
TORSDOF 27
