REMARK SMILES O=C(N[C@H](C(=O)OCCOCCOCCOCCOC(=O)c1ccc(-c2c3nc(c(-c4c(F)cc(S(=O)(=O)[O-])cc4F)c4ccc([nH]4)c(-c4c(F)cc(S(=O)(=O)[O-])cc4F)c4nc(c(-c5c(F)cc(S(=O)(=O)[O-])cc5F)c5ccc2[nH]5)C=C4)C=C3)cc1)c1ccccc1F)c1ccc(C[NH+]2CCCCC2)cc1
REMARK SMILES IDX 12 1 11 2 10 3 9 4 8 5 7 6 5 7 6 8 4 9 3 10 1 11 2 12 95 14
REMARK SMILES IDX 96 15 107 16 97 17 106 18 98 19 99 20 100 21 101 22 105 23
REMARK SMILES IDX 102 25 104 26 103 27 88 28 89 29 93 30 90 31 92 32 94 33
REMARK SMILES IDX 91 34 13 35 14 36 15 37 16 38 17 39 18 40 19 41 20 42 21 43
REMARK SMILES IDX 22 44 23 45 87 46 24 47 86 48 25 49 26 50 27 51 80 52 28 53
REMARK SMILES IDX 85 54 79 55 81 56 29 57 84 58 78 59 77 60 30 62 64 63 43 64
REMARK SMILES IDX 63 65 44 66 47 67 62 68 82 69 45 70 46 71 61 73 83 74 48 75
REMARK SMILES IDX 31 76 32 77 41 78 33 79 34 80 40 81 42 82 35 83 36 84 37 85
REMARK SMILES IDX 38 86 39 87 65 88 66 89 75 90 67 91 68 92 74 93 76 94 69 95
REMARK SMILES IDX 70 96 71 97 72 98 73 99 49 100 50 101 59 102 51 103 52 104
REMARK SMILES IDX 58 105 60 106 53 107 54 108 55 109 56 110 57 111
REMARK H PARENT 3 13 100 24 81 61 47 72
REMARK Flexibility Score: inf
ROOT
ATOM      1  C   UNL     1       2.773   0.942  -3.512  1.00  0.00     0.188 C 
ENDROOT
BRANCH   1   2
ATOM      2  C   UNL     1       1.974  -0.274  -2.984  1.00  0.00     0.188 C 
BRANCH   2   3
ATOM      3  O   UNL     1       0.624  -0.038  -2.658  1.00  0.00    -0.376 OA
BRANCH   3   4
ATOM      4  C   UNL     1       0.223   0.203  -1.321  1.00  0.00     0.202 C 
BRANCH   4   5
ATOM      5  C   UNL     1       1.178   0.652  -0.201  1.00  0.00     0.261 C 
BRANCH   5   6
ATOM      6  O   UNL     1       2.508   0.988  -0.605  1.00  0.00    -0.461 OA
BRANCH   6   7
ATOM      7  C   UNL     1       3.528   0.278  -0.053  1.00  0.00     0.333 C 
ATOM      8  O   UNL     1       3.357  -0.714   0.654  1.00  0.00    -0.249 OA
BRANCH   7   9
ATOM      9  C   UNL     1       4.927   0.665  -0.590  1.00  0.00     0.226 C 
BRANCH   9  10
ATOM     10  N   UNL     1       5.258  -0.418  -1.575  1.00  0.00    -0.335 N 
ATOM     11  O   UNL     1       6.425  -1.817  -2.901  1.00  0.00    -0.269 OA
ATOM     12  C   UNL     1       6.419  -1.026  -1.965  1.00  0.00     0.252 C 
ATOM     13  H   UNL     1       4.465  -0.767  -2.043  1.00  0.00     0.165 HD
BRANCH  12  14
ATOM     14  C   UNL     1       7.675  -0.656  -1.305  1.00  0.00     0.039 A 
ATOM     15  C   UNL     1       7.773  -0.739   0.079  1.00  0.00     0.014 A 
ATOM     16  C   UNL     1       8.688  -0.071  -2.071  1.00  0.00     0.014 A 
ATOM     17  C   UNL     1       8.800  -0.060   0.717  1.00  0.00     0.010 A 
ATOM     18  C   UNL     1       9.695   0.640  -1.423  1.00  0.00     0.010 A 
ATOM     19  C   UNL     1       9.711   0.715  -0.022  1.00  0.00     0.006 A 
BRANCH  19  20
ATOM     20  C   UNL     1      10.645   1.668   0.696  1.00  0.00     0.299 C 
BRANCH  20  21
ATOM     21  N   UNL     1      10.056   2.936   1.170  1.00  0.00    -0.331 N 
ATOM     22  C   UNL     1       9.678   3.850   0.086  1.00  0.00     0.262 C 
ATOM     23  C   UNL     1       8.956   2.762   2.128  1.00  0.00     0.262 C 
ATOM     24  H   UNL     1      10.818   3.380   1.682  1.00  0.00     0.348 HD
ATOM     25  C   UNL     1       9.255   5.218   0.637  1.00  0.00     0.062 C 
ATOM     26  C   UNL     1       8.533   4.092   2.748  1.00  0.00     0.062 C 
ATOM     27  C   UNL     1       8.139   5.091   1.669  1.00  0.00     0.012 C 
ENDBRANCH  20  21
ENDBRANCH  19  20
ENDBRANCH  12  14
ENDBRANCH   9  10
BRANCH   9  28
ATOM     28  C   UNL     1       5.152   2.093  -1.095  1.00  0.00     0.021 A 
ATOM     29  C   UNL     1       6.188   2.392  -1.998  1.00  0.00     0.009 A 
ATOM     30  C   UNL     1       4.447   3.195  -0.590  1.00  0.00     0.129 A 
ATOM     31  C   UNL     1       6.502   3.702  -2.377  1.00  0.00     0.001 A 
ATOM     32  C   UNL     1       4.704   4.503  -1.014  1.00  0.00     0.039 A 
ATOM     33  F   UNL     1       3.519   3.034   0.364  1.00  0.00    -0.207 F 
ATOM     34  C   UNL     1       5.746   4.761  -1.898  1.00  0.00     0.003 A 
ENDBRANCH   9  28
ENDBRANCH   7   9
ENDBRANCH   6   7
ENDBRANCH   5   6
ENDBRANCH   4   5
ENDBRANCH   3   4
ENDBRANCH   2   3
ENDBRANCH   1   2
BRANCH   1  35
ATOM     35  O   UNL     1       2.341   2.263  -3.245  1.00  0.00    -0.377 OA
BRANCH  35  36
ATOM     36  C   UNL     1       0.994   2.631  -3.505  1.00  0.00     0.188 C 
BRANCH  36  37
ATOM     37  C   UNL     1       0.183   1.930  -4.618  1.00  0.00     0.188 C 
BRANCH  37  38
ATOM     38  O   UNL     1       0.904   0.985  -5.390  1.00  0.00    -0.376 OA
BRANCH  38  39
ATOM     39  C   UNL     1       1.342   1.381  -6.680  1.00  0.00     0.202 C 
BRANCH  39  40
ATOM     40  C   UNL     1       2.300   2.580  -6.782  1.00  0.00     0.261 C 
BRANCH  40  41
ATOM     41  O   UNL     1       1.859   3.801  -6.170  1.00  0.00    -0.460 OA
BRANCH  41  42
ATOM     42  C   UNL     1       0.746   4.372  -6.673  1.00  0.00     0.338 C 
ATOM     43  O   UNL     1       0.070   3.969  -7.609  1.00  0.00    -0.246 OA
BRANCH  42  44
ATOM     44  C   UNL     1       0.363   5.477  -5.776  1.00  0.00     0.060 A 
ATOM     45  C   UNL     1      -0.871   5.421  -5.113  1.00  0.00     0.016 A 
ATOM     46  C   UNL     1       1.218   6.566  -5.596  1.00  0.00     0.016 A 
ATOM     47  C   UNL     1      -1.274   6.480  -4.301  1.00  0.00     0.010 A 
ATOM     48  C   UNL     1       0.801   7.638  -4.803  1.00  0.00     0.010 A 
ATOM     49  C   UNL     1      -0.464   7.617  -4.189  1.00  0.00    -0.014 A 
BRANCH  49  50
ATOM     50  C   UNL     1      -1.040   8.868  -3.642  1.00  0.00     0.031 A 
ATOM     51  C   UNL     1      -1.559   9.888  -4.621  1.00  0.00     0.074 A 
ATOM     52  C   UNL     1      -1.131   9.085  -2.318  1.00  0.00     0.049 A 
ATOM     53  N   UNL     1      -2.055  11.076  -4.399  1.00  0.00    -0.248 NA
ATOM     54  C   UNL     1      -1.506   9.515  -6.045  1.00  0.00     0.031 C 
ATOM     55  C   UNL     1      -0.711   8.152  -1.276  1.00  0.00     0.029 A 
ATOM     56  N   UNL     1      -1.604  10.173  -1.627  1.00  0.00    -0.354 N 
ATOM     57  C   UNL     1      -2.362  11.595  -5.652  1.00  0.00     0.074 A 
ATOM     58  C   UNL     1      -1.967  10.608  -6.631  1.00  0.00     0.031 C 
ATOM     59  C   UNL     1      -0.932   8.714  -0.074  1.00  0.00     0.029 A 
ATOM     60  C   UNL     1      -1.475  10.059  -0.264  1.00  0.00     0.049 A 
ATOM     61  H   UNL     1      -1.999  10.961  -2.067  1.00  0.00     0.167 HD
ATOM     62  C   UNL     1      -2.933  12.784  -5.958  1.00  0.00     0.037 A 
ATOM     63  C   UNL     1      -1.742  10.950   0.713  1.00  0.00     0.037 A 
ATOM     64  C   UNL     1      -3.324  13.761  -4.976  1.00  0.00     0.049 A 
ATOM     65  C   UNL     1      -2.307  12.300   0.344  1.00  0.00     0.074 A 
ATOM     66  C   UNL     1      -3.920  14.992  -5.180  1.00  0.00     0.029 A 
ATOM     67  N   UNL     1      -3.151  13.621  -3.607  1.00  0.00    -0.354 N 
ATOM     68  N   UNL     1      -2.608  12.775  -0.843  1.00  0.00    -0.248 NA
ATOM     69  C   UNL     1      -2.571  13.236   1.446  1.00  0.00     0.031 C 
ATOM     70  C   UNL     1      -4.052  15.623  -3.939  1.00  0.00     0.029 A 
ATOM     71  C   UNL     1      -3.604  14.755  -2.955  1.00  0.00     0.049 A 
ATOM     72  H   UNL     1      -2.764  12.832  -3.164  1.00  0.00     0.167 HD
ATOM     73  C   UNL     1      -3.132  14.047  -0.625  1.00  0.00     0.074 A 
ATOM     74  C   UNL     1      -3.112  14.264   0.807  1.00  0.00     0.031 C 
ATOM     75  C   UNL     1      -3.590  14.951  -1.526  1.00  0.00     0.037 A 
BRANCH  62  76
ATOM     76  C   UNL     1      -3.137  13.107  -7.413  1.00  0.00     0.058 A 
ATOM     77  C   UNL     1      -4.087  12.434  -8.198  1.00  0.00     0.135 A 
ATOM     78  C   UNL     1      -2.389  14.127  -8.024  1.00  0.00     0.135 A 
ATOM     79  F   UNL     1      -4.814  11.434  -7.672  1.00  0.00    -0.206 F 
ATOM     80  C   UNL     1      -4.273  12.745  -9.541  1.00  0.00     0.059 A 
ATOM     81  C   UNL     1      -2.580  14.476  -9.357  1.00  0.00     0.059 A 
ATOM     82  F   UNL     1      -1.462  14.798  -7.323  1.00  0.00    -0.206 F 
ATOM     83  C   UNL     1      -3.516  13.770 -10.111  1.00  0.00     0.060 A 
BRANCH  83  84
ATOM     84  S   UNL     1      -3.780  14.171 -11.851  1.00  0.00     0.124 S 
ATOM     85  O   UNL     1      -3.204  13.002 -12.509  1.00  0.00    -0.237 OA
ATOM     86  O   UNL     1      -5.232  14.289 -11.925  1.00  0.00    -0.237 OA
ATOM     87  O   UNL     1      -3.042  15.417 -12.030  1.00  0.00    -0.744 OA
ENDBRANCH  83  84
ENDBRANCH  62  76
BRANCH  63  88
ATOM     88  C   UNL     1      -1.466  10.606   2.135  1.00  0.00     0.058 A 
ATOM     89  C   UNL     1      -2.507  10.454   3.063  1.00  0.00     0.135 A 
ATOM     90  C   UNL     1      -0.151  10.437   2.599  1.00  0.00     0.135 A 
ATOM     91  F   UNL     1      -3.781  10.619   2.675  1.00  0.00    -0.206 F 
ATOM     92  C   UNL     1      -2.256  10.164   4.401  1.00  0.00     0.059 A 
ATOM     93  C   UNL     1       0.123  10.117   3.925  1.00  0.00     0.059 A 
ATOM     94  F   UNL     1       0.883  10.564   1.753  1.00  0.00    -0.206 F 
ATOM     95  C   UNL     1      -0.936   9.993   4.822  1.00  0.00     0.060 A 
BRANCH  95  96
ATOM     96  S   UNL     1      -0.626   9.572   6.550  1.00  0.00     0.124 S 
ATOM     97  O   UNL     1      -0.957  10.823   7.222  1.00  0.00    -0.237 OA
ATOM     98  O   UNL     1      -1.553   8.465   6.765  1.00  0.00    -0.237 OA
ATOM     99  O   UNL     1       0.787   9.206   6.558  1.00  0.00    -0.744 OA
ENDBRANCH  95  96
ENDBRANCH  63  88
BRANCH  75 100
ATOM    100  C   UNL     1      -4.160  16.242  -0.997  1.00  0.00     0.058 A 
ATOM    101  C   UNL     1      -3.350  17.236  -0.428  1.00  0.00     0.135 A 
ATOM    102  C   UNL     1      -5.534  16.510  -1.121  1.00  0.00     0.135 A 
ATOM    103  F   UNL     1      -2.031  17.032  -0.282  1.00  0.00    -0.206 F 
ATOM    104  C   UNL     1      -3.885  18.439   0.024  1.00  0.00     0.059 A 
ATOM    105  C   UNL     1      -6.085  17.718  -0.707  1.00  0.00     0.059 A 
ATOM    106  F   UNL     1      -6.354  15.600  -1.670  1.00  0.00    -0.206 F 
ATOM    107  C   UNL     1      -5.253  18.672  -0.123  1.00  0.00     0.060 A 
BRANCH 107 108
ATOM    108  S   UNL     1      -5.927  20.250   0.437  1.00  0.00     0.124 S 
ATOM    109  O   UNL     1      -5.854  20.104   1.887  1.00  0.00    -0.237 OA
ATOM    110  O   UNL     1      -4.999  21.212  -0.150  1.00  0.00    -0.237 OA
ATOM    111  O   UNL     1      -7.275  20.265  -0.124  1.00  0.00    -0.744 OA
ENDBRANCH 107 108
ENDBRANCH  75 100
ENDBRANCH  49  50
ENDBRANCH  42  44
ENDBRANCH  41  42
ENDBRANCH  40  41
ENDBRANCH  39  40
ENDBRANCH  38  39
ENDBRANCH  37  38
ENDBRANCH  36  37
ENDBRANCH  35  36
ENDBRANCH   1  35
TORSDOF 28
