REMARK SMILES CCOC(=O)[C@H]1CCCN(c2cc(C(=O)OCCOCCOCCOCCOC(=O)c3ccc(-c4c5nc(c(-c6c(F)cc(S(=O)(=O)[O-])cc6F)c6ccc([nH]6)c(-c6c(F)cc(S(=O)(=O)[O-])cc6F)c6nc(c(-c7c(F)cc(S(=O)(=O)[O-])cc7F)c7ccc4[nH]7)C=C6)C=C5)cc3)c3cc(NC(=O)c4ccc(Cl)cc4)ccc3n2)C1
REMARK SMILES IDX 21 1 20 2 19 3 18 4 17 5 16 6 14 7 15 8 13 9 11 10 12 11
REMARK SMILES IDX 113 12 112 13 97 14 111 15 98 16 110 17 99 18 10 19 6 20
REMARK SMILES IDX 7 21 114 22 8 23 9 24 4 25 5 26 3 27 2 28 1 29 100 30 101 31
REMARK SMILES IDX 102 33 103 34 104 35 109 36 105 37 108 38 106 39 107 40
REMARK SMILES IDX 22 41 23 42 24 43 25 44 26 45 27 46 28 47 29 48 30 49 31 50
REMARK SMILES IDX 32 51 96 52 33 53 95 54 34 55 35 56 36 57 89 58 37 59 94 60
REMARK SMILES IDX 88 61 90 62 38 63 93 64 87 65 86 66 39 68 73 69 52 70 72 71
REMARK SMILES IDX 53 72 56 73 71 74 91 75 54 76 55 77 70 79 92 80 57 81 40 82
REMARK SMILES IDX 41 83 50 84 42 85 43 86 49 87 51 88 44 89 45 90 46 91 47 92
REMARK SMILES IDX 48 93 74 94 75 95 84 96 76 97 77 98 83 99 85 100 78 101
REMARK SMILES IDX 79 102 80 103 81 104 82 105 58 106 59 107 68 108 60 109
REMARK SMILES IDX 61 110 67 111 69 112 62 113 63 114 64 115 65 116 66 117
REMARK H PARENT 100 32 90 67 56 78
REMARK Flexibility Score: inf
ROOT
ATOM      1  C   UNL     1      -1.523  -0.281   3.252  1.00  0.00     0.188 C 
ENDROOT
BRANCH   1   2
ATOM      2  C   UNL     1      -0.754   0.406   2.097  1.00  0.00     0.188 C 
BRANCH   2   3
ATOM      3  O   UNL     1      -1.312   1.583   1.557  1.00  0.00    -0.376 OA
BRANCH   3   4
ATOM      4  C   UNL     1      -2.245   1.610   0.496  1.00  0.00     0.202 C 
BRANCH   4   5
ATOM      5  C   UNL     1      -3.030   0.393  -0.001  1.00  0.00     0.261 C 
BRANCH   5   6
ATOM      6  O   UNL     1      -2.977  -0.759   0.837  1.00  0.00    -0.460 OA
BRANCH   6   7
ATOM      7  C   UNL     1      -2.607  -1.905   0.224  1.00  0.00     0.339 C 
ATOM      8  O   UNL     1      -2.408  -2.064  -0.969  1.00  0.00    -0.246 OA
BRANCH   7   9
ATOM      9  C   UNL     1      -2.226  -2.935   1.212  1.00  0.00     0.073 A 
ATOM     10  C   UNL     1      -0.498  -4.429   1.887  1.00  0.00     0.130 A 
ATOM     11  C   UNL     1      -0.901  -3.349   1.133  1.00  0.00     0.063 A 
ATOM     12  N   UNL     1      -1.376  -5.141   2.617  1.00  0.00    -0.231 NA
ATOM     13  C   UNL     1      -2.643  -4.712   2.741  1.00  0.00     0.074 A 
ATOM     14  C   UNL     1      -3.115  -3.549   2.114  1.00  0.00     0.017 A 
ATOM     15  C   UNL     1      -3.523  -5.441   3.528  1.00  0.00     0.031 A 
ATOM     16  C   UNL     1      -4.410  -3.076   2.432  1.00  0.00     0.037 A 
ATOM     17  C   UNL     1      -4.834  -5.012   3.766  1.00  0.00     0.028 A 
ATOM     18  C   UNL     1      -5.285  -3.807   3.232  1.00  0.00     0.042 A 
BRANCH  10  19
ATOM     19  N   UNL     1       0.807  -4.839   1.855  1.00  0.00    -0.356 N 
ATOM     20  C   UNL     1       2.912  -3.693   1.351  1.00  0.00     0.118 C 
ATOM     21  C   UNL     1       3.283  -4.912   0.485  1.00  0.00     0.019 C 
ATOM     22  C   UNL     1       1.882  -4.041   2.425  1.00  0.00     0.133 C 
ATOM     23  C   UNL     1       2.049  -5.656  -0.032  1.00  0.00     0.022 C 
ATOM     24  C   UNL     1       1.128  -6.046   1.124  1.00  0.00     0.118 C 
BRANCH  20  25
ATOM     25  C   UNL     1       4.149  -3.147   2.033  1.00  0.00     0.310 C 
ATOM     26  O   UNL     1       5.124  -3.818   2.347  1.00  0.00    -0.252 OA
BRANCH  25  27
ATOM     27  O   UNL     1       4.023  -1.810   2.260  1.00  0.00    -0.466 OA
BRANCH  27  28
ATOM     28  C   UNL     1       5.171  -1.173   2.846  1.00  0.00     0.229 C 
ATOM     29  C   UNL     1       5.166  -1.335   4.355  1.00  0.00     0.049 C 
ENDBRANCH  27  28
ENDBRANCH  25  27
ENDBRANCH  20  25
ENDBRANCH  10  19
BRANCH  18  30
ATOM     30  N   UNL     1      -6.577  -3.385   3.588  1.00  0.00    -0.322 N 
ATOM     31  C   UNL     1      -7.361  -2.330   3.175  1.00  0.00     0.255 C 
ATOM     32  H   UNL     1      -7.008  -3.956   4.266  1.00  0.00     0.170 HD
ATOM     33  O   UNL     1      -8.311  -1.980   3.871  1.00  0.00    -0.269 OA
BRANCH  31  34
ATOM     34  C   UNL     1      -7.117  -1.616   1.903  1.00  0.00     0.040 A 
ATOM     35  C   UNL     1      -7.171  -0.218   1.904  1.00  0.00     0.015 A 
ATOM     36  C   UNL     1      -6.860  -2.309   0.712  1.00  0.00     0.015 A 
ATOM     37  C   UNL     1      -6.933   0.489   0.724  1.00  0.00     0.021 A 
ATOM     38  C   UNL     1      -6.588  -1.599  -0.460  1.00  0.00     0.021 A 
ATOM     39  C   UNL     1      -6.640  -0.205  -0.452  1.00  0.00     0.041 A 
ATOM     40  Cl  UNL     1      -6.310   0.667  -1.900  1.00  0.00    -0.084 Cl
ENDBRANCH  31  34
ENDBRANCH  18  30
ENDBRANCH   7   9
ENDBRANCH   6   7
ENDBRANCH   5   6
ENDBRANCH   4   5
ENDBRANCH   3   4
ENDBRANCH   2   3
ENDBRANCH   1   2
BRANCH   1  41
ATOM     41  O   UNL     1      -2.186   0.501   4.228  1.00  0.00    -0.377 OA
BRANCH  41  42
ATOM     42  C   UNL     1      -3.073   1.490   3.740  1.00  0.00     0.188 C 
BRANCH  42  43
ATOM     43  C   UNL     1      -2.477   2.909   3.797  1.00  0.00     0.188 C 
BRANCH  43  44
ATOM     44  O   UNL     1      -1.135   3.131   4.207  1.00  0.00    -0.376 OA
BRANCH  44  45
ATOM     45  C   UNL     1      -0.542   2.354   5.234  1.00  0.00     0.202 C 
BRANCH  45  46
ATOM     46  C   UNL     1      -1.265   2.007   6.553  1.00  0.00     0.261 C 
BRANCH  46  47
ATOM     47  O   UNL     1      -2.692   2.078   6.577  1.00  0.00    -0.460 OA
BRANCH  47  48
ATOM     48  C   UNL     1      -3.205   3.286   6.903  1.00  0.00     0.338 C 
ATOM     49  O   UNL     1      -2.594   4.304   7.158  1.00  0.00    -0.246 OA
BRANCH  48  50
ATOM     50  C   UNL     1      -4.672   3.212   6.750  1.00  0.00     0.060 A 
ATOM     51  C   UNL     1      -5.292   4.041   5.806  1.00  0.00     0.016 A 
ATOM     52  C   UNL     1      -5.430   2.368   7.564  1.00  0.00     0.016 A 
ATOM     53  C   UNL     1      -6.678   4.054   5.691  1.00  0.00     0.010 A 
ATOM     54  C   UNL     1      -6.823   2.408   7.473  1.00  0.00     0.010 A 
ATOM     55  C   UNL     1      -7.449   3.280   6.564  1.00  0.00    -0.014 A 
BRANCH  55  56
ATOM     56  C   UNL     1      -8.896   3.562   6.686  1.00  0.00     0.031 A 
ATOM     57  C   UNL     1      -9.349   4.471   7.792  1.00  0.00     0.074 A 
ATOM     58  C   UNL     1      -9.783   3.037   5.824  1.00  0.00     0.049 A 
ATOM     59  N   UNL     1     -10.559   4.813   8.145  1.00  0.00    -0.248 NA
ATOM     60  C   UNL     1      -8.286   5.067   8.619  1.00  0.00     0.031 C 
ATOM     61  C   UNL     1      -9.448   2.173   4.696  1.00  0.00     0.029 A 
ATOM     62  N   UNL     1     -11.149   3.140   5.783  1.00  0.00    -0.354 N 
ATOM     63  C   UNL     1     -10.407   5.649   9.244  1.00  0.00     0.074 A 
ATOM     64  C   UNL     1      -8.989   5.738   9.517  1.00  0.00     0.031 C 
ATOM     65  C   UNL     1     -10.585   1.795   4.088  1.00  0.00     0.029 A 
ATOM     66  C   UNL     1     -11.725   2.365   4.806  1.00  0.00     0.049 A 
ATOM     67  H   UNL     1     -11.667   3.713   6.393  1.00  0.00     0.167 HD
ATOM     68  C   UNL     1     -11.364   6.287   9.958  1.00  0.00     0.037 A 
ATOM     69  C   UNL     1     -13.024   2.117   4.549  1.00  0.00     0.037 A 
ATOM     70  C   UNL     1     -12.772   6.173   9.683  1.00  0.00     0.049 A 
ATOM     71  C   UNL     1     -14.080   2.786   5.389  1.00  0.00     0.074 A 
ATOM     72  C   UNL     1     -13.829   6.789  10.329  1.00  0.00     0.029 A 
ATOM     73  N   UNL     1     -13.322   5.374   8.689  1.00  0.00    -0.354 N 
ATOM     74  N   UNL     1     -13.930   3.600   6.409  1.00  0.00    -0.248 NA
ATOM     75  C   UNL     1     -15.480   2.509   5.043  1.00  0.00     0.031 C 
ATOM     76  C   UNL     1     -15.019   6.315   9.766  1.00  0.00     0.029 A 
ATOM     77  C   UNL     1     -14.705   5.455   8.724  1.00  0.00     0.049 A 
ATOM     78  H   UNL     1     -12.806   4.829   8.053  1.00  0.00     0.167 HD
ATOM     79  C   UNL     1     -15.215   3.947   6.814  1.00  0.00     0.074 A 
ATOM     80  C   UNL     1     -16.129   3.264   5.920  1.00  0.00     0.031 C 
ATOM     81  C   UNL     1     -15.602   4.761   7.830  1.00  0.00     0.037 A 
BRANCH  68  82
ATOM     82  C   UNL     1     -10.909   7.111  11.133  1.00  0.00     0.058 A 
ATOM     83  C   UNL     1     -10.161   8.290  10.972  1.00  0.00     0.135 A 
ATOM     84  C   UNL     1     -11.198   6.697  12.443  1.00  0.00     0.135 A 
ATOM     85  F   UNL     1      -9.838   8.725   9.743  1.00  0.00    -0.206 F 
ATOM     86  C   UNL     1      -9.670   8.996  12.067  1.00  0.00     0.059 A 
ATOM     87  C   UNL     1     -10.748   7.406  13.552  1.00  0.00     0.059 A 
ATOM     88  F   UNL     1     -11.909   5.579  12.658  1.00  0.00    -0.206 F 
ATOM     89  C   UNL     1      -9.962   8.540  13.353  1.00  0.00     0.060 A 
BRANCH  89  90
ATOM     90  S   UNL     1      -9.283   9.440  14.763  1.00  0.00     0.124 S 
ATOM     91  O   UNL     1      -7.872   9.069  14.692  1.00  0.00    -0.237 OA
ATOM     92  O   UNL     1      -9.591  10.826  14.427  1.00  0.00    -0.237 OA
ATOM     93  O   UNL     1     -10.017   8.895  15.901  1.00  0.00    -0.744 OA
ENDBRANCH  89  90
ENDBRANCH  68  82
BRANCH  69  94
ATOM     94  C   UNL     1     -13.379   1.178   3.453  1.00  0.00     0.058 A 
ATOM     95  C   UNL     1     -13.936   1.638   2.252  1.00  0.00     0.135 A 
ATOM     96  C   UNL     1     -13.104  -0.195   3.563  1.00  0.00     0.135 A 
ATOM     97  F   UNL     1     -14.231   2.938   2.103  1.00  0.00    -0.206 F 
ATOM     98  C   UNL     1     -14.195   0.774   1.192  1.00  0.00     0.059 A 
ATOM     99  C   UNL     1     -13.329  -1.074   2.508  1.00  0.00     0.059 A 
ATOM    100  F   UNL     1     -12.573  -0.684   4.694  1.00  0.00    -0.206 F 
ATOM    101  C   UNL     1     -13.873  -0.579   1.325  1.00  0.00     0.060 A 
BRANCH 101 102
ATOM    102  S   UNL     1     -14.118  -1.668  -0.096  1.00  0.00     0.124 S 
ATOM    103  O   UNL     1     -15.572  -1.749  -0.160  1.00  0.00    -0.237 OA
ATOM    104  O   UNL     1     -13.473  -0.917  -1.169  1.00  0.00    -0.237 OA
ATOM    105  O   UNL     1     -13.434  -2.897   0.296  1.00  0.00    -0.744 OA
ENDBRANCH 101 102
ENDBRANCH  69  94
BRANCH  81 106
ATOM    106  C   UNL     1     -17.080   4.986   8.018  1.00  0.00     0.058 A 
ATOM    107  C   UNL     1     -17.926   3.983   8.518  1.00  0.00     0.135 A 
ATOM    108  C   UNL     1     -17.645   6.244   7.750  1.00  0.00     0.135 A 
ATOM    109  F   UNL     1     -17.441   2.761   8.786  1.00  0.00    -0.206 F 
ATOM    110  C   UNL     1     -19.284   4.214   8.724  1.00  0.00     0.059 A 
ATOM    111  C   UNL     1     -18.992   6.506   7.979  1.00  0.00     0.059 A 
ATOM    112  F   UNL     1     -16.880   7.243   7.282  1.00  0.00    -0.206 F 
ATOM    113  C   UNL     1     -19.807   5.480   8.455  1.00  0.00     0.060 A 
BRANCH 113 114
ATOM    114  S   UNL     1     -21.562   5.774   8.758  1.00  0.00     0.124 S 
ATOM    115  O   UNL     1     -22.179   5.023   7.670  1.00  0.00    -0.237 OA
ATOM    116  O   UNL     1     -21.745   5.220  10.095  1.00  0.00    -0.237 OA
ATOM    117  O   UNL     1     -21.685   7.226   8.666  1.00  0.00    -0.744 OA
ENDBRANCH 113 114
ENDBRANCH  81 106
ENDBRANCH  55  56
ENDBRANCH  48  50
ENDBRANCH  47  48
ENDBRANCH  46  47
ENDBRANCH  45  46
ENDBRANCH  44  45
ENDBRANCH  43  44
ENDBRANCH  42  43
ENDBRANCH  41  42
ENDBRANCH   1  41
TORSDOF 29
