REMARK SMILES Cc1ccccc1C(=O)Nc1ccc(N2CCCCC2)cc1C(=O)OCCOCCOCCOCCOC(=O)c1ccc(-c2c3nc(c(-c4c(F)cc(S(=O)(=O)[O-])cc4F)c4ccc([nH]4)c(-c4c(F)cc(S(=O)(=O)[O-])cc4F)c4nc(c(-c5c(F)cc(S(=O)(=O)[O-])cc5F)c5ccc2[nH]5)C=C4)C=C3)cc1
REMARK SMILES IDX 32 1 31 2 30 3 29 4 28 5 27 6 26 7 25 8 23 9 24 10 22 11
REMARK SMILES IDX 11 12 12 13 13 14 21 15 14 16 10 17 8 18 9 19 7 21 1 22 2 23
REMARK SMILES IDX 3 24 4 25 6 26 5 27 15 28 16 29 20 30 17 31 19 32 18 33
REMARK SMILES IDX 33 34 34 35 35 36 36 37 37 38 38 39 39 40 40 41 41 42 105 43
REMARK SMILES IDX 42 44 104 45 43 46 44 47 45 48 98 49 46 50 103 51 97 52
REMARK SMILES IDX 99 53 47 54 102 55 96 56 95 57 48 59 82 60 61 61 81 62 62 63
REMARK SMILES IDX 65 64 80 65 100 66 63 67 64 68 79 70 101 71 66 72 49 73
REMARK SMILES IDX 50 74 59 75 51 76 52 77 58 78 60 79 53 80 54 81 55 82 56 83
REMARK SMILES IDX 57 84 83 85 84 86 93 87 85 88 86 89 92 90 94 91 87 92 88 93
REMARK SMILES IDX 89 94 90 95 91 96 67 97 68 98 77 99 69 100 70 101 76 102
REMARK SMILES IDX 78 103 71 104 72 105 73 106 74 107 75 108
REMARK H PARENT 10 20 99 58 65 69
REMARK Flexibility Score: inf
ROOT
ATOM      1  C   UNL     1      -1.035  -1.632  -0.301  1.00  0.00     0.188 C 
ENDROOT
BRANCH   1   2
ATOM      2  O   UNL     1      -0.040  -0.627  -0.051  1.00  0.00    -0.377 OA
BRANCH   2   3
ATOM      3  C   UNL     1      -0.500   0.733  -0.108  1.00  0.00     0.188 C 
BRANCH   3   4
ATOM      4  C   UNL     1       0.665   1.710  -0.018  1.00  0.00     0.188 C 
BRANCH   4   5
ATOM      5  O   UNL     1       0.721   2.865  -0.825  1.00  0.00    -0.376 OA
BRANCH   5   6
ATOM      6  C   UNL     1       0.879   2.601  -2.192  1.00  0.00     0.202 C 
BRANCH   6   7
ATOM      7  C   UNL     1       2.244   2.143  -2.730  1.00  0.00     0.261 C 
BRANCH   7   8
ATOM      8  O   UNL     1       3.100   1.393  -1.883  1.00  0.00    -0.460 OA
BRANCH   8   9
ATOM      9  C   UNL     1       4.090   2.145  -1.367  1.00  0.00     0.340 C 
ATOM     10  O   UNL     1       4.265   3.355  -1.457  1.00  0.00    -0.246 OA
BRANCH   9  11
ATOM     11  C   UNL     1       4.841   1.331  -0.427  1.00  0.00     0.085 A 
ATOM     12  C   UNL     1       4.589   1.531   0.933  1.00  0.00     0.056 A 
ATOM     13  C   UNL     1       5.342   0.856   1.867  1.00  0.00     0.029 A 
ATOM     14  C   UNL     1       6.113  -0.215   1.442  1.00  0.00     0.028 A 
ATOM     15  C   UNL     1       5.527   0.185  -0.850  1.00  0.00     0.043 A 
ATOM     16  C   UNL     1       6.030  -0.691   0.118  1.00  0.00     0.038 A 
BRANCH  12  17
ATOM     17  N   UNL     1       3.488   2.279   1.348  1.00  0.00    -0.321 N 
ATOM     18  C   UNL     1       2.542   1.975   2.309  1.00  0.00     0.255 C 
ATOM     19  O   UNL     1       2.035   2.945   2.886  1.00  0.00    -0.269 OA
ATOM     20  H   UNL     1       3.368   3.145   0.894  1.00  0.00     0.170 HD
BRANCH  18  21
ATOM     21  C   UNL     1       1.909   0.579   2.554  1.00  0.00     0.043 A 
ATOM     22  C   UNL     1       2.901  -1.064   0.770  1.00  0.00     0.045 C 
ATOM     23  C   UNL     1       2.134  -0.703   1.999  1.00  0.00    -0.038 A 
ATOM     24  C   UNL     1       1.423  -1.837   2.473  1.00  0.00     0.004 A 
ATOM     25  C   UNL     1       0.302  -1.702   3.265  1.00  0.00     0.000 A 
ATOM     26  C   UNL     1       0.716   0.670   3.319  1.00  0.00     0.014 A 
ATOM     27  C   UNL     1      -0.095  -0.431   3.627  1.00  0.00     0.001 A 
ENDBRANCH  18  21
ENDBRANCH  12  17
BRANCH  16  28
ATOM     28  N   UNL     1       6.239  -2.033  -0.126  1.00  0.00    -0.372 N 
ATOM     29  C   UNL     1       5.879  -3.038   0.886  1.00  0.00     0.116 C 
ATOM     30  C   UNL     1       6.570  -2.605  -1.422  1.00  0.00     0.116 C 
ATOM     31  C   UNL     1       7.118  -3.859   1.193  1.00  0.00     0.021 C 
ATOM     32  C   UNL     1       7.867  -3.386  -1.206  1.00  0.00     0.021 C 
ATOM     33  C   UNL     1       7.727  -4.432  -0.089  1.00  0.00     0.004 C 
ENDBRANCH  16  28
ENDBRANCH   9  11
ENDBRANCH   8   9
ENDBRANCH   7   8
ENDBRANCH   6   7
ENDBRANCH   5   6
ENDBRANCH   4   5
ENDBRANCH   3   4
ENDBRANCH   2   3
ENDBRANCH   1   2
BRANCH   1  34
ATOM     34  C   UNL     1      -2.194  -1.655   0.685  1.00  0.00     0.188 C 
BRANCH  34  35
ATOM     35  O   UNL     1      -2.805  -0.370   0.671  1.00  0.00    -0.376 OA
BRANCH  35  36
ATOM     36  C   UNL     1      -3.607  -0.030   1.779  1.00  0.00     0.202 C 
BRANCH  36  37
ATOM     37  C   UNL     1      -4.831  -0.923   1.849  1.00  0.00     0.261 C 
BRANCH  37  38
ATOM     38  O   UNL     1      -5.791  -0.521   0.832  1.00  0.00    -0.460 OA
BRANCH  38  39
ATOM     39  C   UNL     1      -5.885  -1.212  -0.344  1.00  0.00     0.338 C 
ATOM     40  O   UNL     1      -6.833  -1.947  -0.588  1.00  0.00    -0.246 OA
BRANCH  39  41
ATOM     41  C   UNL     1      -4.931  -0.795  -1.420  1.00  0.00     0.060 A 
ATOM     42  C   UNL     1      -4.602  -1.667  -2.469  1.00  0.00     0.016 A 
ATOM     43  C   UNL     1      -4.339   0.459  -1.406  1.00  0.00     0.016 A 
ATOM     44  C   UNL     1      -3.576  -1.357  -3.393  1.00  0.00     0.010 A 
ATOM     45  C   UNL     1      -3.291   0.739  -2.284  1.00  0.00     0.010 A 
ATOM     46  C   UNL     1      -2.856  -0.167  -3.274  1.00  0.00    -0.014 A 
BRANCH  46  47
ATOM     47  C   UNL     1      -1.554   0.145  -3.957  1.00  0.00     0.031 A 
ATOM     48  C   UNL     1      -1.285   1.579  -4.451  1.00  0.00     0.074 A 
ATOM     49  C   UNL     1      -0.533  -0.713  -3.682  1.00  0.00     0.049 A 
ATOM     50  N   UNL     1      -0.176   2.080  -4.918  1.00  0.00    -0.248 NA
ATOM     51  C   UNL     1      -2.354   2.587  -4.481  1.00  0.00     0.031 C 
ATOM     52  C   UNL     1       0.742  -0.417  -3.058  1.00  0.00     0.029 A 
ATOM     53  N   UNL     1      -0.451  -2.096  -3.774  1.00  0.00    -0.354 N 
ATOM     54  C   UNL     1      -0.300   3.488  -5.004  1.00  0.00     0.074 A 
ATOM     55  C   UNL     1      -1.707   3.716  -4.793  1.00  0.00     0.031 C 
ATOM     56  C   UNL     1       1.609  -1.424  -3.126  1.00  0.00     0.029 A 
ATOM     57  C   UNL     1       0.915  -2.478  -3.773  1.00  0.00     0.049 A 
ATOM     58  H   UNL     1      -1.218  -2.712  -3.831  1.00  0.00     0.167 HD
ATOM     59  C   UNL     1       0.801   4.327  -5.093  1.00  0.00     0.037 A 
ATOM     60  C   UNL     1       1.465  -3.222  -4.757  1.00  0.00     0.037 A 
ATOM     61  C   UNL     1       2.062   3.589  -5.393  1.00  0.00     0.049 A 
ATOM     62  C   UNL     1       2.167  -2.349  -5.809  1.00  0.00     0.074 A 
ATOM     63  C   UNL     1       3.414   3.708  -5.080  1.00  0.00     0.029 A 
ATOM     64  N   UNL     1       1.988   2.388  -6.087  1.00  0.00    -0.354 N 
ATOM     65  N   UNL     1       2.528  -1.083  -5.671  1.00  0.00    -0.248 NA
ATOM     66  C   UNL     1       2.480  -2.853  -7.146  1.00  0.00     0.031 C 
ATOM     67  C   UNL     1       4.112   2.551  -5.543  1.00  0.00     0.029 A 
ATOM     68  C   UNL     1       3.201   1.756  -6.207  1.00  0.00     0.049 A 
ATOM     69  H   UNL     1       1.150   2.025  -6.455  1.00  0.00     0.167 HD
ATOM     70  C   UNL     1       2.977  -0.591  -6.891  1.00  0.00     0.074 A 
ATOM     71  C   UNL     1       2.943  -1.753  -7.764  1.00  0.00     0.031 C 
ATOM     72  C   UNL     1       3.301   0.710  -7.197  1.00  0.00     0.037 A 
BRANCH  59  73
ATOM     73  C   UNL     1       0.848   5.863  -4.716  1.00  0.00     0.058 A 
ATOM     74  C   UNL     1       2.036   6.622  -4.908  1.00  0.00     0.135 A 
ATOM     75  C   UNL     1      -0.157   6.616  -4.055  1.00  0.00     0.135 A 
ATOM     76  F   UNL     1       3.046   6.161  -5.655  1.00  0.00    -0.206 F 
ATOM     77  C   UNL     1       2.253   7.918  -4.405  1.00  0.00     0.059 A 
ATOM     78  C   UNL     1       0.002   7.960  -3.632  1.00  0.00     0.059 A 
ATOM     79  F   UNL     1      -1.355   6.098  -3.767  1.00  0.00    -0.206 F 
ATOM     80  C   UNL     1       1.225   8.596  -3.779  1.00  0.00     0.060 A 
BRANCH  80  81
ATOM     81  S   UNL     1       1.479  10.324  -3.301  1.00  0.00     0.124 S 
ATOM     82  O   UNL     1       2.329  10.204  -2.121  1.00  0.00    -0.237 OA
ATOM     83  O   UNL     1       2.123  10.887  -4.485  1.00  0.00    -0.237 OA
ATOM     84  O   UNL     1       0.126  10.811  -3.049  1.00  0.00    -0.744 OA
ENDBRANCH  80  81
ENDBRANCH  59  73
BRANCH  60  85
ATOM     85  C   UNL     1       0.748  -4.555  -4.724  1.00  0.00     0.058 A 
ATOM     86  C   UNL     1       1.054  -5.292  -3.541  1.00  0.00     0.135 A 
ATOM     87  C   UNL     1      -0.599  -4.595  -5.133  1.00  0.00     0.135 A 
ATOM     88  F   UNL     1       2.326  -5.353  -3.109  1.00  0.00    -0.206 F 
ATOM     89  C   UNL     1       0.060  -5.704  -2.644  1.00  0.00     0.059 A 
ATOM     90  C   UNL     1      -1.613  -5.003  -4.244  1.00  0.00     0.059 A 
ATOM     91  F   UNL     1      -0.966  -3.961  -6.257  1.00  0.00    -0.206 F 
ATOM     92  C   UNL     1      -1.272  -5.473  -2.969  1.00  0.00     0.060 A 
BRANCH  92  93
ATOM     93  S   UNL     1      -2.508  -5.471  -1.629  1.00  0.00     0.124 S 
ATOM     94  O   UNL     1      -2.949  -6.859  -1.614  1.00  0.00    -0.237 OA
ATOM     95  O   UNL     1      -1.735  -5.031  -0.469  1.00  0.00    -0.237 OA
ATOM     96  O   UNL     1      -3.480  -4.494  -2.099  1.00  0.00    -0.744 OA
ENDBRANCH  92  93
ENDBRANCH  60  85
BRANCH  72  97
ATOM     97  C   UNL     1       3.678   1.227  -8.576  1.00  0.00     0.058 A 
ATOM     98  C   UNL     1       4.629   0.612  -9.394  1.00  0.00     0.135 A 
ATOM     99  C   UNL     1       3.171   2.471  -9.052  1.00  0.00     0.135 A 
ATOM    100  F   UNL     1       5.259  -0.501  -8.990  1.00  0.00    -0.206 F 
ATOM    101  C   UNL     1       4.966   1.131 -10.648  1.00  0.00     0.059 A 
ATOM    102  C   UNL     1       3.549   3.042 -10.257  1.00  0.00     0.059 A 
ATOM    103  F   UNL     1       2.252   3.175  -8.379  1.00  0.00    -0.206 F 
ATOM    104  C   UNL     1       4.406   2.336 -11.077  1.00  0.00     0.060 A 
BRANCH 104 105
ATOM    105  S   UNL     1       4.762   2.959 -12.726  1.00  0.00     0.124 S 
ATOM    106  O   UNL     1       6.196   2.721 -12.851  1.00  0.00    -0.237 OA
ATOM    107  O   UNL     1       3.905   2.104 -13.543  1.00  0.00    -0.237 OA
ATOM    108  O   UNL     1       4.367   4.363 -12.661  1.00  0.00    -0.744 OA
ENDBRANCH 104 105
ENDBRANCH  72  97
ENDBRANCH  46  47
ENDBRANCH  39  41
ENDBRANCH  38  39
ENDBRANCH  37  38
ENDBRANCH  36  37
ENDBRANCH  35  36
ENDBRANCH  34  35
ENDBRANCH   1  34
TORSDOF 26
