REMARK SMILES O=C(OCCOCCOCCOCCOC(=O)c1ccc(N2C(=O)/C(=C/C3=c4ccccc4=NC3)SC2=S)cc1O)c1ccc(-c2c3nc(c(-c4c(F)cc(S(=O)(=O)[O-])cc4F)c4ccc([nH]4)c(-c4c(F)cc(S(=O)(=O)[O-])cc4F)c4nc(c(-c5c(F)cc(S(=O)(=O)[O-])cc5F)c5ccc2[nH]5)C=C4)C=C3)cc1
REMARK SMILES IDX 8 1 7 2 6 3 5 4 4 5 3 6 2 7 1 8 42 9 43 10 107 11 44 12
REMARK SMILES IDX 106 13 45 14 46 15 47 16 100 17 48 18 105 19 99 20 101 21
REMARK SMILES IDX 49 22 104 23 98 24 97 25 50 27 84 28 63 29 83 30 64 31 67 32
REMARK SMILES IDX 82 33 102 34 65 35 66 36 81 38 103 39 68 40 51 41 52 42
REMARK SMILES IDX 61 43 53 44 54 45 60 46 62 47 55 48 56 49 57 50 58 51 59 52
REMARK SMILES IDX 85 53 86 54 95 55 87 56 88 57 94 58 96 59 89 60 90 61 91 62
REMARK SMILES IDX 92 63 93 64 69 65 70 66 79 67 71 68 72 69 78 70 80 71 73 72
REMARK SMILES IDX 74 73 75 74 76 75 77 76 9 77 10 78 11 79 12 80 13 81 14 82
REMARK SMILES IDX 15 83 16 84 17 85 18 86 19 87 40 88 20 89 39 90 21 91 41 92
REMARK SMILES IDX 22 94 23 95 37 96 24 97 25 98 36 99 38 100 26 101 27 102
REMARK SMILES IDX 28 103 35 104 29 105 33 106 34 107 30 108 32 109 31 110
REMARK H PARENT 101 26 67 37 41 93
REMARK Flexibility Score: inf
ROOT
ATOM      1  C   UNL     1       1.884  -2.556   0.789  1.00  0.00     0.188 C 
ENDROOT
BRANCH   1   2
ATOM      2  C   UNL     1       2.379  -1.114   0.897  1.00  0.00     0.188 C 
BRANCH   2   3
ATOM      3  O   UNL     1       3.707  -0.961   0.385  1.00  0.00    -0.376 OA
BRANCH   3   4
ATOM      4  C   UNL     1       4.596  -0.222   1.220  1.00  0.00     0.202 C 
BRANCH   4   5
ATOM      5  C   UNL     1       4.474   1.297   1.113  1.00  0.00     0.261 C 
BRANCH   5   6
ATOM      6  O   UNL     1       3.154   1.749   0.795  1.00  0.00    -0.460 OA
BRANCH   6   7
ATOM      7  C   UNL     1       2.544   1.827  -0.413  1.00  0.00     0.338 C 
ATOM      8  O   UNL     1       1.409   2.306  -0.430  1.00  0.00    -0.246 OA
BRANCH   7   9
ATOM      9  C   UNL     1       3.107   1.322  -1.717  1.00  0.00     0.060 A 
ATOM     10  C   UNL     1       2.278   1.474  -2.847  1.00  0.00     0.016 A 
ATOM     11  C   UNL     1       4.344   0.700  -1.915  1.00  0.00     0.016 A 
ATOM     12  C   UNL     1       2.677   1.037  -4.114  1.00  0.00     0.010 A 
ATOM     13  C   UNL     1       4.742   0.237  -3.168  1.00  0.00     0.010 A 
ATOM     14  C   UNL     1       3.924   0.428  -4.278  1.00  0.00    -0.014 A 
BRANCH  14  15
ATOM     15  C   UNL     1       4.508   0.215  -5.614  1.00  0.00     0.031 A 
ATOM     16  C   UNL     1       4.589  -1.143  -6.231  1.00  0.00     0.074 A 
ATOM     17  C   UNL     1       5.086   1.290  -6.183  1.00  0.00     0.049 A 
ATOM     18  N   UNL     1       5.058  -1.478  -7.404  1.00  0.00    -0.248 NA
ATOM     19  C   UNL     1       4.107  -2.277  -5.426  1.00  0.00     0.031 C 
ATOM     20  C   UNL     1       5.142   2.625  -5.574  1.00  0.00     0.029 A 
ATOM     21  N   UNL     1       5.753   1.438  -7.365  1.00  0.00    -0.354 N 
ATOM     22  C   UNL     1       4.901  -2.856  -7.497  1.00  0.00     0.074 A 
ATOM     23  C   UNL     1       4.349  -3.302  -6.235  1.00  0.00     0.031 C 
ATOM     24  C   UNL     1       5.801   3.456  -6.391  1.00  0.00     0.029 A 
ATOM     25  C   UNL     1       6.213   2.715  -7.576  1.00  0.00     0.049 A 
ATOM     26  H   UNL     1       5.891   0.701  -8.004  1.00  0.00     0.167 HD
ATOM     27  C   UNL     1       5.179  -3.653  -8.557  1.00  0.00     0.037 A 
ATOM     28  C   UNL     1       6.877   3.235  -8.623  1.00  0.00     0.037 A 
ATOM     29  C   UNL     1       5.765  -3.160  -9.782  1.00  0.00     0.049 A 
ATOM     30  C   UNL     1       7.149   2.339  -9.792  1.00  0.00     0.074 A 
ATOM     31  C   UNL     1       6.036  -3.850 -10.950  1.00  0.00     0.029 A 
ATOM     32  N   UNL     1       6.185  -1.850  -9.986  1.00  0.00    -0.354 N 
ATOM     33  N   UNL     1       6.882   1.060  -9.923  1.00  0.00    -0.248 NA
ATOM     34  C   UNL     1       7.786   2.949 -10.962  1.00  0.00     0.031 C 
ATOM     35  C   UNL     1       6.662  -2.970 -11.841  1.00  0.00     0.029 A 
ATOM     36  C   UNL     1       6.734  -1.717 -11.251  1.00  0.00     0.049 A 
ATOM     37  H   UNL     1       6.103  -1.123  -9.328  1.00  0.00     0.167 HD
ATOM     38  C   UNL     1       7.303   0.712 -11.197  1.00  0.00     0.074 A 
ATOM     39  C   UNL     1       7.824   1.924 -11.803  1.00  0.00     0.031 C 
ATOM     40  C   UNL     1       7.263  -0.496 -11.813  1.00  0.00     0.037 A 
BRANCH  27  41
ATOM     41  C   UNL     1       4.831  -5.117  -8.462  1.00  0.00     0.058 A 
ATOM     42  C   UNL     1       3.493  -5.546  -8.432  1.00  0.00     0.135 A 
ATOM     43  C   UNL     1       5.827  -6.108  -8.488  1.00  0.00     0.135 A 
ATOM     44  F   UNL     1       2.495  -4.647  -8.399  1.00  0.00    -0.206 F 
ATOM     45  C   UNL     1       3.156  -6.896  -8.418  1.00  0.00     0.059 A 
ATOM     46  C   UNL     1       5.512  -7.467  -8.500  1.00  0.00     0.059 A 
ATOM     47  F   UNL     1       7.123  -5.762  -8.518  1.00  0.00    -0.206 F 
ATOM     48  C   UNL     1       4.173  -7.851  -8.460  1.00  0.00     0.060 A 
BRANCH  48  49
ATOM     49  S   UNL     1       3.708  -9.596  -8.478  1.00  0.00     0.124 S 
ATOM     50  O   UNL     1       3.151  -9.766  -7.139  1.00  0.00    -0.237 OA
ATOM     51  O   UNL     1       2.746  -9.649  -9.574  1.00  0.00    -0.237 OA
ATOM     52  O   UNL     1       4.971 -10.285  -8.722  1.00  0.00    -0.744 OA
ENDBRANCH  48  49
ENDBRANCH  27  41
BRANCH  28  53
ATOM     53  C   UNL     1       7.217   4.680  -8.621  1.00  0.00     0.058 A 
ATOM     54  C   UNL     1       6.491   5.583  -9.410  1.00  0.00     0.135 A 
ATOM     55  C   UNL     1       8.192   5.203  -7.757  1.00  0.00     0.135 A 
ATOM     56  F   UNL     1       5.541   5.131 -10.243  1.00  0.00    -0.206 F 
ATOM     57  C   UNL     1       6.720   6.953  -9.347  1.00  0.00     0.059 A 
ATOM     58  C   UNL     1       8.424   6.572  -7.660  1.00  0.00     0.059 A 
ATOM     59  F   UNL     1       8.890   4.383  -6.955  1.00  0.00    -0.206 F 
ATOM     60  C   UNL     1       7.683   7.439  -8.462  1.00  0.00     0.060 A 
BRANCH  60  61
ATOM     61  S   UNL     1       7.915   9.226  -8.339  1.00  0.00     0.124 S 
ATOM     62  O   UNL     1       8.520   9.534  -9.630  1.00  0.00    -0.237 OA
ATOM     63  O   UNL     1       6.547   9.698  -8.146  1.00  0.00    -0.237 OA
ATOM     64  O   UNL     1       8.791   9.374  -7.181  1.00  0.00    -0.744 OA
ENDBRANCH  60  61
ENDBRANCH  28  53
BRANCH  40  65
ATOM     65  C   UNL     1       7.811  -0.558 -13.209  1.00  0.00     0.058 A 
ATOM     66  C   UNL     1       9.191  -0.489 -13.454  1.00  0.00     0.135 A 
ATOM     67  C   UNL     1       6.953  -0.736 -14.305  1.00  0.00     0.135 A 
ATOM     68  F   UNL     1      10.050  -0.308 -12.439  1.00  0.00    -0.206 F 
ATOM     69  C   UNL     1       9.701  -0.571 -14.744  1.00  0.00     0.059 A 
ATOM     70  C   UNL     1       7.443  -0.850 -15.601  1.00  0.00     0.059 A 
ATOM     71  F   UNL     1       5.625  -0.815 -14.120  1.00  0.00    -0.206 F 
ATOM     72  C   UNL     1       8.819  -0.756 -15.810  1.00  0.00     0.060 A 
BRANCH  72  73
ATOM     73  S   UNL     1       9.502  -0.894 -17.474  1.00  0.00     0.124 S 
ATOM     74  O   UNL     1       9.942   0.475 -17.725  1.00  0.00    -0.237 OA
ATOM     75  O   UNL     1      10.564  -1.878 -17.293  1.00  0.00    -0.237 OA
ATOM     76  O   UNL     1       8.366  -1.344 -18.273  1.00  0.00    -0.744 OA
ENDBRANCH  72  73
ENDBRANCH  40  65
ENDBRANCH  14  15
ENDBRANCH   7   9
ENDBRANCH   6   7
ENDBRANCH   5   6
ENDBRANCH   4   5
ENDBRANCH   3   4
ENDBRANCH   2   3
ENDBRANCH   1   2
BRANCH   1  77
ATOM     77  O   UNL     1       2.526  -3.487   1.657  1.00  0.00    -0.377 OA
BRANCH  77  78
ATOM     78  C   UNL     1       3.949  -3.495   1.653  1.00  0.00     0.188 C 
BRANCH  78  79
ATOM     79  C   UNL     1       4.703  -3.703   0.321  1.00  0.00     0.188 C 
BRANCH  79  80
ATOM     80  O   UNL     1       3.858  -3.820  -0.810  1.00  0.00    -0.376 OA
BRANCH  80  81
ATOM     81  C   UNL     1       3.750  -5.122  -1.371  1.00  0.00     0.202 C 
BRANCH  81  82
ATOM     82  C   UNL     1       3.092  -6.205  -0.499  1.00  0.00     0.261 C 
BRANCH  82  83
ATOM     83  O   UNL     1       3.571  -6.306   0.854  1.00  0.00    -0.460 OA
BRANCH  83  84
ATOM     84  C   UNL     1       4.768  -6.893   1.080  1.00  0.00     0.341 C 
ATOM     85  O   UNL     1       5.540  -7.333   0.245  1.00  0.00    -0.246 OA
BRANCH  84  86
ATOM     86  C   UNL     1       5.123  -6.671   2.504  1.00  0.00     0.101 A 
ATOM     87  C   UNL     1       6.274  -5.914   2.793  1.00  0.00     0.022 A 
ATOM     88  C   UNL     1       4.309  -7.107   3.551  1.00  0.00     0.132 A 
ATOM     89  C   UNL     1       6.609  -5.599   4.117  1.00  0.00     0.028 A 
ATOM     90  C   UNL     1       4.667  -6.839   4.876  1.00  0.00     0.073 A 
ATOM     91  C   UNL     1       5.834  -6.109   5.163  1.00  0.00     0.054 A 
BRANCH  88  92
ATOM     92  O   UNL     1       3.186  -7.838   3.289  1.00  0.00    -0.507 OA
ATOM     93  H   UNL     1       2.942  -8.020   2.403  1.00  0.00     0.293 HD
ENDBRANCH  88  92
BRANCH  91  94
ATOM     94  N   UNL     1       6.339  -6.093   6.491  1.00  0.00    -0.261 N 
ATOM     95  C   UNL     1       6.418  -4.917   7.231  1.00  0.00     0.270 C 
ATOM     96  C   UNL     1       6.836  -7.244   7.086  1.00  0.00     0.152 C 
ATOM     97  O   UNL     1       6.089  -3.791   6.882  1.00  0.00    -0.268 OA
ATOM     98  C   UNL     1       6.962  -5.218   8.595  1.00  0.00     0.081 C 
ATOM     99  S   UNL     1       7.323  -6.895   8.732  1.00  0.00    -0.054 SA
ATOM    100  S   UNL     1       7.049  -8.771   6.436  1.00  0.00    -0.051 S 
ATOM    101  C   UNL     1       7.109  -4.308   9.572  1.00  0.00     0.027 C 
BRANCH 101 102
ATOM    102  C   UNL     1       7.623  -4.589  10.897  1.00  0.00    -0.016 C 
ATOM    103  C   UNL     1       6.931  -4.635  12.034  1.00  0.00     0.005 A 
ATOM    104  C   UNL     1       9.063  -4.953  11.147  1.00  0.00     0.179 C 
ATOM    105  C   UNL     1       5.574  -4.398  12.415  1.00  0.00     0.011 A 
ATOM    106  C   UNL     1       7.939  -5.083  13.013  1.00  0.00     0.065 A 
ATOM    107  N   UNL     1       9.153  -5.270  12.596  1.00  0.00    -0.280 NA
ATOM    108  C   UNL     1       5.219  -4.597  13.696  1.00  0.00     0.001 A 
ATOM    109  C   UNL     1       7.465  -5.298  14.398  1.00  0.00     0.028 A 
ATOM    110  C   UNL     1       6.175  -5.063  14.687  1.00  0.00     0.002 A 
ENDBRANCH 101 102
ENDBRANCH  91  94
ENDBRANCH  84  86
ENDBRANCH  83  84
ENDBRANCH  82  83
ENDBRANCH  81  82
ENDBRANCH  80  81
ENDBRANCH  79  80
ENDBRANCH  78  79
ENDBRANCH  77  78
ENDBRANCH   1  77
TORSDOF 26
