REMARK SMILES C#CC[C@@]1(C(=O)OCCOCCOCCOCCOC(=O)c2ccc(-c3c4nc(c(-c5c(F)cc(S(=O)(=O)[O-])cc5F)c5ccc([nH]5)c(-c5c(F)cc(S(=O)(=O)[O-])cc5F)c5nc(c(-c6c(F)cc(S(=O)(=O)[O-])cc6F)c6ccc3[nH]6)C=C5)C=C4)cc2)CCCN1C(=O)OC(C)(C)C
REMARK SMILES IDX 13 1 12 2 11 3 10 4 9 5 8 6 7 7 5 8 6 9 4 10 88 11 91 12
REMARK SMILES IDX 89 13 90 14 3 15 2 16 1 17 92 18 93 19 94 20 95 21 96 22
REMARK SMILES IDX 97 23 98 24 14 25 15 26 16 27 17 28 18 29 19 30 20 31 21 32
REMARK SMILES IDX 22 33 23 34 87 35 24 36 86 37 25 38 26 39 27 40 80 41 28 42
REMARK SMILES IDX 85 43 79 44 81 45 29 46 84 47 78 48 77 49 30 51 64 52 43 53
REMARK SMILES IDX 63 54 44 55 47 56 62 57 82 58 45 59 46 60 61 62 83 63 48 64
REMARK SMILES IDX 31 65 32 66 41 67 33 68 34 69 40 70 42 71 35 72 36 73 37 74
REMARK SMILES IDX 38 75 39 76 65 77 66 78 75 79 67 80 68 81 74 82 76 83 69 84
REMARK SMILES IDX 70 85 71 86 72 87 73 88 49 89 50 90 59 91 51 92 52 93 58 94
REMARK SMILES IDX 60 95 53 96 54 97 55 98 56 99 57 100
REMARK H PARENT 81 50 47 61
REMARK Flexibility Score: inf
ROOT
ATOM      1  O   UNL     1      -2.979   3.099  -0.144  1.00  0.00    -0.377 OA
ENDROOT
BRANCH   1   2
ATOM      2  C   UNL     1      -2.974   2.166   0.927  1.00  0.00     0.188 C 
BRANCH   2   3
ATOM      3  C   UNL     1      -1.809   2.002   1.920  1.00  0.00     0.188 C 
BRANCH   3   4
ATOM      4  O   UNL     1      -0.600   2.623   1.542  1.00  0.00    -0.376 OA
BRANCH   4   5
ATOM      5  C   UNL     1       0.514   1.808   1.257  1.00  0.00     0.202 C 
BRANCH   5   6
ATOM      6  C   UNL     1       0.451   0.965  -0.016  1.00  0.00     0.261 C 
BRANCH   6   7
ATOM      7  O   UNL     1      -0.791   0.323  -0.320  1.00  0.00    -0.461 OA
BRANCH   7   8
ATOM      8  C   UNL     1      -1.014  -0.814   0.369  1.00  0.00     0.333 C 
ATOM      9  O   UNL     1      -0.367  -1.115   1.374  1.00  0.00    -0.249 OA
BRANCH   8  10
ATOM     10  C   UNL     1      -2.068  -1.756  -0.262  1.00  0.00     0.154 C 
ATOM     11  C   UNL     1      -3.018  -2.150   0.913  1.00  0.00     0.044 C 
ATOM     12  N   UNL     1      -1.303  -3.030  -0.471  1.00  0.00    -0.291 N 
ATOM     13  C   UNL     1      -3.255  -3.642   0.721  1.00  0.00     0.025 C 
ATOM     14  C   UNL     1      -1.926  -4.155   0.195  1.00  0.00     0.124 C 
BRANCH  10  15
ATOM     15  C   UNL     1      -2.977  -1.423  -1.497  1.00  0.00     0.130 C 
BRANCH  15  16
ATOM     16  C   UNL     1      -3.085   0.034  -1.913  1.00  0.00    -0.104 C 
ATOM     17  C   UNL     1      -3.177   1.285  -2.271  1.00  0.00     0.004 C 
ENDBRANCH  15  16
ENDBRANCH  10  15
BRANCH  12  18
ATOM     18  C   UNL     1      -0.045  -3.199  -1.044  1.00  0.00     0.411 C 
ATOM     19  O   UNL     1       0.499  -4.298  -1.065  1.00  0.00    -0.224 OA
BRANCH  18  20
ATOM     20  O   UNL     1       0.555  -2.044  -1.470  1.00  0.00    -0.444 OA
BRANCH  20  21
ATOM     21  C   UNL     1       1.989  -2.038  -1.802  1.00  0.00     0.106 C 
ATOM     22  C   UNL     1       2.834  -2.366  -0.558  1.00  0.00     0.056 C 
ATOM     23  C   UNL     1       2.308  -2.973  -2.973  1.00  0.00     0.056 C 
ATOM     24  C   UNL     1       2.371  -0.614  -2.268  1.00  0.00     0.056 C 
ENDBRANCH  20  21
ENDBRANCH  18  20
ENDBRANCH  12  18
ENDBRANCH   8  10
ENDBRANCH   7   8
ENDBRANCH   6   7
ENDBRANCH   5   6
ENDBRANCH   4   5
ENDBRANCH   3   4
ENDBRANCH   2   3
ENDBRANCH   1   2
BRANCH   1  25
ATOM     25  C   UNL     1      -1.762   3.629  -0.650  1.00  0.00     0.188 C 
BRANCH  25  26
ATOM     26  C   UNL     1      -1.271   4.841   0.146  1.00  0.00     0.188 C 
BRANCH  26  27
ATOM     27  O   UNL     1      -2.068   5.065   1.299  1.00  0.00    -0.376 OA
BRANCH  27  28
ATOM     28  C   UNL     1      -3.257   5.829   1.136  1.00  0.00     0.202 C 
BRANCH  28  29
ATOM     29  C   UNL     1      -4.205   5.673  -0.078  1.00  0.00     0.261 C 
BRANCH  29  30
ATOM     30  O   UNL     1      -3.650   5.678  -1.407  1.00  0.00    -0.460 OA
BRANCH  30  31
ATOM     31  C   UNL     1      -2.956   6.755  -1.817  1.00  0.00     0.338 C 
ATOM     32  O   UNL     1      -2.740   7.776  -1.178  1.00  0.00    -0.246 OA
BRANCH  31  33
ATOM     33  C   UNL     1      -2.340   6.436  -3.126  1.00  0.00     0.060 A 
ATOM     34  C   UNL     1      -0.944   6.402  -3.246  1.00  0.00     0.016 A 
ATOM     35  C   UNL     1      -3.145   6.216  -4.246  1.00  0.00     0.016 A 
ATOM     36  C   UNL     1      -0.349   6.216  -4.498  1.00  0.00     0.010 A 
ATOM     37  C   UNL     1      -2.549   6.048  -5.501  1.00  0.00     0.010 A 
ATOM     38  C   UNL     1      -1.149   6.098  -5.641  1.00  0.00    -0.014 A 
BRANCH  38  39
ATOM     39  C   UNL     1      -0.551   6.273  -6.991  1.00  0.00     0.031 A 
ATOM     40  C   UNL     1      -0.678   7.623  -7.651  1.00  0.00     0.074 A 
ATOM     41  C   UNL     1       0.099   5.277  -7.620  1.00  0.00     0.049 A 
ATOM     42  N   UNL     1      -0.329   8.001  -8.853  1.00  0.00    -0.248 NA
ATOM     43  C   UNL     1      -1.290   8.690  -6.840  1.00  0.00     0.031 C 
ATOM     44  C   UNL     1       0.340   3.944  -7.073  1.00  0.00     0.029 A 
ATOM     45  N   UNL     1       0.664   5.234  -8.873  1.00  0.00    -0.354 N 
ATOM     46  C   UNL     1      -0.693   9.340  -8.949  1.00  0.00     0.074 A 
ATOM     47  C   UNL     1      -1.317   9.701  -7.695  1.00  0.00     0.031 C 
ATOM     48  C   UNL     1       0.988   3.206  -7.993  1.00  0.00     0.029 A 
ATOM     49  C   UNL     1       1.172   4.001  -9.207  1.00  0.00     0.049 A 
ATOM     50  H   UNL     1       0.701   6.013  -9.473  1.00  0.00     0.167 HD
ATOM     51  C   UNL     1      -0.518  10.195  -9.985  1.00  0.00     0.037 A 
ATOM     52  C   UNL     1       1.696   3.558 -10.369  1.00  0.00     0.037 A 
ATOM     53  C   UNL     1       0.105   9.832 -11.230  1.00  0.00     0.049 A 
ATOM     54  C   UNL     1       1.810   4.505 -11.540  1.00  0.00     0.074 A 
ATOM     55  C   UNL     1       0.340  10.627 -12.338  1.00  0.00     0.029 A 
ATOM     56  N   UNL     1       0.584   8.567 -11.538  1.00  0.00    -0.354 N 
ATOM     57  N   UNL     1       1.472   5.771 -11.616  1.00  0.00    -0.248 NA
ATOM     58  C   UNL     1       2.380   3.964 -12.783  1.00  0.00     0.031 C 
ATOM     59  C   UNL     1       0.906   9.829 -13.336  1.00  0.00     0.029 A 
ATOM     60  C   UNL     1       1.089   8.553 -12.827  1.00  0.00     0.049 A 
ATOM     61  H   UNL     1       0.567   7.793 -10.930  1.00  0.00     0.167 HD
ATOM     62  C   UNL     1       1.823   6.185 -12.899  1.00  0.00     0.074 A 
ATOM     63  C   UNL     1       2.404   5.037 -13.562  1.00  0.00     0.031 C 
ATOM     64  C   UNL     1       1.682   7.407 -13.473  1.00  0.00     0.037 A 
BRANCH  51  65
ATOM     65  C   UNL     1      -1.038  11.599  -9.827  1.00  0.00     0.058 A 
ATOM     66  C   UNL     1      -0.445  12.518  -8.947  1.00  0.00     0.135 A 
ATOM     67  C   UNL     1      -2.131  12.041 -10.592  1.00  0.00     0.135 A 
ATOM     68  F   UNL     1       0.590  12.146  -8.176  1.00  0.00    -0.206 F 
ATOM     69  C   UNL     1      -0.933  13.814  -8.809  1.00  0.00     0.059 A 
ATOM     70  C   UNL     1      -2.615  13.341 -10.495  1.00  0.00     0.059 A 
ATOM     71  F   UNL     1      -2.739  11.204 -11.448  1.00  0.00    -0.206 F 
ATOM     72  C   UNL     1      -2.018  14.217  -9.590  1.00  0.00     0.060 A 
BRANCH  72  73
ATOM     73  S   UNL     1      -2.635  15.903  -9.404  1.00  0.00     0.124 S 
ATOM     74  O   UNL     1      -3.253  15.844  -8.082  1.00  0.00    -0.237 OA
ATOM     75  O   UNL     1      -1.412  16.693  -9.496  1.00  0.00    -0.237 OA
ATOM     76  O   UNL     1      -3.561  16.053 -10.522  1.00  0.00    -0.744 OA
ENDBRANCH  72  73
ENDBRANCH  51  65
BRANCH  52  77
ATOM     77  C   UNL     1       2.143   2.143 -10.496  1.00  0.00     0.058 A 
ATOM     78  C   UNL     1       3.499   1.820 -10.654  1.00  0.00     0.135 A 
ATOM     79  C   UNL     1       1.220   1.084 -10.473  1.00  0.00     0.135 A 
ATOM     80  F   UNL     1       4.419   2.795 -10.700  1.00  0.00    -0.206 F 
ATOM     81  C   UNL     1       3.924   0.502 -10.796  1.00  0.00     0.059 A 
ATOM     82  C   UNL     1       1.624  -0.243 -10.582  1.00  0.00     0.059 A 
ATOM     83  F   UNL     1      -0.089   1.336 -10.320  1.00  0.00    -0.206 F 
ATOM     84  C   UNL     1       2.978  -0.523 -10.753  1.00  0.00     0.060 A 
BRANCH  84  85
ATOM     85  S   UNL     1       3.549  -2.232 -10.883  1.00  0.00     0.124 S 
ATOM     86  O   UNL     1       3.956  -2.301 -12.281  1.00  0.00    -0.237 OA
ATOM     87  O   UNL     1       4.628  -2.267  -9.900  1.00  0.00    -0.237 OA
ATOM     88  O   UNL     1       2.365  -3.010 -10.530  1.00  0.00    -0.744 OA
ENDBRANCH  84  85
ENDBRANCH  52  77
BRANCH  64  89
ATOM     89  C   UNL     1       2.213   7.594 -14.870  1.00  0.00     0.058 A 
ATOM     90  C   UNL     1       1.591   7.020 -15.989  1.00  0.00     0.135 A 
ATOM     91  C   UNL     1       3.327   8.421 -15.096  1.00  0.00     0.135 A 
ATOM     92  F   UNL     1       0.526   6.217 -15.833  1.00  0.00    -0.206 F 
ATOM     93  C   UNL     1       2.067   7.239 -17.279  1.00  0.00     0.059 A 
ATOM     94  C   UNL     1       3.800   8.681 -16.378  1.00  0.00     0.059 A 
ATOM     95  F   UNL     1       3.955   9.008 -14.064  1.00  0.00    -0.206 F 
ATOM     96  C   UNL     1       3.170   8.076 -17.464  1.00  0.00     0.060 A 
BRANCH  96  97
ATOM     97  S   UNL     1       3.751   8.383 -19.145  1.00  0.00     0.124 S 
ATOM     98  O   UNL     1       4.351   7.098 -19.489  1.00  0.00    -0.237 OA
ATOM     99  O   UNL     1       2.515   8.714 -19.847  1.00  0.00    -0.237 OA
ATOM    100  O   UNL     1       4.690   9.490 -18.985  1.00  0.00    -0.744 OA
ENDBRANCH  96  97
ENDBRANCH  64  89
ENDBRANCH  38  39
ENDBRANCH  31  33
ENDBRANCH  30  31
ENDBRANCH  29  30
ENDBRANCH  28  29
ENDBRANCH  27  28
ENDBRANCH  26  27
ENDBRANCH  25  26
ENDBRANCH   1  25
TORSDOF 28
