REMARK SMILES C[C@@H]1CC[C@H](C)[N@H+]1Cc1cc2c(cc1Cl)C=C(C(=O)OCCOCCOCCOCCOC(=O)c1ccc(-c3c4nc(c(-c5c(F)cc(S(=O)(=O)[O-])cc5F)c5ccc([nH]5)c(-c5c(F)cc(S(=O)(=O)[O-])cc5F)c5nc(c(-c6c(F)cc(S(=O)(=O)[O-])cc6F)c6ccc3[nH]6)C=C5)C=C4)cc1)[C@@H](C(F)(F)F)O2
REMARK SMILES IDX 27 1 26 2 25 3 24 4 23 5 22 6 21 7 20 8 18 9 19 10 17 11
REMARK SMILES IDX 9 12 10 13 14 14 11 15 13 16 15 17 12 18 106 19 16 20 101 21
REMARK SMILES IDX 8 22 7 23 6 24 5 25 4 26 3 27 2 28 1 30 102 31 103 32 104 33
REMARK SMILES IDX 105 34 28 35 29 36 30 37 31 38 32 39 33 40 34 41 35 42 36 43
REMARK SMILES IDX 100 44 37 45 99 46 38 47 39 48 40 49 93 50 41 51 98 52 92 53
REMARK SMILES IDX 94 54 42 55 97 56 91 57 90 58 43 60 77 61 56 62 76 63 57 64
REMARK SMILES IDX 60 65 75 66 95 67 58 68 59 69 74 71 96 72 61 73 44 74 45 75
REMARK SMILES IDX 54 76 46 77 47 78 53 79 55 80 48 81 49 82 50 83 51 84 52 85
REMARK SMILES IDX 78 86 79 87 88 88 80 89 81 90 87 91 89 92 82 93 83 94 84 95
REMARK SMILES IDX 85 96 86 97 62 98 63 99 72 100 64 101 65 102 71 103 73 104
REMARK SMILES IDX 66 105 67 106 68 107 69 108 70 109
REMARK H PARENT 7 29 94 59 60 70
REMARK Flexibility Score: inf
ROOT
ATOM      1  C   UNL     1       6.217  -0.721  -9.457  1.00  0.00     0.188 C 
ENDROOT
BRANCH   1   2
ATOM      2  O   UNL     1       4.956  -0.363  -8.893  1.00  0.00    -0.377 OA
BRANCH   2   3
ATOM      3  C   UNL     1       4.097  -1.395  -8.446  1.00  0.00     0.188 C 
BRANCH   3   4
ATOM      4  C   UNL     1       3.385  -2.153  -9.580  1.00  0.00     0.188 C 
BRANCH   4   5
ATOM      5  O   UNL     1       3.944  -1.905 -10.867  1.00  0.00    -0.376 OA
BRANCH   5   6
ATOM      6  C   UNL     1       3.216  -1.048 -11.739  1.00  0.00     0.202 C 
BRANCH   6   7
ATOM      7  C   UNL     1       3.158   0.443 -11.363  1.00  0.00     0.261 C 
BRANCH   7   8
ATOM      8  O   UNL     1       2.625   0.717 -10.057  1.00  0.00    -0.460 OA
BRANCH   8   9
ATOM      9  C   UNL     1       1.330   0.413  -9.860  1.00  0.00     0.338 C 
ATOM     10  O   UNL     1       0.543   0.004 -10.698  1.00  0.00    -0.246 OA
BRANCH   9  11
ATOM     11  C   UNL     1       1.048   0.453  -8.410  1.00  0.00     0.087 C 
ATOM     12  C   UNL     1      -1.015  -0.287  -3.876  1.00  0.00     0.029 A 
ATOM     13  C   UNL     1       0.035   0.532  -4.360  1.00  0.00     0.058 A 
ATOM     14  C   UNL     1      -1.617  -1.170  -4.790  1.00  0.00     0.050 A 
ATOM     15  C   UNL     1       0.455   0.469  -5.696  1.00  0.00     0.128 A 
ATOM     16  C   UNL     1      -1.117  -1.314  -6.086  1.00  0.00     0.033 A 
ATOM     17  Cl  UNL     1      -3.096  -2.013  -4.479  1.00  0.00    -0.084 Cl
ATOM     18  C   UNL     1      -0.106  -0.477  -6.548  1.00  0.00     0.019 A 
ATOM     19  O   UNL     1       1.405   1.364  -6.105  1.00  0.00    -0.475 OA
ATOM     20  C   UNL     1       0.280  -0.536  -7.942  1.00  0.00     0.027 C 
ATOM     21  C   UNL     1       1.615   1.549  -7.545  1.00  0.00     0.316 C 
BRANCH  12  22
ATOM     22  C   UNL     1      -1.493  -0.110  -2.442  1.00  0.00     0.301 C 
BRANCH  22  23
ATOM     23  N   UNL     1      -0.960  -1.008  -1.407  1.00  0.00    -0.327 N 
ATOM     24  C   UNL     1       0.815   0.031  -0.040  1.00  0.00     0.075 C 
ATOM     25  C   UNL     1       0.487  -0.946  -1.163  1.00  0.00     0.181 C 
ATOM     26  C   UNL     1       0.887  -2.373  -0.786  1.00  0.00     0.071 C 
ATOM     27  C   UNL     1      -0.109  -3.219  -1.548  1.00  0.00     0.071 C 
ATOM     28  C   UNL     1      -1.392  -2.406  -1.464  1.00  0.00     0.181 C 
ATOM     29  H   UNL     1      -1.419  -0.586  -0.600  1.00  0.00     0.348 HD
ATOM     30  C   UNL     1      -2.215  -2.736  -0.217  1.00  0.00     0.075 C 
ENDBRANCH  22  23
ENDBRANCH  12  22
BRANCH  21  31
ATOM     31  C   UNL     1       1.087   2.923  -7.982  1.00  0.00     0.430 C 
ATOM     32  F   UNL     1       1.556   3.911  -7.186  1.00  0.00    -0.167 F 
ATOM     33  F   UNL     1       1.462   3.216  -9.248  1.00  0.00    -0.167 F 
ATOM     34  F   UNL     1      -0.266   2.972  -7.939  1.00  0.00    -0.167 F 
ENDBRANCH  21  31
ENDBRANCH   9  11
ENDBRANCH   8   9
ENDBRANCH   7   8
ENDBRANCH   6   7
ENDBRANCH   5   6
ENDBRANCH   4   5
ENDBRANCH   3   4
ENDBRANCH   2   3
ENDBRANCH   1   2
BRANCH   1  35
ATOM     35  C   UNL     1       6.582  -2.178  -9.830  1.00  0.00     0.188 C 
BRANCH  35  36
ATOM     36  O   UNL     1       6.121  -3.161  -8.907  1.00  0.00    -0.376 OA
BRANCH  36  37
ATOM     37  C   UNL     1       7.107  -3.794  -8.104  1.00  0.00     0.202 C 
BRANCH  37  38
ATOM     38  C   UNL     1       7.607  -2.934  -6.939  1.00  0.00     0.261 C 
BRANCH  38  39
ATOM     39  O   UNL     1       8.281  -1.725  -7.318  1.00  0.00    -0.460 OA
BRANCH  39  40
ATOM     40  C   UNL     1       9.387  -1.830  -8.089  1.00  0.00     0.338 C 
ATOM     41  O   UNL     1       9.919  -2.854  -8.479  1.00  0.00    -0.246 OA
BRANCH  40  42
ATOM     42  C   UNL     1       9.726  -0.466  -8.544  1.00  0.00     0.060 A 
ATOM     43  C   UNL     1       9.840   0.572  -7.616  1.00  0.00     0.016 A 
ATOM     44  C   UNL     1       9.876  -0.215  -9.914  1.00  0.00     0.016 A 
ATOM     45  C   UNL     1      10.126   1.862  -8.059  1.00  0.00     0.010 A 
ATOM     46  C   UNL     1      10.156   1.081 -10.356  1.00  0.00     0.010 A 
ATOM     47  C   UNL     1      10.303   2.123  -9.428  1.00  0.00    -0.014 A 
BRANCH  47  48
ATOM     48  C   UNL     1      10.815   3.448  -9.851  1.00  0.00     0.031 A 
ATOM     49  C   UNL     1       9.917   4.511 -10.405  1.00  0.00     0.074 A 
ATOM     50  C   UNL     1      12.132   3.681  -9.700  1.00  0.00     0.049 A 
ATOM     51  N   UNL     1      10.211   5.746 -10.719  1.00  0.00    -0.248 NA
ATOM     52  C   UNL     1       8.514   4.145 -10.643  1.00  0.00     0.031 C 
ATOM     53  C   UNL     1      13.100   2.706  -9.190  1.00  0.00     0.029 A 
ATOM     54  N   UNL     1      12.882   4.801  -9.943  1.00  0.00    -0.354 N 
ATOM     55  C   UNL     1       9.029   6.320 -11.168  1.00  0.00     0.074 A 
ATOM     56  C   UNL     1       8.021   5.278 -11.130  1.00  0.00     0.031 C 
ATOM     57  C   UNL     1      14.311   3.280  -9.134  1.00  0.00     0.029 A 
ATOM     58  C   UNL     1      14.210   4.652  -9.622  1.00  0.00     0.049 A 
ATOM     59  H   UNL     1      12.506   5.633 -10.311  1.00  0.00     0.167 HD
ATOM     60  C   UNL     1       8.809   7.599 -11.557  1.00  0.00     0.037 A 
ATOM     61  C   UNL     1      15.233   5.522  -9.704  1.00  0.00     0.037 A 
ATOM     62  C   UNL     1       9.828   8.621 -11.609  1.00  0.00     0.049 A 
ATOM     63  C   UNL     1      14.968   6.921 -10.183  1.00  0.00     0.074 A 
ATOM     64  C   UNL     1       9.691   9.956 -11.952  1.00  0.00     0.029 A 
ATOM     65  N   UNL     1      11.172   8.422 -11.327  1.00  0.00    -0.354 N 
ATOM     66  N   UNL     1      13.830   7.468 -10.535  1.00  0.00    -0.248 NA
ATOM     67  C   UNL     1      16.125   7.821 -10.270  1.00  0.00     0.031 C 
ATOM     68  C   UNL     1      10.957  10.550 -11.927  1.00  0.00     0.029 A 
ATOM     69  C   UNL     1      11.879   9.600 -11.520  1.00  0.00     0.049 A 
ATOM     70  H   UNL     1      11.566   7.569 -11.032  1.00  0.00     0.167 HD
ATOM     71  C   UNL     1      14.130   8.781 -10.878  1.00  0.00     0.074 A 
ATOM     72  C   UNL     1      15.554   8.951 -10.667  1.00  0.00     0.031 C 
ATOM     73  C   UNL     1      13.301   9.755 -11.328  1.00  0.00     0.037 A 
BRANCH  60  74
ATOM     74  C   UNL     1       7.409   7.983 -11.954  1.00  0.00     0.058 A 
ATOM     75  C   UNL     1       6.390   8.119 -10.998  1.00  0.00     0.135 A 
ATOM     76  C   UNL     1       7.098   8.295 -13.288  1.00  0.00     0.135 A 
ATOM     77  F   UNL     1       6.629   7.827  -9.709  1.00  0.00    -0.206 F 
ATOM     78  C   UNL     1       5.110   8.534 -11.351  1.00  0.00     0.059 A 
ATOM     79  C   UNL     1       5.830   8.734 -13.661  1.00  0.00     0.059 A 
ATOM     80  F   UNL     1       8.035   8.185 -14.243  1.00  0.00    -0.206 F 
ATOM     81  C   UNL     1       4.840   8.842 -12.686  1.00  0.00     0.060 A 
BRANCH  81  82
ATOM     82  S   UNL     1       3.177   9.393 -13.122  1.00  0.00     0.124 S 
ATOM     83  O   UNL     1       2.408   8.165 -12.948  1.00  0.00    -0.237 OA
ATOM     84  O   UNL     1       2.928  10.442 -12.138  1.00  0.00    -0.237 OA
ATOM     85  O   UNL     1       3.320   9.852 -14.500  1.00  0.00    -0.744 OA
ENDBRANCH  81  82
ENDBRANCH  60  74
BRANCH  61  86
ATOM     86  C   UNL     1      16.592   5.093  -9.289  1.00  0.00     0.058 A 
ATOM     87  C   UNL     1      17.168   5.574  -8.105  1.00  0.00     0.135 A 
ATOM     88  C   UNL     1      17.320   4.158 -10.042  1.00  0.00     0.135 A 
ATOM     89  F   UNL     1      16.510   6.471  -7.355  1.00  0.00    -0.206 F 
ATOM     90  C   UNL     1      18.422   5.148  -7.683  1.00  0.00     0.059 A 
ATOM     91  C   UNL     1      18.565   3.699  -9.628  1.00  0.00     0.059 A 
ATOM     92  F   UNL     1      16.801   3.655 -11.173  1.00  0.00    -0.206 F 
ATOM     93  C   UNL     1      19.110   4.204  -8.449  1.00  0.00     0.060 A 
BRANCH  93  94
ATOM     94  S   UNL     1      20.709   3.612  -7.855  1.00  0.00     0.124 S 
ATOM     95  O   UNL     1      21.551   4.784  -8.060  1.00  0.00    -0.237 OA
ATOM     96  O   UNL     1      20.411   3.274  -6.466  1.00  0.00    -0.237 OA
ATOM     97  O   UNL     1      20.989   2.473  -8.723  1.00  0.00    -0.744 OA
ENDBRANCH  93  94
ENDBRANCH  61  86
BRANCH  73  98
ATOM     98  C   UNL     1      13.915  11.093 -11.635  1.00  0.00     0.058 A 
ATOM     99  C   UNL     1      14.728  11.283 -12.763  1.00  0.00     0.135 A 
ATOM    100  C   UNL     1      13.655  12.207 -10.820  1.00  0.00     0.135 A 
ATOM    101  F   UNL     1      15.017  10.249 -13.569  1.00  0.00    -0.206 F 
ATOM    102  C   UNL     1      15.280  12.525 -13.062  1.00  0.00     0.059 A 
ATOM    103  C   UNL     1      14.174  13.465 -11.115  1.00  0.00     0.059 A 
ATOM    104  F   UNL     1      12.878  12.084  -9.733  1.00  0.00    -0.206 F 
ATOM    105  C   UNL     1      14.994  13.611 -12.233  1.00  0.00     0.060 A 
BRANCH 105 106
ATOM    106  S   UNL     1      15.692  15.223 -12.654  1.00  0.00     0.124 S 
ATOM    107  O   UNL     1      17.102  15.026 -12.333  1.00  0.00    -0.237 OA
ATOM    108  O   UNL     1      15.375  15.338 -14.074  1.00  0.00    -0.237 OA
ATOM    109  O   UNL     1      14.973  16.144 -11.779  1.00  0.00    -0.744 OA
ENDBRANCH 105 106
ENDBRANCH  73  98
ENDBRANCH  47  48
ENDBRANCH  40  42
ENDBRANCH  39  40
ENDBRANCH  38  39
ENDBRANCH  37  38
ENDBRANCH  36  37
ENDBRANCH  35  36
ENDBRANCH   1  35
TORSDOF 26
