REMARK SMILES Cc1cccc(C(=O)OCCOCCOCCOCCOC(=O)c2ccc(-c3c4nc(c(-c5c(F)cc(S(=O)(=O)[O-])cc5F)c5ccc([nH]5)c(-c5c(F)cc(S(=O)(=O)[O-])cc5F)c5nc(c(-c6c(F)cc(S(=O)(=O)[O-])cc6F)c6ccc3[nH]6)C=C5)C=C4)cc2)c1NC(=O)Cc1ccccc1
REMARK SMILES IDX 15 1 14 2 13 3 12 4 11 5 10 6 9 7 7 8 8 9 6 10 1 11 2 12
REMARK SMILES IDX 3 13 90 14 4 15 5 16 91 17 92 18 93 20 94 21 95 22 96 23
REMARK SMILES IDX 100 24 97 25 99 26 98 27 16 28 17 29 18 30 19 31 20 32 21 33
REMARK SMILES IDX 22 34 23 35 24 36 25 37 89 38 26 39 88 40 27 41 28 42 29 43
REMARK SMILES IDX 82 44 30 45 87 46 81 47 83 48 31 49 86 50 80 51 79 52 32 54
REMARK SMILES IDX 66 55 45 56 65 57 46 58 49 59 64 60 84 61 47 62 48 63 63 65
REMARK SMILES IDX 85 66 50 67 33 68 34 69 43 70 35 71 36 72 42 73 44 74 37 75
REMARK SMILES IDX 38 76 39 77 40 78 41 79 67 80 68 81 77 82 69 83 70 84 76 85
REMARK SMILES IDX 78 86 71 87 72 88 73 89 74 90 75 91 51 92 52 93 61 94 53 95
REMARK SMILES IDX 54 96 60 97 62 98 55 99 56 100 57 101 58 102 59 103
REMARK H PARENT 91 19 83 53 49 64
REMARK Flexibility Score: inf
ROOT
ATOM      1  O   UNL     1      -1.550   1.532  -3.107  1.00  0.00    -0.377 OA
ENDROOT
BRANCH   1   2
ATOM      2  C   UNL     1      -2.101   0.311  -3.597  1.00  0.00     0.188 C 
BRANCH   2   3
ATOM      3  C   UNL     1      -3.161  -0.326  -2.692  1.00  0.00     0.188 C 
BRANCH   3   4
ATOM      4  O   UNL     1      -4.447   0.293  -2.704  1.00  0.00    -0.376 OA
BRANCH   4   5
ATOM      5  C   UNL     1      -4.569   1.505  -1.957  1.00  0.00     0.202 C 
BRANCH   5   6
ATOM      6  C   UNL     1      -4.096   1.430  -0.516  1.00  0.00     0.261 C 
BRANCH   6   7
ATOM      7  O   UNL     1      -2.688   1.711  -0.583  1.00  0.00    -0.460 OA
BRANCH   7   8
ATOM      8  C   UNL     1      -1.989   1.178   0.417  1.00  0.00     0.340 C 
ATOM      9  O   UNL     1      -2.452   0.715   1.462  1.00  0.00    -0.246 OA
BRANCH   8  10
ATOM     10  C   UNL     1      -0.666   0.798  -0.083  1.00  0.00     0.083 A 
ATOM     11  C   UNL     1       3.063   1.118  -0.715  1.00  0.00     0.046 C 
ATOM     12  C   UNL     1       1.623   0.651  -0.633  1.00  0.00    -0.027 A 
ATOM     13  C   UNL     1       1.578  -0.777  -0.521  1.00  0.00     0.005 A 
ATOM     14  C   UNL     1       0.452   1.518  -0.587  1.00  0.00     0.058 A 
ATOM     15  C   UNL     1       0.422  -1.438  -0.224  1.00  0.00     0.001 A 
ATOM     16  C   UNL     1      -0.658  -0.645   0.058  1.00  0.00     0.018 A 
BRANCH  14  17
ATOM     17  N   UNL     1       0.701   2.861  -1.166  1.00  0.00    -0.325 N 
ATOM     18  C   UNL     1       0.559   4.155  -1.630  1.00  0.00     0.228 C 
ATOM     19  H   UNL     1       1.660   2.752  -1.359  1.00  0.00     0.169 HD
ATOM     20  O   UNL     1       1.589   4.346  -2.326  1.00  0.00    -0.274 OA
BRANCH  18  21
ATOM     21  C   UNL     1      -0.500   5.348  -1.778  1.00  0.00     0.135 C 
BRANCH  21  22
ATOM     22  C   UNL     1      -0.662   6.788  -1.054  1.00  0.00    -0.039 A 
ATOM     23  C   UNL     1      -1.239   7.057   0.223  1.00  0.00     0.004 A 
ATOM     24  C   UNL     1      -0.562   7.965  -1.823  1.00  0.00     0.004 A 
ATOM     25  C   UNL     1      -1.709   8.301   0.693  1.00  0.00     0.000 A 
ATOM     26  C   UNL     1      -1.013   9.238  -1.362  1.00  0.00     0.000 A 
ATOM     27  C   UNL     1      -1.608   9.404  -0.115  1.00  0.00     0.000 A 
ENDBRANCH  21  22
ENDBRANCH  18  21
ENDBRANCH  14  17
ENDBRANCH   8  10
ENDBRANCH   7   8
ENDBRANCH   6   7
ENDBRANCH   5   6
ENDBRANCH   4   5
ENDBRANCH   3   4
ENDBRANCH   2   3
ENDBRANCH   1   2
BRANCH   1  28
ATOM     28  C   UNL     1      -0.900   2.276  -4.147  1.00  0.00     0.188 C 
BRANCH  28  29
ATOM     29  C   UNL     1      -1.757   3.471  -4.543  1.00  0.00     0.188 C 
BRANCH  29  30
ATOM     30  O   UNL     1      -3.101   3.075  -4.788  1.00  0.00    -0.376 OA
BRANCH  30  31
ATOM     31  C   UNL     1      -3.426   2.773  -6.133  1.00  0.00     0.202 C 
BRANCH  31  32
ATOM     32  C   UNL     1      -3.588   4.043  -6.972  1.00  0.00     0.261 C 
BRANCH  32  33
ATOM     33  O   UNL     1      -4.568   4.886  -6.333  1.00  0.00    -0.460 OA
BRANCH  33  34
ATOM     34  C   UNL     1      -4.049   5.990  -5.742  1.00  0.00     0.338 C 
ATOM     35  O   UNL     1      -3.349   6.823  -6.327  1.00  0.00    -0.246 OA
BRANCH  34  36
ATOM     36  C   UNL     1      -4.284   5.965  -4.272  1.00  0.00     0.060 A 
ATOM     37  C   UNL     1      -3.594   6.837  -3.436  1.00  0.00     0.016 A 
ATOM     38  C   UNL     1      -5.065   4.981  -3.673  1.00  0.00     0.016 A 
ATOM     39  C   UNL     1      -3.576   6.612  -2.043  1.00  0.00     0.010 A 
ATOM     40  C   UNL     1      -4.940   4.727  -2.297  1.00  0.00     0.010 A 
ATOM     41  C   UNL     1      -4.081   5.454  -1.462  1.00  0.00    -0.014 A 
BRANCH  41  42
ATOM     42  C   UNL     1      -3.870   5.007  -0.033  1.00  0.00     0.031 A 
ATOM     43  C   UNL     1      -5.077   5.099   0.868  1.00  0.00     0.074 A 
ATOM     44  C   UNL     1      -2.763   4.412   0.556  1.00  0.00     0.049 A 
ATOM     45  N   UNL     1      -5.050   4.988   2.161  1.00  0.00    -0.248 NA
ATOM     46  C   UNL     1      -6.453   5.281   0.381  1.00  0.00     0.031 C 
ATOM     47  C   UNL     1      -2.756   3.632   1.788  1.00  0.00     0.029 A 
ATOM     48  N   UNL     1      -1.378   4.287   0.244  1.00  0.00    -0.354 N 
ATOM     49  C   UNL     1      -6.267   4.437   2.484  1.00  0.00     0.074 A 
ATOM     50  C   UNL     1      -7.158   4.894   1.450  1.00  0.00     0.031 C 
ATOM     51  C   UNL     1      -1.508   3.393   2.226  1.00  0.00     0.029 A 
ATOM     52  C   UNL     1      -0.577   4.155   1.421  1.00  0.00     0.049 A 
ATOM     53  H   UNL     1      -1.017   4.290  -0.672  1.00  0.00     0.167 HD
ATOM     54  C   UNL     1      -6.323   3.400   3.370  1.00  0.00     0.037 A 
ATOM     55  C   UNL     1       0.480   4.905   1.940  1.00  0.00     0.037 A 
ATOM     56  C   UNL     1      -5.104   3.223   4.178  1.00  0.00     0.049 A 
ATOM     57  C   UNL     1       0.124   5.251   3.376  1.00  0.00     0.074 A 
ATOM     58  C   UNL     1      -4.332   2.118   4.503  1.00  0.00     0.029 A 
ATOM     59  N   UNL     1      -4.393   4.335   4.654  1.00  0.00    -0.354 N 
ATOM     60  N   UNL     1      -1.115   5.234   3.782  1.00  0.00    -0.248 NA
ATOM     61  C   UNL     1       1.042   5.597   4.456  1.00  0.00     0.031 C 
ATOM     62  C   UNL     1      -3.128   2.580   5.104  1.00  0.00     0.029 A 
ATOM     63  C   UNL     1      -3.174   3.965   5.188  1.00  0.00     0.049 A 
ATOM     64  H   UNL     1      -4.722   5.262   4.613  1.00  0.00     0.167 HD
ATOM     65  C   UNL     1      -1.153   5.283   5.132  1.00  0.00     0.074 A 
ATOM     66  C   UNL     1       0.199   5.657   5.510  1.00  0.00     0.031 C 
ATOM     67  C   UNL     1      -2.275   4.932   5.820  1.00  0.00     0.037 A 
BRANCH  54  68
ATOM     68  C   UNL     1      -7.443   2.368   3.333  1.00  0.00     0.058 A 
ATOM     69  C   UNL     1      -7.729   1.578   4.465  1.00  0.00     0.135 A 
ATOM     70  C   UNL     1      -8.200   2.042   2.181  1.00  0.00     0.135 A 
ATOM     71  F   UNL     1      -7.033   1.731   5.601  1.00  0.00    -0.206 F 
ATOM     72  C   UNL     1      -8.728   0.597   4.474  1.00  0.00     0.059 A 
ATOM     73  C   UNL     1      -9.249   1.119   2.186  1.00  0.00     0.059 A 
ATOM     74  F   UNL     1      -7.920   2.565   0.978  1.00  0.00    -0.206 F 
ATOM     75  C   UNL     1      -9.505   0.394   3.338  1.00  0.00     0.060 A 
BRANCH  75  76
ATOM     76  S   UNL     1     -10.867  -0.789   3.376  1.00  0.00     0.124 S 
ATOM     77  O   UNL     1     -10.171  -2.057   3.184  1.00  0.00    -0.237 OA
ATOM     78  O   UNL     1     -11.442  -0.571   4.700  1.00  0.00    -0.237 OA
ATOM     79  O   UNL     1     -11.711  -0.362   2.262  1.00  0.00    -0.744 OA
ENDBRANCH  75  76
ENDBRANCH  54  68
BRANCH  55  80
ATOM     80  C   UNL     1       1.571   5.656   1.183  1.00  0.00     0.058 A 
ATOM     81  C   UNL     1       2.573   4.948   0.510  1.00  0.00     0.135 A 
ATOM     82  C   UNL     1       1.626   7.041   0.963  1.00  0.00     0.135 A 
ATOM     83  F   UNL     1       2.801   3.675   0.859  1.00  0.00    -0.206 F 
ATOM     84  C   UNL     1       3.305   5.484  -0.571  1.00  0.00     0.059 A 
ATOM     85  C   UNL     1       2.288   7.603  -0.157  1.00  0.00     0.059 A 
ATOM     86  F   UNL     1       0.952   7.872   1.771  1.00  0.00    -0.206 F 
ATOM     87  C   UNL     1       3.033   6.779  -0.995  1.00  0.00     0.060 A 
BRANCH  87  88
ATOM     88  S   UNL     1       3.434   7.302  -2.706  1.00  0.00     0.124 S 
ATOM     89  O   UNL     1       4.503   8.271  -2.492  1.00  0.00    -0.237 OA
ATOM     90  O   UNL     1       3.851   6.071  -3.373  1.00  0.00    -0.237 OA
ATOM     91  O   UNL     1       2.179   7.864  -3.197  1.00  0.00    -0.744 OA
ENDBRANCH  87  88
ENDBRANCH  55  80
BRANCH  67  92
ATOM     92  C   UNL     1      -2.559   5.377   7.216  1.00  0.00     0.058 A 
ATOM     93  C   UNL     1      -2.143   6.629   7.697  1.00  0.00     0.135 A 
ATOM     94  C   UNL     1      -3.458   4.654   8.029  1.00  0.00     0.135 A 
ATOM     95  F   UNL     1      -1.355   7.431   6.964  1.00  0.00    -0.206 F 
ATOM     96  C   UNL     1      -2.568   7.122   8.926  1.00  0.00     0.059 A 
ATOM     97  C   UNL     1      -3.929   5.147   9.236  1.00  0.00     0.059 A 
ATOM     98  F   UNL     1      -3.932   3.454   7.664  1.00  0.00    -0.206 F 
ATOM     99  C   UNL     1      -3.465   6.375   9.685  1.00  0.00     0.060 A 
BRANCH  99 100
ATOM    100  S   UNL     1      -4.073   7.032  11.243  1.00  0.00     0.124 S 
ATOM    101  O   UNL     1      -3.061   6.545  12.173  1.00  0.00    -0.237 OA
ATOM    102  O   UNL     1      -4.075   8.473  11.007  1.00  0.00    -0.237 OA
ATOM    103  O   UNL     1      -5.394   6.425  11.368  1.00  0.00    -0.744 OA
ENDBRANCH  99 100
ENDBRANCH  67  92
ENDBRANCH  41  42
ENDBRANCH  34  36
ENDBRANCH  33  34
ENDBRANCH  32  33
ENDBRANCH  31  32
ENDBRANCH  30  31
ENDBRANCH  29  30
ENDBRANCH  28  29
ENDBRANCH   1  28
TORSDOF 26
