REMARK SMILES [NH3+][C@@H](Cc1ccc(OC(F)F)cc1)C(=O)OCCOCCOCCOCCOC(=O)c1ccc(-c2c3nc(c(-c4c(F)cc(S(=O)(=O)[O-])cc4F)c4ccc([nH]4)c(-c4c(F)cc(S(=O)(=O)[O-])cc4F)c4nc(c(-c5c(F)cc(S(=O)(=O)[O-])cc5F)c5ccc2[nH]5)C=C4)C=C3)cc1
REMARK SMILES IDX 21 1 20 2 19 3 18 4 17 5 16 6 14 7 15 8 2 9 1 10 3 14 4 15
REMARK SMILES IDX 5 16 13 17 6 18 12 19 7 20 8 21 9 22 10 23 11 24 22 25 23 26
REMARK SMILES IDX 24 27 25 28 26 29 27 30 28 31 29 32 30 33 31 34 32 35 96 36
REMARK SMILES IDX 33 37 95 38 34 39 35 40 36 41 89 42 37 43 94 44 88 45 90 46
REMARK SMILES IDX 38 47 93 48 87 49 86 50 39 52 73 53 52 54 72 55 53 56 56 57
REMARK SMILES IDX 71 58 91 59 54 60 55 61 70 63 92 64 57 65 40 66 41 67 50 68
REMARK SMILES IDX 42 69 43 70 49 71 51 72 44 73 45 74 46 75 47 76 48 77 74 78
REMARK SMILES IDX 75 79 84 80 76 81 77 82 83 83 85 84 78 85 79 86 80 87 81 88
REMARK SMILES IDX 82 89 58 90 59 91 68 92 60 93 61 94 67 95 69 96 62 97 63 98
REMARK SMILES IDX 64 99 65 100 66 101
REMARK H PARENT 1 11 1 12 1 13 90 51 56 62
REMARK Flexibility Score: inf
ROOT
ATOM      1  C   UNL     1      -1.248   0.741  -1.230  1.00  0.00     0.188 C 
ENDROOT
BRANCH   1   2
ATOM      2  C   UNL     1      -1.732  -0.463  -2.052  1.00  0.00     0.188 C 
BRANCH   2   3
ATOM      3  O   UNL     1      -3.033  -1.008  -1.858  1.00  0.00    -0.376 OA
BRANCH   3   4
ATOM      4  C   UNL     1      -3.519  -1.310  -0.557  1.00  0.00     0.202 C 
BRANCH   4   5
ATOM      5  C   UNL     1      -2.662  -2.015   0.508  1.00  0.00     0.261 C 
BRANCH   5   6
ATOM      6  O   UNL     1      -1.257  -1.755   0.455  1.00  0.00    -0.459 OA
BRANCH   6   7
ATOM      7  C   UNL     1      -0.472  -2.768  -0.001  1.00  0.00     0.365 C 
ATOM      8  O   UNL     1      -0.876  -3.870  -0.358  1.00  0.00    -0.245 OA
BRANCH   7   9
ATOM      9  C   UNL     1       1.018  -2.390   0.012  1.00  0.00     0.296 C 
BRANCH   9  10
ATOM     10  N   UNL     1       1.265  -0.960  -0.266  1.00  0.00    -0.346 N 
ATOM     11  H   UNL     1       2.268  -0.777  -0.243  1.00  0.00     0.345 HD
ATOM     12  H   UNL     1       0.799  -0.391   0.441  1.00  0.00     0.345 HD
ATOM     13  H   UNL     1       0.898  -0.725  -1.188  1.00  0.00     0.345 HD
ENDBRANCH   9  10
BRANCH   9  14
ATOM     14  C   UNL     1       1.688  -2.838   1.313  1.00  0.00     0.113 C 
BRANCH  14  15
ATOM     15  C   UNL     1       1.088  -2.314   2.599  1.00  0.00    -0.041 A 
ATOM     16  C   UNL     1       1.129  -0.961   2.963  1.00  0.00     0.008 A 
ATOM     17  C   UNL     1       0.483  -3.218   3.478  1.00  0.00     0.008 A 
ATOM     18  C   UNL     1       0.567  -0.530   4.170  1.00  0.00     0.047 A 
ATOM     19  C   UNL     1      -0.051  -2.789   4.696  1.00  0.00     0.047 A 
ATOM     20  C   UNL     1      -0.009  -1.444   5.054  1.00  0.00     0.126 A 
BRANCH  20  21
ATOM     21  O   UNL     1      -0.484  -0.904   6.217  1.00  0.00    -0.435 OA
BRANCH  21  22
ATOM     22  C   UNL     1      -0.918  -1.804   7.234  1.00  0.00     0.542 C 
ATOM     23  F   UNL     1      -1.958  -2.539   6.773  1.00  0.00    -0.167 F 
ATOM     24  F   UNL     1       0.096  -2.651   7.547  1.00  0.00    -0.167 F 
ENDBRANCH  21  22
ENDBRANCH  20  21
ENDBRANCH  14  15
ENDBRANCH   9  14
ENDBRANCH   7   9
ENDBRANCH   6   7
ENDBRANCH   5   6
ENDBRANCH   4   5
ENDBRANCH   3   4
ENDBRANCH   2   3
ENDBRANCH   1   2
BRANCH   1  25
ATOM     25  O   UNL     1      -1.915   0.907   0.004  1.00  0.00    -0.377 OA
BRANCH  25  26
ATOM     26  C   UNL     1      -2.880   1.955   0.047  1.00  0.00     0.188 C 
BRANCH  26  27
ATOM     27  C   UNL     1      -3.769   2.186  -1.200  1.00  0.00     0.188 C 
BRANCH  27  28
ATOM     28  O   UNL     1      -3.078   2.245  -2.442  1.00  0.00    -0.376 OA
BRANCH  28  29
ATOM     29  C   UNL     1      -2.683   3.506  -2.966  1.00  0.00     0.202 C 
BRANCH  29  30
ATOM     30  C   UNL     1      -1.699   4.373  -2.157  1.00  0.00     0.261 C 
BRANCH  30  31
ATOM     31  O   UNL     1      -2.104   4.723  -0.826  1.00  0.00    -0.460 OA
BRANCH  31  32
ATOM     32  C   UNL     1      -3.263   5.398  -0.692  1.00  0.00     0.338 C 
ATOM     33  O   UNL     1      -3.970   5.819  -1.594  1.00  0.00    -0.246 OA
BRANCH  32  34
ATOM     34  C   UNL     1      -3.657   5.363   0.731  1.00  0.00     0.060 A 
ATOM     35  C   UNL     1      -4.901   4.812   1.063  1.00  0.00     0.016 A 
ATOM     36  C   UNL     1      -2.822   5.875   1.728  1.00  0.00     0.016 A 
ATOM     37  C   UNL     1      -5.339   4.822   2.385  1.00  0.00     0.010 A 
ATOM     38  C   UNL     1      -3.274   5.908   3.051  1.00  0.00     0.010 A 
ATOM     39  C   UNL     1      -4.553   5.423   3.376  1.00  0.00    -0.014 A 
BRANCH  39  40
ATOM     40  C   UNL     1      -5.175   5.731   4.688  1.00  0.00     0.031 A 
ATOM     41  C   UNL     1      -5.693   7.127   4.920  1.00  0.00     0.074 A 
ATOM     42  C   UNL     1      -5.350   4.778   5.620  1.00  0.00     0.049 A 
ATOM     43  N   UNL     1      -6.281   7.630   5.974  1.00  0.00    -0.248 NA
ATOM     44  C   UNL     1      -5.526   8.082   3.811  1.00  0.00     0.031 C 
ATOM     45  C   UNL     1      -4.932   3.383   5.493  1.00  0.00     0.029 A 
ATOM     46  N   UNL     1      -5.930   4.845   6.862  1.00  0.00    -0.354 N 
ATOM     47  C   UNL     1      -6.563   8.953   5.652  1.00  0.00     0.074 A 
ATOM     48  C   UNL     1      -6.037   9.190   4.326  1.00  0.00     0.031 C 
ATOM     49  C   UNL     1      -5.259   2.727   6.620  1.00  0.00     0.029 A 
ATOM     50  C   UNL     1      -5.883   3.660   7.558  1.00  0.00     0.049 A 
ATOM     51  H   UNL     1      -6.341   5.664   7.221  1.00  0.00     0.167 HD
ATOM     52  C   UNL     1      -7.220   9.883   6.386  1.00  0.00     0.037 A 
ATOM     53  C   UNL     1      -6.277   3.372   8.814  1.00  0.00     0.037 A 
ATOM     54  C   UNL     1      -7.734   9.646   7.710  1.00  0.00     0.049 A 
ATOM     55  C   UNL     1      -6.931   4.447   9.647  1.00  0.00     0.074 A 
ATOM     56  C   UNL     1      -8.401  10.525   8.544  1.00  0.00     0.029 A 
ATOM     57  N   UNL     1      -7.636   8.443   8.394  1.00  0.00    -0.354 N 
ATOM     58  N   UNL     1      -7.199   5.692   9.328  1.00  0.00    -0.248 NA
ATOM     59  C   UNL     1      -7.347   4.075  11.006  1.00  0.00     0.031 C 
ATOM     60  C   UNL     1      -8.661   9.869   9.752  1.00  0.00     0.029 A 
ATOM     61  C   UNL     1      -8.214   8.562   9.647  1.00  0.00     0.049 A 
ATOM     62  H   UNL     1      -7.218   7.624   8.041  1.00  0.00     0.167 HD
ATOM     63  C   UNL     1      -7.842   6.240  10.434  1.00  0.00     0.074 A 
ATOM     64  C   UNL     1      -7.939   5.186  11.422  1.00  0.00     0.031 C 
ATOM     65  C   UNL     1      -8.310   7.500  10.618  1.00  0.00     0.037 A 
BRANCH  52  66
ATOM     66  C   UNL     1      -7.407  11.246   5.778  1.00  0.00     0.058 A 
ATOM     67  C   UNL     1      -8.280  11.458   4.697  1.00  0.00     0.135 A 
ATOM     68  C   UNL     1      -6.736  12.362   6.303  1.00  0.00     0.135 A 
ATOM     69  F   UNL     1      -8.930  10.424   4.140  1.00  0.00    -0.206 F 
ATOM     70  C   UNL     1      -8.464  12.723   4.147  1.00  0.00     0.059 A 
ATOM     71  C   UNL     1      -6.929  13.641   5.789  1.00  0.00     0.059 A 
ATOM     72  F   UNL     1      -5.885  12.217   7.332  1.00  0.00    -0.206 F 
ATOM     73  C   UNL     1      -7.787  13.809   4.704  1.00  0.00     0.060 A 
BRANCH  73  74
ATOM     74  S   UNL     1      -8.053  15.445   3.989  1.00  0.00     0.124 S 
ATOM     75  O   UNL     1      -7.378  15.315   2.701  1.00  0.00    -0.237 OA
ATOM     76  O   UNL     1      -9.509  15.527   3.936  1.00  0.00    -0.237 OA
ATOM     77  O   UNL     1      -7.411  16.343   4.944  1.00  0.00    -0.744 OA
ENDBRANCH  73  74
ENDBRANCH  52  66
BRANCH  53  78
ATOM     78  C   UNL     1      -6.036   2.016   9.382  1.00  0.00     0.058 A 
ATOM     79  C   UNL     1      -7.094   1.158   9.716  1.00  0.00     0.135 A 
ATOM     80  C   UNL     1      -4.729   1.566   9.630  1.00  0.00     0.135 A 
ATOM     81  F   UNL     1      -8.362   1.546   9.510  1.00  0.00    -0.206 F 
ATOM     82  C   UNL     1      -6.870  -0.085  10.301  1.00  0.00     0.059 A 
ATOM     83  C   UNL     1      -4.478   0.317  10.185  1.00  0.00     0.059 A 
ATOM     84  F   UNL     1      -3.677   2.340   9.320  1.00  0.00    -0.206 F 
ATOM     85  C   UNL     1      -5.556  -0.496  10.531  1.00  0.00     0.060 A 
BRANCH  85  86
ATOM     86  S   UNL     1      -5.261  -2.122  11.259  1.00  0.00     0.124 S 
ATOM     87  O   UNL     1      -5.652  -1.897  12.646  1.00  0.00    -0.237 OA
ATOM     88  O   UNL     1      -6.148  -2.974  10.474  1.00  0.00    -0.237 OA
ATOM     89  O   UNL     1      -3.834  -2.332  11.029  1.00  0.00    -0.744 OA
ENDBRANCH  85  86
ENDBRANCH  53  78
BRANCH  65  90
ATOM     90  C   UNL     1      -9.011   7.798  11.919  1.00  0.00     0.058 A 
ATOM     91  C   UNL     1      -8.321   7.857  13.140  1.00  0.00     0.135 A 
ATOM     92  C   UNL     1     -10.392   8.060  11.937  1.00  0.00     0.135 A 
ATOM     93  F   UNL     1      -7.001   7.614  13.182  1.00  0.00    -0.206 F 
ATOM     94  C   UNL     1      -8.980   8.123  14.336  1.00  0.00     0.059 A 
ATOM     95  C   UNL     1     -11.065   8.364  13.116  1.00  0.00     0.059 A 
ATOM     96  F   UNL     1     -11.101   8.033  10.797  1.00  0.00    -0.206 F 
ATOM     97  C   UNL     1     -10.353   8.374  14.314  1.00  0.00     0.060 A 
BRANCH  97  98
ATOM     98  S   UNL     1     -11.193   8.726  15.872  1.00  0.00     0.124 S 
ATOM     99  O   UNL     1     -11.197   7.412  16.507  1.00  0.00    -0.237 OA
ATOM    100  O   UNL     1     -10.317   9.722  16.481  1.00  0.00    -0.237 OA
ATOM    101  O   UNL     1     -12.499   9.223  15.451  1.00  0.00    -0.744 OA
ENDBRANCH  97  98
ENDBRANCH  65  90
ENDBRANCH  39  40
ENDBRANCH  32  34
ENDBRANCH  31  32
ENDBRANCH  30  31
ENDBRANCH  29  30
ENDBRANCH  28  29
ENDBRANCH  27  28
ENDBRANCH  26  27
ENDBRANCH  25  26
ENDBRANCH   1  25
TORSDOF 28
