REMARK SMILES O=C(OCCOCCOCCOCCOC(=O)c1ccc(-c2c3nc(c(-c4c(F)cc(S(=O)(=O)[O-])cc4F)c4ccc([nH]4)c(-c4c(F)cc(S(=O)(=O)[O-])cc4F)c4nc(c(-c5c(F)cc(S(=O)(=O)[O-])cc5F)c5ccc2[nH]5)C=C4)C=C3)cc1)C1=NN(c2ccc(S(=O)(=O)[O-])cc2)C(=O)/C1=C/Nc1ccccc1
REMARK SMILES IDX 10 1 9 2 8 3 7 4 6 5 5 6 4 7 3 8 2 9 1 10 84 11 85 12 99 13
REMARK SMILES IDX 86 14 97 15 100 16 98 17 87 18 88 19 96 20 89 21 95 22 90 23
REMARK SMILES IDX 91 24 92 25 93 26 94 27 101 28 102 30 103 31 107 32 104 33
REMARK SMILES IDX 106 34 105 35 11 36 12 37 13 38 14 39 15 40 16 41 17 42
REMARK SMILES IDX 18 43 19 44 83 45 20 46 82 47 21 48 22 49 23 50 76 51 24 52
REMARK SMILES IDX 81 53 75 54 77 55 25 56 80 57 74 58 73 59 26 61 60 62 39 63
REMARK SMILES IDX 59 64 40 65 43 66 58 67 78 68 41 69 42 70 57 72 79 73 44 74
REMARK SMILES IDX 27 75 28 76 37 77 29 78 30 79 36 80 38 81 31 82 32 83 33 84
REMARK SMILES IDX 34 85 35 86 61 87 62 88 71 89 63 90 64 91 70 92 72 93 65 94
REMARK SMILES IDX 66 95 67 96 68 97 69 98 45 99 46 100 55 101 47 102 48 103
REMARK SMILES IDX 54 104 56 105 49 106 50 107 51 108 52 109 53 110
REMARK H PARENT 101 29 77 60 43 71
REMARK Flexibility Score: inf
ROOT
ATOM      1  C   UNL     1       5.365  -0.898   2.379  1.00  0.00     0.188 C 
ENDROOT
BRANCH   1   2
ATOM      2  O   UNL     1       4.184  -0.587   3.187  1.00  0.00    -0.377 OA
BRANCH   2   3
ATOM      3  C   UNL     1       2.991   0.138   2.880  1.00  0.00     0.188 C 
BRANCH   3   4
ATOM      4  C   UNL     1       2.731   0.552   1.460  1.00  0.00     0.188 C 
BRANCH   4   5
ATOM      5  O   UNL     1       3.815   0.209   0.626  1.00  0.00    -0.376 OA
BRANCH   5   6
ATOM      6  C   UNL     1       4.641   1.157  -0.006  1.00  0.00     0.202 C 
BRANCH   6   7
ATOM      7  C   UNL     1       3.856   2.302  -0.567  1.00  0.00     0.261 C 
BRANCH   7   8
ATOM      8  O   UNL     1       2.762   1.894  -1.429  1.00  0.00    -0.458 OA
BRANCH   8   9
ATOM      9  C   UNL     1       2.051   0.751  -1.226  1.00  0.00     0.359 C 
ATOM     10  O   UNL     1       0.840   0.733  -1.066  1.00  0.00    -0.244 OA
BRANCH   9  11
ATOM     11  C   UNL     1       2.752  -0.522  -1.659  1.00  0.00     0.183 C 
ATOM     12  N   UNL     1       2.992  -0.537  -2.946  1.00  0.00    -0.157 NA
ATOM     13  C   UNL     1       3.223  -1.783  -0.883  1.00  0.00     0.093 C 
ATOM     14  N   UNL     1       3.593  -1.709  -3.244  1.00  0.00    -0.196 N 
ATOM     15  C   UNL     1       3.906  -2.487  -2.114  1.00  0.00     0.282 C 
ATOM     16  C   UNL     1       3.384  -2.469   0.326  1.00  0.00     0.099 C 
ATOM     17  O   UNL     1       4.583  -3.502  -2.074  1.00  0.00    -0.267 OA
BRANCH  14  18
ATOM     18  C   UNL     1       3.628  -2.076  -4.626  1.00  0.00     0.069 A 
ATOM     19  C   UNL     1       3.284  -1.154  -5.644  1.00  0.00     0.030 A 
ATOM     20  C   UNL     1       3.853  -3.403  -5.007  1.00  0.00     0.030 A 
ATOM     21  C   UNL     1       3.104  -1.564  -6.978  1.00  0.00     0.021 A 
ATOM     22  C   UNL     1       3.658  -3.825  -6.330  1.00  0.00     0.021 A 
ATOM     23  C   UNL     1       3.272  -2.908  -7.307  1.00  0.00     0.054 A 
BRANCH  23  24
ATOM     24  S   UNL     1       2.951  -3.452  -8.962  1.00  0.00     0.124 S 
ATOM     25  O   UNL     1       1.559  -3.201  -9.259  1.00  0.00    -0.237 OA
ATOM     26  O   UNL     1       4.010  -2.954  -9.812  1.00  0.00    -0.237 OA
ATOM     27  O   UNL     1       3.135  -5.057  -8.938  1.00  0.00    -0.744 OA
ENDBRANCH  23  24
ENDBRANCH  14  18
BRANCH  16  28
ATOM     28  N   UNL     1       3.194  -2.567   1.828  1.00  0.00    -0.361 N 
ATOM     29  H   UNL     1       2.269  -2.289   2.021  1.00  0.00     0.166 HD
BRANCH  28  30
ATOM     30  C   UNL     1       3.922  -2.962   3.325  1.00  0.00     0.038 A 
ATOM     31  C   UNL     1       2.647  -3.332   4.580  1.00  0.00     0.026 A 
ATOM     32  C   UNL     1       5.663  -3.471   3.736  1.00  0.00     0.026 A 
ATOM     33  C   UNL     1       3.074  -4.264   6.101  1.00  0.00     0.002 A 
ATOM     34  C   UNL     1       6.127  -4.233   5.359  1.00  0.00     0.002 A 
ATOM     35  C   UNL     1       4.803  -4.618   6.541  1.00  0.00     0.000 A 
ENDBRANCH  28  30
ENDBRANCH  16  28
ENDBRANCH   9  11
ENDBRANCH   8   9
ENDBRANCH   7   8
ENDBRANCH   6   7
ENDBRANCH   5   6
ENDBRANCH   4   5
ENDBRANCH   3   4
ENDBRANCH   2   3
ENDBRANCH   1   2
BRANCH   1  36
ATOM     36  C   UNL     1       5.779  -2.251   1.297  1.00  0.00     0.188 C 
BRANCH  36  37
ATOM     37  O   UNL     1       5.753  -3.785   1.408  1.00  0.00    -0.376 OA
BRANCH  37  38
ATOM     38  C   UNL     1       4.801  -4.922   1.288  1.00  0.00     0.202 C 
BRANCH  38  39
ATOM     39  C   UNL     1       3.813  -5.656   2.326  1.00  0.00     0.261 C 
BRANCH  39  40
ATOM     40  O   UNL     1       3.304  -5.021   3.500  1.00  0.00    -0.460 OA
BRANCH  40  41
ATOM     41  C   UNL     1       4.292  -4.682   4.518  1.00  0.00     0.338 C 
ATOM     42  O   UNL     1       4.910  -5.776   4.584  1.00  0.00    -0.246 OA
BRANCH  41  43
ATOM     43  C   UNL     1       4.568  -2.747   5.468  1.00  0.00     0.060 A 
ATOM     44  C   UNL     1       5.846  -1.893   5.551  1.00  0.00     0.016 A 
ATOM     45  C   UNL     1       3.792  -2.047   6.554  1.00  0.00     0.016 A 
ATOM     46  C   UNL     1       6.360  -1.084   6.605  1.00  0.00     0.010 A 
ATOM     47  C   UNL     1       4.309  -1.262   7.669  1.00  0.00     0.010 A 
ATOM     48  C   UNL     1       5.643  -0.897   7.759  1.00  0.00    -0.014 A 
BRANCH  48  49
ATOM     49  C   UNL     1       6.329  -0.303   8.945  1.00  0.00     0.031 A 
ATOM     50  C   UNL     1       6.820  -1.173  10.087  1.00  0.00     0.074 A 
ATOM     51  C   UNL     1       6.678   0.998   8.917  1.00  0.00     0.049 A 
ATOM     52  N   UNL     1       7.520  -0.844  11.148  1.00  0.00    -0.248 NA
ATOM     53  C   UNL     1       6.492  -2.604  10.019  1.00  0.00     0.031 C 
ATOM     54  C   UNL     1       6.359   1.915   7.822  1.00  0.00     0.029 A 
ATOM     55  N   UNL     1       7.396   1.768   9.798  1.00  0.00    -0.354 N 
ATOM     56  C   UNL     1       7.699  -2.018  11.883  1.00  0.00     0.074 A 
ATOM     57  C   UNL     1       7.031  -3.068  11.142  1.00  0.00     0.031 C 
ATOM     58  C   UNL     1       6.895   3.115   8.085  1.00  0.00     0.029 A 
ATOM     59  C   UNL     1       7.542   3.075   9.393  1.00  0.00     0.049 A 
ATOM     60  H   UNL     1       7.771   1.419  10.639  1.00  0.00     0.167 HD
ATOM     61  C   UNL     1       8.346  -2.195  13.067  1.00  0.00     0.037 A 
ATOM     62  C   UNL     1       8.106   4.130  10.011  1.00  0.00     0.037 A 
ATOM     63  C   UNL     1       9.004  -1.129  13.792  1.00  0.00     0.049 A 
ATOM     64  C   UNL     1       8.746   3.927  11.356  1.00  0.00     0.074 A 
ATOM     65  C   UNL     1       9.686  -1.195  14.997  1.00  0.00     0.029 A 
ATOM     66  N   UNL     1       9.052   0.199  13.387  1.00  0.00    -0.354 N 
ATOM     67  N   UNL     1       8.886   2.817  12.043  1.00  0.00    -0.248 NA
ATOM     68  C   UNL     1       9.305   5.116  12.011  1.00  0.00     0.031 C 
ATOM     69  C   UNL     1      10.072   0.102  15.357  1.00  0.00     0.029 A 
ATOM     70  C   UNL     1       9.713   0.966  14.336  1.00  0.00     0.049 A 
ATOM     71  H   UNL     1       8.671   0.546  12.549  1.00  0.00     0.167 HD
ATOM     72  C   UNL     1       9.579   3.168  13.196  1.00  0.00     0.074 A 
ATOM     73  C   UNL     1       9.842   4.591  13.103  1.00  0.00     0.031 C 
ATOM     74  C   UNL     1       9.966   2.384  14.233  1.00  0.00     0.037 A 
BRANCH  61  75
ATOM     75  C   UNL     1       8.323  -3.569  13.705  1.00  0.00     0.058 A 
ATOM     76  C   UNL     1       9.021  -4.666  13.173  1.00  0.00     0.135 A 
ATOM     77  C   UNL     1       7.628  -3.775  14.912  1.00  0.00     0.135 A 
ATOM     78  F   UNL     1       9.704  -4.540  12.024  1.00  0.00    -0.206 F 
ATOM     79  C   UNL     1       9.001  -5.918  13.791  1.00  0.00     0.059 A 
ATOM     80  C   UNL     1       7.621  -5.008  15.563  1.00  0.00     0.059 A 
ATOM     81  F   UNL     1       6.950  -2.766  15.481  1.00  0.00    -0.206 F 
ATOM     82  C   UNL     1       8.297  -6.079  14.986  1.00  0.00     0.060 A 
BRANCH  82  83
ATOM     83  S   UNL     1       8.272  -7.709  15.768  1.00  0.00     0.124 S 
ATOM     84  O   UNL     1       7.461  -8.474  14.826  1.00  0.00    -0.237 OA
ATOM     85  O   UNL     1       9.689  -8.055  15.812  1.00  0.00    -0.237 OA
ATOM     86  O   UNL     1       7.651  -7.457  17.065  1.00  0.00    -0.744 OA
ENDBRANCH  82  83
ENDBRANCH  61  75
BRANCH  62  87
ATOM     87  C   UNL     1       8.061   5.474   9.370  1.00  0.00     0.058 A 
ATOM     88  C   UNL     1       9.229   6.125   8.945  1.00  0.00     0.135 A 
ATOM     89  C   UNL     1       6.836   6.128   9.151  1.00  0.00     0.135 A 
ATOM     90  F   UNL     1      10.426   5.551   9.138  1.00  0.00    -0.206 F 
ATOM     91  C   UNL     1       9.186   7.376   8.336  1.00  0.00     0.059 A 
ATOM     92  C   UNL     1       6.765   7.360   8.512  1.00  0.00     0.059 A 
ATOM     93  F   UNL     1       5.686   5.547   9.528  1.00  0.00    -0.206 F 
ATOM     94  C   UNL     1       7.947   7.981   8.116  1.00  0.00     0.060 A 
BRANCH  94  95
ATOM     95  S   UNL     1       7.898   9.577   7.273  1.00  0.00     0.124 S 
ATOM     96  O   UNL     1       8.474  10.460   8.281  1.00  0.00    -0.237 OA
ATOM     97  O   UNL     1       8.723   9.323   6.096  1.00  0.00    -0.237 OA
ATOM     98  O   UNL     1       6.477   9.770   7.002  1.00  0.00    -0.744 OA
ENDBRANCH  94  95
ENDBRANCH  62  87
BRANCH  74  99
ATOM     99  C   UNL     1      10.766   3.043  15.328  1.00  0.00     0.058 A 
ATOM    100  C   UNL     1      10.207   3.997  16.194  1.00  0.00     0.135 A 
ATOM    101  C   UNL     1      12.117   2.707  15.513  1.00  0.00     0.135 A 
ATOM    102  F   UNL     1       8.921   4.362  16.060  1.00  0.00    -0.206 F 
ATOM    103  C   UNL     1      10.970   4.629  17.171  1.00  0.00     0.059 A 
ATOM    104  C   UNL     1      12.889   3.296  16.509  1.00  0.00     0.059 A 
ATOM    105  F   UNL     1      12.703   1.793  14.722  1.00  0.00    -0.206 F 
ATOM    106  C   UNL     1      12.312   4.272  17.319  1.00  0.00     0.060 A 
BRANCH 106 107
ATOM    107  S   UNL     1      13.291   5.099  18.589  1.00  0.00     0.124 S 
ATOM    108  O   UNL     1      13.438   6.436  18.022  1.00  0.00    -0.237 OA
ATOM    109  O   UNL     1      12.428   4.999  19.762  1.00  0.00    -0.237 OA
ATOM    110  O   UNL     1      14.515   4.305  18.647  1.00  0.00    -0.744 OA
ENDBRANCH 106 107
ENDBRANCH  74  99
ENDBRANCH  48  49
ENDBRANCH  41  43
ENDBRANCH  40  41
ENDBRANCH  39  40
ENDBRANCH  38  39
ENDBRANCH  37  38
ENDBRANCH  36  37
ENDBRANCH   1  36
TORSDOF 27
