REMARK SMILES Cc1c(CC(=O)N[C@H](CO)C(=O)OCCOCCOCCOCCOC(=O)c2ccc(-c3c4nc(c(-c5c(F)cc(S(=O)(=O)[O-])cc5F)c5ccc([nH]5)c(-c5c(F)cc(S(=O)(=O)[O-])cc5F)c5nc(c(-c6c(F)cc(S(=O)(=O)[O-])cc6F)c6ccc3[nH]6)C=C5)C=C4)cc2)cc(-c2ccc(S(C)(=O)=O)cc2)n1-c1ccc(F)cc1
REMARK SMILES IDX 18 1 17 2 16 3 15 4 14 5 13 6 11 7 12 8 8 9 7 10 5 11 6 12
REMARK SMILES IDX 4 14 3 15 1 16 2 17 106 18 94 19 95 20 107 21 108 22 113 23
REMARK SMILES IDX 109 24 112 25 110 26 111 27 96 28 97 29 105 30 98 31 104 32
REMARK SMILES IDX 99 33 100 34 101 35 102 36 103 37 9 38 10 39 19 41 20 42
REMARK SMILES IDX 21 43 22 44 23 45 24 46 25 47 26 48 27 49 28 50 29 51 93 52
REMARK SMILES IDX 30 53 92 54 31 55 32 56 33 57 86 58 34 59 91 60 85 61 87 62
REMARK SMILES IDX 35 63 90 64 84 65 83 66 36 68 70 69 49 70 69 71 50 72 53 73
REMARK SMILES IDX 68 74 88 75 51 76 52 77 67 79 89 80 54 81 37 82 38 83 47 84
REMARK SMILES IDX 39 85 40 86 46 87 48 88 41 89 42 90 43 91 44 92 45 93 71 94
REMARK SMILES IDX 72 95 81 96 73 97 74 98 80 99 82 100 75 101 76 102 77 103
REMARK SMILES IDX 78 104 79 105 55 106 56 107 65 108 57 109 58 110 64 111
REMARK SMILES IDX 66 112 59 113 60 114 61 115 62 116 63 117
REMARK H PARENT 7 13 10 40 87 67 53 78
REMARK Flexibility Score: inf
ROOT
ATOM      1  C   UNL     1       3.665  -4.942  -0.650  1.00  0.00     0.188 C 
ENDROOT
BRANCH   1   2
ATOM      2  C   UNL     1       3.036  -5.635  -1.842  1.00  0.00     0.188 C 
BRANCH   2   3
ATOM      3  O   UNL     1       4.035  -6.142  -2.672  1.00  0.00    -0.376 OA
BRANCH   3   4
ATOM      4  C   UNL     1       4.700  -5.334  -3.603  1.00  0.00     0.202 C 
BRANCH   4   5
ATOM      5  C   UNL     1       5.278  -3.984  -3.282  1.00  0.00     0.261 C 
BRANCH   5   6
ATOM      6  O   UNL     1       4.351  -2.957  -2.951  1.00  0.00    -0.462 OA
BRANCH   6   7
ATOM      7  C   UNL     1       3.137  -2.808  -3.519  1.00  0.00     0.331 C 
ATOM      8  O   UNL     1       2.448  -3.655  -4.096  1.00  0.00    -0.250 OA
BRANCH   7   9
ATOM      9  C   UNL     1       2.799  -1.354  -3.518  1.00  0.00     0.218 C 
BRANCH   9  10
ATOM     10  N   UNL     1       3.777  -0.801  -4.474  1.00  0.00    -0.341 N 
ATOM     11  C   UNL     1       4.069  -1.156  -5.773  1.00  0.00     0.225 C 
ATOM     12  O   UNL     1       5.027  -0.555  -6.277  1.00  0.00    -0.275 OA
ATOM     13  H   UNL     1       4.311  -0.051  -4.125  1.00  0.00     0.164 HD
BRANCH  11  14
ATOM     14  C   UNL     1       3.256  -2.176  -6.608  1.00  0.00     0.137 C 
BRANCH  14  15
ATOM     15  C   UNL     1       3.746  -3.629  -6.765  1.00  0.00    -0.017 A 
ATOM     16  C   UNL     1       6.268  -3.344  -7.119  1.00  0.00     0.065 C 
ATOM     17  C   UNL     1       5.026  -4.157  -6.906  1.00  0.00     0.024 A 
ATOM     18  N   UNL     1       4.977  -5.577  -6.750  1.00  0.00    -0.314 N 
ATOM     19  C   UNL     1       2.877  -4.764  -6.875  1.00  0.00     0.033 A 
ATOM     20  C   UNL     1       3.590  -5.968  -6.824  1.00  0.00     0.053 A 
BRANCH  18  21
ATOM     21  C   UNL     1       6.097  -6.421  -6.316  1.00  0.00     0.046 A 
ATOM     22  C   UNL     1       6.006  -7.819  -6.344  1.00  0.00     0.029 A 
ATOM     23  C   UNL     1       7.208  -5.865  -5.635  1.00  0.00     0.029 A 
ATOM     24  C   UNL     1       6.901  -8.618  -5.610  1.00  0.00     0.041 A 
ATOM     25  C   UNL     1       8.093  -6.662  -4.892  1.00  0.00     0.041 A 
ATOM     26  C   UNL     1       7.912  -8.032  -4.864  1.00  0.00     0.123 A 
ATOM     27  F   UNL     1       8.704  -8.788  -4.094  1.00  0.00    -0.207 F 
ENDBRANCH  18  21
BRANCH  20  28
ATOM     28  C   UNL     1       2.945  -7.256  -6.343  1.00  0.00    -0.001 A 
ATOM     29  C   UNL     1       2.593  -7.355  -4.990  1.00  0.00     0.011 A 
ATOM     30  C   UNL     1       2.515  -8.327  -7.136  1.00  0.00     0.011 A 
ATOM     31  C   UNL     1       2.080  -8.499  -4.373  1.00  0.00     0.021 A 
ATOM     32  C   UNL     1       1.889  -9.472  -6.550  1.00  0.00     0.021 A 
ATOM     33  C   UNL     1       1.728  -9.575  -5.159  1.00  0.00     0.067 A 
BRANCH  33  34
ATOM     34  S   UNL     1       0.866 -10.921  -4.362  1.00  0.00     0.175 S 
ATOM     35  C   UNL     1       2.075 -11.768  -3.372  1.00  0.00     0.163 C 
ATOM     36  O   UNL     1      -0.101 -10.322  -3.464  1.00  0.00    -0.224 OA
ATOM     37  O   UNL     1       0.427 -11.833  -5.408  1.00  0.00    -0.224 OA
ENDBRANCH  33  34
ENDBRANCH  20  28
ENDBRANCH  14  15
ENDBRANCH  11  14
ENDBRANCH   9  10
BRANCH   9  38
ATOM     38  C   UNL     1       2.959  -0.888  -2.044  1.00  0.00     0.193 C 
BRANCH  38  39
ATOM     39  O   UNL     1       1.824  -1.275  -1.262  1.00  0.00    -0.394 OA
ATOM     40  H   UNL     1       1.025  -0.863  -1.627  1.00  0.00     0.210 HD
ENDBRANCH  38  39
ENDBRANCH   9  38
ENDBRANCH   7   9
ENDBRANCH   6   7
ENDBRANCH   5   6
ENDBRANCH   4   5
ENDBRANCH   3   4
ENDBRANCH   2   3
ENDBRANCH   1   2
BRANCH   1  41
ATOM     41  O   UNL     1       4.758  -5.575   0.008  1.00  0.00    -0.377 OA
BRANCH  41  42
ATOM     42  C   UNL     1       5.842  -6.239  -0.656  1.00  0.00     0.188 C 
BRANCH  42  43
ATOM     43  C   UNL     1       5.682  -7.719  -1.090  1.00  0.00     0.188 C 
BRANCH  43  44
ATOM     44  O   UNL     1       5.114  -8.623  -0.152  1.00  0.00    -0.376 OA
BRANCH  44  45
ATOM     45  C   UNL     1       4.042  -8.117   0.607  1.00  0.00     0.202 C 
BRANCH  45  46
ATOM     46  C   UNL     1       4.383  -7.720   2.067  1.00  0.00     0.261 C 
BRANCH  46  47
ATOM     47  O   UNL     1       5.514  -6.891   2.494  1.00  0.00    -0.460 OA
BRANCH  47  48
ATOM     48  C   UNL     1       6.772  -7.423   2.549  1.00  0.00     0.338 C 
ATOM     49  O   UNL     1       7.162  -8.330   1.830  1.00  0.00    -0.246 OA
BRANCH  48  50
ATOM     50  C   UNL     1       7.708  -6.707   3.532  1.00  0.00     0.060 A 
ATOM     51  C   UNL     1       8.949  -6.277   3.091  1.00  0.00     0.016 A 
ATOM     52  C   UNL     1       7.510  -6.590   4.925  1.00  0.00     0.016 A 
ATOM     53  C   UNL     1       9.910  -5.716   4.003  1.00  0.00     0.010 A 
ATOM     54  C   UNL     1       8.544  -6.104   5.869  1.00  0.00     0.010 A 
ATOM     55  C   UNL     1       9.809  -5.651   5.454  1.00  0.00    -0.014 A 
BRANCH  55  56
ATOM     56  C   UNL     1      11.233  -5.480   6.330  1.00  0.00     0.031 A 
ATOM     57  C   UNL     1      12.203  -6.191   5.440  1.00  0.00     0.074 A 
ATOM     58  C   UNL     1      11.803  -5.071   7.560  1.00  0.00     0.049 A 
ATOM     59  N   UNL     1      11.935  -7.419   5.094  1.00  0.00    -0.248 NA
ATOM     60  C   UNL     1      13.170  -5.522   4.566  1.00  0.00     0.031 C 
ATOM     61  C   UNL     1      11.113  -4.545   8.755  1.00  0.00     0.029 A 
ATOM     62  N   UNL     1      13.166  -5.040   8.077  1.00  0.00    -0.354 N 
ATOM     63  C   UNL     1      12.878  -7.798   4.180  1.00  0.00     0.074 A 
ATOM     64  C   UNL     1      13.466  -6.536   3.740  1.00  0.00     0.031 C 
ATOM     65  C   UNL     1      11.982  -4.135   9.736  1.00  0.00     0.029 A 
ATOM     66  C   UNL     1      13.383  -4.388   9.378  1.00  0.00     0.049 A 
ATOM     67  H   UNL     1      13.912  -5.440   7.575  1.00  0.00     0.167 HD
ATOM     68  C   UNL     1      13.494  -8.981   4.468  1.00  0.00     0.037 A 
ATOM     69  C   UNL     1      14.549  -4.153  10.147  1.00  0.00     0.037 A 
ATOM     70  C   UNL     1      14.749  -8.754   5.134  1.00  0.00     0.049 A 
ATOM     71  C   UNL     1      15.495  -5.189   9.724  1.00  0.00     0.074 A 
ATOM     72  C   UNL     1      15.775  -7.857   4.905  1.00  0.00     0.029 A 
ATOM     73  N   UNL     1      14.823  -9.114   6.464  1.00  0.00    -0.354 N 
ATOM     74  N   UNL     1      15.390  -6.413  10.134  1.00  0.00    -0.248 NA
ATOM     75  C   UNL     1      16.654  -4.895   8.890  1.00  0.00     0.031 C 
ATOM     76  C   UNL     1      16.025  -7.295   6.173  1.00  0.00     0.029 A 
ATOM     77  C   UNL     1      15.525  -8.147   7.149  1.00  0.00     0.049 A 
ATOM     78  H   UNL     1      14.438  -9.929   6.859  1.00  0.00     0.167 HD
ATOM     79  C   UNL     1      16.096  -7.100   9.203  1.00  0.00     0.074 A 
ATOM     80  C   UNL     1      17.048  -6.148   8.658  1.00  0.00     0.031 C 
ATOM     81  C   UNL     1      15.431  -8.104   8.584  1.00  0.00     0.037 A 
BRANCH  68  82
ATOM     82  C   UNL     1      12.535 -10.090   4.831  1.00  0.00     0.058 A 
ATOM     83  C   UNL     1      12.351 -11.150   3.938  1.00  0.00     0.135 A 
ATOM     84  C   UNL     1      11.708 -10.064   5.978  1.00  0.00     0.135 A 
ATOM     85  F   UNL     1      13.134 -11.259   2.852  1.00  0.00    -0.206 F 
ATOM     86  C   UNL     1      11.359 -12.108   4.141  1.00  0.00     0.059 A 
ATOM     87  C   UNL     1      10.671 -10.970   6.168  1.00  0.00     0.059 A 
ATOM     88  F   UNL     1      11.906  -9.152   6.945  1.00  0.00    -0.206 F 
ATOM     89  C   UNL     1      10.505 -11.993   5.243  1.00  0.00     0.060 A 
BRANCH  89  90
ATOM     90  S   UNL     1       9.172 -13.194   5.440  1.00  0.00     0.124 S 
ATOM     91  O   UNL     1       8.611 -13.263   4.093  1.00  0.00    -0.237 OA
ATOM     92  O   UNL     1       9.905 -14.379   5.870  1.00  0.00    -0.237 OA
ATOM     93  O   UNL     1       8.299 -12.582   6.436  1.00  0.00    -0.744 OA
ENDBRANCH  89  90
ENDBRANCH  68  82
BRANCH  69  94
ATOM     94  C   UNL     1      15.235  -3.396  11.382  1.00  0.00     0.058 A 
ATOM     95  C   UNL     1      16.327  -3.989  12.129  1.00  0.00     0.135 A 
ATOM     96  C   UNL     1      15.190  -2.001  11.550  1.00  0.00     0.135 A 
ATOM     97  F   UNL     1      16.516  -5.316  12.144  1.00  0.00    -0.206 F 
ATOM     98  C   UNL     1      17.329  -3.272  12.832  1.00  0.00     0.059 A 
ATOM     99  C   UNL     1      16.175  -1.259  12.283  1.00  0.00     0.059 A 
ATOM    100  F   UNL     1      14.238  -1.292  10.928  1.00  0.00    -0.206 F 
ATOM    101  C   UNL     1      17.270  -1.893  12.876  1.00  0.00     0.060 A 
BRANCH 101 102
ATOM    102  S   UNL     1      18.689  -0.962  13.567  1.00  0.00     0.124 S 
ATOM    103  O   UNL     1      18.639  -1.296  14.986  1.00  0.00    -0.237 OA
ATOM    104  O   UNL     1      19.822  -1.516  12.830  1.00  0.00    -0.237 OA
ATOM    105  O   UNL     1      18.372   0.427  13.243  1.00  0.00    -0.744 OA
ENDBRANCH 101 102
ENDBRANCH  69  94
BRANCH  81 106
ATOM    106  C   UNL     1      14.562  -8.996   9.457  1.00  0.00     0.058 A 
ATOM    107  C   UNL     1      13.566  -8.584  10.376  1.00  0.00     0.135 A 
ATOM    108  C   UNL     1      14.842 -10.371   9.435  1.00  0.00     0.135 A 
ATOM    109  F   UNL     1      13.115  -7.321  10.415  1.00  0.00    -0.206 F 
ATOM    110  C   UNL     1      12.986  -9.467  11.293  1.00  0.00     0.059 A 
ATOM    111  C   UNL     1      14.234 -11.278  10.300  1.00  0.00     0.059 A 
ATOM    112  F   UNL     1      15.741 -10.854   8.561  1.00  0.00    -0.206 F 
ATOM    113  C   UNL     1      13.345 -10.810  11.262  1.00  0.00     0.060 A 
BRANCH 113 114
ATOM    114  S   UNL     1      12.662 -11.937  12.497  1.00  0.00     0.124 S 
ATOM    115  O   UNL     1      13.366 -11.520  13.707  1.00  0.00    -0.237 OA
ATOM    116  O   UNL     1      11.237 -11.629  12.462  1.00  0.00    -0.237 OA
ATOM    117  O   UNL     1      13.034 -13.257  11.994  1.00  0.00    -0.744 OA
ENDBRANCH 113 114
ENDBRANCH  81 106
ENDBRANCH  55  56
ENDBRANCH  48  50
ENDBRANCH  47  48
ENDBRANCH  46  47
ENDBRANCH  45  46
ENDBRANCH  44  45
ENDBRANCH  43  44
ENDBRANCH  42  43
ENDBRANCH  41  42
ENDBRANCH   1  41
TORSDOF 31
