REMARK SMILES C[C@@H](C(=O)OCCOCCOCCOCCOC(=O)c1ccc(-c2c3nc(c(-c4c(F)cc(S(=O)(=O)[O-])cc4F)c4ccc([nH]4)c(-c4c(F)cc(S(=O)(=O)[O-])cc4F)c4nc(c(-c5c(F)cc(S(=O)(=O)[O-])cc5F)c5ccc2[nH]5)C=C4)C=C3)cc1)N1C(=O)/C(=C/c2nc3ccccc3[nH]2)SC1=S
REMARK SMILES IDX 12 1 11 2 10 3 9 4 8 5 7 6 6 7 5 8 3 9 4 10 2 11 1 12 86 13
REMARK SMILES IDX 87 14 101 15 88 16 89 17 100 18 102 19 90 20 91 21 92 22
REMARK SMILES IDX 99 23 93 24 98 25 94 27 97 28 95 29 96 30 13 31 14 32 15 33
REMARK SMILES IDX 16 34 17 35 18 36 19 37 20 38 21 39 85 40 22 41 84 42 23 43
REMARK SMILES IDX 24 44 25 45 78 46 26 47 83 48 77 49 79 50 27 51 82 52 76 53
REMARK SMILES IDX 75 54 28 56 62 57 41 58 61 59 42 60 45 61 60 62 80 63 43 64
REMARK SMILES IDX 44 65 59 67 81 68 46 69 29 70 30 71 39 72 31 73 32 74 38 75
REMARK SMILES IDX 40 76 33 77 34 78 35 79 36 80 37 81 63 82 64 83 73 84 65 85
REMARK SMILES IDX 66 86 72 87 74 88 67 89 68 90 69 91 70 92 71 93 47 94 48 95
REMARK SMILES IDX 57 96 49 97 50 98 56 99 58 100 51 101 52 102 53 103 54 104
REMARK SMILES IDX 55 105
REMARK H PARENT 99 26 79 55 45 66
REMARK Flexibility Score: inf
ROOT
ATOM      1  C   UNL     1       2.917   2.587  -2.885  1.00  0.00     0.188 C 
ENDROOT
BRANCH   1   2
ATOM      2  O   UNL     1       2.251   1.919  -1.811  1.00  0.00    -0.377 OA
BRANCH   2   3
ATOM      3  C   UNL     1       0.834   1.936  -1.776  1.00  0.00     0.188 C 
BRANCH   3   4
ATOM      4  C   UNL     1       0.208   3.279  -1.365  1.00  0.00     0.188 C 
BRANCH   4   5
ATOM      5  O   UNL     1       1.081   4.387  -1.492  1.00  0.00    -0.376 OA
BRANCH   5   6
ATOM      6  C   UNL     1       1.905   4.785  -0.403  1.00  0.00     0.202 C 
BRANCH   6   7
ATOM      7  C   UNL     1       2.445   3.801   0.654  1.00  0.00     0.261 C 
BRANCH   7   8
ATOM      8  O   UNL     1       1.622   2.641   0.825  1.00  0.00    -0.462 OA
BRANCH   8   9
ATOM      9  C   UNL     1       1.386   2.168   2.068  1.00  0.00     0.329 C 
ATOM     10  O   UNL     1       1.818   2.658   3.103  1.00  0.00    -0.250 OA
BRANCH   9  11
ATOM     11  C   UNL     1       0.472   0.925   2.028  1.00  0.00     0.199 C 
ATOM     12  C   UNL     1       1.234  -0.163   1.229  1.00  0.00     0.044 C 
BRANCH  11  13
ATOM     13  N   UNL     1      -0.935   1.123   1.557  1.00  0.00    -0.279 N 
ATOM     14  C   UNL     1      -1.724  -0.007   1.323  1.00  0.00     0.267 C 
ATOM     15  C   UNL     1      -1.677   2.283   1.697  1.00  0.00     0.149 C 
ATOM     16  O   UNL     1      -1.392  -1.175   1.484  1.00  0.00    -0.268 OA
ATOM     17  C   UNL     1      -3.125   0.367   0.974  1.00  0.00     0.084 C 
ATOM     18  S   UNL     1      -3.243   2.078   0.939  1.00  0.00    -0.054 SA
ATOM     19  S   UNL     1      -1.325   3.733   2.441  1.00  0.00    -0.052 S 
ATOM     20  C   UNL     1      -4.125  -0.525   0.843  1.00  0.00     0.068 C 
BRANCH  20  21
ATOM     21  C   UNL     1      -5.449  -0.100   0.559  1.00  0.00     0.132 A 
ATOM     22  N   UNL     1      -5.861   0.883  -0.215  1.00  0.00    -0.229 NA
ATOM     23  N   UNL     1      -6.519  -0.663   1.221  1.00  0.00    -0.338 N 
ATOM     24  C   UNL     1      -7.168   1.100   0.113  1.00  0.00     0.089 A 
ATOM     25  C   UNL     1      -7.619   0.140   1.009  1.00  0.00     0.066 A 
ATOM     26  H   UNL     1      -6.500  -1.492   1.752  1.00  0.00     0.168 HD
ATOM     27  C   UNL     1      -8.018   2.137  -0.289  1.00  0.00     0.030 A 
ATOM     28  C   UNL     1      -8.918   0.141   1.527  1.00  0.00     0.028 A 
ATOM     29  C   UNL     1      -9.311   2.183   0.240  1.00  0.00     0.002 A 
ATOM     30  C   UNL     1      -9.753   1.196   1.126  1.00  0.00     0.002 A 
ENDBRANCH  20  21
ENDBRANCH  11  13
ENDBRANCH   9  11
ENDBRANCH   8   9
ENDBRANCH   7   8
ENDBRANCH   6   7
ENDBRANCH   5   6
ENDBRANCH   4   5
ENDBRANCH   3   4
ENDBRANCH   2   3
ENDBRANCH   1   2
BRANCH   1  31
ATOM     31  C   UNL     1       2.156   3.444  -3.926  1.00  0.00     0.188 C 
BRANCH  31  32
ATOM     32  O   UNL     1       0.838   3.006  -4.226  1.00  0.00    -0.376 OA
BRANCH  32  33
ATOM     33  C   UNL     1       0.637   2.266  -5.420  1.00  0.00     0.202 C 
BRANCH  33  34
ATOM     34  C   UNL     1       1.290   0.877  -5.480  1.00  0.00     0.261 C 
BRANCH  34  35
ATOM     35  O   UNL     1       2.723   0.855  -5.381  1.00  0.00    -0.460 OA
BRANCH  35  36
ATOM     36  C   UNL     1       3.423   1.549  -6.303  1.00  0.00     0.338 C 
ATOM     37  O   UNL     1       2.976   2.157  -7.261  1.00  0.00    -0.246 OA
BRANCH  36  38
ATOM     38  C   UNL     1       4.824   1.620  -5.845  1.00  0.00     0.060 A 
ATOM     39  C   UNL     1       5.401   2.876  -5.614  1.00  0.00     0.016 A 
ATOM     40  C   UNL     1       5.562   0.452  -5.641  1.00  0.00     0.016 A 
ATOM     41  C   UNL     1       6.735   2.968  -5.218  1.00  0.00     0.010 A 
ATOM     42  C   UNL     1       6.904   0.547  -5.266  1.00  0.00     0.010 A 
ATOM     43  C   UNL     1       7.506   1.806  -5.089  1.00  0.00    -0.014 A 
BRANCH  43  44
ATOM     44  C   UNL     1       8.982   1.911  -4.986  1.00  0.00     0.031 A 
ATOM     45  C   UNL     1       9.792   1.746  -6.244  1.00  0.00     0.074 A 
ATOM     46  C   UNL     1       9.590   2.167  -3.814  1.00  0.00     0.049 A 
ATOM     47  N   UNL     1      11.089   1.733  -6.402  1.00  0.00    -0.248 NA
ATOM     48  C   UNL     1       9.032   1.567  -7.493  1.00  0.00     0.031 C 
ATOM     49  C   UNL     1       8.912   2.389  -2.539  1.00  0.00     0.029 A 
ATOM     50  N   UNL     1      10.925   2.270  -3.509  1.00  0.00    -0.354 N 
ATOM     51  C   UNL     1      11.302   1.540  -7.762  1.00  0.00     0.074 A 
ATOM     52  C   UNL     1      10.002   1.406  -8.381  1.00  0.00     0.031 C 
ATOM     53  C   UNL     1       9.837   2.586  -1.583  1.00  0.00     0.029 A 
ATOM     54  C   UNL     1      11.171   2.469  -2.171  1.00  0.00     0.049 A 
ATOM     55  H   UNL     1      11.638   2.208  -4.184  1.00  0.00     0.167 HD
ATOM     56  C   UNL     1      12.475   1.487  -8.436  1.00  0.00     0.037 A 
ATOM     57  C   UNL     1      12.339   2.521  -1.498  1.00  0.00     0.037 A 
ATOM     58  C   UNL     1      13.765   1.617  -7.812  1.00  0.00     0.049 A 
ATOM     59  C   UNL     1      13.635   2.384  -2.259  1.00  0.00     0.074 A 
ATOM     60  C   UNL     1      15.014   1.586  -8.408  1.00  0.00     0.029 A 
ATOM     61  N   UNL     1      13.974   1.793  -6.452  1.00  0.00    -0.354 N 
ATOM     62  N   UNL     1      13.824   2.219  -3.548  1.00  0.00    -0.248 NA
ATOM     63  C   UNL     1      14.878   2.444  -1.476  1.00  0.00     0.031 C 
ATOM     64  C   UNL     1      15.979   1.687  -7.401  1.00  0.00     0.029 A 
ATOM     65  C   UNL     1      15.332   1.846  -6.186  1.00  0.00     0.049 A 
ATOM     66  H   UNL     1      13.263   1.868  -5.776  1.00  0.00     0.167 HD
ATOM     67  C   UNL     1      15.204   2.187  -3.732  1.00  0.00     0.074 A 
ATOM     68  C   UNL     1      15.802   2.362  -2.424  1.00  0.00     0.031 C 
ATOM     69  C   UNL     1      15.913   2.032  -4.878  1.00  0.00     0.037 A 
BRANCH  56  70
ATOM     70  C   UNL     1      12.416   1.253  -9.920  1.00  0.00     0.058 A 
ATOM     71  C   UNL     1      11.942   2.232 -10.808  1.00  0.00     0.135 A 
ATOM     72  C   UNL     1      12.871   0.042 -10.466  1.00  0.00     0.135 A 
ATOM     73  F   UNL     1      11.474   3.400 -10.339  1.00  0.00    -0.206 F 
ATOM     74  C   UNL     1      11.901   2.011 -12.181  1.00  0.00     0.059 A 
ATOM     75  C   UNL     1      12.868  -0.189 -11.839  1.00  0.00     0.059 A 
ATOM     76  F   UNL     1      13.329  -0.932  -9.664  1.00  0.00    -0.206 F 
ATOM     77  C   UNL     1      12.369   0.798 -12.687  1.00  0.00     0.060 A 
BRANCH  77  78
ATOM     78  S   UNL     1      12.321   0.533 -14.472  1.00  0.00     0.124 S 
ATOM     79  O   UNL     1      10.887   0.391 -14.707  1.00  0.00    -0.237 OA
ATOM     80  O   UNL     1      12.929   1.757 -14.983  1.00  0.00    -0.237 OA
ATOM     81  O   UNL     1      13.110  -0.681 -14.658  1.00  0.00    -0.744 OA
ENDBRANCH  77  78
ENDBRANCH  56  70
BRANCH  57  82
ATOM     82  C   UNL     1      12.342   2.690  -0.019  1.00  0.00     0.058 A 
ATOM     83  C   UNL     1      12.837   3.858   0.581  1.00  0.00     0.135 A 
ATOM     84  C   UNL     1      11.861   1.678   0.827  1.00  0.00     0.135 A 
ATOM     85  F   UNL     1      13.322   4.850  -0.182  1.00  0.00    -0.206 F 
ATOM     86  C   UNL     1      12.872   4.011   1.964  1.00  0.00     0.059 A 
ATOM     87  C   UNL     1      11.857   1.819   2.211  1.00  0.00     0.059 A 
ATOM     88  F   UNL     1      11.370   0.543   0.306  1.00  0.00    -0.206 F 
ATOM     89  C   UNL     1      12.376   2.986   2.771  1.00  0.00     0.060 A 
BRANCH  89  90
ATOM     90  S   UNL     1      12.384   3.213   4.563  1.00  0.00     0.124 S 
ATOM     91  O   UNL     1      13.806   3.105   4.866  1.00  0.00    -0.237 OA
ATOM     92  O   UNL     1      11.799   4.543   4.704  1.00  0.00    -0.237 OA
ATOM     93  O   UNL     1      11.551   2.115   5.044  1.00  0.00    -0.744 OA
ENDBRANCH  89  90
ENDBRANCH  57  82
BRANCH  69  94
ATOM     94  C   UNL     1      17.415   2.087  -4.786  1.00  0.00     0.058 A 
ATOM     95  C   UNL     1      18.163   1.053  -4.204  1.00  0.00     0.135 A 
ATOM     96  C   UNL     1      18.119   3.167  -5.347  1.00  0.00     0.135 A 
ATOM     97  F   UNL     1      17.543  -0.001  -3.649  1.00  0.00    -0.206 F 
ATOM     98  C   UNL     1      19.554   1.098  -4.157  1.00  0.00     0.059 A 
ATOM     99  C   UNL     1      19.509   3.217  -5.341  1.00  0.00     0.059 A 
ATOM    100  F   UNL     1      17.455   4.178  -5.929  1.00  0.00    -0.206 F 
ATOM    101  C   UNL     1      20.218   2.183  -4.732  1.00  0.00     0.060 A 
BRANCH 101 102
ATOM    102  S   UNL     1      22.023   2.211  -4.696  1.00  0.00     0.124 S 
ATOM    103  O   UNL     1      22.285   2.488  -3.287  1.00  0.00    -0.237 OA
ATOM    104  O   UNL     1      22.365   0.868  -5.152  1.00  0.00    -0.237 OA
ATOM    105  O   UNL     1      22.366   3.287  -5.621  1.00  0.00    -0.744 OA
ENDBRANCH 101 102
ENDBRANCH  69  94
ENDBRANCH  43  44
ENDBRANCH  36  38
ENDBRANCH  35  36
ENDBRANCH  34  35
ENDBRANCH  33  34
ENDBRANCH  32  33
ENDBRANCH  31  32
ENDBRANCH   1  31
TORSDOF 25
