REMARK SMILES CCC1(CC)CCN(C(=O)NC(CC)(CC)C(=O)OCCOCCOCCOCCOC(=O)c2ccc(-c3c4nc(c(-c5c(F)cc(S(=O)(=O)[O-])cc5F)c5ccc([nH]5)c(-c5c(F)cc(S(=O)(=O)[O-])cc5F)c5nc(c(-c6c(F)cc(S(=O)(=O)[O-])cc6F)c6ccc3[nH]6)C=C5)C=C4)cc2)CC1
REMARK SMILES IDX 26 1 25 2 24 3 23 4 22 5 21 6 20 7 19 8 17 9 18 10 12 11
REMARK SMILES IDX 11 12 3 13 6 14 101 15 7 16 100 17 8 18 9 19 10 20 2 22 1 23
REMARK SMILES IDX 4 24 5 25 13 26 14 27 15 28 16 29 27 30 28 31 29 32 30 33
REMARK SMILES IDX 31 34 32 35 33 36 34 37 35 38 99 39 36 40 98 41 37 42 38 43
REMARK SMILES IDX 39 44 92 45 40 46 97 47 91 48 93 49 41 50 96 51 90 52 89 53
REMARK SMILES IDX 42 55 76 56 55 57 75 58 56 59 59 60 74 61 94 62 57 63 58 64
REMARK SMILES IDX 73 66 95 67 60 68 43 69 44 70 53 71 45 72 46 73 52 74 54 75
REMARK SMILES IDX 47 76 48 77 49 78 50 79 51 80 77 81 78 82 87 83 79 84 80 85
REMARK SMILES IDX 86 86 88 87 81 88 82 89 83 90 84 91 85 92 61 93 62 94 71 95
REMARK SMILES IDX 63 96 64 97 70 98 72 99 65 100 66 101 67 102 68 103 69 104
REMARK H PARENT 11 21 93 54 59 65
REMARK Flexibility Score: inf
ROOT
ATOM      1  C   UNL     1      -1.401  -5.289   2.802  1.00  0.00     0.188 C 
ENDROOT
BRANCH   1   2
ATOM      2  O   UNL     1      -0.517  -6.300   2.345  1.00  0.00    -0.377 OA
BRANCH   2   3
ATOM      3  C   UNL     1       0.244  -5.846   1.253  1.00  0.00     0.188 C 
BRANCH   3   4
ATOM      4  C   UNL     1      -0.632  -5.620   0.040  1.00  0.00     0.188 C 
BRANCH   4   5
ATOM      5  O   UNL     1      -1.456  -4.470  -0.021  1.00  0.00    -0.376 OA
BRANCH   5   6
ATOM      6  C   UNL     1      -2.005  -4.192  -1.325  1.00  0.00     0.202 C 
BRANCH   6   7
ATOM      7  C   UNL     1      -2.271  -5.343  -2.330  1.00  0.00     0.261 C 
BRANCH   7   8
ATOM      8  O   UNL     1      -1.222  -6.337  -2.420  1.00  0.00    -0.461 OA
BRANCH   8   9
ATOM      9  C   UNL     1      -0.069  -6.035  -3.079  1.00  0.00     0.331 C 
ATOM     10  O   UNL     1       0.027  -5.123  -3.892  1.00  0.00    -0.249 OA
BRANCH   9  11
ATOM     11  C   UNL     1       1.115  -6.981  -2.640  1.00  0.00     0.139 C 
BRANCH  11  12
ATOM     12  N   UNL     1       2.440  -6.232  -2.417  1.00  0.00    -0.322 N 
ATOM     13  C   UNL     1       1.859  -1.539   0.134  1.00  0.00    -0.027 C 
ATOM     14  C   UNL     1       3.353  -1.946  -0.047  1.00  0.00     0.028 C 
ATOM     15  C   UNL     1       1.021  -2.756  -0.315  1.00  0.00     0.028 C 
ATOM     16  C   UNL     1       3.705  -2.898  -1.236  1.00  0.00     0.122 C 
ATOM     17  C   UNL     1       1.396  -3.366  -1.660  1.00  0.00     0.122 C 
ATOM     18  N   UNL     1       2.707  -3.950  -1.552  1.00  0.00    -0.325 N 
ATOM     19  C   UNL     1       3.134  -5.207  -1.884  1.00  0.00     0.318 C 
ATOM     20  O   UNL     1       4.339  -5.488  -1.772  1.00  0.00    -0.249 OA
ATOM     21  H   UNL     1       3.112  -6.763  -2.903  1.00  0.00     0.166 HD
BRANCH  13  22
ATOM     22  C   UNL     1       1.402  -0.358  -0.774  1.00  0.00     0.004 C 
ATOM     23  C   UNL     1       1.650   1.071  -0.326  1.00  0.00     0.004 C 
ENDBRANCH  13  22
BRANCH  13  24
ATOM     24  C   UNL     1       1.513  -1.352   1.658  1.00  0.00     0.004 C 
ATOM     25  C   UNL     1       2.119  -0.214   2.466  1.00  0.00     0.004 C 
ENDBRANCH  13  24
ENDBRANCH  11  12
BRANCH  11  26
ATOM     26  C   UNL     1       1.267  -7.860  -3.940  1.00  0.00     0.037 C 
ATOM     27  C   UNL     1       2.127  -9.119  -3.849  1.00  0.00     0.007 C 
ENDBRANCH  11  26
BRANCH  11  28
ATOM     28  C   UNL     1       0.769  -8.009  -1.487  1.00  0.00     0.037 C 
ATOM     29  C   UNL     1       1.873  -8.472  -0.539  1.00  0.00     0.007 C 
ENDBRANCH  11  28
ENDBRANCH   9  11
ENDBRANCH   8   9
ENDBRANCH   7   8
ENDBRANCH   6   7
ENDBRANCH   5   6
ENDBRANCH   4   5
ENDBRANCH   3   4
ENDBRANCH   2   3
ENDBRANCH   1   2
BRANCH   1  30
ATOM     30  C   UNL     1      -0.708  -3.998   3.268  1.00  0.00     0.188 C 
BRANCH  30  31
ATOM     31  O   UNL     1       0.292  -4.036   4.290  1.00  0.00    -0.376 OA
BRANCH  31  32
ATOM     32  C   UNL     1       1.179  -5.141   4.385  1.00  0.00     0.202 C 
BRANCH  32  33
ATOM     33  C   UNL     1       0.731  -6.228   5.376  1.00  0.00     0.261 C 
BRANCH  33  34
ATOM     34  O   UNL     1      -0.684  -6.435   5.434  1.00  0.00    -0.460 OA
BRANCH  34  35
ATOM     35  C   UNL     1      -1.395  -5.500   6.131  1.00  0.00     0.338 C 
ATOM     36  O   UNL     1      -0.962  -4.616   6.829  1.00  0.00    -0.246 OA
BRANCH  35  37
ATOM     37  C   UNL     1      -2.821  -5.627   5.717  1.00  0.00     0.060 A 
ATOM     38  C   UNL     1      -3.509  -4.466   5.324  1.00  0.00     0.016 A 
ATOM     39  C   UNL     1      -3.413  -6.885   5.552  1.00  0.00     0.016 A 
ATOM     40  C   UNL     1      -4.801  -4.559   4.803  1.00  0.00     0.010 A 
ATOM     41  C   UNL     1      -4.717  -6.976   5.063  1.00  0.00     0.010 A 
ATOM     42  C   UNL     1      -5.430  -5.810   4.733  1.00  0.00    -0.014 A 
BRANCH  42  43
ATOM     43  C   UNL     1      -6.909  -5.870   4.679  1.00  0.00     0.031 A 
ATOM     44  C   UNL     1      -7.621  -5.873   6.006  1.00  0.00     0.074 A 
ATOM     45  C   UNL     1      -7.597  -5.921   3.526  1.00  0.00     0.049 A 
ATOM     46  N   UNL     1      -8.894  -5.991   6.270  1.00  0.00    -0.248 NA
ATOM     47  C   UNL     1      -6.769  -5.730   7.202  1.00  0.00     0.031 C 
ATOM     48  C   UNL     1      -7.018  -5.882   2.185  1.00  0.00     0.029 A 
ATOM     49  N   UNL     1      -8.948  -6.031   3.307  1.00  0.00    -0.354 N 
ATOM     50  C   UNL     1      -8.991  -5.943   7.657  1.00  0.00     0.074 A 
ATOM     51  C   UNL     1      -7.652  -5.820   8.181  1.00  0.00     0.031 C 
ATOM     52  C   UNL     1      -8.010  -5.985   1.280  1.00  0.00     0.029 A 
ATOM     53  C   UNL     1      -9.288  -6.129   1.979  1.00  0.00     0.049 A 
ATOM     54  H   UNL     1      -9.612  -6.038   4.034  1.00  0.00     0.167 HD
ATOM     55  C   UNL     1     -10.100  -5.990   8.427  1.00  0.00     0.037 A 
ATOM     56  C   UNL     1     -10.491  -6.338   1.405  1.00  0.00     0.037 A 
ATOM     57  C   UNL     1     -11.427  -6.130   7.898  1.00  0.00     0.049 A 
ATOM     58  C   UNL     1     -11.711  -6.465   2.287  1.00  0.00     0.074 A 
ATOM     59  C   UNL     1     -12.625  -6.186   8.584  1.00  0.00     0.029 A 
ATOM     60  N   UNL     1     -11.727  -6.250   6.548  1.00  0.00    -0.354 N 
ATOM     61  N   UNL     1     -11.796  -6.395   3.595  1.00  0.00    -0.248 NA
ATOM     62  C   UNL     1     -12.998  -6.697   1.615  1.00  0.00     0.031 C 
ATOM     63  C   UNL     1     -13.646  -6.395   7.652  1.00  0.00     0.029 A 
ATOM     64  C   UNL     1     -13.091  -6.405   6.381  1.00  0.00     0.049 A 
ATOM     65  H   UNL     1     -11.067  -6.227   5.818  1.00  0.00     0.167 HD
ATOM     66  C   UNL     1     -13.147  -6.543   3.900  1.00  0.00     0.074 A 
ATOM     67  C   UNL     1     -13.842  -6.697   2.639  1.00  0.00     0.031 C 
ATOM     68  C   UNL     1     -13.760  -6.547   5.112  1.00  0.00     0.037 A 
BRANCH  55  69
ATOM     69  C   UNL     1      -9.908  -5.931   9.916  1.00  0.00     0.058 A 
ATOM     70  C   UNL     1      -9.479  -4.760  10.563  1.00  0.00     0.135 A 
ATOM     71  C   UNL     1     -10.152  -7.064  10.708  1.00  0.00     0.135 A 
ATOM     72  F   UNL     1      -9.200  -3.656   9.851  1.00  0.00    -0.206 F 
ATOM     73  C   UNL     1      -9.274  -4.723  11.938  1.00  0.00     0.059 A 
ATOM     74  C   UNL     1      -9.984  -7.040  12.088  1.00  0.00     0.059 A 
ATOM     75  F   UNL     1     -10.549  -8.213  10.139  1.00  0.00    -0.206 F 
ATOM     76  C   UNL     1      -9.532  -5.868  12.693  1.00  0.00     0.060 A 
BRANCH  76  77
ATOM     77  S   UNL     1      -9.272  -5.801  14.477  1.00  0.00     0.124 S 
ATOM     78  O   UNL     1      -7.815  -5.764  14.559  1.00  0.00    -0.237 OA
ATOM     79  O   UNL     1      -9.959  -4.567  14.845  1.00  0.00    -0.237 OA
ATOM     80  O   UNL     1      -9.896  -7.029  14.959  1.00  0.00    -0.744 OA
ENDBRANCH  76  77
ENDBRANCH  55  69
BRANCH  56  81
ATOM     81  C   UNL     1     -10.606  -6.453  -0.076  1.00  0.00     0.058 A 
ATOM     82  C   UNL     1     -11.268  -5.475  -0.834  1.00  0.00     0.135 A 
ATOM     83  C   UNL     1     -10.062  -7.550  -0.764  1.00  0.00     0.135 A 
ATOM     84  F   UNL     1     -11.820  -4.415  -0.224  1.00  0.00    -0.206 F 
ATOM     85  C   UNL     1     -11.393  -5.582  -2.216  1.00  0.00     0.059 A 
ATOM     86  C   UNL     1     -10.151  -7.666  -2.148  1.00  0.00     0.059 A 
ATOM     87  F   UNL     1      -9.415  -8.513  -0.089  1.00  0.00    -0.206 F 
ATOM     88  C   UNL     1     -10.825  -6.679  -2.865  1.00  0.00     0.060 A 
BRANCH  88  89
ATOM     89  S   UNL     1     -10.936  -6.774  -4.666  1.00  0.00     0.124 S 
ATOM     90  O   UNL     1     -12.350  -7.074  -4.859  1.00  0.00    -0.237 OA
ATOM     91  O   UNL     1     -10.504  -5.439  -5.068  1.00  0.00    -0.237 OA
ATOM     92  O   UNL     1     -10.010  -7.852  -5.003  1.00  0.00    -0.744 OA
ENDBRANCH  88  89
ENDBRANCH  56  81
BRANCH  68  93
ATOM     93  C   UNL     1     -15.259  -6.678   5.136  1.00  0.00     0.058 A 
ATOM     94  C   UNL     1     -15.902  -7.888   4.837  1.00  0.00     0.135 A 
ATOM     95  C   UNL     1     -16.056  -5.592   5.536  1.00  0.00     0.135 A 
ATOM     96  F   UNL     1     -15.188  -8.956   4.448  1.00  0.00    -0.206 F 
ATOM     97  C   UNL     1     -17.286  -8.011   4.910  1.00  0.00     0.059 A 
ATOM     98  C   UNL     1     -17.438  -5.702   5.647  1.00  0.00     0.059 A 
ATOM     99  F   UNL     1     -15.489  -4.416   5.848  1.00  0.00    -0.206 F 
ATOM    100  C   UNL     1     -18.045  -6.912   5.319  1.00  0.00     0.060 A 
BRANCH 100 101
ATOM    101  S   UNL     1     -19.836  -7.096   5.443  1.00  0.00     0.124 S 
ATOM    102  O   UNL     1     -20.225  -7.136   4.037  1.00  0.00    -0.237 OA
ATOM    103  O   UNL     1     -19.971  -8.352   6.174  1.00  0.00    -0.237 OA
ATOM    104  O   UNL     1     -20.252  -5.903   6.175  1.00  0.00    -0.744 OA
ENDBRANCH 100 101
ENDBRANCH  68  93
ENDBRANCH  42  43
ENDBRANCH  35  37
ENDBRANCH  34  35
ENDBRANCH  33  34
ENDBRANCH  32  33
ENDBRANCH  31  32
ENDBRANCH  30  31
ENDBRANCH   1  30
TORSDOF 28
