REMARK SMILES O=C(OCCOCCOCCOCCOC(=O)c1ccc(-c2cccc(O)c2)cc1Cl)c1ccc(-c2c3nc(c(-c4c(F)cc(S(=O)(=O)[O-])cc4F)c4ccc([nH]4)c(-c4c(F)cc(S(=O)(=O)[O-])cc4F)c4nc(c(-c5c(F)cc(S(=O)(=O)[O-])cc5F)c5ccc2[nH]5)C=C4)C=C3)cc1
REMARK SMILES IDX 8 1 7 2 6 3 5 4 4 5 3 6 2 7 1 8 32 9 33 10 97 11 34 12 96 13
REMARK SMILES IDX 35 14 36 15 37 16 90 17 38 18 95 19 89 20 91 21 39 22 94 23
REMARK SMILES IDX 88 24 87 25 40 27 74 28 53 29 73 30 54 31 57 32 72 33 92 34
REMARK SMILES IDX 55 35 56 36 71 38 93 39 58 40 41 41 42 42 51 43 43 44 44 45
REMARK SMILES IDX 50 46 52 47 45 48 46 49 47 50 48 51 49 52 75 53 76 54 85 55
REMARK SMILES IDX 77 56 78 57 84 58 86 59 79 60 80 61 81 62 82 63 83 64 59 65
REMARK SMILES IDX 60 66 69 67 61 68 62 69 68 70 70 71 63 72 64 73 65 74 66 75
REMARK SMILES IDX 67 76 9 77 10 78 11 79 12 80 13 81 14 82 15 83 16 84 17 85
REMARK SMILES IDX 18 86 19 87 30 88 20 89 29 90 31 91 21 92 22 93 23 94 28 95
REMARK SMILES IDX 24 96 26 97 25 98 27 99
REMARK H PARENT 91 26 57 37 27 100
REMARK Flexibility Score: inf
ROOT
ATOM      1  C   UNL     1       1.934  -2.661  -0.722  1.00  0.00     0.188 C 
ENDROOT
BRANCH   1   2
ATOM      2  C   UNL     1       2.420  -1.549   0.209  1.00  0.00     0.188 C 
BRANCH   2   3
ATOM      3  O   UNL     1       3.738  -1.114  -0.131  1.00  0.00    -0.376 OA
BRANCH   3   4
ATOM      4  C   UNL     1       4.628  -0.873   0.958  1.00  0.00     0.202 C 
BRANCH   4   5
ATOM      5  C   UNL     1       4.387   0.427   1.724  1.00  0.00     0.261 C 
BRANCH   5   6
ATOM      6  O   UNL     1       3.011   0.819   1.739  1.00  0.00    -0.460 OA
BRANCH   6   7
ATOM      7  C   UNL     1       2.356   1.590   0.837  1.00  0.00     0.338 C 
ATOM      8  O   UNL     1       1.172   1.847   1.057  1.00  0.00    -0.246 OA
BRANCH   7   9
ATOM      9  C   UNL     1       2.963   2.141  -0.418  1.00  0.00     0.060 A 
ATOM     10  C   UNL     1       4.061   1.615  -1.108  1.00  0.00     0.016 A 
ATOM     11  C   UNL     1       2.311   3.248  -0.985  1.00  0.00     0.016 A 
ATOM     12  C   UNL     1       4.527   2.174  -2.289  1.00  0.00     0.010 A 
ATOM     13  C   UNL     1       2.773   3.828  -2.167  1.00  0.00     0.010 A 
ATOM     14  C   UNL     1       3.905   3.304  -2.799  1.00  0.00    -0.014 A 
BRANCH  14  15
ATOM     15  C   UNL     1       4.610   4.071  -3.834  1.00  0.00     0.031 A 
ATOM     16  C   UNL     1       5.369   5.274  -3.373  1.00  0.00     0.074 A 
ATOM     17  C   UNL     1       4.634   3.646  -5.106  1.00  0.00     0.049 A 
ATOM     18  N   UNL     1       5.915   6.229  -4.069  1.00  0.00    -0.248 NA
ATOM     19  C   UNL     1       5.532   5.418  -1.914  1.00  0.00     0.031 C 
ATOM     20  C   UNL     1       4.052   2.393  -5.589  1.00  0.00     0.029 A 
ATOM     21  N   UNL     1       5.165   4.227  -6.224  1.00  0.00    -0.354 N 
ATOM     22  C   UNL     1       6.430   7.118  -3.134  1.00  0.00     0.074 A 
ATOM     23  C   UNL     1       6.147   6.585  -1.823  1.00  0.00     0.031 C 
ATOM     24  C   UNL     1       4.233   2.314  -6.917  1.00  0.00     0.029 A 
ATOM     25  C   UNL     1       4.870   3.543  -7.379  1.00  0.00     0.049 A 
ATOM     26  H   UNL     1       5.705   5.050  -6.204  1.00  0.00     0.167 HD
ATOM     27  C   UNL     1       7.059   8.291  -3.369  1.00  0.00     0.037 A 
ATOM     28  C   UNL     1       5.036   3.919  -8.661  1.00  0.00     0.037 A 
ATOM     29  C   UNL     1       7.303   8.771  -4.701  1.00  0.00     0.049 A 
ATOM     30  C   UNL     1       5.660   5.266  -8.915  1.00  0.00     0.074 A 
ATOM     31  C   UNL     1       7.875   9.960  -5.105  1.00  0.00     0.029 A 
ATOM     32  N   UNL     1       6.970   8.066  -5.854  1.00  0.00    -0.354 N 
ATOM     33  N   UNL     1       6.077   6.153  -8.038  1.00  0.00    -0.248 NA
ATOM     34  C   UNL     1       5.827   5.675 -10.312  1.00  0.00     0.031 C 
ATOM     35  C   UNL     1       7.840   9.995  -6.503  1.00  0.00     0.029 A 
ATOM     36  C   UNL     1       7.308   8.800  -6.973  1.00  0.00     0.049 A 
ATOM     37  H   UNL     1       6.554   7.174  -5.870  1.00  0.00     0.167 HD
ATOM     38  C   UNL     1       6.579   7.217  -8.775  1.00  0.00     0.074 A 
ATOM     39  C   UNL     1       6.409   6.861 -10.173  1.00  0.00     0.031 C 
ATOM     40  C   UNL     1       7.133   8.379  -8.345  1.00  0.00     0.037 A 
BRANCH  27  41
ATOM     41  C   UNL     1       7.397   9.136  -2.172  1.00  0.00     0.058 A 
ATOM     42  C   UNL     1       8.368   8.757  -1.230  1.00  0.00     0.135 A 
ATOM     43  C   UNL     1       6.662  10.305  -1.913  1.00  0.00     0.135 A 
ATOM     44  F   UNL     1       9.078   7.631  -1.406  1.00  0.00    -0.206 F 
ATOM     45  C   UNL     1       8.555   9.471  -0.049  1.00  0.00     0.059 A 
ATOM     46  C   UNL     1       6.854  11.052  -0.755  1.00  0.00     0.059 A 
ATOM     47  F   UNL     1       5.713  10.710  -2.772  1.00  0.00    -0.206 F 
ATOM     48  C   UNL     1       7.783  10.610   0.185  1.00  0.00     0.060 A 
BRANCH  48  49
ATOM     49  S   UNL     1       7.987  11.489   1.749  1.00  0.00     0.124 S 
ATOM     50  O   UNL     1       7.329  10.578   2.682  1.00  0.00    -0.237 OA
ATOM     51  O   UNL     1       9.438  11.579   1.871  1.00  0.00    -0.237 OA
ATOM     52  O   UNL     1       7.300  12.756   1.520  1.00  0.00    -0.744 OA
ENDBRANCH  48  49
ENDBRANCH  27  41
BRANCH  28  53
ATOM     53  C   UNL     1       4.545   3.037  -9.754  1.00  0.00     0.058 A 
ATOM     54  C   UNL     1       5.429   2.357 -10.601  1.00  0.00     0.135 A 
ATOM     55  C   UNL     1       3.170   2.790  -9.916  1.00  0.00     0.135 A 
ATOM     56  F   UNL     1       6.751   2.562 -10.495  1.00  0.00    -0.206 F 
ATOM     57  C   UNL     1       4.973   1.453 -11.559  1.00  0.00     0.059 A 
ATOM     58  C   UNL     1       2.691   1.874 -10.848  1.00  0.00     0.059 A 
ATOM     59  F   UNL     1       2.278   3.407  -9.126  1.00  0.00    -0.206 F 
ATOM     60  C   UNL     1       3.602   1.209 -11.666  1.00  0.00     0.060 A 
BRANCH  60  61
ATOM     61  S   UNL     1       3.029  -0.034 -12.847  1.00  0.00     0.124 S 
ATOM     62  O   UNL     1       3.272   0.635 -14.120  1.00  0.00    -0.237 OA
ATOM     63  O   UNL     1       3.899  -1.166 -12.544  1.00  0.00    -0.237 OA
ATOM     64  O   UNL     1       1.626  -0.218 -12.489  1.00  0.00    -0.744 OA
ENDBRANCH  60  61
ENDBRANCH  28  53
BRANCH  40  65
ATOM     65  C   UNL     1       7.652   9.322  -9.389  1.00  0.00     0.058 A 
ATOM     66  C   UNL     1       6.794  10.147 -10.128  1.00  0.00     0.135 A 
ATOM     67  C   UNL     1       9.037   9.497  -9.537  1.00  0.00     0.135 A 
ATOM     68  F   UNL     1       5.463  10.008 -10.023  1.00  0.00    -0.206 F 
ATOM     69  C   UNL     1       7.295  11.128 -10.975  1.00  0.00     0.059 A 
ATOM     70  C   UNL     1       9.559  10.488 -10.357  1.00  0.00     0.059 A 
ATOM     71  F   UNL     1       9.894   8.734  -8.838  1.00  0.00    -0.206 F 
ATOM     72  C   UNL     1       8.678  11.301 -11.069  1.00  0.00     0.060 A 
BRANCH  72  73
ATOM     73  S   UNL     1       9.312  12.647 -12.089  1.00  0.00     0.124 S 
ATOM     74  O   UNL     1       9.068  12.137 -13.434  1.00  0.00    -0.237 OA
ATOM     75  O   UNL     1       8.477  13.770 -11.674  1.00  0.00    -0.237 OA
ATOM     76  O   UNL     1      10.715  12.740 -11.696  1.00  0.00    -0.744 OA
ENDBRANCH  72  73
ENDBRANCH  40  65
ENDBRANCH  14  15
ENDBRANCH   7   9
ENDBRANCH   6   7
ENDBRANCH   5   6
ENDBRANCH   4   5
ENDBRANCH   3   4
ENDBRANCH   2   3
ENDBRANCH   1   2
BRANCH   1  77
ATOM     77  O   UNL     1       2.638  -3.897  -0.613  1.00  0.00    -0.377 OA
BRANCH  77  78
ATOM     78  C   UNL     1       4.060  -3.817  -0.614  1.00  0.00     0.188 C 
BRANCH  78  79
ATOM     79  C   UNL     1       4.775  -3.181  -1.829  1.00  0.00     0.188 C 
BRANCH  79  80
ATOM     80  O   UNL     1       3.902  -2.541  -2.745  1.00  0.00    -0.376 OA
BRANCH  80  81
ATOM     81  C   UNL     1       3.709  -3.201  -3.991  1.00  0.00     0.202 C 
BRANCH  81  82
ATOM     82  C   UNL     1       3.058  -4.596  -3.965  1.00  0.00     0.261 C 
BRANCH  82  83
ATOM     83  O   UNL     1       3.554  -5.497  -2.959  1.00  0.00    -0.460 OA
BRANCH  83  84
ATOM     84  C   UNL     1       4.694  -6.178  -3.194  1.00  0.00     0.339 C 
ATOM     85  O   UNL     1       5.393  -6.123  -4.192  1.00  0.00    -0.246 OA
BRANCH  84  86
ATOM     86  C   UNL     1       5.114  -6.819  -1.926  1.00  0.00     0.078 A 
ATOM     87  C   UNL     1       6.349  -6.423  -1.381  1.00  0.00     0.018 A 
ATOM     88  C   UNL     1       4.310  -7.720  -1.224  1.00  0.00     0.056 A 
ATOM     89  C   UNL     1       6.781  -6.934  -0.153  1.00  0.00     0.010 A 
ATOM     90  C   UNL     1       4.763  -8.250  -0.007  1.00  0.00     0.030 A 
ATOM     91  Cl  UNL     1       2.794  -8.286  -1.826  1.00  0.00    -0.083 Cl
ATOM     92  C   UNL     1       6.014  -7.891   0.524  1.00  0.00    -0.017 A 
BRANCH  92  93
ATOM     93  C   UNL     1       6.596  -8.661   1.628  1.00  0.00    -0.015 A 
ATOM     94  C   UNL     1       7.186  -9.901   1.317  1.00  0.00     0.009 A 
ATOM     95  C   UNL     1       6.610  -8.231   2.960  1.00  0.00     0.054 A 
ATOM     96  C   UNL     1       7.769 -10.696   2.301  1.00  0.00     0.004 A 
ATOM     97  C   UNL     1       7.194  -9.036   3.942  1.00  0.00     0.116 A 
ATOM     98  C   UNL     1       7.772 -10.263   3.623  1.00  0.00     0.046 A 
BRANCH  97  99
ATOM     99  O   UNL     1       7.183  -8.588   5.231  1.00  0.00    -0.508 OA
ATOM    100  H   UNL     1       7.567  -9.107   5.911  1.00  0.00     0.293 HD
ENDBRANCH  97  99
ENDBRANCH  92  93
ENDBRANCH  84  86
ENDBRANCH  83  84
ENDBRANCH  82  83
ENDBRANCH  81  82
ENDBRANCH  80  81
ENDBRANCH  79  80
ENDBRANCH  78  79
ENDBRANCH  77  78
ENDBRANCH   1  77
TORSDOF 25
