REMARK SMILES Cc1cccc(NC(=O)[C@H]2CCCCC[C@@H]2[NH3+])c1C(=O)OCCOCCOCCOCCOC(=O)c1ccc(-c2c3nc(c(-c4c(F)cc(S(=O)(=O)[O-])cc4F)c4ccc([nH]4)c(-c4c(F)cc(S(=O)(=O)[O-])cc4F)c4nc(c(-c5c(F)cc(S(=O)(=O)[O-])cc5F)c5ccc2[nH]5)C=C4)C=C3)cc1
REMARK SMILES IDX 26 1 25 2 24 3 23 4 22 5 21 6 19 7 20 8 18 9 1 10 2 11 3 12
REMARK SMILES IDX 4 13 6 14 5 15 7 16 8 17 9 19 10 20 11 21 12 22 13 23 16 25
REMARK SMILES IDX 15 26 14 27 17 29 27 33 28 34 29 35 30 36 31 37 32 38 33 39
REMARK SMILES IDX 34 40 35 41 36 42 37 43 101 44 38 45 100 46 39 47 40 48
REMARK SMILES IDX 41 49 94 50 42 51 99 52 93 53 95 54 43 55 98 56 92 57 91 58
REMARK SMILES IDX 44 60 78 61 57 62 77 63 58 64 61 65 76 66 96 67 59 68 60 69
REMARK SMILES IDX 75 71 97 72 62 73 45 74 46 75 55 76 47 77 48 78 54 79 56 80
REMARK SMILES IDX 49 81 50 82 51 83 52 84 53 85 79 86 80 87 89 88 81 89 82 90
REMARK SMILES IDX 88 91 90 92 83 93 84 94 85 95 86 96 87 97 63 98 64 99 73 100
REMARK SMILES IDX 65 101 66 102 72 103 74 104 67 105 68 106 69 107 70 108
REMARK SMILES IDX 71 109
REMARK H PARENT 7 18 17 30 17 31 17 32 95 59 61 70
REMARK Flexibility Score: 90.00
ROOT
ATOM      1  C   UNL     1      -8.056   4.222   0.622  1.00  0.00     0.188 C 
ENDROOT
BRANCH   1   2
ATOM      2  C   UNL     1      -7.325   2.983   1.160  1.00  0.00     0.188 C 
BRANCH   2   3
ATOM      3  O   UNL     1      -7.772   2.330   2.336  1.00  0.00    -0.376 OA
BRANCH   3   4
ATOM      4  C   UNL     1      -7.298   2.860   3.575  1.00  0.00     0.202 C 
BRANCH   4   5
ATOM      5  C   UNL     1      -5.795   3.033   3.739  1.00  0.00     0.261 C 
BRANCH   5   6
ATOM      6  O   UNL     1      -5.420   4.207   3.001  1.00  0.00    -0.460 OA
BRANCH   6   7
ATOM      7  C   UNL     1      -4.114   4.403   2.768  1.00  0.00     0.340 C 
ATOM      8  O   UNL     1      -3.157   3.980   3.387  1.00  0.00    -0.246 OA
BRANCH   7   9
ATOM      9  C   UNL     1      -4.020   4.678   1.327  1.00  0.00     0.086 A 
ATOM     10  C   UNL     1      -5.068   6.994   1.560  1.00  0.00     0.045 C 
ATOM     11  C   UNL     1      -4.381   5.916   0.773  1.00  0.00    -0.034 A 
ATOM     12  C   UNL     1      -4.146   6.106  -0.589  1.00  0.00     0.004 A 
ATOM     13  C   UNL     1      -3.679   5.053  -1.378  1.00  0.00     0.002 A 
ATOM     14  C   UNL     1      -3.684   3.555   0.516  1.00  0.00     0.056 A 
ATOM     15  C   UNL     1      -3.497   3.773  -0.840  1.00  0.00     0.027 A 
BRANCH  14  16
ATOM     16  N   UNL     1      -3.744   2.288   1.148  1.00  0.00    -0.325 N 
ATOM     17  C   UNL     1      -3.960   1.003   0.789  1.00  0.00     0.233 C 
ATOM     18  H   UNL     1      -3.583   2.365   2.116  1.00  0.00     0.169 HD
ATOM     19  O   UNL     1      -4.461   0.283   1.658  1.00  0.00    -0.274 OA
BRANCH  17  20
ATOM     20  C   UNL     1      -3.617   0.465  -0.574  1.00  0.00     0.137 C 
BRANCH  20  21
ATOM     21  C   UNL     1      -3.006  -0.949  -0.449  1.00  0.00     0.020 C 
BRANCH  21  22
ATOM     22  C   UNL     1      -3.916  -2.102  -0.019  1.00  0.00     0.001 C 
BRANCH  22  23
ATOM     23  C   UNL     1      -4.761  -2.730  -1.117  1.00  0.00     0.000 CG0
ATOM     24  G   UNL     1      -5.363  -1.783  -2.143  1.00  0.00     0.000 G0
ENDBRANCH  22  23
ENDBRANCH  21  22
ENDBRANCH  20  21
BRANCH  20  25
ATOM     25  C   UNL     1      -4.791   0.668  -1.546  1.00  0.00     0.193 C 
BRANCH  25  26
ATOM     26  C   UNL     1      -5.849  -0.450  -1.578  1.00  0.00     0.066 C 
BRANCH  26  27
ATOM     27  C   UNL     1      -5.363  -1.783  -2.143  1.00  0.00     0.006 CG0
ATOM     28  G   UNL     1      -4.761  -2.730  -1.117  1.00  0.00     0.000 G0
ENDBRANCH  26  27
ENDBRANCH  25  26
BRANCH  25  29
ATOM     29  N   UNL     1      -4.258   0.923  -2.902  1.00  0.00    -0.354 N 
ATOM     30  H   UNL     1      -3.752   0.099  -3.228  1.00  0.00     0.344 HD
ATOM     31  H   UNL     1      -3.625   1.722  -2.873  1.00  0.00     0.344 HD
ATOM     32  H   UNL     1      -5.029   1.123  -3.538  1.00  0.00     0.344 HD
ENDBRANCH  25  29
ENDBRANCH  20  25
ENDBRANCH  17  20
ENDBRANCH  14  16
ENDBRANCH   7   9
ENDBRANCH   6   7
ENDBRANCH   5   6
ENDBRANCH   4   5
ENDBRANCH   3   4
ENDBRANCH   2   3
ENDBRANCH   1   2
BRANCH   1  33
ATOM     33  O   UNL     1      -8.131   5.389   1.423  1.00  0.00    -0.377 OA
BRANCH  33  34
ATOM     34  C   UNL     1      -9.311   5.598   2.210  1.00  0.00     0.188 C 
BRANCH  34  35
ATOM     35  C   UNL     1     -10.620   4.963   1.751  1.00  0.00     0.188 C 
BRANCH  35  36
ATOM     36  O   UNL     1     -10.548   3.566   2.052  1.00  0.00    -0.376 OA
BRANCH  36  37
ATOM     37  C   UNL     1     -11.396   2.719   1.295  1.00  0.00     0.202 C 
BRANCH  37  38
ATOM     38  C   UNL     1     -12.888   3.037   1.433  1.00  0.00     0.261 C 
BRANCH  38  39
ATOM     39  O   UNL     1     -13.443   2.509   2.658  1.00  0.00    -0.460 OA
BRANCH  39  40
ATOM     40  C   UNL     1     -13.743   3.420   3.631  1.00  0.00     0.338 C 
ATOM     41  O   UNL     1     -14.858   3.881   3.798  1.00  0.00    -0.246 OA
BRANCH  40  42
ATOM     42  C   UNL     1     -12.598   3.623   4.557  1.00  0.00     0.060 A 
ATOM     43  C   UNL     1     -12.465   4.784   5.333  1.00  0.00     0.016 A 
ATOM     44  C   UNL     1     -11.594   2.669   4.587  1.00  0.00     0.016 A 
ATOM     45  C   UNL     1     -11.262   5.055   6.014  1.00  0.00     0.010 A 
ATOM     46  C   UNL     1     -10.396   2.970   5.200  1.00  0.00     0.010 A 
ATOM     47  C   UNL     1     -10.191   4.171   5.898  1.00  0.00    -0.014 A 
BRANCH  47  48
ATOM     48  C   UNL     1      -8.795   4.411   6.324  1.00  0.00     0.031 A 
ATOM     49  C   UNL     1      -8.047   3.297   7.017  1.00  0.00     0.074 A 
ATOM     50  C   UNL     1      -8.100   5.412   5.721  1.00  0.00     0.049 A 
ATOM     51  N   UNL     1      -6.770   3.259   7.177  1.00  0.00    -0.248 NA
ATOM     52  C   UNL     1      -8.674   2.080   7.539  1.00  0.00     0.031 C 
ATOM     53  C   UNL     1      -6.654   5.459   5.519  1.00  0.00     0.029 A 
ATOM     54  N   UNL     1      -8.505   6.580   5.084  1.00  0.00    -0.354 N 
ATOM     55  C   UNL     1      -6.377   1.977   7.495  1.00  0.00     0.074 A 
ATOM     56  C   UNL     1      -7.613   1.296   7.781  1.00  0.00     0.031 C 
ATOM     57  C   UNL     1      -6.281   6.586   4.904  1.00  0.00     0.029 A 
ATOM     58  C   UNL     1      -7.419   7.457   5.000  1.00  0.00     0.049 A 
ATOM     59  H   UNL     1      -9.411   6.761   4.746  1.00  0.00     0.167 HD
ATOM     60  C   UNL     1      -5.053   1.649   7.374  1.00  0.00     0.037 A 
ATOM     61  C   UNL     1      -7.343   8.626   5.700  1.00  0.00     0.037 A 
ATOM     62  C   UNL     1      -4.227   2.862   7.187  1.00  0.00     0.049 A 
ATOM     63  C   UNL     1      -6.230   8.501   6.745  1.00  0.00     0.074 A 
ATOM     64  C   UNL     1      -3.272   3.259   6.272  1.00  0.00     0.029 A 
ATOM     65  N   UNL     1      -4.463   3.994   7.986  1.00  0.00    -0.354 N 
ATOM     66  N   UNL     1      -5.942   7.372   7.364  1.00  0.00    -0.248 NA
ATOM     67  C   UNL     1      -5.183   9.509   6.927  1.00  0.00     0.031 C 
ATOM     68  C   UNL     1      -3.096   4.673   6.402  1.00  0.00     0.029 A 
ATOM     69  C   UNL     1      -3.864   5.126   7.468  1.00  0.00     0.049 A 
ATOM     70  H   UNL     1      -4.993   3.981   8.816  1.00  0.00     0.167 HD
ATOM     71  C   UNL     1      -4.653   7.432   7.838  1.00  0.00     0.074 A 
ATOM     72  C   UNL     1      -4.250   8.815   7.606  1.00  0.00     0.031 C 
ATOM     73  C   UNL     1      -3.852   6.382   8.210  1.00  0.00     0.037 A 
BRANCH  60  74
ATOM     74  C   UNL     1      -4.479   0.224   7.276  1.00  0.00     0.058 A 
ATOM     75  C   UNL     1      -3.080  -0.002   7.304  1.00  0.00     0.135 A 
ATOM     76  C   UNL     1      -5.234  -0.952   7.050  1.00  0.00     0.135 A 
ATOM     77  F   UNL     1      -2.220   1.007   7.508  1.00  0.00    -0.206 F 
ATOM     78  C   UNL     1      -2.488  -1.264   7.122  1.00  0.00     0.059 A 
ATOM     79  C   UNL     1      -4.667  -2.233   6.919  1.00  0.00     0.059 A 
ATOM     80  F   UNL     1      -6.563  -0.917   6.899  1.00  0.00    -0.206 F 
ATOM     81  C   UNL     1      -3.289  -2.381   6.939  1.00  0.00     0.060 A 
BRANCH  81  82
ATOM     82  S   UNL     1      -2.521  -4.010   6.763  1.00  0.00     0.124 S 
ATOM     83  O   UNL     1      -1.925  -3.932   5.434  1.00  0.00    -0.237 OA
ATOM     84  O   UNL     1      -1.579  -4.037   7.878  1.00  0.00    -0.237 OA
ATOM     85  O   UNL     1      -3.646  -4.934   6.888  1.00  0.00    -0.744 OA
ENDBRANCH  81  82
ENDBRANCH  60  74
BRANCH  61  86
ATOM     86  C   UNL     1      -8.613   9.408   5.619  1.00  0.00     0.058 A 
ATOM     87  C   UNL     1      -8.850   9.961   4.338  1.00  0.00     0.135 A 
ATOM     88  C   UNL     1      -9.746   9.007   6.350  1.00  0.00     0.135 A 
ATOM     89  F   UNL     1      -7.816  10.413   3.608  1.00  0.00    -0.206 F 
ATOM     90  C   UNL     1     -10.086   9.849   3.703  1.00  0.00     0.059 A 
ATOM     91  C   UNL     1     -11.002   8.896   5.731  1.00  0.00     0.059 A 
ATOM     92  F   UNL     1      -9.602   8.473   7.572  1.00  0.00    -0.206 F 
ATOM     93  C   UNL     1     -11.136   9.238   4.382  1.00  0.00     0.060 A 
BRANCH  93  94
ATOM     94  S   UNL     1     -12.553   8.655   3.406  1.00  0.00     0.124 S 
ATOM     95  O   UNL     1     -13.279   9.892   3.152  1.00  0.00    -0.237 OA
ATOM     96  O   UNL     1     -11.903   8.045   2.248  1.00  0.00    -0.237 OA
ATOM     97  O   UNL     1     -13.201   7.710   4.307  1.00  0.00    -0.744 OA
ENDBRANCH  93  94
ENDBRANCH  61  86
BRANCH  73  98
ATOM     98  C   UNL     1      -2.891   6.487   9.375  1.00  0.00     0.058 A 
ATOM     99  C   UNL     1      -3.011   7.486  10.355  1.00  0.00     0.135 A 
ATOM    100  C   UNL     1      -1.976   5.442   9.674  1.00  0.00     0.135 A 
ATOM    101  F   UNL     1      -3.899   8.484  10.237  1.00  0.00    -0.206 F 
ATOM    102  C   UNL     1      -2.255   7.476  11.521  1.00  0.00     0.059 A 
ATOM    103  C   UNL     1      -1.249   5.388  10.855  1.00  0.00     0.059 A 
ATOM    104  F   UNL     1      -1.775   4.407   8.847  1.00  0.00    -0.206 F 
ATOM    105  C   UNL     1      -1.379   6.423  11.765  1.00  0.00     0.060 A 
BRANCH 105 106
ATOM    106  S   UNL     1      -0.444   6.402  13.297  1.00  0.00     0.124 S 
ATOM    107  O   UNL     1       0.649   7.314  12.975  1.00  0.00    -0.237 OA
ATOM    108  O   UNL     1      -1.416   6.899  14.267  1.00  0.00    -0.237 OA
ATOM    109  O   UNL     1      -0.074   5.000  13.453  1.00  0.00    -0.744 OA
ENDBRANCH 105 106
ENDBRANCH  73  98
ENDBRANCH  47  48
ENDBRANCH  40  42
ENDBRANCH  39  40
ENDBRANCH  38  39
ENDBRANCH  37  38
ENDBRANCH  36  37
ENDBRANCH  35  36
ENDBRANCH  34  35
ENDBRANCH  33  34
ENDBRANCH   1  33
TORSDOF 26
