REMARK SMILES CS(=O)(=O)c1ccc(/C=C(/C(=O)OCCOCCOCCOCCOC(=O)c2ccc(-c3c4nc(c(-c5c(F)cc(S(=O)(=O)[O-])cc5F)c5ccc([nH]5)c(-c5c(F)cc(S(=O)(=O)[O-])cc5F)c5nc(c(-c6c(F)cc(S(=O)(=O)[O-])cc6F)c6ccc3[nH]6)C=C5)C=C4)cc2)c2ccc(O)cc2)cc1
REMARK SMILES IDX 20 1 19 2 18 3 17 4 16 5 15 6 14 7 13 8 11 9 12 10 10 11
REMARK SMILES IDX 9 12 8 13 5 14 6 15 102 16 7 17 101 18 2 19 1 20 3 21 4 22
REMARK SMILES IDX 94 23 95 24 100 25 96 26 99 27 97 28 98 29 21 31 22 32 23 33
REMARK SMILES IDX 24 34 25 35 26 36 27 37 28 38 29 39 93 40 30 41 92 42 31 43
REMARK SMILES IDX 32 44 33 45 86 46 34 47 91 48 85 49 87 50 35 51 90 52 84 53
REMARK SMILES IDX 83 54 36 56 70 57 49 58 69 59 50 60 53 61 68 62 88 63 51 64
REMARK SMILES IDX 52 65 67 67 89 68 54 69 37 70 38 71 47 72 39 73 40 74 46 75
REMARK SMILES IDX 48 76 41 77 42 78 43 79 44 80 45 81 71 82 72 83 81 84 73 85
REMARK SMILES IDX 74 86 80 87 82 88 75 89 76 90 77 91 78 92 79 93 55 94 56 95
REMARK SMILES IDX 65 96 57 97 58 98 64 99 66 100 59 101 60 102 61 103 62 104
REMARK SMILES IDX 63 105
REMARK H PARENT 98 30 87 55 53 66
REMARK Flexibility Score: inf
ROOT
ATOM      1  C   UNL     1       1.080  11.055   2.880  1.00  0.00     0.188 C 
ENDROOT
BRANCH   1   2
ATOM      2  O   UNL     1       1.134   9.707   2.442  1.00  0.00    -0.377 OA
BRANCH   2   3
ATOM      3  C   UNL     1       2.138   8.851   2.954  1.00  0.00     0.188 C 
BRANCH   3   4
ATOM      4  C   UNL     1       3.556   9.396   3.218  1.00  0.00     0.188 C 
BRANCH   4   5
ATOM      5  O   UNL     1       3.821  10.676   2.658  1.00  0.00    -0.376 OA
BRANCH   5   6
ATOM      6  C   UNL     1       4.704  10.690   1.543  1.00  0.00     0.202 C 
BRANCH   6   7
ATOM      7  C   UNL     1       4.040  10.260   0.232  1.00  0.00     0.261 C 
BRANCH   7   8
ATOM      8  O   UNL     1       3.530   8.916   0.246  1.00  0.00    -0.460 OA
BRANCH   8   9
ATOM      9  C   UNL     1       4.431   7.911   0.356  1.00  0.00     0.338 C 
ATOM     10  O   UNL     1       5.644   8.045   0.409  1.00  0.00    -0.246 OA
BRANCH   9  11
ATOM     11  C   UNL     1       3.731   6.597   0.544  1.00  0.00     0.067 C 
ATOM     12  C   UNL     1       2.567   6.385  -0.117  1.00  0.00     0.024 C 
BRANCH  12  13
ATOM     13  C   UNL     1       1.775   5.143  -0.237  1.00  0.00    -0.025 A 
ATOM     14  C   UNL     1       0.573   2.664  -0.774  1.00  0.00     0.067 A 
ATOM     15  C   UNL     1       1.126   2.906   0.481  1.00  0.00     0.021 A 
ATOM     16  C   UNL     1       0.511   3.685  -1.723  1.00  0.00     0.021 A 
ATOM     17  C   UNL     1       1.696   4.154   0.750  1.00  0.00     0.009 A 
ATOM     18  C   UNL     1       1.104   4.920  -1.449  1.00  0.00     0.009 A 
BRANCH  14  19
ATOM     19  S   UNL     1       0.044   1.042  -1.264  1.00  0.00     0.175 S 
ATOM     20  C   UNL     1       0.763  -0.100  -0.117  1.00  0.00     0.163 C 
ATOM     21  O   UNL     1       0.663   0.775  -2.550  1.00  0.00    -0.224 OA
ATOM     22  O   UNL     1      -1.394   0.994  -1.094  1.00  0.00    -0.224 OA
ENDBRANCH  14  19
ENDBRANCH  12  13
BRANCH  11  23
ATOM     23  C   UNL     1       4.371   5.599   1.424  1.00  0.00    -0.011 A 
ATOM     24  C   UNL     1       4.192   5.680   2.816  1.00  0.00     0.013 A 
ATOM     25  C   UNL     1       5.092   4.523   0.896  1.00  0.00     0.013 A 
ATOM     26  C   UNL     1       4.705   4.699   3.662  1.00  0.00     0.047 A 
ATOM     27  C   UNL     1       5.604   3.535   1.744  1.00  0.00     0.047 A 
ATOM     28  C   UNL     1       5.401   3.630   3.118  1.00  0.00     0.115 A 
BRANCH  28  29
ATOM     29  O   UNL     1       5.860   2.675   3.975  1.00  0.00    -0.508 OA
ATOM     30  H   UNL     1       5.710   2.761   4.896  1.00  0.00     0.293 HD
ENDBRANCH  28  29
ENDBRANCH  11  23
ENDBRANCH   9  11
ENDBRANCH   8   9
ENDBRANCH   7   8
ENDBRANCH   6   7
ENDBRANCH   5   6
ENDBRANCH   4   5
ENDBRANCH   3   4
ENDBRANCH   2   3
ENDBRANCH   1   2
BRANCH   1  31
ATOM     31  C   UNL     1       1.436  11.385   4.342  1.00  0.00     0.188 C 
BRANCH  31  32
ATOM     32  O   UNL     1       1.447  10.261   5.218  1.00  0.00    -0.376 OA
BRANCH  32  33
ATOM     33  C   UNL     1       0.341  10.149   6.104  1.00  0.00     0.202 C 
BRANCH  33  34
ATOM     34  C   UNL     1      -0.959   9.692   5.435  1.00  0.00     0.261 C 
BRANCH  34  35
ATOM     35  O   UNL     1      -1.516  10.613   4.485  1.00  0.00    -0.460 OA
BRANCH  35  36
ATOM     36  C   UNL     1      -1.824  11.858   4.909  1.00  0.00     0.338 C 
ATOM     37  O   UNL     1      -1.722  12.305   6.037  1.00  0.00    -0.246 OA
BRANCH  36  38
ATOM     38  C   UNL     1      -2.132  12.652   3.705  1.00  0.00     0.060 A 
ATOM     39  C   UNL     1      -1.342  13.768   3.397  1.00  0.00     0.016 A 
ATOM     40  C   UNL     1      -3.156  12.243   2.848  1.00  0.00     0.016 A 
ATOM     41  C   UNL     1      -1.575  14.477   2.218  1.00  0.00     0.010 A 
ATOM     42  C   UNL     1      -3.404  12.969   1.685  1.00  0.00     0.010 A 
ATOM     43  C   UNL     1      -2.623  14.094   1.371  1.00  0.00    -0.014 A 
BRANCH  43  44
ATOM     44  C   UNL     1      -3.028  14.946   0.230  1.00  0.00     0.031 A 
ATOM     45  C   UNL     1      -4.116  15.956   0.450  1.00  0.00     0.074 A 
ATOM     46  C   UNL     1      -2.474  14.791  -0.985  1.00  0.00     0.049 A 
ATOM     47  N   UNL     1      -4.721  16.724  -0.416  1.00  0.00    -0.248 NA
ATOM     48  C   UNL     1      -4.586  16.115   1.836  1.00  0.00     0.031 C 
ATOM     49  C   UNL     1      -1.383  13.874  -1.308  1.00  0.00     0.029 A 
ATOM     50  N   UNL     1      -2.776  15.392  -2.181  1.00  0.00    -0.354 N 
ATOM     51  C   UNL     1      -5.645  17.458   0.317  1.00  0.00     0.074 A 
ATOM     52  C   UNL     1      -5.537  17.025   1.694  1.00  0.00     0.031 C 
ATOM     53  C   UNL     1      -1.118  13.961  -2.624  1.00  0.00     0.029 A 
ATOM     54  C   UNL     1      -2.048  14.907  -3.241  1.00  0.00     0.049 A 
ATOM     55  H   UNL     1      -3.451  16.104  -2.272  1.00  0.00     0.167 HD
ATOM     56  C   UNL     1      -6.503  18.409  -0.119  1.00  0.00     0.037 A 
ATOM     57  C   UNL     1      -2.148  15.172  -4.559  1.00  0.00     0.037 A 
ATOM     58  C   UNL     1      -6.625  18.813  -1.493  1.00  0.00     0.049 A 
ATOM     59  C   UNL     1      -3.193  16.148  -5.039  1.00  0.00     0.074 A 
ATOM     60  C   UNL     1      -7.457  19.775  -2.038  1.00  0.00     0.029 A 
ATOM     61  N   UNL     1      -5.909  18.260  -2.545  1.00  0.00    -0.354 N 
ATOM     62  N   UNL     1      -4.045  16.856  -4.337  1.00  0.00    -0.248 NA
ATOM     63  C   UNL     1      -3.300  16.348  -6.492  1.00  0.00     0.031 C 
ATOM     64  C   UNL     1      -7.279  19.768  -3.426  1.00  0.00     0.029 A 
ATOM     65  C   UNL     1      -6.304  18.834  -3.741  1.00  0.00     0.049 A 
ATOM     66  H   UNL     1      -5.221  17.562  -2.454  1.00  0.00     0.167 HD
ATOM     67  C   UNL     1      -4.777  17.598  -5.259  1.00  0.00     0.074 A 
ATOM     68  C   UNL     1      -4.261  17.259  -6.569  1.00  0.00     0.031 C 
ATOM     69  C   UNL     1      -5.783  18.481  -5.039  1.00  0.00     0.037 A 
BRANCH  56  70
ATOM     70  C   UNL     1      -7.398  19.043   0.907  1.00  0.00     0.058 A 
ATOM     71  C   UNL     1      -6.898  19.936   1.869  1.00  0.00     0.135 A 
ATOM     72  C   UNL     1      -8.769  18.745   0.938  1.00  0.00     0.135 A 
ATOM     73  F   UNL     1      -5.590  20.237   1.896  1.00  0.00    -0.206 F 
ATOM     74  C   UNL     1      -7.719  20.482   2.849  1.00  0.00     0.059 A 
ATOM     75  C   UNL     1      -9.614  19.300   1.894  1.00  0.00     0.059 A 
ATOM     76  F   UNL     1      -9.297  17.894   0.045  1.00  0.00    -0.206 F 
ATOM     77  C   UNL     1      -9.075  20.151   2.858  1.00  0.00     0.060 A 
BRANCH  77  78
ATOM     78  S   UNL     1     -10.124  20.844   4.153  1.00  0.00     0.124 S 
ATOM     79  O   UNL     1      -9.712  20.057   5.311  1.00  0.00    -0.237 OA
ATOM     80  O   UNL     1      -9.721  22.247   4.166  1.00  0.00    -0.237 OA
ATOM     81  O   UNL     1     -11.477  20.588   3.669  1.00  0.00    -0.744 OA
ENDBRANCH  77  78
ENDBRANCH  56  70
BRANCH  57  82
ATOM     82  C   UNL     1      -1.246  14.489  -5.524  1.00  0.00     0.058 A 
ATOM     83  C   UNL     1      -0.232  15.196  -6.185  1.00  0.00     0.135 A 
ATOM     84  C   UNL     1      -1.369  13.117  -5.793  1.00  0.00     0.135 A 
ATOM     85  F   UNL     1      -0.085  16.513  -5.974  1.00  0.00    -0.206 F 
ATOM     86  C   UNL     1       0.632  14.567  -7.076  1.00  0.00     0.059 A 
ATOM     87  C   UNL     1      -0.504  12.461  -6.663  1.00  0.00     0.059 A 
ATOM     88  F   UNL     1      -2.323  12.395  -5.184  1.00  0.00    -0.206 F 
ATOM     89  C   UNL     1       0.493  13.197  -7.303  1.00  0.00     0.060 A 
BRANCH  89  90
ATOM     90  S   UNL     1       1.670  12.377  -8.402  1.00  0.00     0.124 S 
ATOM     91  O   UNL     1       1.235  12.856  -9.709  1.00  0.00    -0.237 OA
ATOM     92  O   UNL     1       2.947  12.897  -7.923  1.00  0.00    -0.237 OA
ATOM     93  O   UNL     1       1.442  10.959  -8.139  1.00  0.00    -0.744 OA
ENDBRANCH  89  90
ENDBRANCH  57  82
BRANCH  69  94
ATOM     94  C   UNL     1      -6.393  19.157  -6.236  1.00  0.00     0.058 A 
ATOM     95  C   UNL     1      -7.276  18.479  -7.091  1.00  0.00     0.135 A 
ATOM     96  C   UNL     1      -6.160  20.521  -6.481  1.00  0.00     0.135 A 
ATOM     97  F   UNL     1      -7.525  17.173  -6.906  1.00  0.00    -0.206 F 
ATOM     98  C   UNL     1      -7.903  19.128  -8.150  1.00  0.00     0.059 A 
ATOM     99  C   UNL     1      -6.795  21.195  -7.520  1.00  0.00     0.059 A 
ATOM    100  F   UNL     1      -5.331  21.218  -5.688  1.00  0.00    -0.206 F 
ATOM    101  C   UNL     1      -7.662  20.488  -8.352  1.00  0.00     0.060 A 
BRANCH 101 102
ATOM    102  S   UNL     1      -8.531  21.332  -9.691  1.00  0.00     0.124 S 
ATOM    103  O   UNL     1      -7.830  20.823 -10.865  1.00  0.00    -0.237 OA
ATOM    104  O   UNL     1      -9.903  20.863  -9.518  1.00  0.00    -0.237 OA
ATOM    105  O   UNL     1      -8.319  22.747  -9.396  1.00  0.00    -0.744 OA
ENDBRANCH 101 102
ENDBRANCH  69  94
ENDBRANCH  43  44
ENDBRANCH  36  38
ENDBRANCH  35  36
ENDBRANCH  34  35
ENDBRANCH  33  34
ENDBRANCH  32  33
ENDBRANCH  31  32
ENDBRANCH   1  31
TORSDOF 27
