REMARK SMILES C[C@@H](Oc1ccc(/C=C2\C(=O)[NH+]=C(OCCOCCOCCOCCOC(=O)c3ccc(-c4c5nc(c(-c6c(F)cc(S(=O)(=O)[O-])cc6F)c6ccc([nH]6)c(-c6c(F)cc(S(=O)(=O)[O-])cc6F)c6nc(c(-c7c(F)cc(S(=O)(=O)[O-])cc7F)c7ccc4[nH]7)C=C6)C=C5)cc3)N(c3ccc4c(c3)OCO4)C2=O)cc1)C(=O)[O-]
REMARK SMILES IDX 20 1 19 2 18 3 17 4 16 5 15 6 14 7 13 8 8 9 9 10 10 11
REMARK SMILES IDX 105 12 11 13 12 14 95 15 106 16 7 18 4 19 5 20 108 21 6 22
REMARK SMILES IDX 107 23 3 24 2 25 1 26 109 27 110 28 111 29 96 30 97 31
REMARK SMILES IDX 101 32 98 33 100 34 99 35 102 36 104 37 103 38 21 39 22 40
REMARK SMILES IDX 23 41 24 42 25 43 26 44 27 45 28 46 29 47 30 48 94 49 31 50
REMARK SMILES IDX 93 51 32 52 33 53 34 54 87 55 35 56 92 57 86 58 88 59 36 60
REMARK SMILES IDX 91 61 85 62 84 63 37 65 71 66 50 67 70 68 51 69 54 70 69 71
REMARK SMILES IDX 89 72 52 73 53 74 68 76 90 77 55 78 38 79 39 80 48 81 40 82
REMARK SMILES IDX 41 83 47 84 49 85 42 86 43 87 44 88 45 89 46 90 72 91 73 92
REMARK SMILES IDX 82 93 74 94 75 95 81 96 83 97 76 98 77 99 78 100 79 101
REMARK SMILES IDX 80 102 56 103 57 104 66 105 58 106 59 107 65 108 67 109
REMARK SMILES IDX 60 110 61 111 62 112 63 113 64 114
REMARK H PARENT 12 17 88 64 54 75
REMARK Flexibility Score: inf
ROOT
ATOM      1  O   UNL     1       9.492   9.320   1.091  1.00  0.00    -0.377 OA
ENDROOT
BRANCH   1   2
ATOM      2  C   UNL     1       8.359   8.573   0.683  1.00  0.00     0.188 C 
BRANCH   2   3
ATOM      3  C   UNL     1       8.462   7.521  -0.419  1.00  0.00     0.188 C 
BRANCH   3   4
ATOM      4  O   UNL     1       9.441   7.685  -1.435  1.00  0.00    -0.376 OA
BRANCH   4   5
ATOM      5  C   UNL     1       9.162   8.715  -2.381  1.00  0.00     0.202 C 
BRANCH   5   6
ATOM      6  C   UNL     1       9.541   8.208  -3.777  1.00  0.00     0.266 C 
BRANCH   6   7
ATOM      7  O   UNL     1       8.730   7.124  -4.313  1.00  0.00    -0.428 OA
BRANCH   7   8
ATOM      8  C   UNL     1       8.194   6.208  -3.464  1.00  0.00     0.465 C 
ATOM      9  C   UNL     1       6.325   3.093  -1.747  1.00  0.00     0.032 C 
ATOM     10  C   UNL     1       6.994   4.224  -2.060  1.00  0.00     0.155 C 
ATOM     11  C   UNL     1       6.423   5.571  -2.183  1.00  0.00     0.349 C 
ATOM     12  C   UNL     1       8.466   4.131  -2.276  1.00  0.00     0.357 C 
ATOM     13  O   UNL     1       5.630   6.012  -1.361  1.00  0.00    -0.240 OA
ATOM     14  N   UNL     1       6.942   6.334  -3.187  1.00  0.00    -0.171 N 
ATOM     15  N   UNL     1       9.015   5.205  -2.970  1.00  0.00    -0.123 N 
ATOM     16  O   UNL     1       9.087   3.128  -1.922  1.00  0.00    -0.240 OA
ATOM     17  H   UNL     1       6.375   6.965  -3.687  1.00  0.00     0.319 HD
BRANCH   9  18
ATOM     18  C   UNL     1       4.894   2.782  -1.504  1.00  0.00    -0.024 A 
ATOM     19  C   UNL     1       2.217   1.955  -1.075  1.00  0.00     0.120 A 
ATOM     20  C   UNL     1       2.504   3.281  -1.362  1.00  0.00     0.047 A 
ATOM     21  C   UNL     1       3.250   1.028  -1.024  1.00  0.00     0.047 A 
ATOM     22  C   UNL     1       3.828   3.683  -1.587  1.00  0.00     0.012 A 
ATOM     23  C   UNL     1       4.574   1.442  -1.215  1.00  0.00     0.012 A 
BRANCH  19  24
ATOM     24  O   UNL     1       0.905   1.585  -1.018  1.00  0.00    -0.485 OA
BRANCH  24  25
ATOM     25  C   UNL     1       0.474   1.133   0.271  1.00  0.00     0.216 C 
ATOM     26  C   UNL     1       0.637  -0.377   0.411  1.00  0.00     0.059 C 
BRANCH  25  27
ATOM     27  C   UNL     1      -1.009   1.454   0.427  1.00  0.00     0.082 C 
ATOM     28  O   UNL     1      -1.563   1.787   1.465  1.00  0.00    -0.546 OA
ATOM     29  O   UNL     1      -1.742   1.257  -0.690  1.00  0.00    -0.546 OA
ENDBRANCH  25  27
ENDBRANCH  24  25
ENDBRANCH  19  24
ENDBRANCH   9  18
BRANCH  15  30
ATOM     30  C   UNL     1      10.411   5.156  -3.249  1.00  0.00     0.144 A 
ATOM     31  C   UNL     1      11.332   5.110  -2.174  1.00  0.00     0.056 A 
ATOM     32  C   UNL     1      10.873   5.123  -4.571  1.00  0.00     0.103 A 
ATOM     33  C   UNL     1      12.708   5.038  -2.409  1.00  0.00     0.055 A 
ATOM     34  C   UNL     1      12.231   4.999  -4.767  1.00  0.00     0.170 A 
ATOM     35  C   UNL     1      13.122   4.960  -3.718  1.00  0.00     0.166 A 
ATOM     36  O   UNL     1      12.848   4.871  -5.973  1.00  0.00    -0.453 OA
ATOM     37  O   UNL     1      14.407   4.813  -4.138  1.00  0.00    -0.454 OA
ATOM     38  C   UNL     1      14.199   4.598  -5.549  1.00  0.00     0.468 C 
ENDBRANCH  15  30
ENDBRANCH   7   8
ENDBRANCH   6   7
ENDBRANCH   5   6
ENDBRANCH   4   5
ENDBRANCH   3   4
ENDBRANCH   2   3
ENDBRANCH   1   2
BRANCH   1  39
ATOM     39  C   UNL     1      10.784   8.827   0.804  1.00  0.00     0.188 C 
BRANCH  39  40
ATOM     40  C   UNL     1      11.231   7.518   1.466  1.00  0.00     0.188 C 
BRANCH  40  41
ATOM     41  O   UNL     1      10.173   6.682   1.931  1.00  0.00    -0.376 OA
BRANCH  41  42
ATOM     42  C   UNL     1      10.252   6.383   3.328  1.00  0.00     0.202 C 
BRANCH  42  43
ATOM     43  C   UNL     1       9.425   7.347   4.189  1.00  0.00     0.261 C 
BRANCH  43  44
ATOM     44  O   UNL     1       9.730   8.738   4.006  1.00  0.00    -0.460 OA
BRANCH  44  45
ATOM     45  C   UNL     1      10.966   9.156   4.353  1.00  0.00     0.338 C 
ATOM     46  O   UNL     1      11.843   8.480   4.865  1.00  0.00    -0.246 OA
BRANCH  45  47
ATOM     47  C   UNL     1      11.158  10.534   3.840  1.00  0.00     0.060 A 
ATOM     48  C   UNL     1      12.383  10.861   3.242  1.00  0.00     0.016 A 
ATOM     49  C   UNL     1      10.131  11.483   3.896  1.00  0.00     0.016 A 
ATOM     50  C   UNL     1      12.575  12.129   2.685  1.00  0.00     0.010 A 
ATOM     51  C   UNL     1      10.336  12.763   3.371  1.00  0.00     0.010 A 
ATOM     52  C   UNL     1      11.564  13.097   2.776  1.00  0.00    -0.014 A 
BRANCH  52  53
ATOM     53  C   UNL     1      11.880  14.517   2.486  1.00  0.00     0.031 A 
ATOM     54  C   UNL     1      12.453  15.340   3.607  1.00  0.00     0.074 A 
ATOM     55  C   UNL     1      11.666  15.074   1.280  1.00  0.00     0.049 A 
ATOM     56  N   UNL     1      12.804  16.599   3.622  1.00  0.00    -0.248 NA
ATOM     57  C   UNL     1      12.658  14.641   4.888  1.00  0.00     0.031 C 
ATOM     58  C   UNL     1      11.134  14.385   0.106  1.00  0.00     0.029 A 
ATOM     59  N   UNL     1      11.867  16.364   0.850  1.00  0.00    -0.354 N 
ATOM     60  C   UNL     1      13.280  16.839   4.904  1.00  0.00     0.074 A 
ATOM     61  C   UNL     1      13.145  15.607   5.649  1.00  0.00     0.031 C 
ATOM     62  C   UNL     1      11.038  15.265  -0.909  1.00  0.00     0.029 A 
ATOM     63  C   UNL     1      11.480  16.583  -0.452  1.00  0.00     0.049 A 
ATOM     64  H   UNL     1      12.253  17.067   1.421  1.00  0.00     0.167 HD
ATOM     65  C   UNL     1      13.790  17.981   5.419  1.00  0.00     0.037 A 
ATOM     66  C   UNL     1      11.471  17.721  -1.178  1.00  0.00     0.037 A 
ATOM     67  C   UNL     1      13.892  19.218   4.695  1.00  0.00     0.049 A 
ATOM     68  C   UNL     1      11.971  19.005  -0.558  1.00  0.00     0.074 A 
ATOM     69  C   UNL     1      14.396  20.430   5.130  1.00  0.00     0.029 A 
ATOM     70  N   UNL     1      13.465  19.405   3.389  1.00  0.00    -0.354 N 
ATOM     71  N   UNL     1      12.463  19.208   0.642  1.00  0.00    -0.248 NA
ATOM     72  C   UNL     1      11.915  20.215  -1.392  1.00  0.00     0.031 C 
ATOM     73  C   UNL     1      14.232  21.364   4.102  1.00  0.00     0.029 A 
ATOM     74  C   UNL     1      13.671  20.720   3.010  1.00  0.00     0.049 A 
ATOM     75  H   UNL     1      13.073  18.707   2.817  1.00  0.00     0.167 HD
ATOM     76  C   UNL     1      12.800  20.558   0.695  1.00  0.00     0.074 A 
ATOM     77  C   UNL     1      12.464  21.123  -0.595  1.00  0.00     0.031 C 
ATOM     78  C   UNL     1      13.341  21.267   1.717  1.00  0.00     0.037 A 
BRANCH  65  79
ATOM     79  C   UNL     1      14.246  17.941   6.848  1.00  0.00     0.058 A 
ATOM     80  C   UNL     1      15.415  17.262   7.225  1.00  0.00     0.135 A 
ATOM     81  C   UNL     1      13.505  18.585   7.851  1.00  0.00     0.135 A 
ATOM     82  F   UNL     1      16.144  16.608   6.307  1.00  0.00    -0.206 F 
ATOM     83  C   UNL     1      15.822  17.201   8.553  1.00  0.00     0.059 A 
ATOM     84  C   UNL     1      13.906  18.558   9.182  1.00  0.00     0.059 A 
ATOM     85  F   UNL     1      12.373  19.237   7.543  1.00  0.00    -0.206 F 
ATOM     86  C   UNL     1      15.058  17.851   9.525  1.00  0.00     0.060 A 
BRANCH  86  87
ATOM     87  S   UNL     1      15.596  17.760  11.245  1.00  0.00     0.124 S 
ATOM     88  O   UNL     1      15.249  16.383  11.586  1.00  0.00    -0.237 OA
ATOM     89  O   UNL     1      17.023  18.046  11.142  1.00  0.00    -0.237 OA
ATOM     90  O   UNL     1      14.799  18.789  11.905  1.00  0.00    -0.744 OA
ENDBRANCH  86  87
ENDBRANCH  65  79
BRANCH  66  91
ATOM     91  C   UNL     1      10.962  17.716  -2.578  1.00  0.00     0.058 A 
ATOM     92  C   UNL     1      11.826  17.912  -3.666  1.00  0.00     0.135 A 
ATOM     93  C   UNL     1       9.596  17.546  -2.854  1.00  0.00     0.135 A 
ATOM     94  F   UNL     1      13.138  18.099  -3.455  1.00  0.00    -0.206 F 
ATOM     95  C   UNL     1      11.355  17.954  -4.975  1.00  0.00     0.059 A 
ATOM     96  C   UNL     1       9.104  17.560  -4.156  1.00  0.00     0.059 A 
ATOM     97  F   UNL     1       8.726  17.353  -1.850  1.00  0.00    -0.206 F 
ATOM     98  C   UNL     1       9.991  17.775  -5.210  1.00  0.00     0.060 A 
BRANCH  98  99
ATOM     99  S   UNL     1       9.396  17.783  -6.917  1.00  0.00     0.124 S 
ATOM    100  O   UNL     1       9.473  19.200  -7.249  1.00  0.00    -0.237 OA
ATOM    101  O   UNL     1      10.364  16.917  -7.582  1.00  0.00    -0.237 OA
ATOM    102  O   UNL     1       8.049  17.232  -6.803  1.00  0.00    -0.744 OA
ENDBRANCH  98  99
ENDBRANCH  66  91
BRANCH  78 103
ATOM    103  C   UNL     1      13.642  22.722   1.483  1.00  0.00     0.058 A 
ATOM    104  C   UNL     1      12.625  23.688   1.427  1.00  0.00     0.135 A 
ATOM    105  C   UNL     1      14.972  23.165   1.389  1.00  0.00     0.135 A 
ATOM    106  F   UNL     1      11.337  23.318   1.510  1.00  0.00    -0.206 F 
ATOM    107  C   UNL     1      12.915  25.040   1.267  1.00  0.00     0.059 A 
ATOM    108  C   UNL     1      15.286  24.514   1.254  1.00  0.00     0.059 A 
ATOM    109  F   UNL     1      15.983  22.285   1.450  1.00  0.00    -0.206 F 
ATOM    110  C   UNL     1      14.249  25.444   1.183  1.00  0.00     0.060 A 
BRANCH 110 111
ATOM    111  S   UNL     1      14.615  27.204   1.017  1.00  0.00     0.124 S 
ATOM    112  O   UNL     1      14.267  27.446  -0.379  1.00  0.00    -0.237 OA
ATOM    113  O   UNL     1      13.724  27.805   2.006  1.00  0.00    -0.237 OA
ATOM    114  O   UNL     1      16.037  27.287   1.334  1.00  0.00    -0.744 OA
ENDBRANCH 110 111
ENDBRANCH  78 103
ENDBRANCH  52  53
ENDBRANCH  45  47
ENDBRANCH  44  45
ENDBRANCH  43  44
ENDBRANCH  42  43
ENDBRANCH  41  42
ENDBRANCH  40  41
ENDBRANCH  39  40
ENDBRANCH   1  39
TORSDOF 27
