REMARK SMILES Nc1c(Nc2ccc(I)cc2)ncnc1Nc1ccc(C(=O)OCCOCCOCCOCCOC(=O)c2ccc(-c3c4nc(c(-c5c(F)cc(S(=O)(=O)[O-])cc5F)c5ccc([nH]5)c(-c5c(F)cc(S(=O)(=O)[O-])cc5F)c5nc(c(-c6c(F)cc(S(=O)(=O)[O-])cc6F)c6ccc3[nH]6)C=C5)C=C4)cc2)cc1
REMARK SMILES IDX 28 1 27 2 26 3 25 4 24 5 23 6 21 7 22 8 20 9 17 10 18 11
REMARK SMILES IDX 105 12 19 13 104 14 16 15 15 17 2 18 3 19 12 20 14 21 13 22
REMARK SMILES IDX 1 23 4 26 5 28 6 29 11 30 7 31 10 32 8 33 9 34 29 35 30 36
REMARK SMILES IDX 31 37 32 38 33 39 34 40 35 41 36 42 37 43 38 44 39 45 103 46
REMARK SMILES IDX 40 47 102 48 41 49 42 50 43 51 96 52 44 53 101 54 95 55
REMARK SMILES IDX 97 56 45 57 100 58 94 59 93 60 46 62 80 63 59 64 79 65 60 66
REMARK SMILES IDX 63 67 78 68 98 69 61 70 62 71 77 73 99 74 64 75 47 76 48 77
REMARK SMILES IDX 57 78 49 79 50 80 56 81 58 82 51 83 52 84 53 85 54 86 55 87
REMARK SMILES IDX 81 88 82 89 91 90 83 91 84 92 90 93 92 94 85 95 86 96 87 97
REMARK SMILES IDX 88 98 89 99 65 100 66 101 75 102 67 103 68 104 74 105 76 106
REMARK SMILES IDX 69 107 70 108 71 109 72 110 73 111
REMARK H PARENT 16 16 1 24 1 25 4 27 97 61 63 72
REMARK Flexibility Score: inf
ROOT
ATOM      1  C   UNL     1       4.742  -7.600   3.330  1.00  0.00     0.188 C 
ENDROOT
BRANCH   1   2
ATOM      2  C   UNL     1       3.879  -8.164   4.477  1.00  0.00     0.188 C 
BRANCH   2   3
ATOM      3  O   UNL     1       3.953  -9.570   4.612  1.00  0.00    -0.376 OA
BRANCH   3   4
ATOM      4  C   UNL     1       2.945 -10.410   4.082  1.00  0.00     0.202 C 
BRANCH   4   5
ATOM      5  C   UNL     1       2.342 -10.220   2.679  1.00  0.00     0.261 C 
BRANCH   5   6
ATOM      6  O   UNL     1       2.276  -8.886   2.179  1.00  0.00    -0.460 OA
BRANCH   6   7
ATOM      7  C   UNL     1       1.284  -8.104   2.648  1.00  0.00     0.338 C 
ATOM      8  O   UNL     1       0.420  -8.414   3.451  1.00  0.00    -0.246 OA
BRANCH   7   9
ATOM      9  C   UNL     1       1.559  -6.719   2.204  1.00  0.00     0.060 A 
ATOM     10  C   UNL     1       1.925  -4.067   1.415  1.00  0.00     0.040 A 
ATOM     11  C   UNL     1       1.594  -4.360   2.742  1.00  0.00     0.027 A 
ATOM     12  C   UNL     1       2.192  -5.118   0.522  1.00  0.00     0.027 A 
ATOM     13  C   UNL     1       1.394  -5.683   3.132  1.00  0.00     0.018 A 
ATOM     14  C   UNL     1       2.014  -6.444   0.912  1.00  0.00     0.018 A 
BRANCH  10  15
ATOM     15  N   UNL     1       1.654  -2.771   0.914  1.00  0.00    -0.338 N 
ATOM     16  H   UNL     1       2.246  -2.020   1.149  1.00  0.00     0.168 HD
BRANCH  15  17
ATOM     17  C   UNL     1       0.528  -2.551   0.071  1.00  0.00     0.159 A 
ATOM     18  C   UNL     1       0.224  -1.260  -0.361  1.00  0.00     0.118 A 
ATOM     19  C   UNL     1      -0.916  -1.169  -1.175  1.00  0.00     0.159 A 
ATOM     20  N   UNL     1      -1.687  -2.231  -1.482  1.00  0.00    -0.217 NA
ATOM     21  N   UNL     1      -0.218  -3.622  -0.272  1.00  0.00    -0.217 NA
ATOM     22  C   UNL     1      -1.290  -3.413  -1.026  1.00  0.00     0.226 A 
BRANCH  18  23
ATOM     23  N   UNL     1       0.994  -0.146  -0.017  1.00  0.00    -0.393 N 
ATOM     24  H   UNL     1       0.742   0.747  -0.344  1.00  0.00     0.156 HD
ATOM     25  H   UNL     1       1.789  -0.255   0.553  1.00  0.00     0.156 HD
ENDBRANCH  18  23
BRANCH  19  26
ATOM     26  N   UNL     1      -1.255   0.089  -1.734  1.00  0.00    -0.338 N 
ATOM     27  H   UNL     1      -0.658   0.848  -1.540  1.00  0.00     0.168 HD
BRANCH  26  28
ATOM     28  C   UNL     1      -2.379   0.338  -2.544  1.00  0.00     0.040 A 
ATOM     29  C   UNL     1      -2.201   0.889  -3.818  1.00  0.00     0.027 A 
ATOM     30  C   UNL     1      -3.663  -0.076  -2.165  1.00  0.00     0.027 A 
ATOM     31  C   UNL     1      -3.279   1.011  -4.700  1.00  0.00     0.017 A 
ATOM     32  C   UNL     1      -4.747   0.052  -3.037  1.00  0.00     0.017 A 
ATOM     33  C   UNL     1      -4.548   0.590  -4.306  1.00  0.00     0.013 A 
ATOM     34  I   UNL     1      -6.143   0.737  -5.630  1.00  0.00    -0.044 I 
ENDBRANCH  26  28
ENDBRANCH  19  26
ENDBRANCH  15  17
ENDBRANCH  10  15
ENDBRANCH   7   9
ENDBRANCH   6   7
ENDBRANCH   5   6
ENDBRANCH   4   5
ENDBRANCH   3   4
ENDBRANCH   2   3
ENDBRANCH   1   2
BRANCH   1  35
ATOM     35  O   UNL     1       5.181  -8.521   2.348  1.00  0.00    -0.377 OA
BRANCH  35  36
ATOM     36  C   UNL     1       6.037  -9.601   2.719  1.00  0.00     0.188 C 
BRANCH  36  37
ATOM     37  C   UNL     1       6.647  -9.745   4.137  1.00  0.00     0.188 C 
BRANCH  37  38
ATOM     38  O   UNL     1       6.656  -8.560   4.916  1.00  0.00    -0.376 OA
BRANCH  38  39
ATOM     39  C   UNL     1       7.891  -7.899   5.117  1.00  0.00     0.202 C 
BRANCH  39  40
ATOM     40  C   UNL     1       8.564  -7.303   3.874  1.00  0.00     0.261 C 
BRANCH  40  41
ATOM     41  O   UNL     1       8.793  -8.213   2.790  1.00  0.00    -0.460 OA
BRANCH  41  42
ATOM     42  C   UNL     1       9.653  -9.229   3.014  1.00  0.00     0.338 C 
ATOM     43  O   UNL     1      10.269  -9.459   4.044  1.00  0.00    -0.246 OA
BRANCH  42  44
ATOM     44  C   UNL     1       9.588 -10.133   1.851  1.00  0.00     0.060 A 
ATOM     45  C   UNL     1       9.171 -11.459   2.033  1.00  0.00     0.016 A 
ATOM     46  C   UNL     1       9.934  -9.663   0.582  1.00  0.00     0.016 A 
ATOM     47  C   UNL     1       9.135 -12.332   0.946  1.00  0.00     0.010 A 
ATOM     48  C   UNL     1       9.924 -10.545  -0.498  1.00  0.00     0.010 A 
ATOM     49  C   UNL     1       9.559 -11.890  -0.314  1.00  0.00    -0.014 A 
BRANCH  49  50
ATOM     50  C   UNL     1       9.824 -12.864  -1.397  1.00  0.00     0.031 A 
ATOM     51  C   UNL     1      11.239 -13.336  -1.589  1.00  0.00     0.074 A 
ATOM     52  C   UNL     1       8.839 -13.312  -2.193  1.00  0.00     0.049 A 
ATOM     53  N   UNL     1      11.747 -14.072  -2.541  1.00  0.00    -0.248 NA
ATOM     54  C   UNL     1      12.213 -12.915  -0.567  1.00  0.00     0.031 C 
ATOM     55  C   UNL     1       7.422 -12.979  -2.055  1.00  0.00     0.029 A 
ATOM     56  N   UNL     1       8.889 -14.135  -3.289  1.00  0.00    -0.354 N 
ATOM     57  C   UNL     1      13.098 -14.199  -2.238  1.00  0.00     0.074 A 
ATOM     58  C   UNL     1      13.336 -13.442  -1.029  1.00  0.00     0.031 C 
ATOM     59  C   UNL     1       6.737 -13.581  -3.044  1.00  0.00     0.029 A 
ATOM     60  C   UNL     1       7.673 -14.300  -3.908  1.00  0.00     0.049 A 
ATOM     61  H   UNL     1       9.716 -14.566  -3.603  1.00  0.00     0.167 HD
ATOM     62  C   UNL     1      14.050 -14.889  -2.907  1.00  0.00     0.037 A 
ATOM     63  C   UNL     1       7.362 -14.933  -5.057  1.00  0.00     0.037 A 
ATOM     64  C   UNL     1      13.801 -15.626  -4.119  1.00  0.00     0.049 A 
ATOM     65  C   UNL     1       8.457 -15.611  -5.841  1.00  0.00     0.074 A 
ATOM     66  C   UNL     1      14.699 -16.343  -4.889  1.00  0.00     0.029 A 
ATOM     67  N   UNL     1      12.564 -15.738  -4.738  1.00  0.00    -0.354 N 
ATOM     68  N   UNL     1       9.738 -15.701  -5.566  1.00  0.00    -0.248 NA
ATOM     69  C   UNL     1       8.065 -16.276  -7.091  1.00  0.00     0.031 C 
ATOM     70  C   UNL     1      14.016 -16.844  -6.002  1.00  0.00     0.029 A 
ATOM     71  C   UNL     1      12.679 -16.498  -5.891  1.00  0.00     0.049 A 
ATOM     72  H   UNL     1      11.728 -15.336  -4.408  1.00  0.00     0.167 HD
ATOM     73  C   UNL     1      10.296 -16.463  -6.589  1.00  0.00     0.074 A 
ATOM     74  C   UNL     1       9.211 -16.814  -7.482  1.00  0.00     0.031 C 
ATOM     75  C   UNL     1      11.587 -16.843  -6.769  1.00  0.00     0.037 A 
BRANCH  62  76
ATOM     76  C   UNL     1      15.451 -14.859  -2.361  1.00  0.00     0.058 A 
ATOM     77  C   UNL     1      15.799 -15.528  -1.177  1.00  0.00     0.135 A 
ATOM     78  C   UNL     1      16.472 -14.192  -3.058  1.00  0.00     0.135 A 
ATOM     79  F   UNL     1      14.858 -16.160  -0.456  1.00  0.00    -0.206 F 
ATOM     80  C   UNL     1      17.104 -15.527  -0.697  1.00  0.00     0.059 A 
ATOM     81  C   UNL     1      17.791 -14.203  -2.612  1.00  0.00     0.059 A 
ATOM     82  F   UNL     1      16.195 -13.527  -4.191  1.00  0.00    -0.206 F 
ATOM     83  C   UNL     1      18.095 -14.867  -1.426  1.00  0.00     0.060 A 
BRANCH  83  84
ATOM     84  S   UNL     1      19.788 -14.901  -0.801  1.00  0.00     0.124 S 
ATOM     85  O   UNL     1      19.671 -14.091   0.408  1.00  0.00    -0.237 OA
ATOM     86  O   UNL     1      20.011 -16.327  -0.589  1.00  0.00    -0.237 OA
ATOM     87  O   UNL     1      20.564 -14.301  -1.882  1.00  0.00    -0.744 OA
ENDBRANCH  83  84
ENDBRANCH  62  76
BRANCH  63  88
ATOM     88  C   UNL     1       5.953 -14.953  -5.536  1.00  0.00     0.058 A 
ATOM     89  C   UNL     1       5.214 -16.145  -5.551  1.00  0.00     0.135 A 
ATOM     90  C   UNL     1       5.312 -13.783  -5.973  1.00  0.00     0.135 A 
ATOM     91  F   UNL     1       5.786 -17.294  -5.160  1.00  0.00    -0.206 F 
ATOM     92  C   UNL     1       3.893 -16.179  -5.986  1.00  0.00     0.059 A 
ATOM     93  C   UNL     1       3.982 -13.786  -6.384  1.00  0.00     0.059 A 
ATOM     94  F   UNL     1       5.972 -12.614  -5.974  1.00  0.00    -0.206 F 
ATOM     95  C   UNL     1       3.282 -14.991  -6.391  1.00  0.00     0.060 A 
BRANCH  95  96
ATOM     96  S   UNL     1       1.547 -15.041  -6.888  1.00  0.00     0.124 S 
ATOM     97  O   UNL     1       1.616 -15.802  -8.130  1.00  0.00    -0.237 OA
ATOM     98  O   UNL     1       0.928 -15.721  -5.755  1.00  0.00    -0.237 OA
ATOM     99  O   UNL     1       1.197 -13.631  -7.032  1.00  0.00    -0.744 OA
ENDBRANCH  95  96
ENDBRANCH  63  88
BRANCH  75 100
ATOM    100  C   UNL     1      11.893 -17.726  -7.950  1.00  0.00     0.058 A 
ATOM    101  C   UNL     1      11.838 -17.252  -9.270  1.00  0.00     0.135 A 
ATOM    102  C   UNL     1      12.284 -19.062  -7.751  1.00  0.00     0.135 A 
ATOM    103  F   UNL     1      11.472 -15.985  -9.519  1.00  0.00    -0.206 F 
ATOM    104  C   UNL     1      12.117 -18.082 -10.352  1.00  0.00     0.059 A 
ATOM    105  C   UNL     1      12.602 -19.898  -8.816  1.00  0.00     0.059 A 
ATOM    106  F   UNL     1      12.372 -19.564  -6.509  1.00  0.00    -0.206 F 
ATOM    107  C   UNL     1      12.496 -19.405 -10.115  1.00  0.00     0.060 A 
BRANCH 107 108
ATOM    108  S   UNL     1      12.848 -20.469 -11.529  1.00  0.00     0.124 S 
ATOM    109  O   UNL     1      11.517 -20.651 -12.098  1.00  0.00    -0.237 OA
ATOM    110  O   UNL     1      13.766 -19.650 -12.314  1.00  0.00    -0.237 OA
ATOM    111  O   UNL     1      13.438 -21.659 -10.923  1.00  0.00    -0.744 OA
ENDBRANCH 107 108
ENDBRANCH  75 100
ENDBRANCH  49  50
ENDBRANCH  42  44
ENDBRANCH  41  42
ENDBRANCH  40  41
ENDBRANCH  39  40
ENDBRANCH  38  39
ENDBRANCH  37  38
ENDBRANCH  36  37
ENDBRANCH  35  36
ENDBRANCH   1  35
TORSDOF 28
