REMARK SMILES CCOc1cc(C(=O)OCCOCCOCCOCCOC(=O)c2ccc(-c3c4nc(c(-c5c(F)cc(S(=O)(=O)[O-])cc5F)c5ccc([nH]5)c(-c5c(F)cc(S(=O)(=O)[O-])cc5F)c5nc(c(-c6c(F)cc(S(=O)(=O)[O-])cc6F)c6ccc3[nH]6)C=C5)C=C4)cc2)ccc1OCc1ccc(Cl)c(Cl)c1
REMARK SMILES IDX 15 1 14 2 13 3 12 4 11 5 10 6 9 7 7 8 8 9 6 10 4 11 5 12
REMARK SMILES IDX 92 13 91 14 90 15 3 16 2 17 1 18 93 19 94 20 95 21 96 22
REMARK SMILES IDX 102 23 97 24 100 25 98 26 101 27 99 28 16 29 17 30 18 31
REMARK SMILES IDX 19 32 20 33 21 34 22 35 23 36 24 37 25 38 89 39 26 40 88 41
REMARK SMILES IDX 27 42 28 43 29 44 82 45 30 46 87 47 81 48 83 49 31 50 86 51
REMARK SMILES IDX 80 52 79 53 32 55 66 56 45 57 65 58 46 59 49 60 64 61 84 62
REMARK SMILES IDX 47 63 48 64 63 66 85 67 50 68 33 69 34 70 43 71 35 72 36 73
REMARK SMILES IDX 42 74 44 75 37 76 38 77 39 78 40 79 41 80 67 81 68 82 77 83
REMARK SMILES IDX 69 84 70 85 76 86 78 87 71 88 72 89 73 90 74 91 75 92 51 93
REMARK SMILES IDX 52 94 61 95 53 96 54 97 60 98 62 99 55 100 56 101 57 102
REMARK SMILES IDX 58 103 59 104
REMARK H PARENT 83 54 49 65
REMARK Flexibility Score: inf
ROOT
ATOM      1  O   UNL     1       5.374  -5.646   3.506  1.00  0.00    -0.377 OA
ENDROOT
BRANCH   1   2
ATOM      2  C   UNL     1       4.021  -5.433   3.136  1.00  0.00     0.188 C 
BRANCH   2   3
ATOM      3  C   UNL     1       3.443  -6.614   2.334  1.00  0.00     0.188 C 
BRANCH   3   4
ATOM      4  O   UNL     1       4.323  -7.731   2.315  1.00  0.00    -0.376 OA
BRANCH   4   5
ATOM      5  C   UNL     1       5.138  -7.936   1.172  1.00  0.00     0.202 C 
BRANCH   5   6
ATOM      6  C   UNL     1       6.066  -6.832   0.644  1.00  0.00     0.261 C 
BRANCH   6   7
ATOM      7  O   UNL     1       5.557  -5.497   0.609  1.00  0.00    -0.460 OA
BRANCH   7   8
ATOM      8  C   UNL     1       4.565  -5.167  -0.251  1.00  0.00     0.338 C 
ATOM      9  O   UNL     1       3.983  -5.882  -1.021  1.00  0.00    -0.246 OA
BRANCH   8  10
ATOM     10  C   UNL     1       4.229  -3.749   0.056  1.00  0.00     0.064 A 
ATOM     11  C   UNL     1       2.618  -2.006   0.545  1.00  0.00     0.162 A 
ATOM     12  C   UNL     1       2.891  -3.349   0.263  1.00  0.00     0.066 A 
ATOM     13  C   UNL     1       3.674  -1.081   0.506  1.00  0.00     0.161 A 
ATOM     14  C   UNL     1       5.001  -1.504   0.450  1.00  0.00     0.051 A 
ATOM     15  C   UNL     1       5.281  -2.839   0.220  1.00  0.00     0.020 A 
BRANCH  11  16
ATOM     16  O   UNL     1       1.402  -1.500   0.903  1.00  0.00    -0.490 OA
BRANCH  16  17
ATOM     17  C   UNL     1       0.228  -2.058   0.324  1.00  0.00     0.226 C 
ATOM     18  C   UNL     1      -0.850  -0.988   0.450  1.00  0.00     0.049 C 
ENDBRANCH  16  17
ENDBRANCH  11  16
BRANCH  13  19
ATOM     19  O   UNL     1       3.540   0.271   0.363  1.00  0.00    -0.485 OA
BRANCH  19  20
ATOM     20  C   UNL     1       2.527   0.779  -0.521  1.00  0.00     0.265 C 
BRANCH  20  21
ATOM     21  C   UNL     1       2.091   0.108  -1.831  1.00  0.00    -0.009 A 
ATOM     22  C   UNL     1       0.976   0.658  -2.488  1.00  0.00     0.009 A 
ATOM     23  C   UNL     1       2.664  -1.041  -2.396  1.00  0.00     0.029 A 
ATOM     24  C   UNL     1       0.388   0.019  -3.584  1.00  0.00     0.022 A 
ATOM     25  C   UNL     1       2.038  -1.729  -3.445  1.00  0.00     0.060 A 
ATOM     26  C   UNL     1       0.891  -1.200  -4.037  1.00  0.00     0.059 A 
ATOM     27  Cl  UNL     1       2.693  -3.260  -3.909  1.00  0.00    -0.083 Cl
ATOM     28  Cl  UNL     1       0.044  -1.999  -5.312  1.00  0.00    -0.083 Cl
ENDBRANCH  20  21
ENDBRANCH  19  20
ENDBRANCH  13  19
ENDBRANCH   8  10
ENDBRANCH   7   8
ENDBRANCH   6   7
ENDBRANCH   5   6
ENDBRANCH   4   5
ENDBRANCH   3   4
ENDBRANCH   2   3
ENDBRANCH   1   2
BRANCH   1  29
ATOM     29  C   UNL     1       5.612  -6.404   4.689  1.00  0.00     0.188 C 
BRANCH  29  30
ATOM     30  C   UNL     1       4.596  -7.461   5.184  1.00  0.00     0.188 C 
BRANCH  30  31
ATOM     31  O   UNL     1       3.236  -7.029   5.186  1.00  0.00    -0.376 OA
BRANCH  31  32
ATOM     32  C   UNL     1       2.649  -6.716   6.440  1.00  0.00     0.202 C 
BRANCH  32  33
ATOM     33  C   UNL     1       3.068  -5.355   7.008  1.00  0.00     0.261 C 
BRANCH  33  34
ATOM     34  O   UNL     1       4.458  -5.245   7.341  1.00  0.00    -0.460 OA
BRANCH  34  35
ATOM     35  C   UNL     1       4.939  -6.123   8.248  1.00  0.00     0.338 C 
ATOM     36  O   UNL     1       4.312  -6.961   8.869  1.00  0.00    -0.246 OA
BRANCH  35  37
ATOM     37  C   UNL     1       6.409  -6.022   8.230  1.00  0.00     0.060 A 
ATOM     38  C   UNL     1       7.162  -7.173   7.968  1.00  0.00     0.016 A 
ATOM     39  C   UNL     1       7.032  -4.796   8.473  1.00  0.00     0.016 A 
ATOM     40  C   UNL     1       8.554  -7.107   7.995  1.00  0.00     0.010 A 
ATOM     41  C   UNL     1       8.424  -4.737   8.518  1.00  0.00     0.010 A 
ATOM     42  C   UNL     1       9.187  -5.899   8.316  1.00  0.00    -0.014 A 
BRANCH  42  43
ATOM     43  C   UNL     1      10.627  -5.891   8.653  1.00  0.00     0.031 A 
ATOM     44  C   UNL     1      11.015  -6.011  10.101  1.00  0.00     0.074 A 
ATOM     45  C   UNL     1      11.567  -5.779   7.698  1.00  0.00     0.049 A 
ATOM     46  N   UNL     1      12.200  -5.981  10.648  1.00  0.00    -0.248 NA
ATOM     47  C   UNL     1       9.911  -6.183  11.061  1.00  0.00     0.031 C 
ATOM     48  C   UNL     1      11.308  -5.684   6.263  1.00  0.00     0.029 A 
ATOM     49  N   UNL     1      12.933  -5.713   7.802  1.00  0.00    -0.354 N 
ATOM     50  C   UNL     1      11.987  -6.127  12.013  1.00  0.00     0.074 A 
ATOM     51  C   UNL     1      10.558  -6.215  12.215  1.00  0.00     0.031 C 
ATOM     52  C   UNL     1      12.482  -5.556   5.619  1.00  0.00     0.029 A 
ATOM     53  C   UNL     1      13.568  -5.533   6.598  1.00  0.00     0.049 A 
ATOM     54  H   UNL     1      13.412  -5.787   8.659  1.00  0.00     0.167 HD
ATOM     55  C   UNL     1      12.902  -6.191  13.008  1.00  0.00     0.037 A 
ATOM     56  C   UNL     1      14.875  -5.351   6.325  1.00  0.00     0.037 A 
ATOM     57  C   UNL     1      14.321  -6.090  12.801  1.00  0.00     0.049 A 
ATOM     58  C   UNL     1      15.872  -5.360   7.456  1.00  0.00     0.074 A 
ATOM     59  C   UNL     1      15.335  -6.155  13.740  1.00  0.00     0.029 A 
ATOM     60  N   UNL     1      14.927  -5.890  11.569  1.00  0.00    -0.354 N 
ATOM     61  N   UNL     1      15.663  -5.531   8.740  1.00  0.00    -0.248 NA
ATOM     62  C   UNL     1      17.284  -5.155   7.101  1.00  0.00     0.031 C 
ATOM     63  C   UNL     1      16.552  -5.949  13.081  1.00  0.00     0.029 A 
ATOM     64  C   UNL     1      16.300  -5.805  11.725  1.00  0.00     0.049 A 
ATOM     65  H   UNL     1      14.451  -5.818  10.710  1.00  0.00     0.167 HD
ATOM     66  C   UNL     1      16.917  -5.481   9.342  1.00  0.00     0.074 A 
ATOM     67  C   UNL     1      17.880  -5.272   8.280  1.00  0.00     0.031 C 
ATOM     68  C   UNL     1      17.243  -5.602  10.653  1.00  0.00     0.037 A 
BRANCH  55  69
ATOM     69  C   UNL     1      12.385  -6.348  14.410  1.00  0.00     0.058 A 
ATOM     70  C   UNL     1      11.822  -7.553  14.858  1.00  0.00     0.135 A 
ATOM     71  C   UNL     1      12.457  -5.280  15.319  1.00  0.00     0.135 A 
ATOM     72  F   UNL     1      11.707  -8.598  14.023  1.00  0.00    -0.206 F 
ATOM     73  C   UNL     1      11.322  -7.686  16.150  1.00  0.00     0.059 A 
ATOM     74  C   UNL     1      11.988  -5.399  16.623  1.00  0.00     0.059 A 
ATOM     75  F   UNL     1      12.980  -4.104  14.939  1.00  0.00    -0.206 F 
ATOM     76  C   UNL     1      11.407  -6.601  17.024  1.00  0.00     0.060 A 
BRANCH  76  77
ATOM     77  S   UNL     1      10.748  -6.785  18.694  1.00  0.00     0.124 S 
ATOM     78  O   UNL     1       9.310  -6.745  18.445  1.00  0.00    -0.237 OA
ATOM     79  O   UNL     1      11.285  -8.079  19.102  1.00  0.00    -0.237 OA
ATOM     80  O   UNL     1      11.293  -5.631  19.404  1.00  0.00    -0.744 OA
ENDBRANCH  76  77
ENDBRANCH  55  69
BRANCH  56  81
ATOM     81  C   UNL     1      15.317  -5.136   4.921  1.00  0.00     0.058 A 
ATOM     82  C   UNL     1      16.052  -6.113   4.235  1.00  0.00     0.135 A 
ATOM     83  C   UNL     1      15.009  -3.949   4.238  1.00  0.00     0.135 A 
ATOM     84  F   UNL     1      16.382  -7.259   4.850  1.00  0.00    -0.206 F 
ATOM     85  C   UNL     1      16.474  -5.920   2.923  1.00  0.00     0.059 A 
ATOM     86  C   UNL     1      15.399  -3.742   2.918  1.00  0.00     0.059 A 
ATOM     87  F   UNL     1      14.302  -2.985   4.848  1.00  0.00    -0.206 F 
ATOM     88  C   UNL     1      16.139  -4.732   2.271  1.00  0.00     0.060 A 
BRANCH  88  89
ATOM     89  S   UNL     1      16.641  -4.515   0.550  1.00  0.00     0.124 S 
ATOM     90  O   UNL     1      18.073  -4.276   0.690  1.00  0.00    -0.237 OA
ATOM     91  O   UNL     1      16.261  -5.793  -0.043  1.00  0.00    -0.237 OA
ATOM     92  O   UNL     1      15.849  -3.369   0.112  1.00  0.00    -0.744 OA
ENDBRANCH  88  89
ENDBRANCH  56  81
BRANCH  68  93
ATOM     93  C   UNL     1      18.702  -5.546  11.016  1.00  0.00     0.058 A 
ATOM     94  C   UNL     1      19.422  -4.342  10.998  1.00  0.00     0.135 A 
ATOM     95  C   UNL     1      19.370  -6.704  11.447  1.00  0.00     0.135 A 
ATOM     96  F   UNL     1      18.831  -3.207  10.590  1.00  0.00    -0.206 F 
ATOM     97  C   UNL     1      20.760  -4.290  11.377  1.00  0.00     0.059 A 
ATOM     98  C   UNL     1      20.700  -6.670  11.855  1.00  0.00     0.059 A 
ATOM     99  F   UNL     1      18.724  -7.879  11.495  1.00  0.00    -0.206 F 
ATOM    100  C   UNL     1      21.390  -5.460  11.806  1.00  0.00     0.060 A 
BRANCH 100 101
ATOM    101  S   UNL     1      23.115  -5.374  12.330  1.00  0.00     0.124 S 
ATOM    102  O   UNL     1      23.805  -5.253  11.051  1.00  0.00    -0.237 OA
ATOM    103  O   UNL     1      23.128  -4.182  13.173  1.00  0.00    -0.237 OA
ATOM    104  O   UNL     1      23.319  -6.635  13.037  1.00  0.00    -0.744 OA
ENDBRANCH 100 101
ENDBRANCH  68  93
ENDBRANCH  42  43
ENDBRANCH  35  37
ENDBRANCH  34  35
ENDBRANCH  33  34
ENDBRANCH  32  33
ENDBRANCH  31  32
ENDBRANCH  30  31
ENDBRANCH  29  30
ENDBRANCH   1  29
TORSDOF 28
