REMARK SMILES C[NH+]1CCC(C(=O)N2C[C@@H](C(=O)OCCOCCOCCOCCOC(=O)c3ccc(-c4c5nc(c(-c6c(F)cc(S(=O)(=O)[O-])cc6F)c6ccc([nH]6)c(-c6c(F)cc(S(=O)(=O)[O-])cc6F)c6nc(c(-c7c(F)cc(S(=O)(=O)[O-])cc7F)c7ccc4[nH]7)C=C6)C=C5)cc3)[C@H](c3ccc4c(c3)OCO4)C2)CC1
REMARK SMILES IDX 20 1 19 2 18 3 17 4 16 5 15 6 14 7 13 8 11 9 12 10 10 11
REMARK SMILES IDX 8 12 9 13 104 14 94 15 6 16 7 17 5 18 1 19 2 20 3 21 106 22
REMARK SMILES IDX 4 24 105 25 95 26 96 27 100 28 97 29 99 30 98 31 101 32
REMARK SMILES IDX 103 33 102 34 21 35 22 36 23 37 24 38 25 39 26 40 27 41
REMARK SMILES IDX 28 42 29 43 93 44 30 45 92 46 31 47 32 48 33 49 86 50 34 51
REMARK SMILES IDX 91 52 85 53 87 54 35 55 90 56 84 57 83 58 36 60 70 61 49 62
REMARK SMILES IDX 69 63 50 64 53 65 68 66 88 67 51 68 52 69 67 71 89 72 54 73
REMARK SMILES IDX 37 74 38 75 47 76 39 77 40 78 46 79 48 80 41 81 42 82 43 83
REMARK SMILES IDX 44 84 45 85 71 86 72 87 81 88 73 89 74 90 80 91 82 92 75 93
REMARK SMILES IDX 76 94 77 95 78 96 79 97 55 98 56 99 65 100 57 101 58 102
REMARK SMILES IDX 64 103 66 104 59 105 60 106 61 107 62 108 63 109
REMARK H PARENT 2 23 87 59 53 70
REMARK Flexibility Score: inf
ROOT
ATOM      1  C   UNL     1      -0.398  -1.823   6.980  1.00  0.00     0.188 C 
ENDROOT
BRANCH   1   2
ATOM      2  O   UNL     1       0.683  -1.280   6.232  1.00  0.00    -0.377 OA
BRANCH   2   3
ATOM      3  C   UNL     1       0.861  -1.785   4.925  1.00  0.00     0.188 C 
BRANCH   3   4
ATOM      4  C   UNL     1       1.860  -2.961   4.847  1.00  0.00     0.188 C 
BRANCH   4   5
ATOM      5  O   UNL     1       2.303  -3.638   6.014  1.00  0.00    -0.376 OA
BRANCH   5   6
ATOM      6  C   UNL     1       2.787  -2.967   7.169  1.00  0.00     0.202 C 
BRANCH   6   7
ATOM      7  C   UNL     1       3.549  -1.635   7.147  1.00  0.00     0.261 C 
BRANCH   7   8
ATOM      8  O   UNL     1       3.332  -0.813   6.009  1.00  0.00    -0.463 OA
BRANCH   8   9
ATOM      9  C   UNL     1       4.225  -0.897   4.994  1.00  0.00     0.311 C 
ATOM     10  O   UNL     1       5.209  -1.618   4.960  1.00  0.00    -0.252 OA
BRANCH   9  11
ATOM     11  C   UNL     1       3.788   0.034   3.897  1.00  0.00     0.128 C 
ATOM     12  N   UNL     1       3.692   0.344   1.617  1.00  0.00    -0.341 N 
ATOM     13  C   UNL     1       3.601  -0.706   2.595  1.00  0.00     0.135 C 
ATOM     14  C   UNL     1       4.668   1.335   2.074  1.00  0.00     0.128 C 
ATOM     15  C   UNL     1       4.828   1.134   3.605  1.00  0.00     0.055 C 
BRANCH  12  16
ATOM     16  C   UNL     1       3.400   0.175   0.283  1.00  0.00     0.226 C 
ATOM     17  O   UNL     1       4.255   0.366  -0.585  1.00  0.00    -0.275 OA
BRANCH  16  18
ATOM     18  C   UNL     1       1.927   0.001  -0.128  1.00  0.00     0.090 C 
ATOM     19  C   UNL     1      -2.375  -0.030  -0.150  1.00  0.00     0.332 C 
ATOM     20  N   UNL     1      -0.969  -0.038   0.256  1.00  0.00    -0.337 N 
ATOM     21  C   UNL     1      -0.303   1.192  -0.192  1.00  0.00     0.262 C 
ATOM     22  C   UNL     1      -0.273  -1.229  -0.249  1.00  0.00     0.262 C 
ATOM     23  H   UNL     1      -0.932  -0.073   1.275  1.00  0.00     0.347 HD
ATOM     24  C   UNL     1       1.137   1.241   0.310  1.00  0.00     0.075 C 
ATOM     25  C   UNL     1       1.173  -1.267   0.275  1.00  0.00     0.075 C 
ENDBRANCH  16  18
ENDBRANCH  12  16
BRANCH  15  26
ATOM     26  C   UNL     1       4.558   2.280   4.583  1.00  0.00    -0.038 A 
ATOM     27  C   UNL     1       4.003   3.519   4.202  1.00  0.00     0.008 A 
ATOM     28  C   UNL     1       4.692   2.005   5.964  1.00  0.00     0.054 A 
ATOM     29  C   UNL     1       3.476   4.400   5.160  1.00  0.00     0.051 A 
ATOM     30  C   UNL     1       4.076   2.838   6.871  1.00  0.00     0.166 A 
ATOM     31  C   UNL     1       3.470   4.000   6.477  1.00  0.00     0.165 A 
ATOM     32  O   UNL     1       3.906   2.582   8.196  1.00  0.00    -0.454 OA
ATOM     33  O   UNL     1       2.849   4.630   7.509  1.00  0.00    -0.454 OA
ATOM     34  C   UNL     1       2.952   3.615   8.533  1.00  0.00     0.468 C 
ENDBRANCH  15  26
ENDBRANCH   9  11
ENDBRANCH   8   9
ENDBRANCH   7   8
ENDBRANCH   6   7
ENDBRANCH   5   6
ENDBRANCH   4   5
ENDBRANCH   3   4
ENDBRANCH   2   3
ENDBRANCH   1   2
BRANCH   1  35
ATOM     35  C   UNL     1      -0.714  -3.328   6.834  1.00  0.00     0.188 C 
BRANCH  35  36
ATOM     36  O   UNL     1      -0.779  -3.779   5.487  1.00  0.00    -0.376 OA
BRANCH  36  37
ATOM     37  C   UNL     1      -2.047  -4.008   4.897  1.00  0.00     0.202 C 
BRANCH  37  38
ATOM     38  C   UNL     1      -2.941  -2.784   4.656  1.00  0.00     0.261 C 
BRANCH  38  39
ATOM     39  O   UNL     1      -3.216  -1.967   5.803  1.00  0.00    -0.460 OA
BRANCH  39  40
ATOM     40  C   UNL     1      -3.885  -2.536   6.827  1.00  0.00     0.338 C 
ATOM     41  O   UNL     1      -4.317  -3.677   6.876  1.00  0.00    -0.246 OA
BRANCH  40  42
ATOM     42  C   UNL     1      -3.832  -1.601   7.968  1.00  0.00     0.060 A 
ATOM     43  C   UNL     1      -3.213  -2.008   9.158  1.00  0.00     0.016 A 
ATOM     44  C   UNL     1      -4.378  -0.320   7.857  1.00  0.00     0.016 A 
ATOM     45  C   UNL     1      -3.166  -1.144  10.252  1.00  0.00     0.010 A 
ATOM     46  C   UNL     1      -4.352   0.535   8.962  1.00  0.00     0.010 A 
ATOM     47  C   UNL     1      -3.774   0.115  10.174  1.00  0.00    -0.014 A 
BRANCH  47  48
ATOM     48  C   UNL     1      -3.981   0.915  11.405  1.00  0.00     0.031 A 
ATOM     49  C   UNL     1      -5.329   0.853  12.073  1.00  0.00     0.074 A 
ATOM     50  C   UNL     1      -3.001   1.678  11.920  1.00  0.00     0.049 A 
ATOM     51  N   UNL     1      -5.777   1.524  13.101  1.00  0.00    -0.248 NA
ATOM     52  C   UNL     1      -6.304  -0.090  11.498  1.00  0.00     0.031 C 
ATOM     53  C   UNL     1      -1.645   1.790  11.385  1.00  0.00     0.029 A 
ATOM     54  N   UNL     1      -3.006   2.523  13.003  1.00  0.00    -0.354 N 
ATOM     55  C   UNL     1      -7.089   1.102  13.283  1.00  0.00     0.074 A 
ATOM     56  C   UNL     1      -7.371   0.128  12.252  1.00  0.00     0.031 C 
ATOM     57  C   UNL     1      -0.956   2.676  12.125  1.00  0.00     0.029 A 
ATOM     58  C   UNL     1      -1.833   3.223  13.161  1.00  0.00     0.049 A 
ATOM     59  H   UNL     1      -3.776   2.619  13.608  1.00  0.00     0.167 HD
ATOM     60  C   UNL     1      -7.977   1.493  14.226  1.00  0.00     0.037 A 
ATOM     61  C   UNL     1      -1.518   4.217  14.018  1.00  0.00     0.037 A 
ATOM     62  C   UNL     1      -7.684   2.454  15.256  1.00  0.00     0.049 A 
ATOM     63  C   UNL     1      -2.545   4.673  15.027  1.00  0.00     0.074 A 
ATOM     64  C   UNL     1      -8.503   2.884  16.285  1.00  0.00     0.029 A 
ATOM     65  N   UNL     1      -6.488   3.145  15.381  1.00  0.00    -0.354 N 
ATOM     66  N   UNL     1      -3.768   4.236  15.217  1.00  0.00    -0.248 NA
ATOM     67  C   UNL     1      -2.149   5.755  15.941  1.00  0.00     0.031 C 
ATOM     68  C   UNL     1      -7.828   3.884  16.991  1.00  0.00     0.029 A 
ATOM     69  C   UNL     1      -6.561   4.025  16.447  1.00  0.00     0.049 A 
ATOM     70  H   UNL     1      -5.704   3.027  14.798  1.00  0.00     0.167 HD
ATOM     71  C   UNL     1      -4.273   4.967  16.289  1.00  0.00     0.074 A 
ATOM     72  C   UNL     1      -3.219   5.863  16.715  1.00  0.00     0.031 C 
ATOM     73  C   UNL     1      -5.498   4.904  16.869  1.00  0.00     0.037 A 
BRANCH  60  74
ATOM     74  C   UNL     1      -9.364   0.914  14.176  1.00  0.00     0.058 A 
ATOM     75  C   UNL     1      -9.629  -0.419  14.522  1.00  0.00     0.135 A 
ATOM     76  C   UNL     1     -10.455   1.734  13.841  1.00  0.00     0.135 A 
ATOM     77  F   UNL     1      -8.621  -1.253  14.827  1.00  0.00    -0.206 F 
ATOM     78  C   UNL     1     -10.926  -0.922  14.534  1.00  0.00     0.059 A 
ATOM     79  C   UNL     1     -11.762   1.261  13.874  1.00  0.00     0.059 A 
ATOM     80  F   UNL     1     -10.255   3.015  13.493  1.00  0.00    -0.206 F 
ATOM     81  C   UNL     1     -11.987  -0.071  14.216  1.00  0.00     0.060 A 
BRANCH  81  82
ATOM     82  S   UNL     1     -13.667  -0.728  14.280  1.00  0.00     0.124 S 
ATOM     83  O   UNL     1     -13.672  -1.628  13.131  1.00  0.00    -0.237 OA
ATOM     84  O   UNL     1     -13.698  -1.372  15.589  1.00  0.00    -0.237 OA
ATOM     85  O   UNL     1     -14.504   0.461  14.148  1.00  0.00    -0.744 OA
ENDBRANCH  81  82
ENDBRANCH  60  74
BRANCH  61  86
ATOM     86  C   UNL     1      -0.189   4.884  13.938  1.00  0.00     0.058 A 
ATOM     87  C   UNL     1       0.745   4.782  14.980  1.00  0.00     0.135 A 
ATOM     88  C   UNL     1       0.161   5.667  12.826  1.00  0.00     0.135 A 
ATOM     89  F   UNL     1       0.457   4.056  16.070  1.00  0.00    -0.206 F 
ATOM     90  C   UNL     1       1.964   5.453  14.936  1.00  0.00     0.059 A 
ATOM     91  C   UNL     1       1.385   6.321  12.744  1.00  0.00     0.059 A 
ATOM     92  F   UNL     1      -0.690   5.790  11.794  1.00  0.00    -0.206 F 
ATOM     93  C   UNL     1       2.275   6.220  13.812  1.00  0.00     0.060 A 
BRANCH  93  94
ATOM     94  S   UNL     1       3.871   7.062  13.752  1.00  0.00     0.124 S 
ATOM     95  O   UNL     1       3.681   8.122  14.735  1.00  0.00    -0.237 OA
ATOM     96  O   UNL     1       4.791   5.994  14.130  1.00  0.00    -0.237 OA
ATOM     97  O   UNL     1       3.965   7.498  12.362  1.00  0.00    -0.744 OA
ENDBRANCH  93  94
ENDBRANCH  61  86
BRANCH  73  98
ATOM     98  C   UNL     1      -5.759   5.792  18.057  1.00  0.00     0.058 A 
ATOM     99  C   UNL     1      -5.900   7.183  17.929  1.00  0.00     0.135 A 
ATOM    100  C   UNL     1      -5.932   5.233  19.334  1.00  0.00     0.135 A 
ATOM    101  F   UNL     1      -5.742   7.771  16.733  1.00  0.00    -0.206 F 
ATOM    102  C   UNL     1      -6.175   7.990  19.029  1.00  0.00     0.059 A 
ATOM    103  C   UNL     1      -6.241   6.016  20.441  1.00  0.00     0.059 A 
ATOM    104  F   UNL     1      -5.822   3.907  19.513  1.00  0.00    -0.206 F 
ATOM    105  C   UNL     1      -6.348   7.396  20.281  1.00  0.00     0.060 A 
BRANCH 105 106
ATOM    106  S   UNL     1      -6.736   8.452  21.693  1.00  0.00     0.124 S 
ATOM    107  O   UNL     1      -5.463   9.131  21.911  1.00  0.00    -0.237 OA
ATOM    108  O   UNL     1      -7.817   9.284  21.172  1.00  0.00    -0.237 OA
ATOM    109  O   UNL     1      -7.127   7.503  22.731  1.00  0.00    -0.744 OA
ENDBRANCH 105 106
ENDBRANCH  73  98
ENDBRANCH  47  48
ENDBRANCH  40  42
ENDBRANCH  39  40
ENDBRANCH  38  39
ENDBRANCH  37  38
ENDBRANCH  36  37
ENDBRANCH  35  36
ENDBRANCH   1  35
TORSDOF 26
