REMARK SMILES CCOc1ccc(NC(=O)CC2(CC(=O)OCCOCCOCCOCCOC(=O)c3ccc(-c4c5nc(c(-c6c(F)cc(S(=O)(=O)[O-])cc6F)c6ccc([nH]6)c(-c6c(F)cc(S(=O)(=O)[O-])cc6F)c6nc(c(-c7c(F)cc(S(=O)(=O)[O-])cc7F)c7ccc4[nH]7)C=C6)C=C5)cc3)CCCCC2)cc1
REMARK SMILES IDX 20 1 19 2 18 3 17 4 16 5 14 6 15 7 13 8 12 9 97 10 101 11
REMARK SMILES IDX 98 12 100 13 99 14 11 15 9 16 8 17 10 19 7 20 4 21 5 22
REMARK SMILES IDX 103 23 6 24 102 25 3 26 2 27 1 28 21 29 22 30 23 31 24 32
REMARK SMILES IDX 25 33 26 34 27 35 28 36 29 37 30 38 31 39 32 40 96 41 33 42
REMARK SMILES IDX 95 43 34 44 35 45 36 46 89 47 37 48 94 49 88 50 90 51 38 52
REMARK SMILES IDX 93 53 87 54 86 55 39 57 73 58 52 59 72 60 53 61 56 62 71 63
REMARK SMILES IDX 91 64 54 65 55 66 70 68 92 69 57 70 40 71 41 72 50 73 42 74
REMARK SMILES IDX 43 75 49 76 51 77 44 78 45 79 46 80 47 81 48 82 74 83 75 84
REMARK SMILES IDX 84 85 76 86 77 87 83 88 85 89 78 90 79 91 80 92 81 93 82 94
REMARK SMILES IDX 58 95 59 96 68 97 60 98 61 99 67 100 69 101 62 102 63 103
REMARK SMILES IDX 64 104 65 105 66 106
REMARK H PARENT 8 18 90 56 56 67
REMARK Flexibility Score: inf
ROOT
ATOM      1  C   UNL     1       3.908  -1.409  -5.983  1.00  0.00     0.188 C 
ENDROOT
BRANCH   1   2
ATOM      2  O   UNL     1       2.692  -0.898  -5.444  1.00  0.00    -0.376 OA
BRANCH   2   3
ATOM      3  C   UNL     1       2.084  -1.610  -4.369  1.00  0.00     0.202 C 
BRANCH   3   4
ATOM      4  C   UNL     1       1.637  -3.045  -4.679  1.00  0.00     0.261 C 
BRANCH   4   5
ATOM      5  O   UNL     1       2.232  -4.006  -3.771  1.00  0.00    -0.463 OA
BRANCH   5   6
ATOM      6  C   UNL     1       3.095  -4.941  -4.262  1.00  0.00     0.306 C 
ATOM      7  O   UNL     1       3.494  -4.987  -5.418  1.00  0.00    -0.252 OA
BRANCH   6   8
ATOM      8  C   UNL     1       3.427  -5.989  -3.205  1.00  0.00     0.130 C 
BRANCH   8   9
ATOM      9  C   UNL     1       4.800  -6.032  -2.411  1.00  0.00    -0.011 C 
ATOM     10  C   UNL     1       5.471  -7.419  -2.705  1.00  0.00     0.008 C 
ATOM     11  C   UNL     1       4.539  -6.015  -0.875  1.00  0.00     0.008 C 
ATOM     12  C   UNL     1       4.672  -8.623  -2.189  1.00  0.00     0.001 C 
ATOM     13  C   UNL     1       3.751  -7.204  -0.330  1.00  0.00     0.001 C 
ATOM     14  C   UNL     1       4.398  -8.527  -0.695  1.00  0.00     0.000 C 
BRANCH   9  15
ATOM     15  C   UNL     1       5.815  -4.919  -2.849  1.00  0.00     0.108 C 
BRANCH  15  16
ATOM     16  C   UNL     1       6.725  -4.211  -1.837  1.00  0.00     0.224 C 
ATOM     17  N   UNL     1       6.318  -3.265  -0.939  1.00  0.00    -0.326 N 
ATOM     18  H   UNL     1       7.061  -2.905  -0.403  1.00  0.00     0.169 HD
ATOM     19  O   UNL     1       7.931  -4.501  -1.824  1.00  0.00    -0.275 OA
BRANCH  17  20
ATOM     20  C   UNL     1       5.079  -2.689  -0.606  1.00  0.00     0.041 A 
ATOM     21  C   UNL     1       2.583  -1.750   0.300  1.00  0.00     0.119 A 
ATOM     22  C   UNL     1       2.679  -2.405  -0.910  1.00  0.00     0.048 A 
ATOM     23  C   UNL     1       3.723  -1.568   1.069  1.00  0.00     0.048 A 
ATOM     24  C   UNL     1       3.929  -2.824  -1.367  1.00  0.00     0.030 A 
ATOM     25  C   UNL     1       4.973  -2.005   0.607  1.00  0.00     0.030 A 
BRANCH  21  26
ATOM     26  O   UNL     1       1.385  -1.339   0.799  1.00  0.00    -0.494 OA
BRANCH  26  27
ATOM     27  C   UNL     1       0.710  -0.403  -0.050  1.00  0.00     0.226 C 
ATOM     28  C   UNL     1       0.726   0.952   0.629  1.00  0.00     0.049 C 
ENDBRANCH  26  27
ENDBRANCH  21  26
ENDBRANCH  17  20
ENDBRANCH  15  16
ENDBRANCH   9  15
ENDBRANCH   8   9
ENDBRANCH   6   8
ENDBRANCH   5   6
ENDBRANCH   4   5
ENDBRANCH   3   4
ENDBRANCH   2   3
ENDBRANCH   1   2
BRANCH   1  29
ATOM     29  C   UNL     1       4.936  -2.007  -5.027  1.00  0.00     0.188 C 
BRANCH  29  30
ATOM     30  O   UNL     1       5.215  -1.393  -3.781  1.00  0.00    -0.377 OA
BRANCH  30  31
ATOM     31  C   UNL     1       5.194   0.019  -3.684  1.00  0.00     0.188 C 
BRANCH  31  32
ATOM     32  C   UNL     1       6.075   0.803  -4.660  1.00  0.00     0.188 C 
BRANCH  32  33
ATOM     33  O   UNL     1       6.850  -0.016  -5.528  1.00  0.00    -0.376 OA
BRANCH  33  34
ATOM     34  C   UNL     1       8.235  -0.100  -5.195  1.00  0.00     0.202 C 
BRANCH  34  35
ATOM     35  C   UNL     1       8.562  -0.996  -3.992  1.00  0.00     0.261 C 
BRANCH  35  36
ATOM     36  O   UNL     1       8.086  -0.528  -2.717  1.00  0.00    -0.460 OA
BRANCH  36  37
ATOM     37  C   UNL     1       8.611   0.623  -2.260  1.00  0.00     0.338 C 
ATOM     38  O   UNL     1       9.381   1.374  -2.847  1.00  0.00    -0.246 OA
BRANCH  37  39
ATOM     39  C   UNL     1       8.076   0.890  -0.919  1.00  0.00     0.060 A 
ATOM     40  C   UNL     1       7.165   1.935  -0.740  1.00  0.00     0.016 A 
ATOM     41  C   UNL     1       8.568   0.174   0.176  1.00  0.00     0.016 A 
ATOM     42  C   UNL     1       6.777   2.300   0.552  1.00  0.00     0.010 A 
ATOM     43  C   UNL     1       8.180   0.544   1.467  1.00  0.00     0.010 A 
ATOM     44  C   UNL     1       7.316   1.637   1.665  1.00  0.00    -0.014 A 
BRANCH  44  45
ATOM     45  C   UNL     1       7.115   2.196   3.027  1.00  0.00     0.031 A 
ATOM     46  C   UNL     1       8.191   3.059   3.623  1.00  0.00     0.074 A 
ATOM     47  C   UNL     1       5.986   1.967   3.721  1.00  0.00     0.049 A 
ATOM     48  N   UNL     1       8.216   3.666   4.780  1.00  0.00    -0.248 NA
ATOM     49  C   UNL     1       9.393   3.275   2.801  1.00  0.00     0.031 C 
ATOM     50  C   UNL     1       4.853   1.191   3.234  1.00  0.00     0.029 A 
ATOM     51  N   UNL     1       5.606   2.356   4.981  1.00  0.00    -0.354 N 
ATOM     52  C   UNL     1       9.423   4.351   4.820  1.00  0.00     0.074 A 
ATOM     53  C   UNL     1      10.124   4.047   3.591  1.00  0.00     0.031 C 
ATOM     54  C   UNL     1       3.917   1.119   4.196  1.00  0.00     0.029 A 
ATOM     55  C   UNL     1       4.381   1.860   5.367  1.00  0.00     0.049 A 
ATOM     56  H   UNL     1       6.157   2.935   5.556  1.00  0.00     0.167 HD
ATOM     57  C   UNL     1       9.895   5.177   5.783  1.00  0.00     0.037 A 
ATOM     58  C   UNL     1       3.711   1.992   6.529  1.00  0.00     0.037 A 
ATOM     59  C   UNL     1       9.205   5.470   7.010  1.00  0.00     0.049 A 
ATOM     60  C   UNL     1       4.289   2.860   7.616  1.00  0.00     0.074 A 
ATOM     61  C   UNL     1       9.602   6.301   8.043  1.00  0.00     0.029 A 
ATOM     62  N   UNL     1       7.979   4.936   7.377  1.00  0.00    -0.354 N 
ATOM     63  N   UNL     1       5.413   3.536   7.620  1.00  0.00    -0.248 NA
ATOM     64  C   UNL     1       3.498   3.003   8.847  1.00  0.00     0.031 C 
ATOM     65  C   UNL     1       8.634   6.238   9.052  1.00  0.00     0.029 A 
ATOM     66  C   UNL     1       7.613   5.403   8.628  1.00  0.00     0.049 A 
ATOM     67  H   UNL     1       7.447   4.315   6.828  1.00  0.00     0.167 HD
ATOM     68  C   UNL     1       5.446   4.215   8.834  1.00  0.00     0.074 A 
ATOM     69  C   UNL     1       4.229   3.868   9.538  1.00  0.00     0.031 C 
ATOM     70  C   UNL     1       6.393   5.057   9.315  1.00  0.00     0.037 A 
BRANCH  57  71
ATOM     71  C   UNL     1      11.235   5.810   5.543  1.00  0.00     0.058 A 
ATOM     72  C   UNL     1      11.400   6.844   4.606  1.00  0.00     0.135 A 
ATOM     73  C   UNL     1      12.363   5.388   6.263  1.00  0.00     0.135 A 
ATOM     74  F   UNL     1      10.356   7.268   3.877  1.00  0.00    -0.206 F 
ATOM     75  C   UNL     1      12.644   7.420   4.374  1.00  0.00     0.059 A 
ATOM     76  C   UNL     1      13.613   5.966   6.062  1.00  0.00     0.059 A 
ATOM     77  F   UNL     1      12.258   4.400   7.164  1.00  0.00    -0.206 F 
ATOM     78  C   UNL     1      13.745   6.971   5.105  1.00  0.00     0.060 A 
BRANCH  78  79
ATOM     79  S   UNL     1      15.355   7.725   4.791  1.00  0.00     0.124 S 
ATOM     80  O   UNL     1      15.715   7.119   3.513  1.00  0.00    -0.237 OA
ATOM     81  O   UNL     1      15.032   9.148   4.749  1.00  0.00    -0.237 OA
ATOM     82  O   UNL     1      16.157   7.302   5.935  1.00  0.00    -0.744 OA
ENDBRANCH  78  79
ENDBRANCH  57  71
BRANCH  58  83
ATOM     83  C   UNL     1       2.405   1.308   6.719  1.00  0.00     0.058 A 
ATOM     84  C   UNL     1       1.203   2.030   6.752  1.00  0.00     0.135 A 
ATOM     85  C   UNL     1       2.334  -0.085   6.883  1.00  0.00     0.135 A 
ATOM     86  F   UNL     1       1.219   3.364   6.609  1.00  0.00    -0.206 F 
ATOM     87  C   UNL     1      -0.021   1.401   6.957  1.00  0.00     0.059 A 
ATOM     88  C   UNL     1       1.120  -0.740   7.069  1.00  0.00     0.059 A 
ATOM     89  F   UNL     1       3.455  -0.822   6.851  1.00  0.00    -0.206 F 
ATOM     90  C   UNL     1      -0.052   0.014   7.115  1.00  0.00     0.060 A 
BRANCH  90  91
ATOM     91  S   UNL     1      -1.651  -0.797   7.341  1.00  0.00     0.124 S 
ATOM     92  O   UNL     1      -1.970  -0.437   8.718  1.00  0.00    -0.237 OA
ATOM     93  O   UNL     1      -2.466  -0.162   6.310  1.00  0.00    -0.237 OA
ATOM     94  O   UNL     1      -1.348  -2.206   7.110  1.00  0.00    -0.744 OA
ENDBRANCH  90  91
ENDBRANCH  58  83
BRANCH  70  95
ATOM     95  C   UNL     1       6.136   5.699  10.650  1.00  0.00     0.058 A 
ATOM     96  C   UNL     1       6.237   4.978  11.850  1.00  0.00     0.135 A 
ATOM     97  C   UNL     1       5.829   7.067  10.731  1.00  0.00     0.135 A 
ATOM     98  F   UNL     1       6.524   3.667  11.828  1.00  0.00    -0.206 F 
ATOM     99  C   UNL     1       6.015   5.584  13.082  1.00  0.00     0.059 A 
ATOM    100  C   UNL     1       5.628   7.699  11.954  1.00  0.00     0.059 A 
ATOM    101  F   UNL     1       5.732   7.806   9.614  1.00  0.00    -0.206 F 
ATOM    102  C   UNL     1       5.709   6.946  13.124  1.00  0.00     0.060 A 
BRANCH 102 103
ATOM    103  S   UNL     1       5.447   7.730  14.729  1.00  0.00     0.124 S 
ATOM    104  O   UNL     1       4.101   7.274  15.062  1.00  0.00    -0.237 OA
ATOM    105  O   UNL     1       6.525   7.166  15.536  1.00  0.00    -0.237 OA
ATOM    106  O   UNL     1       5.573   9.154  14.435  1.00  0.00    -0.744 OA
ENDBRANCH 102 103
ENDBRANCH  70  95
ENDBRANCH  44  45
ENDBRANCH  37  39
ENDBRANCH  36  37
ENDBRANCH  35  36
ENDBRANCH  34  35
ENDBRANCH  33  34
ENDBRANCH  32  33
ENDBRANCH  31  32
ENDBRANCH  30  31
ENDBRANCH  29  30
ENDBRANCH   1  29
TORSDOF 29
