REMARK SMILES Cc1ccc(C(=O)N2CCCC[C@@H]2C(=O)OCCOCCOCCOCCOC(=O)c2ccc(-c3c4nc(c(-c5c(F)cc(S(=O)(=O)[O-])cc5F)c5ccc([nH]5)c(-c5c(F)cc(S(=O)(=O)[O-])cc5F)c5nc(c(-c6c(F)cc(S(=O)(=O)[O-])cc6F)c6ccc3[nH]6)C=C5)C=C4)cc2)cc1S(=O)(=O)N1CCCCC1
REMARK SMILES IDX 21 1 20 2 19 3 18 4 17 5 16 6 14 7 15 8 13 9 8 10 9 11 10 12
REMARK SMILES IDX 12 13 11 14 6 15 7 16 5 17 1 18 2 19 3 20 98 21 4 22 97 23
REMARK SMILES IDX 99 24 100 25 101 26 102 27 103 28 107 29 104 30 106 31
REMARK SMILES IDX 105 32 22 33 23 34 24 35 25 36 26 37 27 38 28 39 29 40 30 41
REMARK SMILES IDX 31 42 32 43 96 44 33 45 95 46 34 47 35 48 36 49 89 50 37 51
REMARK SMILES IDX 94 52 88 53 90 54 38 55 93 56 87 57 86 58 39 60 73 61 52 62
REMARK SMILES IDX 72 63 53 64 56 65 71 66 91 67 54 68 55 69 70 71 92 72 57 73
REMARK SMILES IDX 40 74 41 75 50 76 42 77 43 78 49 79 51 80 44 81 45 82 46 83
REMARK SMILES IDX 47 84 48 85 74 86 75 87 84 88 76 89 77 90 83 91 85 92 78 93
REMARK SMILES IDX 79 94 80 95 81 96 82 97 58 98 59 99 68 100 60 101 61 102
REMARK SMILES IDX 67 103 69 104 62 105 63 106 64 107 65 108 66 109
REMARK H PARENT 90 59 56 70
REMARK Flexibility Score: inf
ROOT
ATOM      1  C   UNL     1      -5.501   3.186  -4.760  1.00  0.00     0.188 C 
ENDROOT
BRANCH   1   2
ATOM      2  C   UNL     1      -4.218   2.395  -5.115  1.00  0.00     0.188 C 
BRANCH   2   3
ATOM      3  O   UNL     1      -4.125   0.737  -5.616  1.00  0.00    -0.376 OA
BRANCH   3   4
ATOM      4  C   UNL     1      -3.067  -0.607  -5.012  1.00  0.00     0.202 C 
BRANCH   4   5
ATOM      5  C   UNL     1      -2.065  -0.667  -3.391  1.00  0.00     0.261 C 
BRANCH   5   6
ATOM      6  O   UNL     1      -2.083   0.654  -2.110  1.00  0.00    -0.462 OA
BRANCH   6   7
ATOM      7  C   UNL     1      -2.140   2.245  -1.813  1.00  0.00     0.328 C 
ATOM      8  O   UNL     1      -1.830   3.150  -2.615  1.00  0.00    -0.250 OA
BRANCH   7   9
ATOM      9  C   UNL     1      -2.977   2.818  -0.499  1.00  0.00     0.195 C 
ATOM     10  N   UNL     1      -3.618   1.919   0.468  1.00  0.00    -0.325 N 
ATOM     11  C   UNL     1      -4.555   2.478   1.435  1.00  0.00     0.121 C 
ATOM     12  C   UNL     1      -5.774   3.005   0.727  1.00  0.00     0.022 C 
ATOM     13  C   UNL     1      -4.009   3.979  -0.947  1.00  0.00     0.037 C 
ATOM     14  C   UNL     1      -5.357   4.141  -0.191  1.00  0.00     0.005 C 
BRANCH  10  15
ATOM     15  C   UNL     1      -3.182   0.611   0.689  1.00  0.00     0.254 C 
ATOM     16  O   UNL     1      -3.718  -0.019   1.601  1.00  0.00    -0.269 OA
BRANCH  15  17
ATOM     17  C   UNL     1      -1.862   0.226  -0.001  1.00  0.00     0.041 A 
ATOM     18  C   UNL     1       2.960  -1.612   0.702  1.00  0.00     0.046 C 
ATOM     19  C   UNL     1       1.658  -0.914   0.524  1.00  0.00    -0.031 A 
ATOM     20  C   UNL     1       0.545  -1.771  -0.412  1.00  0.00     0.005 A 
ATOM     21  C   UNL     1       1.132   0.631   1.185  1.00  0.00     0.086 A 
ATOM     22  C   UNL     1      -1.084  -1.242  -0.695  1.00  0.00     0.014 A 
ATOM     23  C   UNL     1      -0.821   1.251   0.785  1.00  0.00     0.035 A 
BRANCH  21  24
ATOM     24  S   UNL     1       2.632   1.540   2.149  1.00  0.00     0.243 S 
ATOM     25  O   UNL     1       2.706   2.982   1.973  1.00  0.00    -0.207 OA
ATOM     26  O   UNL     1       2.624   0.995   3.492  1.00  0.00    -0.207 OA
BRANCH  24  27
ATOM     27  N   UNL     1       4.017   1.015   1.350  1.00  0.00    -0.198 NA
ATOM     28  C   UNL     1       5.149   1.001   2.272  1.00  0.00     0.102 C 
ATOM     29  C   UNL     1       4.191   1.296  -0.084  1.00  0.00     0.102 C 
ATOM     30  C   UNL     1       6.495   0.971   1.609  1.00  0.00     0.017 C 
ATOM     31  C   UNL     1       5.569   1.016  -0.660  1.00  0.00     0.017 C 
ATOM     32  C   UNL     1       6.449   0.235   0.287  1.00  0.00     0.003 C 
ENDBRANCH  24  27
ENDBRANCH  21  24
ENDBRANCH  15  17
ENDBRANCH  10  15
ENDBRANCH   7   9
ENDBRANCH   6   7
ENDBRANCH   5   6
ENDBRANCH   4   5
ENDBRANCH   3   4
ENDBRANCH   2   3
ENDBRANCH   1   2
BRANCH   1  33
ATOM     33  O   UNL     1      -6.533   3.309  -5.702  1.00  0.00    -0.377 OA
BRANCH  33  34
ATOM     34  C   UNL     1      -6.467   2.247  -6.629  1.00  0.00     0.188 C 
BRANCH  34  35
ATOM     35  C   UNL     1      -5.430   2.493  -7.729  1.00  0.00     0.188 C 
BRANCH  35  36
ATOM     36  O   UNL     1      -4.257   3.203  -7.384  1.00  0.00    -0.376 OA
BRANCH  36  37
ATOM     37  C   UNL     1      -4.111   4.603  -7.350  1.00  0.00     0.202 C 
BRANCH  37  38
ATOM     38  C   UNL     1      -4.141   5.064  -8.774  1.00  0.00     0.261 C 
BRANCH  38  39
ATOM     39  O   UNL     1      -3.046   4.516  -9.588  1.00  0.00    -0.460 OA
BRANCH  39  40
ATOM     40  C   UNL     1      -2.834   3.168  -9.741  1.00  0.00     0.338 C 
ATOM     41  O   UNL     1      -3.185   2.553 -10.740  1.00  0.00    -0.246 OA
BRANCH  40  42
ATOM     42  C   UNL     1      -2.002   2.529  -8.664  1.00  0.00     0.060 A 
ATOM     43  C   UNL     1      -2.105   1.167  -8.432  1.00  0.00     0.016 A 
ATOM     44  C   UNL     1      -1.318   3.282  -7.719  1.00  0.00     0.016 A 
ATOM     45  C   UNL     1      -1.830   0.667  -7.149  1.00  0.00     0.010 A 
ATOM     46  C   UNL     1      -1.269   2.815  -6.394  1.00  0.00     0.010 A 
ATOM     47  C   UNL     1      -1.746   1.532  -6.033  1.00  0.00    -0.014 A 
BRANCH  47  48
ATOM     48  C   UNL     1      -2.143   1.363  -4.339  1.00  0.00     0.031 A 
ATOM     49  C   UNL     1      -0.474   1.486  -3.812  1.00  0.00     0.074 A 
ATOM     50  C   UNL     1      -3.599   0.999  -3.492  1.00  0.00     0.049 A 
ATOM     51  N   UNL     1      -0.005   1.437  -2.599  1.00  0.00    -0.248 NA
ATOM     52  C   UNL     1       0.696   1.548  -4.721  1.00  0.00     0.031 C 
ATOM     53  C   UNL     1      -4.330   1.329  -2.207  1.00  0.00     0.029 A 
ATOM     54  N   UNL     1      -4.614  -0.116  -3.591  1.00  0.00    -0.354 N 
ATOM     55  C   UNL     1       1.183   2.093  -2.546  1.00  0.00     0.074 A 
ATOM     56  C   UNL     1       1.668   1.952  -3.894  1.00  0.00     0.031 C 
ATOM     57  C   UNL     1      -4.881   0.320  -1.516  1.00  0.00     0.029 A 
ATOM     58  C   UNL     1      -4.875  -0.765  -2.390  1.00  0.00     0.049 A 
ATOM     59  H   UNL     1      -5.055  -0.362  -4.436  1.00  0.00     0.167 HD
ATOM     60  C   UNL     1       1.481   2.778  -1.397  1.00  0.00     0.037 A 
ATOM     61  C   UNL     1      -5.282  -1.999  -2.023  1.00  0.00     0.037 A 
ATOM     62  C   UNL     1       0.753   2.171  -0.121  1.00  0.00     0.049 A 
ATOM     63  C   UNL     1      -4.474  -2.452  -0.684  1.00  0.00     0.074 A 
ATOM     64  C   UNL     1       0.392   2.539   1.603  1.00  0.00     0.029 A 
ATOM     65  N   UNL     1       0.241   0.394  -0.345  1.00  0.00    -0.354 N 
ATOM     66  N   UNL     1      -3.434  -1.777  -0.214  1.00  0.00    -0.248 NA
ATOM     67  C   UNL     1      -4.696  -3.570   0.236  1.00  0.00     0.031 C 
ATOM     68  C   UNL     1      -0.238   0.928   2.586  1.00  0.00     0.029 A 
ATOM     69  C   UNL     1      -0.424  -0.461   1.368  1.00  0.00     0.049 A 
ATOM     70  H   UNL     1       0.288  -0.081  -1.206  1.00  0.00     0.167 HD
ATOM     71  C   UNL     1      -2.757  -2.322   0.946  1.00  0.00     0.074 A 
ATOM     72  C   UNL     1      -3.710  -3.440   1.175  1.00  0.00     0.031 C 
ATOM     73  C   UNL     1      -1.455  -1.911   1.587  1.00  0.00     0.037 A 
BRANCH  60  74
ATOM     74  C   UNL     1       2.598   3.871  -1.408  1.00  0.00     0.058 A 
ATOM     75  C   UNL     1       2.756   4.736  -0.317  1.00  0.00     0.135 A 
ATOM     76  C   UNL     1       3.669   3.977  -2.342  1.00  0.00     0.135 A 
ATOM     77  F   UNL     1       1.698   5.039   0.451  1.00  0.00    -0.206 F 
ATOM     78  C   UNL     1       3.998   5.321   0.017  1.00  0.00     0.059 A 
ATOM     79  C   UNL     1       4.908   4.564  -2.052  1.00  0.00     0.059 A 
ATOM     80  F   UNL     1       3.589   3.536  -3.597  1.00  0.00    -0.206 F 
ATOM     81  C   UNL     1       5.100   5.142  -0.815  1.00  0.00     0.060 A 
BRANCH  81  82
ATOM     82  S   UNL     1       6.755   5.683  -0.327  1.00  0.00     0.124 S 
ATOM     83  O   UNL     1       6.491   6.901   0.431  1.00  0.00    -0.237 OA
ATOM     84  O   UNL     1       7.232   4.540   0.444  1.00  0.00    -0.237 OA
ATOM     85  O   UNL     1       7.431   5.889  -1.607  1.00  0.00    -0.744 OA
ENDBRANCH  81  82
ENDBRANCH  60  74
BRANCH  61  86
ATOM     86  C   UNL     1      -6.099  -2.530  -3.215  1.00  0.00     0.058 A 
ATOM     87  C   UNL     1      -7.232  -1.710  -3.582  1.00  0.00     0.135 A 
ATOM     88  C   UNL     1      -5.496  -3.167  -4.315  1.00  0.00     0.135 A 
ATOM     89  F   UNL     1      -7.874  -1.018  -2.622  1.00  0.00    -0.206 F 
ATOM     90  C   UNL     1      -7.569  -1.369  -4.916  1.00  0.00     0.059 A 
ATOM     91  C   UNL     1      -5.847  -2.866  -5.663  1.00  0.00     0.059 A 
ATOM     92  F   UNL     1      -4.408  -3.926  -4.123  1.00  0.00    -0.206 F 
ATOM     93  C   UNL     1      -6.836  -1.923  -5.958  1.00  0.00     0.060 A 
BRANCH  93  94
ATOM     94  S   UNL     1      -7.008  -1.319  -7.679  1.00  0.00     0.124 S 
ATOM     95  O   UNL     1      -7.619  -2.461  -8.347  1.00  0.00    -0.237 OA
ATOM     96  O   UNL     1      -7.872  -0.150  -7.553  1.00  0.00    -0.237 OA
ATOM     97  O   UNL     1      -5.628  -1.033  -8.056  1.00  0.00    -0.744 OA
ENDBRANCH  93  94
ENDBRANCH  61  86
BRANCH  73  98
ATOM     98  C   UNL     1      -0.655  -3.032   2.289  1.00  0.00     0.058 A 
ATOM     99  C   UNL     1      -0.750  -4.394   1.927  1.00  0.00     0.135 A 
ATOM    100  C   UNL     1       0.460  -2.715   3.096  1.00  0.00     0.135 A 
ATOM    101  F   UNL     1      -1.648  -4.838   1.038  1.00  0.00    -0.206 F 
ATOM    102  C   UNL     1       0.138  -5.367   2.384  1.00  0.00     0.059 A 
ATOM    103  C   UNL     1       1.423  -3.654   3.468  1.00  0.00     0.059 A 
ATOM    104  F   UNL     1       0.694  -1.463   3.506  1.00  0.00    -0.206 F 
ATOM    105  C   UNL     1       1.234  -4.987   3.140  1.00  0.00     0.060 A 
BRANCH 105 106
ATOM    106  S   UNL     1       2.425  -6.229   3.660  1.00  0.00     0.124 S 
ATOM    107  O   UNL     1       1.874  -6.627   4.951  1.00  0.00    -0.237 OA
ATOM    108  O   UNL     1       2.336  -7.232   2.602  1.00  0.00    -0.237 OA
ATOM    109  O   UNL     1       3.683  -5.490   3.704  1.00  0.00    -0.744 OA
ENDBRANCH 105 106
ENDBRANCH  73  98
ENDBRANCH  47  48
ENDBRANCH  40  42
ENDBRANCH  39  40
ENDBRANCH  38  39
ENDBRANCH  37  38
ENDBRANCH  36  37
ENDBRANCH  35  36
ENDBRANCH  34  35
ENDBRANCH  33  34
ENDBRANCH   1  33
TORSDOF 27
