REMARK SMILES Cc1nc(C(=O)OCCOCCOCCOCCOC(=O)c2ccc(-c3c4nc(c(-c5c(F)cc(S(=O)(=O)[O-])cc5F)c5ccc([nH]5)c(-c5c(F)cc(S(=O)(=O)[O-])cc5F)c5nc(c(-c6c(F)cc(S(=O)(=O)[O-])cc6F)c6ccc3[nH]6)C=C5)C=C4)cc2)nn1-c1cccc(C(F)(F)F)c1
REMARK SMILES IDX 14 1 13 2 12 3 11 4 10 5 9 6 8 7 7 8 5 9 6 10 4 11 1 12 2 13
REMARK SMILES IDX 3 14 89 15 88 16 90 17 91 18 99 19 92 20 94 21 93 22 95 23
REMARK SMILES IDX 96 24 97 25 98 26 15 27 16 28 17 29 18 30 19 31 20 32 21 33
REMARK SMILES IDX 22 34 23 35 87 36 24 37 86 38 25 39 26 40 27 41 80 42 28 43
REMARK SMILES IDX 85 44 79 45 81 46 29 47 84 48 78 49 77 50 30 52 64 53 43 54
REMARK SMILES IDX 63 55 44 56 47 57 62 58 82 59 45 60 46 61 61 63 83 64 48 65
REMARK SMILES IDX 31 66 32 67 41 68 33 69 34 70 40 71 42 72 35 73 36 74 37 75
REMARK SMILES IDX 38 76 39 77 65 78 66 79 75 80 67 81 68 82 74 83 76 84 69 85
REMARK SMILES IDX 70 86 71 87 72 88 73 89 49 90 50 91 59 92 51 93 52 94 58 95
REMARK SMILES IDX 60 96 53 97 54 98 55 99 56 100 57 101
REMARK H PARENT 81 51 47 62
REMARK Flexibility Score: inf
ROOT
ATOM      1  C   UNL     1      -2.498  -7.580  -0.855  1.00  0.00     0.188 C 
ENDROOT
BRANCH   1   2
ATOM      2  O   UNL     1      -1.810  -6.664  -0.005  1.00  0.00    -0.377 OA
BRANCH   2   3
ATOM      3  C   UNL     1      -1.012  -5.701  -0.674  1.00  0.00     0.188 C 
BRANCH   3   4
ATOM      4  C   UNL     1       0.495  -6.044  -0.750  1.00  0.00     0.188 C 
BRANCH   4   5
ATOM      5  O   UNL     1       1.050  -7.221  -0.165  1.00  0.00    -0.376 OA
BRANCH   5   6
ATOM      6  C   UNL     1       0.445  -7.858   0.947  1.00  0.00     0.202 C 
BRANCH   6   7
ATOM      7  C   UNL     1       0.320  -7.103   2.276  1.00  0.00     0.261 C 
BRANCH   7   8
ATOM      8  O   UNL     1       0.007  -5.714   2.174  1.00  0.00    -0.457 OA
BRANCH   8   9
ATOM      9  C   UNL     1       1.076  -4.864   2.098  1.00  0.00     0.378 C 
ATOM     10  O   UNL     1       2.252  -5.215   2.181  1.00  0.00    -0.242 OA
BRANCH   9  11
ATOM     11  C   UNL     1       0.651  -3.488   1.792  1.00  0.00     0.260 A 
ATOM     12  C   UNL     1       0.822  -0.410  -0.014  1.00  0.00     0.090 C 
ATOM     13  C   UNL     1       0.500  -1.617   0.783  1.00  0.00     0.130 A 
ATOM     14  N   UNL     1       1.236  -2.711   0.814  1.00  0.00    -0.206 NA
ATOM     15  N   UNL     1      -0.519  -1.727   1.716  1.00  0.00    -0.217 N 
ATOM     16  N   UNL     1      -0.389  -2.892   2.393  1.00  0.00    -0.138 NA
BRANCH  15  17
ATOM     17  C   UNL     1      -1.567  -0.836   2.064  1.00  0.00     0.067 A 
ATOM     18  C   UNL     1      -2.052  -0.879   3.381  1.00  0.00     0.028 A 
ATOM     19  C   UNL     1      -2.142   0.047   1.141  1.00  0.00     0.041 A 
ATOM     20  C   UNL     1      -3.061  -0.013   3.792  1.00  0.00     0.003 A 
ATOM     21  C   UNL     1      -3.196   0.893   1.541  1.00  0.00     0.058 A 
ATOM     22  C   UNL     1      -3.630   0.868   2.878  1.00  0.00     0.013 A 
BRANCH  21  23
ATOM     23  C   UNL     1      -3.897   1.807   0.562  1.00  0.00     0.416 C 
ATOM     24  F   UNL     1      -5.230   1.553   0.478  1.00  0.00    -0.166 F 
ATOM     25  F   UNL     1      -3.783   3.118   0.912  1.00  0.00    -0.166 F 
ATOM     26  F   UNL     1      -3.410   1.714  -0.706  1.00  0.00    -0.166 F 
ENDBRANCH  21  23
ENDBRANCH  15  17
ENDBRANCH   9  11
ENDBRANCH   8   9
ENDBRANCH   7   8
ENDBRANCH   6   7
ENDBRANCH   5   6
ENDBRANCH   4   5
ENDBRANCH   3   4
ENDBRANCH   2   3
ENDBRANCH   1   2
BRANCH   1  27
ATOM     27  C   UNL     1      -1.655  -8.348  -1.900  1.00  0.00     0.188 C 
BRANCH  27  28
ATOM     28  O   UNL     1      -0.809  -7.507  -2.682  1.00  0.00    -0.376 OA
BRANCH  28  29
ATOM     29  C   UNL     1      -1.062  -7.371  -4.073  1.00  0.00     0.202 C 
BRANCH  29  30
ATOM     30  C   UNL     1      -2.120  -6.322  -4.398  1.00  0.00     0.261 C 
BRANCH  30  31
ATOM     31  O   UNL     1      -3.317  -6.501  -3.659  1.00  0.00    -0.460 OA
BRANCH  31  32
ATOM     32  C   UNL     1      -3.967  -7.657  -3.864  1.00  0.00     0.338 C 
ATOM     33  O   UNL     1      -3.602  -8.599  -4.567  1.00  0.00    -0.246 OA
BRANCH  32  34
ATOM     34  C   UNL     1      -5.256  -7.591  -3.179  1.00  0.00     0.060 A 
ATOM     35  C   UNL     1      -6.117  -8.662  -3.414  1.00  0.00     0.016 A 
ATOM     36  C   UNL     1      -5.699  -6.351  -2.686  1.00  0.00     0.016 A 
ATOM     37  C   UNL     1      -7.453  -8.379  -3.496  1.00  0.00     0.010 A 
ATOM     38  C   UNL     1      -7.031  -6.066  -2.782  1.00  0.00     0.010 A 
ATOM     39  C   UNL     1      -7.853  -7.052  -3.314  1.00  0.00    -0.014 A 
BRANCH  39  40
ATOM     40  C   UNL     1      -9.150  -6.691  -3.821  1.00  0.00     0.031 A 
ATOM     41  C   UNL     1     -10.254  -7.028  -2.914  1.00  0.00     0.074 A 
ATOM     42  C   UNL     1      -9.276  -6.048  -4.994  1.00  0.00     0.049 A 
ATOM     43  N   UNL     1     -11.160  -7.932  -3.069  1.00  0.00    -0.248 NA
ATOM     44  C   UNL     1     -10.236  -6.396  -1.587  1.00  0.00     0.031 C 
ATOM     45  C   UNL     1      -8.232  -5.413  -5.807  1.00  0.00     0.029 A 
ATOM     46  N   UNL     1     -10.415  -5.734  -5.657  1.00  0.00    -0.354 N 
ATOM     47  C   UNL     1     -11.965  -7.828  -1.945  1.00  0.00     0.074 A 
ATOM     48  C   UNL     1     -11.242  -7.030  -0.989  1.00  0.00     0.031 C 
ATOM     49  C   UNL     1      -8.818  -4.604  -6.718  1.00  0.00     0.029 A 
ATOM     50  C   UNL     1     -10.260  -4.757  -6.624  1.00  0.00     0.049 A 
ATOM     51  H   UNL     1     -11.279  -6.165  -5.466  1.00  0.00     0.167 HD
ATOM     52  C   UNL     1     -13.275  -8.183  -1.974  1.00  0.00     0.037 A 
ATOM     53  C   UNL     1     -11.269  -4.052  -7.192  1.00  0.00     0.037 A 
ATOM     54  C   UNL     1     -13.582  -9.021  -3.103  1.00  0.00     0.049 A 
ATOM     55  C   UNL     1     -12.520  -4.841  -6.988  1.00  0.00     0.074 A 
ATOM     56  C   UNL     1     -13.135 -10.257  -3.533  1.00  0.00     0.029 A 
ATOM     57  N   UNL     1     -14.195  -8.445  -4.190  1.00  0.00    -0.354 N 
ATOM     58  N   UNL     1     -12.744  -6.010  -7.532  1.00  0.00    -0.248 NA
ATOM     59  C   UNL     1     -13.332  -4.546  -5.815  1.00  0.00     0.031 C 
ATOM     60  C   UNL     1     -13.098 -10.169  -4.954  1.00  0.00     0.029 A 
ATOM     61  C   UNL     1     -13.552  -8.899  -5.316  1.00  0.00     0.049 A 
ATOM     62  H   UNL     1     -14.957  -7.821  -4.166  1.00  0.00     0.167 HD
ATOM     63  C   UNL     1     -13.418  -6.743  -6.562  1.00  0.00     0.074 A 
ATOM     64  C   UNL     1     -13.831  -5.760  -5.566  1.00  0.00     0.031 C 
ATOM     65  C   UNL     1     -13.334  -8.107  -6.511  1.00  0.00     0.037 A 
BRANCH  52  66
ATOM     66  C   UNL     1     -14.322  -7.471  -1.164  1.00  0.00     0.058 A 
ATOM     67  C   UNL     1     -15.589  -8.054  -0.999  1.00  0.00     0.135 A 
ATOM     68  C   UNL     1     -14.203  -6.122  -0.755  1.00  0.00     0.135 A 
ATOM     69  F   UNL     1     -15.812  -9.322  -1.379  1.00  0.00    -0.206 F 
ATOM     70  C   UNL     1     -16.676  -7.331  -0.508  1.00  0.00     0.059 A 
ATOM     71  C   UNL     1     -15.253  -5.405  -0.203  1.00  0.00     0.059 A 
ATOM     72  F   UNL     1     -13.093  -5.404  -0.969  1.00  0.00    -0.206 F 
ATOM     73  C   UNL     1     -16.498  -6.003  -0.128  1.00  0.00     0.060 A 
BRANCH  73  74
ATOM     74  S   UNL     1     -17.920  -5.025   0.381  1.00  0.00     0.124 S 
ATOM     75  O   UNL     1     -18.606  -4.836  -0.892  1.00  0.00    -0.237 OA
ATOM     76  O   UNL     1     -18.574  -5.912   1.338  1.00  0.00    -0.237 OA
ATOM     77  O   UNL     1     -17.314  -3.828   0.958  1.00  0.00    -0.744 OA
ENDBRANCH  73  74
ENDBRANCH  52  66
BRANCH  53  78
ATOM     78  C   UNL     1     -11.250  -2.597  -7.500  1.00  0.00     0.058 A 
ATOM     79  C   UNL     1     -12.248  -2.002  -8.289  1.00  0.00     0.135 A 
ATOM     80  C   UNL     1     -10.383  -1.707  -6.826  1.00  0.00     0.135 A 
ATOM     81  F   UNL     1     -13.140  -2.768  -8.935  1.00  0.00    -0.206 F 
ATOM     82  C   UNL     1     -12.394  -0.613  -8.384  1.00  0.00     0.059 A 
ATOM     83  C   UNL     1     -10.496  -0.323  -6.922  1.00  0.00     0.059 A 
ATOM     84  F   UNL     1      -9.447  -2.152  -5.976  1.00  0.00    -0.206 F 
ATOM     85  C   UNL     1     -11.518   0.220  -7.686  1.00  0.00     0.060 A 
BRANCH  85  86
ATOM     86  S   UNL     1     -11.786   2.007  -7.687  1.00  0.00     0.124 S 
ATOM     87  O   UNL     1     -11.460   2.359  -9.065  1.00  0.00    -0.237 OA
ATOM     88  O   UNL     1     -13.193   2.107  -7.316  1.00  0.00    -0.237 OA
ATOM     89  O   UNL     1     -10.844   2.492  -6.681  1.00  0.00    -0.744 OA
ENDBRANCH  85  86
ENDBRANCH  53  78
BRANCH  65  90
ATOM     90  C   UNL     1     -12.713  -8.826  -7.684  1.00  0.00     0.058 A 
ATOM     91  C   UNL     1     -11.355  -8.715  -8.032  1.00  0.00     0.135 A 
ATOM     92  C   UNL     1     -13.467  -9.796  -8.361  1.00  0.00     0.135 A 
ATOM     93  F   UNL     1     -10.539  -7.892  -7.360  1.00  0.00    -0.206 F 
ATOM     94  C   UNL     1     -10.780  -9.506  -9.028  1.00  0.00     0.059 A 
ATOM     95  C   UNL     1     -12.907 -10.619  -9.338  1.00  0.00     0.059 A 
ATOM     96  F   UNL     1     -14.752 -10.000  -8.029  1.00  0.00    -0.206 F 
ATOM     97  C   UNL     1     -11.563 -10.462  -9.672  1.00  0.00     0.060 A 
BRANCH  97  98
ATOM     98  S   UNL     1     -10.786 -11.562 -10.877  1.00  0.00     0.124 S 
ATOM     99  O   UNL     1     -10.592 -10.677 -12.021  1.00  0.00    -0.237 OA
ATOM    100  O   UNL     1      -9.568 -11.981 -10.187  1.00  0.00    -0.237 OA
ATOM    101  O   UNL     1     -11.778 -12.618 -11.064  1.00  0.00    -0.744 OA
ENDBRANCH  97  98
ENDBRANCH  65  90
ENDBRANCH  39  40
ENDBRANCH  32  34
ENDBRANCH  31  32
ENDBRANCH  30  31
ENDBRANCH  29  30
ENDBRANCH  28  29
ENDBRANCH  27  28
ENDBRANCH   1  27
TORSDOF 25
