REMARK SMILES O=C(OCCOCCOCCOCCOC(=O)[C@H]1CCCN(c2cc(-c3ccccn3)nc(-c3ccccc3F)n2)C1)c1ccc(-c2c3nc(c(-c4c(F)cc(S(=O)(=O)[O-])cc4F)c4ccc([nH]4)c(-c4c(F)cc(S(=O)(=O)[O-])cc4F)c4nc(c(-c5c(F)cc(S(=O)(=O)[O-])cc5F)c5ccc2[nH]5)C=C4)C=C3)cc1
REMARK SMILES IDX 8 1 7 2 6 3 5 4 4 5 3 6 2 7 1 8 43 9 44 10 108 11 45 12
REMARK SMILES IDX 107 13 46 14 47 15 48 16 101 17 49 18 106 19 100 20 102 21
REMARK SMILES IDX 50 22 105 23 99 24 98 25 51 27 85 28 64 29 84 30 65 31 68 32
REMARK SMILES IDX 83 33 103 34 66 35 67 36 82 38 104 39 69 40 52 41 53 42
REMARK SMILES IDX 62 43 54 44 55 45 61 46 63 47 56 48 57 49 58 50 59 51 60 52
REMARK SMILES IDX 86 53 87 54 96 55 88 56 89 57 95 58 97 59 90 60 91 61 92 62
REMARK SMILES IDX 93 63 94 64 70 65 71 66 80 67 72 68 73 69 79 70 81 71 74 72
REMARK SMILES IDX 75 73 76 74 77 75 78 76 9 77 10 78 11 79 12 80 13 81 14 82
REMARK SMILES IDX 15 83 16 84 17 85 18 86 19 87 42 88 20 89 22 90 21 91 23 92
REMARK SMILES IDX 24 93 41 94 25 95 33 96 32 97 26 98 27 99 31 100 28 101
REMARK SMILES IDX 30 102 29 103 34 104 35 105 39 106 36 107 38 108 40 109
REMARK SMILES IDX 37 110
REMARK H PARENT 102 26 68 37
REMARK Flexibility Score: inf
ROOT
ATOM      1  C   UNL     1       2.571   0.280  -6.385  1.00  0.00     0.188 C 
ENDROOT
BRANCH   1   2
ATOM      2  C   UNL     1       1.494  -0.367  -5.542  1.00  0.00     0.188 C 
BRANCH   2   3
ATOM      3  O   UNL     1       0.762   0.637  -4.870  1.00  0.00    -0.376 OA
BRANCH   3   4
ATOM      4  C   UNL     1       0.328   0.425  -3.535  1.00  0.00     0.202 C 
BRANCH   4   5
ATOM      5  C   UNL     1      -0.425  -0.866  -3.256  1.00  0.00     0.261 C 
BRANCH   5   6
ATOM      6  O   UNL     1      -0.569  -1.788  -4.356  1.00  0.00    -0.460 OA
BRANCH   6   7
ATOM      7  C   UNL     1      -1.330  -1.775  -5.474  1.00  0.00     0.338 C 
ATOM      8  O   UNL     1      -1.270  -2.742  -6.233  1.00  0.00    -0.246 OA
BRANCH   7   9
ATOM      9  C   UNL     1      -2.247  -0.666  -5.844  1.00  0.00     0.060 A 
ATOM     10  C   UNL     1      -2.002   0.674  -5.590  1.00  0.00     0.016 A 
ATOM     11  C   UNL     1      -3.390  -0.979  -6.590  1.00  0.00     0.016 A 
ATOM     12  C   UNL     1      -2.914   1.662  -5.857  1.00  0.00     0.010 A 
ATOM     13  C   UNL     1      -4.292   0.025  -6.959  1.00  0.00     0.010 A 
ATOM     14  C   UNL     1      -4.075   1.339  -6.530  1.00  0.00    -0.014 A 
BRANCH  14  15
ATOM     15  C   UNL     1      -5.112   2.374  -6.515  1.00  0.00     0.031 A 
ATOM     16  C   UNL     1      -6.251   2.161  -5.568  1.00  0.00     0.074 A 
ATOM     17  C   UNL     1      -4.882   3.553  -7.121  1.00  0.00     0.049 A 
ATOM     18  N   UNL     1      -7.317   2.883  -5.385  1.00  0.00    -0.248 NA
ATOM     19  C   UNL     1      -6.167   0.977  -4.688  1.00  0.00     0.031 C 
ATOM     20  C   UNL     1      -3.661   3.900  -7.862  1.00  0.00     0.029 A 
ATOM     21  N   UNL     1      -5.625   4.697  -7.156  1.00  0.00    -0.354 N 
ATOM     22  C   UNL     1      -8.051   2.216  -4.413  1.00  0.00     0.074 A 
ATOM     23  C   UNL     1      -7.320   1.030  -4.044  1.00  0.00     0.031 C 
ATOM     24  C   UNL     1      -3.730   5.183  -8.247  1.00  0.00     0.029 A 
ATOM     25  C   UNL     1      -5.035   5.710  -7.872  1.00  0.00     0.049 A 
ATOM     26  H   UNL     1      -6.498   4.788  -6.711  1.00  0.00     0.167 HD
ATOM     27  C   UNL     1      -9.239   2.581  -3.887  1.00  0.00     0.037 A 
ATOM     28  C   UNL     1      -5.531   6.911  -8.220  1.00  0.00     0.037 A 
ATOM     29  C   UNL     1      -9.910   3.784  -4.288  1.00  0.00     0.049 A 
ATOM     30  C   UNL     1      -6.922   7.230  -7.749  1.00  0.00     0.074 A 
ATOM     31  C   UNL     1     -11.167   4.233  -3.944  1.00  0.00     0.029 A 
ATOM     32  N   UNL     1      -9.351   4.740  -5.133  1.00  0.00    -0.354 N 
ATOM     33  N   UNL     1      -7.700   6.526  -6.956  1.00  0.00    -0.248 NA
ATOM     34  C   UNL     1      -7.519   8.477  -8.232  1.00  0.00     0.031 C 
ATOM     35  C   UNL     1     -11.388   5.437  -4.621  1.00  0.00     0.029 A 
ATOM     36  C   UNL     1     -10.244   5.772  -5.336  1.00  0.00     0.049 A 
ATOM     37  H   UNL     1      -8.450   4.687  -5.527  1.00  0.00     0.167 HD
ATOM     38  C   UNL     1      -8.876   7.250  -6.831  1.00  0.00     0.074 A 
ATOM     39  C   UNL     1      -8.697   8.456  -7.622  1.00  0.00     0.031 C 
ATOM     40  C   UNL     1     -10.003   6.952  -6.135  1.00  0.00     0.037 A 
BRANCH  27  41
ATOM     41  C   UNL     1      -9.885   1.625  -2.927  1.00  0.00     0.058 A 
ATOM     42  C   UNL     1     -10.991   0.863  -3.336  1.00  0.00     0.135 A 
ATOM     43  C   UNL     1      -9.381   1.403  -1.634  1.00  0.00     0.135 A 
ATOM     44  F   UNL     1     -11.493   1.009  -4.572  1.00  0.00    -0.206 F 
ATOM     45  C   UNL     1     -11.579  -0.078  -2.498  1.00  0.00     0.059 A 
ATOM     46  C   UNL     1      -9.937   0.446  -0.787  1.00  0.00     0.059 A 
ATOM     47  F   UNL     1      -8.292   2.064  -1.210  1.00  0.00    -0.206 F 
ATOM     48  C   UNL     1     -11.042  -0.283  -1.226  1.00  0.00     0.060 A 
BRANCH  48  49
ATOM     49  S   UNL     1     -11.779  -1.556  -0.179  1.00  0.00     0.124 S 
ATOM     50  O   UNL     1     -13.069  -0.961   0.151  1.00  0.00    -0.237 OA
ATOM     51  O   UNL     1     -11.819  -2.706  -1.077  1.00  0.00    -0.237 OA
ATOM     52  O   UNL     1     -10.835  -1.671   0.929  1.00  0.00    -0.744 OA
ENDBRANCH  48  49
ENDBRANCH  27  41
BRANCH  28  53
ATOM     53  C   UNL     1      -4.737   7.827  -9.084  1.00  0.00     0.058 A 
ATOM     54  C   UNL     1      -4.383   7.462 -10.396  1.00  0.00     0.135 A 
ATOM     55  C   UNL     1      -4.267   9.058  -8.608  1.00  0.00     0.135 A 
ATOM     56  F   UNL     1      -4.801   6.293 -10.907  1.00  0.00    -0.206 F 
ATOM     57  C   UNL     1      -3.563   8.261 -11.185  1.00  0.00     0.059 A 
ATOM     58  C   UNL     1      -3.467   9.891  -9.390  1.00  0.00     0.059 A 
ATOM     59  F   UNL     1      -4.583   9.461  -7.368  1.00  0.00    -0.206 F 
ATOM     60  C   UNL     1      -3.106   9.474 -10.671  1.00  0.00     0.060 A 
BRANCH  60  61
ATOM     61  S   UNL     1      -2.028  10.483 -11.711  1.00  0.00     0.124 S 
ATOM     62  O   UNL     1      -0.836   9.648 -11.797  1.00  0.00    -0.237 OA
ATOM     63  O   UNL     1      -2.810  10.605 -12.934  1.00  0.00    -0.237 OA
ATOM     64  O   UNL     1      -1.875  11.718 -10.940  1.00  0.00    -0.744 OA
ENDBRANCH  60  61
ENDBRANCH  28  53
BRANCH  40  65
ATOM     65  C   UNL     1     -11.110   7.960  -6.177  1.00  0.00     0.058 A 
ATOM     66  C   UNL     1     -11.430   8.696  -5.026  1.00  0.00     0.135 A 
ATOM     67  C   UNL     1     -11.912   8.121  -7.316  1.00  0.00     0.135 A 
ATOM     68  F   UNL     1     -10.695   8.565  -3.910  1.00  0.00    -0.206 F 
ATOM     69  C   UNL     1     -12.528   9.543  -4.995  1.00  0.00     0.059 A 
ATOM     70  C   UNL     1     -12.996   8.989  -7.317  1.00  0.00     0.059 A 
ATOM     71  F   UNL     1     -11.634   7.442  -8.441  1.00  0.00    -0.206 F 
ATOM     72  C   UNL     1     -13.307   9.680  -6.145  1.00  0.00     0.060 A 
BRANCH  72  73
ATOM     73  S   UNL     1     -14.726  10.789  -6.086  1.00  0.00     0.124 S 
ATOM     74  O   UNL     1     -15.640  10.056  -5.217  1.00  0.00    -0.237 OA
ATOM     75  O   UNL     1     -14.144  12.001  -5.518  1.00  0.00    -0.237 OA
ATOM     76  O   UNL     1     -15.133  10.893  -7.484  1.00  0.00    -0.744 OA
ENDBRANCH  72  73
ENDBRANCH  40  65
ENDBRANCH  14  15
ENDBRANCH   7   9
ENDBRANCH   6   7
ENDBRANCH   5   6
ENDBRANCH   4   5
ENDBRANCH   3   4
ENDBRANCH   2   3
ENDBRANCH   1   2
BRANCH   1  77
ATOM     77  O   UNL     1       3.464   1.089  -5.638  1.00  0.00    -0.377 OA
BRANCH  77  78
ATOM     78  C   UNL     1       2.945   2.132  -4.821  1.00  0.00     0.188 C 
BRANCH  78  79
ATOM     79  C   UNL     1       2.245   3.342  -5.471  1.00  0.00     0.188 C 
BRANCH  79  80
ATOM     80  O   UNL     1       1.471   3.025  -6.607  1.00  0.00    -0.376 OA
BRANCH  80  81
ATOM     81  C   UNL     1       1.984   3.292  -7.908  1.00  0.00     0.202 C 
BRANCH  81  82
ATOM     82  C   UNL     1       3.486   3.480  -8.222  1.00  0.00     0.261 C 
BRANCH  82  83
ATOM     83  O   UNL     1       4.404   2.952  -7.253  1.00  0.00    -0.463 OA
BRANCH  83  84
ATOM     84  C   UNL     1       5.307   3.830  -6.740  1.00  0.00     0.310 C 
ATOM     85  O   UNL     1       5.480   4.964  -7.173  1.00  0.00    -0.252 OA
BRANCH  84  86
ATOM     86  C   UNL     1       5.950   3.335  -5.455  1.00  0.00     0.118 C 
ATOM     87  C   UNL     1       6.376   1.857  -5.379  1.00  0.00     0.019 C 
ATOM     88  C   UNL     1       7.148   4.211  -5.135  1.00  0.00     0.133 C 
ATOM     89  C   UNL     1       6.948   1.521  -3.994  1.00  0.00     0.022 C 
ATOM     90  N   UNL     1       7.670   3.802  -3.830  1.00  0.00    -0.356 N 
ATOM     91  C   UNL     1       8.129   2.431  -3.691  1.00  0.00     0.118 C 
BRANCH  90  92
ATOM     92  C   UNL     1       8.281   4.830  -3.148  1.00  0.00     0.133 A 
ATOM     93  C   UNL     1       9.642   4.958  -3.181  1.00  0.00     0.077 A 
ATOM     94  N   UNL     1       7.493   5.756  -2.586  1.00  0.00    -0.211 NA
ATOM     95  C   UNL     1      10.170   6.120  -2.668  1.00  0.00     0.095 A 
ATOM     96  C   UNL     1       8.091   6.845  -2.079  1.00  0.00     0.165 A 
ATOM     97  N   UNL     1       9.413   7.079  -2.101  1.00  0.00    -0.226 NA
BRANCH  95  98
ATOM     98  C   UNL     1      11.604   6.359  -2.817  1.00  0.00     0.089 A 
ATOM     99  C   UNL     1      12.178   6.445  -4.089  1.00  0.00     0.030 A 
ATOM    100  N   UNL     1      12.347   6.318  -1.684  1.00  0.00    -0.255 NA
ATOM    101  C   UNL     1      13.561   6.481  -4.204  1.00  0.00     0.004 A 
ATOM    102  C   UNL     1      13.687   6.375  -1.826  1.00  0.00     0.112 A 
ATOM    103  C   UNL     1      14.332   6.444  -3.050  1.00  0.00     0.020 A 
ENDBRANCH  95  98
BRANCH  96 104
ATOM    104  C   UNL     1       7.234   7.837  -1.441  1.00  0.00     0.055 A 
ATOM    105  C   UNL     1       6.430   7.504  -0.335  1.00  0.00     0.015 A 
ATOM    106  C   UNL     1       7.189   9.154  -1.906  1.00  0.00     0.134 A 
ATOM    107  C   UNL     1       5.649   8.473   0.305  1.00  0.00     0.001 A 
ATOM    108  C   UNL     1       6.404  10.123  -1.280  1.00  0.00     0.040 A 
ATOM    109  F   UNL     1       7.894   9.516  -2.990  1.00  0.00    -0.206 F 
ATOM    110  C   UNL     1       5.642   9.785  -0.164  1.00  0.00     0.003 A 
ENDBRANCH  96 104
ENDBRANCH  90  92
ENDBRANCH  84  86
ENDBRANCH  83  84
ENDBRANCH  82  83
ENDBRANCH  81  82
ENDBRANCH  80  81
ENDBRANCH  79  80
ENDBRANCH  78  79
ENDBRANCH  77  78
ENDBRANCH   1  77
TORSDOF 26
