REMARK SMILES CS(=O)(=O)Nc1cc(NS(C)(=O)=O)cc(C(=O)OCCOCCOCCOCCOC(=O)c2ccc(-c3c4nc(c(-c5c(F)cc(S(=O)(=O)[O-])cc5F)c5ccc([nH]5)c(-c5c(F)cc(S(=O)(=O)[O-])cc5F)c5nc(c(-c6c(F)cc(S(=O)(=O)[O-])cc6F)c6ccc3[nH]6)C=C5)C=C4)cc2)c1
REMARK SMILES IDX 25 1 24 2 23 3 22 4 21 5 20 6 19 7 18 8 16 9 17 10 15 11
REMARK SMILES IDX 6 12 7 13 99 14 8 15 14 16 5 17 2 19 1 20 3 21 4 22 9 23
REMARK SMILES IDX 10 25 11 26 12 27 13 28 26 29 27 30 28 31 29 32 30 33 31 34
REMARK SMILES IDX 32 35 33 36 34 37 98 38 35 39 97 40 36 41 37 42 38 43 91 44
REMARK SMILES IDX 39 45 96 46 90 47 92 48 40 49 95 50 89 51 88 52 41 54 75 55
REMARK SMILES IDX 54 56 74 57 55 58 58 59 73 60 93 61 56 62 57 63 72 65 94 66
REMARK SMILES IDX 59 67 42 68 43 69 52 70 44 71 45 72 51 73 53 74 46 75 47 76
REMARK SMILES IDX 48 77 49 78 50 79 76 80 77 81 86 82 78 83 79 84 85 85 87 86
REMARK SMILES IDX 80 87 81 88 82 89 83 90 84 91 60 92 61 93 70 94 62 95 63 96
REMARK SMILES IDX 69 97 71 98 64 99 65 100 66 101 67 102 68 103
REMARK H PARENT 5 18 9 24 92 53 58 64
REMARK Flexibility Score: inf
ROOT
ATOM      1  C   UNL     1       7.736  -1.206   0.970  1.00  0.00     0.188 C 
ENDROOT
BRANCH   1   2
ATOM      2  O   UNL     1       6.443  -1.542   0.473  1.00  0.00    -0.377 OA
BRANCH   2   3
ATOM      3  C   UNL     1       6.180  -2.911   0.248  1.00  0.00     0.188 C 
BRANCH   3   4
ATOM      4  C   UNL     1       6.524  -3.373  -1.181  1.00  0.00     0.188 C 
BRANCH   4   5
ATOM      5  O   UNL     1       7.355  -2.581  -2.008  1.00  0.00    -0.376 OA
BRANCH   5   6
ATOM      6  C   UNL     1       7.078  -1.234  -2.363  1.00  0.00     0.202 C 
BRANCH   6   7
ATOM      7  C   UNL     1       5.710  -0.532  -2.320  1.00  0.00     0.261 C 
BRANCH   7   8
ATOM      8  O   UNL     1       4.671  -1.158  -1.581  1.00  0.00    -0.460 OA
BRANCH   8   9
ATOM      9  C   UNL     1       3.881  -2.022  -2.245  1.00  0.00     0.338 C 
ATOM     10  O   UNL     1       3.937  -2.335  -3.420  1.00  0.00    -0.246 OA
BRANCH   9  11
ATOM     11  C   UNL     1       3.020  -2.688  -1.243  1.00  0.00     0.064 A 
ATOM     12  C   UNL     1       1.741  -2.630   0.794  1.00  0.00     0.051 A 
ATOM     13  C   UNL     1       1.444  -3.992   0.647  1.00  0.00     0.053 A 
ATOM     14  C   UNL     1       2.597  -2.011  -0.104  1.00  0.00     0.042 A 
ATOM     15  C   UNL     1       1.987  -4.722  -0.416  1.00  0.00     0.051 A 
ATOM     16  C   UNL     1       2.719  -4.042  -1.397  1.00  0.00     0.042 A 
BRANCH  12  17
ATOM     17  N   UNL     1       1.272  -1.887   1.921  1.00  0.00    -0.284 N 
ATOM     18  H   UNL     1       1.576  -2.130   2.825  1.00  0.00     0.180 HD
BRANCH  17  19
ATOM     19  S   UNL     1       0.200  -0.595   1.717  1.00  0.00     0.229 S 
ATOM     20  C   UNL     1       0.588   0.219   0.170  1.00  0.00     0.183 C 
ATOM     21  O   UNL     1       0.475   0.325   2.799  1.00  0.00    -0.207 OA
ATOM     22  O   UNL     1      -1.112  -1.193   1.583  1.00  0.00    -0.207 OA
ENDBRANCH  17  19
ENDBRANCH  12  17
BRANCH  15  23
ATOM     23  N   UNL     1       1.845  -6.130  -0.649  1.00  0.00    -0.284 N 
ATOM     24  H   UNL     1       2.215  -6.486  -1.489  1.00  0.00     0.180 HD
BRANCH  23  25
ATOM     25  S   UNL     1       1.104  -7.229   0.386  1.00  0.00     0.229 S 
ATOM     26  C   UNL     1       0.146  -8.139  -0.800  1.00  0.00     0.183 C 
ATOM     27  O   UNL     1       2.156  -8.105   0.863  1.00  0.00    -0.207 OA
ATOM     28  O   UNL     1       0.178  -6.590   1.285  1.00  0.00    -0.207 OA
ENDBRANCH  23  25
ENDBRANCH  15  23
ENDBRANCH   9  11
ENDBRANCH   8   9
ENDBRANCH   7   8
ENDBRANCH   6   7
ENDBRANCH   5   6
ENDBRANCH   4   5
ENDBRANCH   3   4
ENDBRANCH   2   3
ENDBRANCH   1   2
BRANCH   1  29
ATOM     29  C   UNL     1       8.961  -2.059   0.566  1.00  0.00     0.188 C 
BRANCH  29  30
ATOM     30  O   UNL     1       8.751  -3.465   0.639  1.00  0.00    -0.376 OA
BRANCH  30  31
ATOM     31  C   UNL     1       9.318  -4.181   1.724  1.00  0.00     0.202 C 
BRANCH  31  32
ATOM     32  C   UNL     1       8.707  -3.922   3.109  1.00  0.00     0.261 C 
BRANCH  32  33
ATOM     33  O   UNL     1       8.728  -2.558   3.551  1.00  0.00    -0.460 OA
BRANCH  33  34
ATOM     34  C   UNL     1       9.942  -1.988   3.720  1.00  0.00     0.338 C 
ATOM     35  O   UNL     1      11.026  -2.519   3.569  1.00  0.00    -0.246 OA
BRANCH  34  36
ATOM     36  C   UNL     1       9.733  -0.541   3.927  1.00  0.00     0.060 A 
ATOM     37  C   UNL     1      10.328   0.360   3.036  1.00  0.00     0.016 A 
ATOM     38  C   UNL     1       8.954  -0.077   4.990  1.00  0.00     0.016 A 
ATOM     39  C   UNL     1      10.182   1.733   3.233  1.00  0.00     0.010 A 
ATOM     40  C   UNL     1       8.822   1.299   5.196  1.00  0.00     0.010 A 
ATOM     41  C   UNL     1       9.468   2.209   4.341  1.00  0.00    -0.014 A 
BRANCH  41  42
ATOM     42  C   UNL     1       9.573   3.642   4.714  1.00  0.00     0.031 A 
ATOM     43  C   UNL     1      10.555   4.029   5.787  1.00  0.00     0.074 A 
ATOM     44  C   UNL     1       8.846   4.584   4.088  1.00  0.00     0.049 A 
ATOM     45  N   UNL     1      10.822   5.209   6.283  1.00  0.00    -0.248 NA
ATOM     46  C   UNL     1      11.340   2.934   6.381  1.00  0.00     0.031 C 
ATOM     47  C   UNL     1       7.891   4.338   3.010  1.00  0.00     0.029 A 
ATOM     48  N   UNL     1       8.801   5.943   4.275  1.00  0.00    -0.354 N 
ATOM     49  C   UNL     1      11.802   4.999   7.247  1.00  0.00     0.074 A 
ATOM     50  C   UNL     1      12.053   3.575   7.294  1.00  0.00     0.031 C 
ATOM     51  C   UNL     1       7.349   5.510   2.633  1.00  0.00     0.029 A 
ATOM     52  C   UNL     1       7.896   6.583   3.462  1.00  0.00     0.049 A 
ATOM     53  H   UNL     1       9.365   6.415   4.930  1.00  0.00     0.167 HD
ATOM     54  C   UNL     1      12.445   5.911   8.016  1.00  0.00     0.037 A 
ATOM     55  C   UNL     1       7.540   7.883   3.408  1.00  0.00     0.037 A 
ATOM     56  C   UNL     1      12.183   7.326   7.972  1.00  0.00     0.049 A 
ATOM     57  C   UNL     1       8.216   8.871   4.325  1.00  0.00     0.074 A 
ATOM     58  C   UNL     1      12.787   8.336   8.701  1.00  0.00     0.029 A 
ATOM     59  N   UNL     1      11.232   7.932   7.163  1.00  0.00    -0.354 N 
ATOM     60  N   UNL     1       9.161   8.665   5.213  1.00  0.00    -0.248 NA
ATOM     61  C   UNL     1       7.782  10.272   4.227  1.00  0.00     0.031 C 
ATOM     62  C   UNL     1      12.160   9.544   8.377  1.00  0.00     0.029 A 
ATOM     63  C   UNL     1      11.212   9.298   7.396  1.00  0.00     0.049 A 
ATOM     64  H   UNL     1      10.656   7.461   6.519  1.00  0.00     0.167 HD
ATOM     65  C   UNL     1       9.454   9.914   5.757  1.00  0.00     0.074 A 
ATOM     66  C   UNL     1       8.597  10.869   5.085  1.00  0.00     0.031 C 
ATOM     67  C   UNL     1      10.352  10.240   6.721  1.00  0.00     0.037 A 
BRANCH  54  68
ATOM     68  C   UNL     1      13.469   5.396   8.992  1.00  0.00     0.058 A 
ATOM     69  C   UNL     1      14.690   4.847   8.567  1.00  0.00     0.135 A 
ATOM     70  C   UNL     1      13.230   5.463  10.374  1.00  0.00     0.135 A 
ATOM     71  F   UNL     1      14.964   4.739   7.257  1.00  0.00    -0.206 F 
ATOM     72  C   UNL     1      15.621   4.353   9.475  1.00  0.00     0.059 A 
ATOM     73  C   UNL     1      14.161   5.005  11.301  1.00  0.00     0.059 A 
ATOM     74  F   UNL     1      12.078   5.975  10.837  1.00  0.00    -0.206 F 
ATOM     75  C   UNL     1      15.347   4.435  10.841  1.00  0.00     0.060 A 
BRANCH  75  76
ATOM     76  S   UNL     1      16.563   3.784  12.005  1.00  0.00     0.124 S 
ATOM     77  O   UNL     1      16.430   2.346  11.790  1.00  0.00    -0.237 OA
ATOM     78  O   UNL     1      17.804   4.384  11.526  1.00  0.00    -0.237 OA
ATOM     79  O   UNL     1      16.092   4.271  13.298  1.00  0.00    -0.744 OA
ENDBRANCH  75  76
ENDBRANCH  54  68
BRANCH  55  80
ATOM     80  C   UNL     1       6.492   8.328   2.450  1.00  0.00     0.058 A 
ATOM     81  C   UNL     1       6.807   9.151   1.358  1.00  0.00     0.135 A 
ATOM     82  C   UNL     1       5.151   7.941   2.608  1.00  0.00     0.135 A 
ATOM     83  F   UNL     1       8.070   9.562   1.171  1.00  0.00    -0.206 F 
ATOM     84  C   UNL     1       5.833   9.580   0.462  1.00  0.00     0.059 A 
ATOM     85  C   UNL     1       4.164   8.333   1.709  1.00  0.00     0.059 A 
ATOM     86  F   UNL     1       4.796   7.150   3.633  1.00  0.00    -0.206 F 
ATOM     87  C   UNL     1       4.514   9.159   0.642  1.00  0.00     0.060 A 
BRANCH  87  88
ATOM     88  S   UNL     1       3.272   9.666  -0.567  1.00  0.00     0.124 S 
ATOM     89  O   UNL     1       3.134  11.087  -0.271  1.00  0.00    -0.237 OA
ATOM     90  O   UNL     1       3.926   9.337  -1.830  1.00  0.00    -0.237 OA
ATOM     91  O   UNL     1       2.119   8.836  -0.234  1.00  0.00    -0.744 OA
ENDBRANCH  87  88
ENDBRANCH  55  80
BRANCH  67  92
ATOM     92  C   UNL     1      10.483  11.697   7.084  1.00  0.00     0.058 A 
ATOM     93  C   UNL     1       9.470  12.388   7.768  1.00  0.00     0.135 A 
ATOM     94  C   UNL     1      11.656  12.405   6.769  1.00  0.00     0.135 A 
ATOM     95  F   UNL     1       8.326  11.764   8.092  1.00  0.00    -0.206 F 
ATOM     96  C   UNL     1       9.597  13.736   8.090  1.00  0.00     0.059 A 
ATOM     97  C   UNL     1      11.819  13.743   7.113  1.00  0.00     0.059 A 
ATOM     98  F   UNL     1      12.665  11.792   6.129  1.00  0.00    -0.206 F 
ATOM     99  C   UNL     1      10.776  14.406   7.757  1.00  0.00     0.060 A 
BRANCH  99 100
ATOM    100  S   UNL     1      10.932  16.152   8.186  1.00  0.00     0.124 S 
ATOM    101  O   UNL     1      10.028  16.773   7.224  1.00  0.00    -0.237 OA
ATOM    102  O   UNL     1      10.489  16.173   9.577  1.00  0.00    -0.237 OA
ATOM    103  O   UNL     1      12.351  16.428   7.983  1.00  0.00    -0.744 OA
ENDBRANCH  99 100
ENDBRANCH  67  92
ENDBRANCH  41  42
ENDBRANCH  34  36
ENDBRANCH  33  34
ENDBRANCH  32  33
ENDBRANCH  31  32
ENDBRANCH  30  31
ENDBRANCH  29  30
ENDBRANCH   1  29
TORSDOF 27
