REMARK SMILES COC(=O)[C@H]1C(C)=NC2=C(C(=O)CCC2)[C@H]1c1ccc(C(=O)OCCOCCOCCOCCOC(=O)c2ccc(-c3c4nc(c(-c5c(F)cc(S(=O)(=O)[O-])cc5F)c5ccc([nH]5)c(-c5c(F)cc(S(=O)(=O)[O-])cc5F)c5nc(c(-c6c(F)cc(S(=O)(=O)[O-])cc6F)c6ccc3[nH]6)C=C5)C=C4)cc2)cc1
REMARK SMILES IDX 29 1 28 2 27 3 26 4 25 5 24 6 23 7 21 8 22 9 20 10 17 11
REMARK SMILES IDX 18 12 105 13 19 14 104 15 16 16 5 17 6 18 7 19 8 20 10 21
REMARK SMILES IDX 9 22 11 23 15 24 12 25 13 26 14 27 3 28 4 29 2 30 1 31 30 32
REMARK SMILES IDX 31 33 32 34 33 35 34 36 35 37 36 38 37 39 38 40 39 41 103 42
REMARK SMILES IDX 40 43 102 44 41 45 42 46 43 47 96 48 44 49 101 50 95 51
REMARK SMILES IDX 97 52 45 53 100 54 94 55 93 56 46 58 80 59 59 60 79 61 60 62
REMARK SMILES IDX 63 63 78 64 98 65 61 66 62 67 77 69 99 70 64 71 47 72 48 73
REMARK SMILES IDX 57 74 49 75 50 76 56 77 58 78 51 79 52 80 53 81 54 82 55 83
REMARK SMILES IDX 81 84 82 85 91 86 83 87 84 88 90 89 92 90 85 91 86 92 87 93
REMARK SMILES IDX 88 94 89 95 65 96 66 97 75 98 67 99 68 100 74 101 76 102
REMARK SMILES IDX 69 103 70 104 71 105 72 106 73 107
REMARK H PARENT 97 57 63 68
REMARK Flexibility Score: inf
ROOT
ATOM      1  O   UNL     1       1.235  -8.289  -0.978  1.00  0.00    -0.377 OA
ENDROOT
BRANCH   1   2
ATOM      2  C   UNL     1       0.206  -7.322  -1.108  1.00  0.00     0.188 C 
BRANCH   2   3
ATOM      3  C   UNL     1       0.027  -6.602  -2.463  1.00  0.00     0.188 C 
BRANCH   3   4
ATOM      4  O   UNL     1       0.737  -7.194  -3.536  1.00  0.00    -0.376 OA
BRANCH   4   5
ATOM      5  C   UNL     1       1.873  -6.542  -4.073  1.00  0.00     0.202 C 
BRANCH   5   6
ATOM      6  C   UNL     1       3.064  -6.207  -3.162  1.00  0.00     0.261 C 
BRANCH   6   7
ATOM      7  O   UNL     1       2.735  -5.720  -1.860  1.00  0.00    -0.460 OA
BRANCH   7   8
ATOM      8  C   UNL     1       2.288  -4.451  -1.780  1.00  0.00     0.338 C 
ATOM      9  O   UNL     1       2.166  -3.652  -2.693  1.00  0.00    -0.246 OA
BRANCH   8  10
ATOM     10  C   UNL     1       1.724  -4.259  -0.427  1.00  0.00     0.060 A 
ATOM     11  C   UNL     1       0.637  -3.727   2.085  1.00  0.00    -0.039 A 
ATOM     12  C   UNL     1      -0.103  -3.436   0.930  1.00  0.00     0.005 A 
ATOM     13  C   UNL     1       1.848  -4.434   1.970  1.00  0.00     0.005 A 
ATOM     14  C   UNL     1       0.460  -3.667  -0.322  1.00  0.00     0.016 A 
ATOM     15  C   UNL     1       2.390  -4.706   0.715  1.00  0.00     0.016 A 
BRANCH  11  16
ATOM     16  C   UNL     1       0.275  -3.087   3.424  1.00  0.00     0.075 C 
ATOM     17  C   UNL     1       0.561  -1.556   3.418  1.00  0.00     0.155 C 
ATOM     18  C   UNL     1      -0.673  -0.708   3.663  1.00  0.00     0.030 C 
ATOM     19  C   UNL     1      -0.510   0.799   3.658  1.00  0.00     0.063 C 
ATOM     20  N   UNL     1      -1.859  -1.158   3.931  1.00  0.00    -0.261 NA
ATOM     21  C   UNL     1      -1.116  -3.432   3.889  1.00  0.00     0.025 C 
ATOM     22  C   UNL     1      -2.068  -2.503   4.076  1.00  0.00     0.048 C 
ATOM     23  C   UNL     1      -1.398  -4.853   4.269  1.00  0.00     0.161 C 
ATOM     24  C   UNL     1      -3.480  -2.841   4.500  1.00  0.00     0.057 C 
ATOM     25  O   UNL     1      -0.515  -5.705   4.199  1.00  0.00    -0.294 OA
ATOM     26  C   UNL     1      -2.746  -5.195   4.865  1.00  0.00     0.081 C 
ATOM     27  C   UNL     1      -3.832  -4.306   4.293  1.00  0.00     0.015 C 
BRANCH  17  28
ATOM     28  C   UNL     1       1.356  -1.067   2.208  1.00  0.00     0.315 C 
ATOM     29  O   UNL     1       2.574  -1.141   2.124  1.00  0.00    -0.251 OA
BRANCH  28  30
ATOM     30  O   UNL     1       0.533  -0.551   1.249  1.00  0.00    -0.468 OA
ATOM     31  C   UNL     1       1.135  -0.124   0.019  1.00  0.00     0.282 C 
ENDBRANCH  28  30
ENDBRANCH  17  28
ENDBRANCH  11  16
ENDBRANCH   8  10
ENDBRANCH   7   8
ENDBRANCH   6   7
ENDBRANCH   5   6
ENDBRANCH   4   5
ENDBRANCH   3   4
ENDBRANCH   2   3
ENDBRANCH   1   2
BRANCH   1  32
ATOM     32  C   UNL     1       1.376  -9.315  -1.956  1.00  0.00     0.188 C 
BRANCH  32  33
ATOM     33  C   UNL     1       0.188  -9.769  -2.840  1.00  0.00     0.188 C 
BRANCH  33  34
ATOM     34  O   UNL     1      -1.071  -9.226  -2.477  1.00  0.00    -0.376 OA
BRANCH  34  35
ATOM     35  C   UNL     1      -2.002 -10.089  -1.850  1.00  0.00     0.202 C 
BRANCH  35  36
ATOM     36  C   UNL     1      -1.609 -10.674  -0.486  1.00  0.00     0.261 C 
BRANCH  36  37
ATOM     37  O   UNL     1      -0.345 -11.350  -0.426  1.00  0.00    -0.460 OA
BRANCH  37  38
ATOM     38  C   UNL     1      -0.216 -12.486  -1.144  1.00  0.00     0.338 C 
ATOM     39  O   UNL     1      -1.066 -13.012  -1.846  1.00  0.00    -0.246 OA
BRANCH  38  40
ATOM     40  C   UNL     1       1.205 -12.887  -1.095  1.00  0.00     0.060 A 
ATOM     41  C   UNL     1       1.939 -12.958  -2.286  1.00  0.00     0.016 A 
ATOM     42  C   UNL     1       1.813 -13.175   0.130  1.00  0.00     0.016 A 
ATOM     43  C   UNL     1       3.276 -13.356  -2.259  1.00  0.00     0.010 A 
ATOM     44  C   UNL     1       3.145 -13.595   0.153  1.00  0.00     0.010 A 
ATOM     45  C   UNL     1       3.870 -13.724  -1.045  1.00  0.00    -0.014 A 
BRANCH  45  46
ATOM     46  C   UNL     1       5.166 -14.446  -1.054  1.00  0.00     0.031 A 
ATOM     47  C   UNL     1       5.139 -15.948  -0.951  1.00  0.00     0.074 A 
ATOM     48  C   UNL     1       6.336 -13.795  -1.181  1.00  0.00     0.049 A 
ATOM     49  N   UNL     1       6.132 -16.797  -0.906  1.00  0.00    -0.248 NA
ATOM     50  C   UNL     1       3.808 -16.576  -0.888  1.00  0.00     0.031 C 
ATOM     51  C   UNL     1       6.488 -12.349  -1.328  1.00  0.00     0.029 A 
ATOM     52  N   UNL     1       7.623 -14.273  -1.200  1.00  0.00    -0.354 N 
ATOM     53  C   UNL     1       5.548 -18.055  -0.802  1.00  0.00     0.074 A 
ATOM     54  C   UNL     1       4.117 -17.857  -0.755  1.00  0.00     0.031 C 
ATOM     55  C   UNL     1       7.798 -12.055  -1.411  1.00  0.00     0.029 A 
ATOM     56  C   UNL     1       8.577 -13.287  -1.292  1.00  0.00     0.049 A 
ATOM     57  H   UNL     1       7.842 -15.232  -1.153  1.00  0.00     0.167 HD
ATOM     58  C   UNL     1       6.151 -19.266  -0.761  1.00  0.00     0.037 A 
ATOM     59  C   UNL     1       9.923 -13.372  -1.259  1.00  0.00     0.037 A 
ATOM     60  C   UNL     1       7.577 -19.456  -0.806  1.00  0.00     0.049 A 
ATOM     61  C   UNL     1      10.574 -14.729  -1.138  1.00  0.00     0.074 A 
ATOM     62  C   UNL     1       8.287 -20.643  -0.787  1.00  0.00     0.029 A 
ATOM     63  N   UNL     1       8.511 -18.432  -0.868  1.00  0.00    -0.354 N 
ATOM     64  N   UNL     1      10.012 -15.913  -1.070  1.00  0.00    -0.248 NA
ATOM     65  C   UNL     1      12.043 -14.761  -1.095  1.00  0.00     0.031 C 
ATOM     66  C   UNL     1       9.651 -20.335  -0.777  1.00  0.00     0.029 A 
ATOM     67  C   UNL     1       9.792 -18.959  -0.857  1.00  0.00     0.049 A 
ATOM     68  H   UNL     1       8.295 -17.472  -0.912  1.00  0.00     0.167 HD
ATOM     69  C   UNL     1      11.057 -16.830  -1.008  1.00  0.00     0.074 A 
ATOM     70  C   UNL     1      12.285 -16.064  -1.060  1.00  0.00     0.031 C 
ATOM     71  C   UNL     1      11.007 -18.183  -0.918  1.00  0.00     0.037 A 
BRANCH  58  72
ATOM     72  C   UNL     1       5.269 -20.479  -0.633  1.00  0.00     0.058 A 
ATOM     73  C   UNL     1       4.441 -20.910  -1.682  1.00  0.00     0.135 A 
ATOM     74  C   UNL     1       5.277 -21.240   0.548  1.00  0.00     0.135 A 
ATOM     75  F   UNL     1       4.378 -20.209  -2.826  1.00  0.00    -0.206 F 
ATOM     76  C   UNL     1       3.634 -22.036  -1.556  1.00  0.00     0.059 A 
ATOM     77  C   UNL     1       4.502 -22.387   0.684  1.00  0.00     0.059 A 
ATOM     78  F   UNL     1       6.045 -20.872   1.585  1.00  0.00    -0.206 F 
ATOM     79  C   UNL     1       3.673 -22.770  -0.370  1.00  0.00     0.060 A 
BRANCH  79  80
ATOM     80  S   UNL     1       2.629 -24.236  -0.229  1.00  0.00     0.124 S 
ATOM     81  O   UNL     1       1.300 -23.640  -0.141  1.00  0.00    -0.237 OA
ATOM     82  O   UNL     1       2.924 -24.947  -1.468  1.00  0.00    -0.237 OA
ATOM     83  O   UNL     1       3.108 -24.880   0.990  1.00  0.00    -0.744 OA
ENDBRANCH  79  80
ENDBRANCH  58  72
BRANCH  59  84
ATOM     84  C   UNL     1      10.752 -12.137  -1.328  1.00  0.00     0.058 A 
ATOM     85  C   UNL     1      11.572 -11.871  -2.435  1.00  0.00     0.135 A 
ATOM     86  C   UNL     1      10.752 -11.202  -0.279  1.00  0.00     0.135 A 
ATOM     87  F   UNL     1      11.620 -12.739  -3.457  1.00  0.00    -0.206 F 
ATOM     88  C   UNL     1      12.373 -10.735  -2.494  1.00  0.00     0.059 A 
ATOM     89  C   UNL     1      11.522 -10.044  -0.329  1.00  0.00     0.059 A 
ATOM     90  F   UNL     1       9.983 -11.404   0.802  1.00  0.00    -0.206 F 
ATOM     91  C   UNL     1      12.338  -9.824  -1.437  1.00  0.00     0.060 A 
BRANCH  91  92
ATOM     92  S   UNL     1      13.348  -8.331  -1.547  1.00  0.00     0.124 S 
ATOM     93  O   UNL     1      14.692  -8.871  -1.384  1.00  0.00    -0.237 OA
ATOM     94  O   UNL     1      13.014  -7.835  -2.879  1.00  0.00    -0.237 OA
ATOM     95  O   UNL     1      12.859  -7.512  -0.441  1.00  0.00    -0.744 OA
ENDBRANCH  91  92
ENDBRANCH  59  84
BRANCH  71  96
ATOM     96  C   UNL     1      12.313 -18.933  -0.912  1.00  0.00     0.058 A 
ATOM     97  C   UNL     1      13.187 -18.897   0.187  1.00  0.00     0.135 A 
ATOM     98  C   UNL     1      12.669 -19.747  -2.001  1.00  0.00     0.135 A 
ATOM     99  F   UNL     1      12.900 -18.133   1.253  1.00  0.00    -0.206 F 
ATOM    100  C   UNL     1      14.378 -19.616   0.194  1.00  0.00     0.059 A 
ATOM    101  C   UNL     1      13.838 -20.502  -2.002  1.00  0.00     0.059 A 
ATOM    102  F   UNL     1      11.865 -19.832  -3.073  1.00  0.00    -0.206 F 
ATOM    103  C   UNL     1      14.694 -20.419  -0.905  1.00  0.00     0.060 A 
BRANCH 103 104
ATOM    104  S   UNL     1      16.227 -21.370  -0.869  1.00  0.00     0.124 S 
ATOM    105  O   UNL     1      17.229 -20.321  -1.032  1.00  0.00    -0.237 OA
ATOM    106  O   UNL     1      16.175 -21.997   0.449  1.00  0.00    -0.237 OA
ATOM    107  O   UNL     1      16.088 -22.285  -1.998  1.00  0.00    -0.744 OA
ENDBRANCH 103 104
ENDBRANCH  71  96
ENDBRANCH  45  46
ENDBRANCH  38  40
ENDBRANCH  37  38
ENDBRANCH  36  37
ENDBRANCH  35  36
ENDBRANCH  34  35
ENDBRANCH  33  34
ENDBRANCH  32  33
ENDBRANCH   1  32
TORSDOF 26
