REMARK SMILES CCCC(=O)Nc1cccc(C(=O)N[C@@H](C(=O)OCCOCCOCCOCCOC(=O)c2ccc(-c3c4nc(c(-c5c(F)cc(S(=O)(=O)[O-])cc5F)c5ccc([nH]5)c(-c5c(F)cc(S(=O)(=O)[O-])cc5F)c5nc(c(-c6c(F)cc(S(=O)(=O)[O-])cc6F)c6ccc3[nH]6)C=C5)C=C4)cc2)c2c(C)n[nH]c2C)c1
REMARK SMILES IDX 23 1 22 2 21 3 20 4 19 5 18 6 16 7 17 8 15 9 14 10 12 11
REMARK SMILES IDX 13 12 11 14 7 15 8 16 106 17 9 18 10 19 6 20 4 21 5 22 3 24
REMARK SMILES IDX 2 25 1 26 99 27 100 28 104 29 101 30 102 31 103 32 105 33
REMARK SMILES IDX 24 35 25 36 26 37 27 38 28 39 29 40 30 41 31 42 32 43 33 44
REMARK SMILES IDX 34 45 98 46 35 47 97 48 36 49 37 50 38 51 91 52 39 53 96 54
REMARK SMILES IDX 90 55 92 56 40 57 95 58 89 59 88 60 41 62 75 63 54 64 74 65
REMARK SMILES IDX 55 66 58 67 73 68 93 69 56 70 57 71 72 73 94 74 59 75 42 76
REMARK SMILES IDX 43 77 52 78 44 79 45 80 51 81 53 82 46 83 47 84 48 85 49 86
REMARK SMILES IDX 50 87 76 88 77 89 86 90 78 91 79 92 85 93 87 94 80 95 81 96
REMARK SMILES IDX 82 97 83 98 84 99 60 100 61 101 70 102 62 103 63 104 69 105
REMARK SMILES IDX 71 106 64 107 65 108 66 109 67 110 68 111
REMARK H PARENT 14 13 6 23 103 34 92 61 58 72
REMARK Flexibility Score: inf
ROOT
ATOM      1  C   UNL     1      -2.339   3.287   0.975  1.00  0.00     0.188 C 
ENDROOT
BRANCH   1   2
ATOM      2  C   UNL     1      -3.078   3.176  -0.373  1.00  0.00     0.188 C 
BRANCH   2   3
ATOM      3  O   UNL     1      -4.242   2.373  -0.514  1.00  0.00    -0.376 OA
BRANCH   3   4
ATOM      4  C   UNL     1      -4.462   1.249   0.324  1.00  0.00     0.202 C 
BRANCH   4   5
ATOM      5  C   UNL     1      -3.403   0.134   0.440  1.00  0.00     0.261 C 
BRANCH   5   6
ATOM      6  O   UNL     1      -2.023   0.544   0.465  1.00  0.00    -0.461 OA
BRANCH   6   7
ATOM      7  C   UNL     1      -1.407   0.588  -0.747  1.00  0.00     0.333 C 
ATOM      8  O   UNL     1      -1.945   0.196  -1.777  1.00  0.00    -0.249 OA
BRANCH   7   9
ATOM      9  C   UNL     1       0.054   1.163  -0.681  1.00  0.00     0.227 C 
BRANCH   9  10
ATOM     10  N   UNL     1       0.567   1.650   0.614  1.00  0.00    -0.335 N 
ATOM     11  C   UNL     1       1.141   1.094   1.728  1.00  0.00     0.252 C 
ATOM     12  O   UNL     1       1.413   1.856   2.656  1.00  0.00    -0.269 OA
ATOM     13  H   UNL     1       0.473   2.627   0.701  1.00  0.00     0.165 HD
BRANCH  11  14
ATOM     14  C   UNL     1       1.587  -0.316   1.812  1.00  0.00     0.041 A 
ATOM     15  C   UNL     1       1.660  -2.552   0.936  1.00  0.00     0.041 A 
ATOM     16  C   UNL     1       2.872  -2.799   1.578  1.00  0.00     0.026 A 
ATOM     17  C   UNL     1       0.970  -1.353   1.124  1.00  0.00     0.040 A 
ATOM     18  C   UNL     1       3.419  -1.813   2.397  1.00  0.00     0.003 A 
ATOM     19  C   UNL     1       2.788  -0.570   2.500  1.00  0.00     0.014 A 
BRANCH  15  20
ATOM     20  N   UNL     1       1.128  -3.488   0.042  1.00  0.00    -0.326 N 
ATOM     21  C   UNL     1       1.107  -3.273  -1.317  1.00  0.00     0.224 C 
ATOM     22  O   UNL     1       0.102  -3.583  -1.958  1.00  0.00    -0.275 OA
ATOM     23  H   UNL     1       0.756  -4.328   0.397  1.00  0.00     0.169 HD
BRANCH  21  24
ATOM     24  C   UNL     1       2.350  -2.722  -2.013  1.00  0.00     0.100 C 
BRANCH  24  25
ATOM     25  C   UNL     1       2.334  -1.232  -2.328  1.00  0.00     0.006 C 
ATOM     26  C   UNL     1       3.200  -0.369  -1.422  1.00  0.00     0.004 C 
ENDBRANCH  24  25
ENDBRANCH  21  24
ENDBRANCH  15  20
ENDBRANCH  11  14
ENDBRANCH   9  10
BRANCH   9  27
ATOM     27  C   UNL     1       0.281   2.197  -1.807  1.00  0.00     0.029 A 
ATOM     28  C   UNL     1       0.457   3.637  -1.788  1.00  0.00     0.065 A 
ATOM     29  C   UNL     1       0.295   1.919  -3.181  1.00  0.00     0.038 A 
ATOM     30  C   UNL     1       0.420   4.656  -0.705  1.00  0.00     0.069 C 
ATOM     31  N   UNL     1       0.642   4.137  -3.016  1.00  0.00    -0.180 NA
ATOM     32  N   UNL     1       0.545   3.093  -3.824  1.00  0.00    -0.282 N 
ATOM     33  C   UNL     1       0.068   0.710  -4.016  1.00  0.00     0.066 C 
ATOM     34  H   UNL     1       0.646   3.159  -4.801  1.00  0.00     0.190 HD
ENDBRANCH   9  27
ENDBRANCH   7   9
ENDBRANCH   6   7
ENDBRANCH   5   6
ENDBRANCH   4   5
ENDBRANCH   3   4
ENDBRANCH   2   3
ENDBRANCH   1   2
BRANCH   1  35
ATOM     35  O   UNL     1      -2.947   2.625   2.059  1.00  0.00    -0.377 OA
BRANCH  35  36
ATOM     36  C   UNL     1      -3.693   3.464   2.925  1.00  0.00     0.188 C 
BRANCH  36  37
ATOM     37  C   UNL     1      -4.604   4.501   2.238  1.00  0.00     0.188 C 
BRANCH  37  38
ATOM     38  O   UNL     1      -3.939   5.328   1.285  1.00  0.00    -0.376 OA
BRANCH  38  39
ATOM     39  C   UNL     1      -3.521   6.632   1.657  1.00  0.00     0.202 C 
BRANCH  39  40
ATOM     40  C   UNL     1      -2.333   6.746   2.629  1.00  0.00     0.261 C 
BRANCH  40  41
ATOM     41  O   UNL     1      -2.495   6.086   3.890  1.00  0.00    -0.460 OA
BRANCH  41  42
ATOM     42  C   UNL     1      -3.541   6.476   4.647  1.00  0.00     0.338 C 
ATOM     43  O   UNL     1      -4.313   7.392   4.411  1.00  0.00    -0.246 OA
BRANCH  42  44
ATOM     44  C   UNL     1      -3.751   5.459   5.695  1.00  0.00     0.060 A 
ATOM     45  C   UNL     1      -5.005   4.839   5.769  1.00  0.00     0.016 A 
ATOM     46  C   UNL     1      -2.729   5.111   6.583  1.00  0.00     0.016 A 
ATOM     47  C   UNL     1      -5.261   3.908   6.767  1.00  0.00     0.010 A 
ATOM     48  C   UNL     1      -3.000   4.203   7.611  1.00  0.00     0.010 A 
ATOM     49  C   UNL     1      -4.283   3.642   7.732  1.00  0.00    -0.014 A 
BRANCH  49  50
ATOM     50  C   UNL     1      -4.724   3.027   9.005  1.00  0.00     0.031 A 
ATOM     51  C   UNL     1      -5.114   3.956  10.124  1.00  0.00     0.074 A 
ATOM     52  C   UNL     1      -4.875   1.698   9.128  1.00  0.00     0.049 A 
ATOM     53  N   UNL     1      -5.599   3.679  11.305  1.00  0.00    -0.248 NA
ATOM     54  C   UNL     1      -4.939   5.397   9.869  1.00  0.00     0.031 C 
ATOM     55  C   UNL     1      -4.588   0.712   8.088  1.00  0.00     0.029 A 
ATOM     56  N   UNL     1      -5.325   0.952  10.187  1.00  0.00    -0.354 N 
ATOM     57  C   UNL     1      -5.780   4.906  11.933  1.00  0.00     0.074 A 
ATOM     58  C   UNL     1      -5.324   5.927  11.018  1.00  0.00     0.031 C 
ATOM     59  C   UNL     1      -4.875  -0.514   8.560  1.00  0.00     0.029 A 
ATOM     60  C   UNL     1      -5.341  -0.400   9.942  1.00  0.00     0.049 A 
ATOM     61  H   UNL     1      -5.611   1.348  11.041  1.00  0.00     0.167 HD
ATOM     62  C   UNL     1      -6.289   5.160  13.161  1.00  0.00     0.037 A 
ATOM     63  C   UNL     1      -5.686  -1.422  10.749  1.00  0.00     0.037 A 
ATOM     64  C   UNL     1      -6.737   4.134  14.065  1.00  0.00     0.049 A 
ATOM     65  C   UNL     1      -6.181  -1.118  12.142  1.00  0.00     0.074 A 
ATOM     66  C   UNL     1      -7.281   4.278  15.328  1.00  0.00     0.029 A 
ATOM     67  N   UNL     1      -6.680   2.772  13.805  1.00  0.00    -0.354 N 
ATOM     68  N   UNL     1      -6.368   0.046  12.720  1.00  0.00    -0.248 NA
ATOM     69  C   UNL     1      -6.519  -2.269  12.989  1.00  0.00     0.031 C 
ATOM     70  C   UNL     1      -7.494   3.001  15.857  1.00  0.00     0.029 A 
ATOM     71  C   UNL     1      -7.150   2.062  14.896  1.00  0.00     0.049 A 
ATOM     72  H   UNL     1      -6.354   2.370  12.967  1.00  0.00     0.167 HD
ATOM     73  C   UNL     1      -6.884  -0.232  13.982  1.00  0.00     0.074 A 
ATOM     74  C   UNL     1      -6.985  -1.675  14.079  1.00  0.00     0.031 C 
ATOM     75  C   UNL     1      -7.248   0.625  14.970  1.00  0.00     0.037 A 
BRANCH  62  76
ATOM     76  C   UNL     1      -6.335   6.595  13.610  1.00  0.00     0.058 A 
ATOM     77  C   UNL     1      -7.207   7.533  13.033  1.00  0.00     0.135 A 
ATOM     78  C   UNL     1      -5.488   7.038  14.639  1.00  0.00     0.135 A 
ATOM     79  F   UNL     1      -8.021   7.172  12.028  1.00  0.00    -0.206 F 
ATOM     80  C   UNL     1      -7.215   8.864  13.439  1.00  0.00     0.059 A 
ATOM     81  C   UNL     1      -5.502   8.356  15.083  1.00  0.00     0.059 A 
ATOM     82  F   UNL     1      -4.628   6.187  15.220  1.00  0.00    -0.206 F 
ATOM     83  C   UNL     1      -6.358   9.266  14.464  1.00  0.00     0.060 A 
BRANCH  83  84
ATOM     84  S   UNL     1      -6.376  10.996  14.977  1.00  0.00     0.124 S 
ATOM     85  O   UNL     1      -5.736  11.645  13.837  1.00  0.00    -0.237 OA
ATOM     86  O   UNL     1      -7.802  11.259  15.137  1.00  0.00    -0.237 OA
ATOM     87  O   UNL     1      -5.599  10.994  16.213  1.00  0.00    -0.744 OA
ENDBRANCH  83  84
ENDBRANCH  62  76
BRANCH  63  88
ATOM     88  C   UNL     1      -5.587  -2.825  10.264  1.00  0.00     0.058 A 
ATOM     89  C   UNL     1      -6.734  -3.608  10.062  1.00  0.00     0.135 A 
ATOM     90  C   UNL     1      -4.341  -3.416  10.001  1.00  0.00     0.135 A 
ATOM     91  F   UNL     1      -7.948  -3.094  10.312  1.00  0.00    -0.206 F 
ATOM     92  C   UNL     1      -6.650  -4.928   9.632  1.00  0.00     0.059 A 
ATOM     93  C   UNL     1      -4.232  -4.725   9.543  1.00  0.00     0.059 A 
ATOM     94  F   UNL     1      -3.212  -2.710  10.171  1.00  0.00    -0.206 F 
ATOM     95  C   UNL     1      -5.394  -5.477   9.370  1.00  0.00     0.060 A 
BRANCH  95  96
ATOM     96  S   UNL     1      -5.300  -7.176   8.764  1.00  0.00     0.124 S 
ATOM     97  O   UNL     1      -5.673  -7.934   9.952  1.00  0.00    -0.237 OA
ATOM     98  O   UNL     1      -6.276  -7.166   7.679  1.00  0.00    -0.237 OA
ATOM     99  O   UNL     1      -3.908  -7.306   8.343  1.00  0.00    -0.744 OA
ENDBRANCH  95  96
ENDBRANCH  63  88
BRANCH  75 100
ATOM    100  C   UNL     1      -7.840   0.029  16.221  1.00  0.00     0.058 A 
ATOM    101  C   UNL     1      -7.072  -0.715  17.130  1.00  0.00     0.135 A 
ATOM    102  C   UNL     1      -9.196   0.237  16.528  1.00  0.00     0.135 A 
ATOM    103  F   UNL     1      -5.772  -0.945  16.887  1.00  0.00    -0.206 F 
ATOM    104  C   UNL     1      -7.636  -1.269  18.275  1.00  0.00     0.059 A 
ATOM    105  C   UNL     1      -9.772  -0.276  17.685  1.00  0.00     0.059 A 
ATOM    106  F   UNL     1      -9.974   0.957  15.703  1.00  0.00    -0.206 F 
ATOM    107  C   UNL     1      -8.988  -1.046  18.542  1.00  0.00     0.060 A 
BRANCH 107 108
ATOM    108  S   UNL     1      -9.707  -1.767  20.032  1.00  0.00     0.124 S 
ATOM    109  O   UNL     1      -9.781  -3.178  19.668  1.00  0.00    -0.237 OA
ATOM    110  O   UNL     1      -8.720  -1.427  21.052  1.00  0.00    -0.237 OA
ATOM    111  O   UNL     1     -10.991  -1.083  20.157  1.00  0.00    -0.744 OA
ENDBRANCH 107 108
ENDBRANCH  75 100
ENDBRANCH  49  50
ENDBRANCH  42  44
ENDBRANCH  41  42
ENDBRANCH  40  41
ENDBRANCH  39  40
ENDBRANCH  38  39
ENDBRANCH  37  38
ENDBRANCH  36  37
ENDBRANCH  35  36
ENDBRANCH   1  35
TORSDOF 29
