REMARK SMILES CC(=O)Nc1cc(NC(C)=O)cc(C(=O)Nc2ccc(Br)cc2C(=O)OCCOCCOCCOCCOC(=O)c2ccc(-c3c4nc(c(-c5c(F)cc(S(=O)(=O)[O-])cc5F)c5ccc([nH]5)c(-c5c(F)cc(S(=O)(=O)[O-])cc5F)c5nc(c(-c6c(F)cc(S(=O)(=O)[O-])cc6F)c6ccc3[nH]6)C=C5)C=C4)cc2)c1
REMARK SMILES IDX 32 1 31 2 30 3 29 4 28 5 27 6 26 7 24 8 25 9 23 10 17 11
REMARK SMILES IDX 18 12 19 13 22 14 20 15 21 16 16 17 14 18 15 19 13 21 5 22
REMARK SMILES IDX 6 23 107 24 7 25 12 26 4 27 1 28 2 29 3 30 8 32 9 33 10 35
REMARK SMILES IDX 11 36 33 37 34 38 35 39 36 40 37 41 38 42 39 43 40 44 41 45
REMARK SMILES IDX 42 46 106 47 43 48 105 49 44 50 45 51 46 52 99 53 47 54
REMARK SMILES IDX 104 55 98 56 100 57 48 58 103 59 97 60 96 61 49 63 83 64
REMARK SMILES IDX 62 65 82 66 63 67 66 68 81 69 101 70 64 71 65 72 80 74
REMARK SMILES IDX 102 75 67 76 50 77 51 78 60 79 52 80 53 81 59 82 61 83 54 84
REMARK SMILES IDX 55 85 56 86 57 87 58 88 84 89 85 90 94 91 86 92 87 93 93 94
REMARK SMILES IDX 95 95 88 96 89 97 90 98 91 99 92 100 68 101 69 102 78 103
REMARK SMILES IDX 70 104 71 105 77 106 79 107 72 108 73 109 74 110 75 111
REMARK SMILES IDX 76 112
REMARK H PARENT 16 20 4 31 8 34 100 62 66 73
REMARK Flexibility Score: inf
ROOT
ATOM      1  O   UNL     1       6.610   2.497   2.060  1.00  0.00    -0.377 OA
ENDROOT
BRANCH   1   2
ATOM      2  C   UNL     1       5.840   3.259   1.157  1.00  0.00     0.188 C 
BRANCH   2   3
ATOM      3  C   UNL     1       4.724   4.130   1.771  1.00  0.00     0.188 C 
BRANCH   3   4
ATOM      4  O   UNL     1       4.705   4.446   3.150  1.00  0.00    -0.376 OA
BRANCH   4   5
ATOM      5  C   UNL     1       4.708   3.494   4.196  1.00  0.00     0.202 C 
BRANCH   5   6
ATOM      6  C   UNL     1       4.256   2.036   4.099  1.00  0.00     0.261 C 
BRANCH   6   7
ATOM      7  O   UNL     1       4.350   1.372   2.844  1.00  0.00    -0.460 OA
BRANCH   7   8
ATOM      8  C   UNL     1       3.250   1.489   2.077  1.00  0.00     0.340 C 
ATOM      9  O   UNL     1       2.273   2.178   2.331  1.00  0.00    -0.246 OA
BRANCH   8  10
ATOM     10  C   UNL     1       3.429   0.804   0.776  1.00  0.00     0.084 A 
ATOM     11  C   UNL     1       4.120  -0.403   0.552  1.00  0.00     0.056 A 
ATOM     12  C   UNL     1       4.333  -0.794  -0.784  1.00  0.00     0.028 A 
ATOM     13  C   UNL     1       3.795  -0.074  -1.858  1.00  0.00     0.018 A 
ATOM     14  C   UNL     1       2.887   1.524  -0.313  1.00  0.00     0.033 A 
ATOM     15  C   UNL     1       3.060   1.077  -1.615  1.00  0.00     0.018 A 
ATOM     16  Br  UNL     1       2.288   2.034  -3.047  1.00  0.00    -0.051 Br
BRANCH  11  17
ATOM     17  N   UNL     1       4.605  -1.328   1.508  1.00  0.00    -0.321 N 
ATOM     18  C   UNL     1       4.221  -1.691   2.784  1.00  0.00     0.255 C 
ATOM     19  O   UNL     1       4.973  -2.401   3.450  1.00  0.00    -0.269 OA
ATOM     20  H   UNL     1       5.394  -1.825   1.191  1.00  0.00     0.170 HD
BRANCH  18  21
ATOM     21  C   UNL     1       2.913  -1.301   3.370  1.00  0.00     0.044 A 
ATOM     22  C   UNL     1       0.772  -0.272   3.021  1.00  0.00     0.044 A 
ATOM     23  C   UNL     1       0.773   0.115   4.374  1.00  0.00     0.052 A 
ATOM     24  C   UNL     1       1.791  -1.097   2.560  1.00  0.00     0.040 A 
ATOM     25  C   UNL     1       1.805  -0.248   5.246  1.00  0.00     0.044 A 
ATOM     26  C   UNL     1       2.884  -0.969   4.732  1.00  0.00     0.040 A 
BRANCH  22  27
ATOM     27  N   UNL     1      -0.094   0.459   2.175  1.00  0.00    -0.326 N 
ATOM     28  C   UNL     1       0.023  -0.705  -0.028  1.00  0.00     0.114 C 
ATOM     29  C   UNL     1      -0.291   0.485   0.827  1.00  0.00     0.221 C 
ATOM     30  O   UNL     1      -0.774   1.498   0.314  1.00  0.00    -0.275 OA
ATOM     31  H   UNL     1      -0.679   1.081   2.665  1.00  0.00     0.169 HD
ENDBRANCH  22  27
BRANCH  25  32
ATOM     32  N   UNL     1       1.886   0.182   6.591  1.00  0.00    -0.326 N 
ATOM     33  C   UNL     1       1.056   1.091   7.224  1.00  0.00     0.221 C 
ATOM     34  H   UNL     1       2.609  -0.207   7.135  1.00  0.00     0.169 HD
ATOM     35  C   UNL     1       1.382   1.290   8.683  1.00  0.00     0.114 C 
ATOM     36  O   UNL     1       0.127   1.712   6.717  1.00  0.00    -0.275 OA
ENDBRANCH  25  32
ENDBRANCH  18  21
ENDBRANCH  11  17
ENDBRANCH   8  10
ENDBRANCH   7   8
ENDBRANCH   6   7
ENDBRANCH   5   6
ENDBRANCH   4   5
ENDBRANCH   3   4
ENDBRANCH   2   3
ENDBRANCH   1   2
BRANCH   1  37
ATOM     37  C   UNL     1       7.636   3.139   2.806  1.00  0.00     0.188 C 
BRANCH  37  38
ATOM     38  C   UNL     1       7.688   4.678   2.940  1.00  0.00     0.188 C 
BRANCH  38  39
ATOM     39  O   UNL     1       7.198   5.398   1.822  1.00  0.00    -0.376 OA
BRANCH  39  40
ATOM     40  C   UNL     1       8.106   5.945   0.885  1.00  0.00     0.202 C 
BRANCH  40  41
ATOM     41  C   UNL     1       9.023   4.977   0.122  1.00  0.00     0.261 C 
BRANCH  41  42
ATOM     42  O   UNL     1       9.813   4.091   0.925  1.00  0.00    -0.460 OA
BRANCH  42  43
ATOM     43  C   UNL     1      10.708   4.658   1.761  1.00  0.00     0.338 C 
ATOM     44  O   UNL     1      10.946   5.850   1.879  1.00  0.00    -0.246 OA
BRANCH  43  45
ATOM     45  C   UNL     1      11.206   3.607   2.669  1.00  0.00     0.060 A 
ATOM     46  C   UNL     1      11.013   3.761   4.049  1.00  0.00     0.016 A 
ATOM     47  C   UNL     1      11.847   2.473   2.164  1.00  0.00     0.016 A 
ATOM     48  C   UNL     1      11.501   2.800   4.930  1.00  0.00     0.010 A 
ATOM     49  C   UNL     1      12.362   1.525   3.051  1.00  0.00     0.010 A 
ATOM     50  C   UNL     1      12.226   1.708   4.438  1.00  0.00    -0.014 A 
BRANCH  50  51
ATOM     51  C   UNL     1      13.022   0.895   5.387  1.00  0.00     0.031 A 
ATOM     52  C   UNL     1      14.478   1.233   5.560  1.00  0.00     0.074 A 
ATOM     53  C   UNL     1      12.454  -0.078   6.121  1.00  0.00     0.049 A 
ATOM     54  N   UNL     1      15.374   0.679   6.333  1.00  0.00    -0.248 NA
ATOM     55  C   UNL     1      14.992   2.352   4.751  1.00  0.00     0.031 C 
ATOM     56  C   UNL     1      11.045  -0.465   6.066  1.00  0.00     0.029 A 
ATOM     57  N   UNL     1      12.999  -0.918   7.058  1.00  0.00    -0.354 N 
ATOM     58  C   UNL     1      16.555   1.375   6.101  1.00  0.00     0.074 A 
ATOM     59  C   UNL     1      16.271   2.371   5.093  1.00  0.00     0.031 C 
ATOM     60  C   UNL     1      10.839  -1.478   6.927  1.00  0.00     0.029 A 
ATOM     61  C   UNL     1      12.105  -1.827   7.570  1.00  0.00     0.049 A 
ATOM     62  H   UNL     1      13.942  -0.875   7.336  1.00  0.00     0.167 HD
ATOM     63  C   UNL     1      17.765   1.203   6.683  1.00  0.00     0.037 A 
ATOM     64  C   UNL     1      12.296  -2.837   8.443  1.00  0.00     0.037 A 
ATOM     65  C   UNL     1      18.038   0.206   7.685  1.00  0.00     0.049 A 
ATOM     66  C   UNL     1      13.668  -3.047   9.033  1.00  0.00     0.074 A 
ATOM     67  C   UNL     1      19.225  -0.040   8.352  1.00  0.00     0.029 A 
ATOM     68  N   UNL     1      17.117  -0.719   8.155  1.00  0.00    -0.354 N 
ATOM     69  N   UNL     1      14.771  -2.365   8.827  1.00  0.00    -0.248 NA
ATOM     70  C   UNL     1      13.820  -4.160   9.980  1.00  0.00     0.031 C 
ATOM     71  C   UNL     1      19.038  -1.152   9.180  1.00  0.00     0.029 A 
ATOM     72  C   UNL     1      17.717  -1.558   9.080  1.00  0.00     0.049 A 
ATOM     73  H   UNL     1      16.175  -0.772   7.872  1.00  0.00     0.167 HD
ATOM     74  C   UNL     1      15.740  -2.951   9.638  1.00  0.00     0.074 A 
ATOM     75  C   UNL     1      15.085  -4.027  10.353  1.00  0.00     0.031 C 
ATOM     76  C   UNL     1      17.051  -2.630   9.779  1.00  0.00     0.037 A 
BRANCH  63  77
ATOM     77  C   UNL     1      18.892   2.089   6.226  1.00  0.00     0.058 A 
ATOM     78  C   UNL     1      18.932   3.460   6.529  1.00  0.00     0.135 A 
ATOM     79  C   UNL     1      19.965   1.548   5.499  1.00  0.00     0.135 A 
ATOM     80  F   UNL     1      17.922   4.035   7.199  1.00  0.00    -0.206 F 
ATOM     81  C   UNL     1      19.986   4.266   6.110  1.00  0.00     0.059 A 
ATOM     82  C   UNL     1      21.044   2.330   5.097  1.00  0.00     0.059 A 
ATOM     83  F   UNL     1      19.974   0.246   5.175  1.00  0.00    -0.206 F 
ATOM     84  C   UNL     1      21.040   3.690   5.398  1.00  0.00     0.060 A 
BRANCH  84  85
ATOM     85  S   UNL     1      22.409   4.747   4.878  1.00  0.00     0.124 S 
ATOM     86  O   UNL     1      21.777   5.551   3.836  1.00  0.00    -0.237 OA
ATOM     87  O   UNL     1      22.740   5.454   6.111  1.00  0.00    -0.237 OA
ATOM     88  O   UNL     1      23.415   3.797   4.413  1.00  0.00    -0.744 OA
ENDBRANCH  84  85
ENDBRANCH  63  77
BRANCH  64  89
ATOM     89  C   UNL     1      11.165  -3.735   8.803  1.00  0.00     0.058 A 
ATOM     90  C   UNL     1      10.628  -3.750  10.099  1.00  0.00     0.135 A 
ATOM     91  C   UNL     1      10.603  -4.606   7.855  1.00  0.00     0.135 A 
ATOM     92  F   UNL     1      11.137  -2.948  11.046  1.00  0.00    -0.206 F 
ATOM     93  C   UNL     1       9.586  -4.604  10.447  1.00  0.00     0.059 A 
ATOM     94  C   UNL     1       9.540  -5.446   8.170  1.00  0.00     0.059 A 
ATOM     95  F   UNL     1      11.075  -4.628   6.599  1.00  0.00    -0.206 F 
ATOM     96  C   UNL     1       9.044  -5.445   9.473  1.00  0.00     0.060 A 
BRANCH  96  97
ATOM     97  S   UNL     1       7.655  -6.507   9.924  1.00  0.00     0.124 S 
ATOM     98  O   UNL     1       8.300  -7.484  10.792  1.00  0.00    -0.237 OA
ATOM     99  O   UNL     1       6.753  -5.565  10.580  1.00  0.00    -0.237 OA
ATOM    100  O   UNL     1       7.188  -7.016   8.637  1.00  0.00    -0.744 OA
ENDBRANCH  96  97
ENDBRANCH  64  89
BRANCH  76 101
ATOM    101  C   UNL     1      17.857  -3.435  10.766  1.00  0.00     0.058 A 
ATOM    102  C   UNL     1      18.178  -4.783  10.537  1.00  0.00     0.135 A 
ATOM    103  C   UNL     1      18.331  -2.842  11.948  1.00  0.00     0.135 A 
ATOM    104  F   UNL     1      17.751  -5.401   9.425  1.00  0.00    -0.206 F 
ATOM    105  C   UNL     1      18.899  -5.527  11.466  1.00  0.00     0.059 A 
ATOM    106  C   UNL     1      19.085  -3.557  12.874  1.00  0.00     0.059 A 
ATOM    107  F   UNL     1      18.070  -1.552  12.211  1.00  0.00    -0.206 F 
ATOM    108  C   UNL     1      19.345  -4.905  12.634  1.00  0.00     0.060 A 
BRANCH 108 109
ATOM    109  S   UNL     1      20.273  -5.883  13.835  1.00  0.00     0.124 S 
ATOM    110  O   UNL     1      19.223  -6.722  14.404  1.00  0.00    -0.237 OA
ATOM    111  O   UNL     1      21.247  -6.570  12.992  1.00  0.00    -0.237 OA
ATOM    112  O   UNL     1      20.830  -4.878  14.735  1.00  0.00    -0.744 OA
ENDBRANCH 108 109
ENDBRANCH  76 101
ENDBRANCH  50  51
ENDBRANCH  43  45
ENDBRANCH  42  43
ENDBRANCH  41  42
ENDBRANCH  40  41
ENDBRANCH  39  40
ENDBRANCH  38  39
ENDBRANCH  37  38
ENDBRANCH   1  37
TORSDOF 27
