REMARK SMILES CC(C)CN(C)/C=C\C(=O)OCCOCCOCCOCCOC(=O)c1ccc(-c2c3nc(c(-c4c(F)cc(S(=O)(=O)[O-])cc4F)c4ccc([nH]4)c(-c4c(F)cc(S(=O)(=O)[O-])cc4F)c4nc(c(-c5c(F)cc(S(=O)(=O)[O-])cc5F)c5ccc2[nH]5)C=C4)C=C3)cc1
REMARK SMILES IDX 17 1 16 2 15 3 14 4 13 5 12 6 11 7 9 8 10 9 8 10 7 11 5 12
REMARK SMILES IDX 6 13 4 14 2 15 1 16 3 17 18 18 19 19 20 20 21 21 22 22 23 23
REMARK SMILES IDX 24 24 25 25 26 26 27 27 91 28 28 29 90 30 29 31 30 32 31 33
REMARK SMILES IDX 84 34 32 35 89 36 83 37 85 38 33 39 88 40 82 41 81 42 34 44
REMARK SMILES IDX 68 45 47 46 67 47 48 48 51 49 66 50 86 51 49 52 50 53 65 55
REMARK SMILES IDX 87 56 52 57 35 58 36 59 45 60 37 61 38 62 44 63 46 64 39 65
REMARK SMILES IDX 40 66 41 67 42 68 43 69 69 70 70 71 79 72 71 73 72 74 78 75
REMARK SMILES IDX 80 76 73 77 74 78 75 79 76 80 77 81 53 82 54 83 63 84 55 85
REMARK SMILES IDX 56 86 62 87 64 88 57 89 58 90 59 91 60 92 61 93
REMARK H PARENT 85 43 51 54
REMARK Flexibility Score: inf
ROOT
ATOM      1  O   UNL     1       3.540  -0.042   0.117  1.00  0.00    -0.377 OA
ENDROOT
BRANCH   1   2
ATOM      2  C   UNL     1       2.442   0.462  -0.615  1.00  0.00     0.188 C 
BRANCH   2   3
ATOM      3  C   UNL     1       2.257   1.981  -0.642  1.00  0.00     0.188 C 
BRANCH   3   4
ATOM      4  O   UNL     1       2.262   2.686   0.595  1.00  0.00    -0.376 OA
BRANCH   4   5
ATOM      5  C   UNL     1       1.128   2.597   1.459  1.00  0.00     0.202 C 
BRANCH   5   6
ATOM      6  C   UNL     1      -0.206   3.034   0.872  1.00  0.00     0.261 C 
BRANCH   6   7
ATOM      7  O   UNL     1      -0.862   1.854   0.367  1.00  0.00    -0.460 OA
BRANCH   7   8
ATOM      8  C   UNL     1      -1.379   1.928  -0.867  1.00  0.00     0.332 C 
ATOM      9  O   UNL     1      -1.349   2.913  -1.595  1.00  0.00    -0.247 OA
BRANCH   8  10
ATOM     10  C   UNL     1      -1.878   0.635  -1.370  1.00  0.00     0.111 C 
ATOM     11  C   UNL     1      -2.254  -0.551  -0.875  1.00  0.00     0.088 C 
BRANCH  11  12
ATOM     12  N   UNL     1      -2.411  -1.212   0.337  1.00  0.00    -0.380 N 
ATOM     13  C   UNL     1      -2.845  -2.621   0.330  1.00  0.00     0.143 C 
BRANCH  12  14
ATOM     14  C   UNL     1      -2.170  -0.671   1.685  1.00  0.00     0.118 C 
BRANCH  14  15
ATOM     15  C   UNL     1      -0.933  -1.308   2.363  1.00  0.00     0.002 C 
ATOM     16  C   UNL     1       0.265  -1.341   1.434  1.00  0.00     0.009 C 
ATOM     17  C   UNL     1      -0.553  -0.533   3.628  1.00  0.00     0.009 C 
ENDBRANCH  14  15
ENDBRANCH  12  14
ENDBRANCH  11  12
ENDBRANCH   8  10
ENDBRANCH   7   8
ENDBRANCH   6   7
ENDBRANCH   5   6
ENDBRANCH   4   5
ENDBRANCH   3   4
ENDBRANCH   2   3
ENDBRANCH   1   2
BRANCH   1  18
ATOM     18  C   UNL     1       3.578   0.123   1.527  1.00  0.00     0.188 C 
BRANCH  18  19
ATOM     19  C   UNL     1       4.876   0.824   1.945  1.00  0.00     0.188 C 
BRANCH  19  20
ATOM     20  O   UNL     1       6.130   0.197   1.668  1.00  0.00    -0.376 OA
BRANCH  20  21
ATOM     21  C   UNL     1       6.240  -0.618   0.511  1.00  0.00     0.202 C 
BRANCH  21  22
ATOM     22  C   UNL     1       6.119  -2.120   0.817  1.00  0.00     0.261 C 
BRANCH  22  23
ATOM     23  O   UNL     1       5.135  -2.481   1.804  1.00  0.00    -0.460 OA
BRANCH  23  24
ATOM     24  C   UNL     1       5.547  -2.363   3.093  1.00  0.00     0.338 C 
ATOM     25  O   UNL     1       6.634  -1.987   3.493  1.00  0.00    -0.246 OA
BRANCH  24  26
ATOM     26  C   UNL     1       4.463  -2.759   4.018  1.00  0.00     0.060 A 
ATOM     27  C   UNL     1       4.076  -1.876   5.035  1.00  0.00     0.016 A 
ATOM     28  C   UNL     1       3.962  -4.062   3.989  1.00  0.00     0.016 A 
ATOM     29  C   UNL     1       3.237  -2.318   6.066  1.00  0.00     0.010 A 
ATOM     30  C   UNL     1       3.134  -4.505   5.026  1.00  0.00     0.010 A 
ATOM     31  C   UNL     1       2.807  -3.653   6.096  1.00  0.00    -0.014 A 
BRANCH  31  32
ATOM     32  C   UNL     1       2.216  -4.239   7.330  1.00  0.00     0.031 A 
ATOM     33  C   UNL     1       3.118  -5.023   8.251  1.00  0.00     0.074 A 
ATOM     34  C   UNL     1       0.909  -4.113   7.626  1.00  0.00     0.049 A 
ATOM     35  N   UNL     1       2.813  -5.762   9.286  1.00  0.00    -0.248 NA
ATOM     36  C   UNL     1       4.559  -4.966   7.956  1.00  0.00     0.031 C 
ATOM     37  C   UNL     1      -0.061  -3.333   6.863  1.00  0.00     0.029 A 
ATOM     38  N   UNL     1       0.171  -4.664   8.647  1.00  0.00    -0.354 N 
ATOM     39  C   UNL     1       4.019  -6.271   9.756  1.00  0.00     0.074 A 
ATOM     40  C   UNL     1       5.058  -5.771   8.882  1.00  0.00     0.031 C 
ATOM     41  C   UNL     1      -1.274  -3.473   7.429  1.00  0.00     0.029 A 
ATOM     42  C   UNL     1      -1.174  -4.388   8.567  1.00  0.00     0.049 A 
ATOM     43  H   UNL     1       0.568  -5.205   9.367  1.00  0.00     0.167 HD
ATOM     44  C   UNL     1       4.244  -7.079  10.820  1.00  0.00     0.037 A 
ATOM     45  C   UNL     1      -2.206  -4.849   9.303  1.00  0.00     0.037 A 
ATOM     46  C   UNL     1       3.211  -7.578  11.689  1.00  0.00     0.049 A 
ATOM     47  C   UNL     1      -1.946  -5.821  10.431  1.00  0.00     0.074 A 
ATOM     48  C   UNL     1       3.338  -8.415  12.784  1.00  0.00     0.029 A 
ATOM     49  N   UNL     1       1.862  -7.285  11.563  1.00  0.00    -0.354 N 
ATOM     50  N   UNL     1      -0.804  -6.309  10.854  1.00  0.00    -0.248 NA
ATOM     51  C   UNL     1      -3.116  -6.310  11.177  1.00  0.00     0.031 C 
ATOM     52  C   UNL     1       2.060  -8.662  13.295  1.00  0.00     0.029 A 
ATOM     53  C   UNL     1       1.144  -7.935  12.553  1.00  0.00     0.049 A 
ATOM     54  H   UNL     1       1.472  -6.702  10.873  1.00  0.00     0.167 HD
ATOM     55  C   UNL     1      -1.115  -7.123  11.940  1.00  0.00     0.074 A 
ATOM     56  C   UNL     1      -2.551  -7.069  12.107  1.00  0.00     0.031 C 
ATOM     57  C   UNL     1      -0.283  -7.844  12.732  1.00  0.00     0.037 A 
BRANCH  44  58
ATOM     58  C   UNL     1       5.663  -7.499  11.087  1.00  0.00     0.058 A 
ATOM     59  C   UNL     1       6.615  -6.601  11.595  1.00  0.00     0.135 A 
ATOM     60  C   UNL     1       6.067  -8.825  10.862  1.00  0.00     0.135 A 
ATOM     61  F   UNL     1       6.286  -5.318  11.812  1.00  0.00    -0.206 F 
ATOM     62  C   UNL     1       7.925  -6.997  11.845  1.00  0.00     0.059 A 
ATOM     63  C   UNL     1       7.364  -9.249  11.132  1.00  0.00     0.059 A 
ATOM     64  F   UNL     1       5.196  -9.724  10.377  1.00  0.00    -0.206 F 
ATOM     65  C   UNL     1       8.291  -8.323  11.609  1.00  0.00     0.060 A 
BRANCH  65  66
ATOM     66  S   UNL     1       9.993  -8.822  11.941  1.00  0.00     0.124 S 
ATOM     67  O   UNL     1      10.703  -8.191  10.833  1.00  0.00    -0.237 OA
ATOM     68  O   UNL     1      10.237  -8.245  13.260  1.00  0.00    -0.237 OA
ATOM     69  O   UNL     1       9.935 -10.280  11.899  1.00  0.00    -0.744 OA
ENDBRANCH  65  66
ENDBRANCH  44  58
BRANCH  45  70
ATOM     70  C   UNL     1      -3.598  -4.423   8.991  1.00  0.00     0.058 A 
ATOM     71  C   UNL     1      -4.322  -3.611   9.878  1.00  0.00     0.135 A 
ATOM     72  C   UNL     1      -4.242  -4.840   7.816  1.00  0.00     0.135 A 
ATOM     73  F   UNL     1      -3.757  -3.199  11.023  1.00  0.00    -0.206 F 
ATOM     74  C   UNL     1      -5.638  -3.241   9.620  1.00  0.00     0.059 A 
ATOM     75  C   UNL     1      -5.549  -4.462   7.523  1.00  0.00     0.059 A 
ATOM     76  F   UNL     1      -3.593  -5.612   6.930  1.00  0.00    -0.206 F 
ATOM     77  C   UNL     1      -6.243  -3.672   8.438  1.00  0.00     0.060 A 
BRANCH  77  78
ATOM     78  S   UNL     1      -7.939  -3.154   8.091  1.00  0.00     0.124 S 
ATOM     79  O   UNL     1      -8.694  -3.981   9.024  1.00  0.00    -0.237 OA
ATOM     80  O   UNL     1      -7.890  -1.727   8.394  1.00  0.00    -0.237 OA
ATOM     81  O   UNL     1      -8.105  -3.482   6.678  1.00  0.00    -0.744 OA
ENDBRANCH  77  78
ENDBRANCH  45  70
BRANCH  57  82
ATOM     82  C   UNL     1      -0.878  -8.581  13.902  1.00  0.00     0.058 A 
ATOM     83  C   UNL     1      -1.607  -9.768  13.743  1.00  0.00     0.135 A 
ATOM     84  C   UNL     1      -0.625  -8.138  15.212  1.00  0.00     0.135 A 
ATOM     85  F   UNL     1      -1.882 -10.232  12.514  1.00  0.00    -0.206 F 
ATOM     86  C   UNL     1      -2.070 -10.489  14.840  1.00  0.00     0.059 A 
ATOM     87  C   UNL     1      -1.057  -8.855  16.324  1.00  0.00     0.059 A 
ATOM     88  F   UNL     1       0.077  -7.013  15.421  1.00  0.00    -0.206 F 
ATOM     89  C   UNL     1      -1.783 -10.028  16.128  1.00  0.00     0.060 A 
BRANCH  89  90
ATOM     90  S   UNL     1      -2.329 -11.009  17.543  1.00  0.00     0.124 S 
ATOM     91  O   UNL     1      -3.764 -10.744  17.548  1.00  0.00    -0.237 OA
ATOM     92  O   UNL     1      -1.936 -12.361  17.157  1.00  0.00    -0.237 OA
ATOM     93  O   UNL     1      -1.582 -10.440  18.660  1.00  0.00    -0.744 OA
ENDBRANCH  89  90
ENDBRANCH  57  82
ENDBRANCH  31  32
ENDBRANCH  24  26
ENDBRANCH  23  24
ENDBRANCH  22  23
ENDBRANCH  21  22
ENDBRANCH  20  21
ENDBRANCH  19  20
ENDBRANCH  18  19
ENDBRANCH   1  18
TORSDOF 26
