REMARK SMILES O=C(OCCOCCOCCOCCOC(=O)c1ccc(OCc2sccc2Br)cn1)c1ccc(-c2c3nc(c(-c4c(F)cc(S(=O)(=O)[O-])cc4F)c4ccc([nH]4)c(-c4c(F)cc(S(=O)(=O)[O-])cc4F)c4nc(c(-c5c(F)cc(S(=O)(=O)[O-])cc5F)c5ccc2[nH]5)C=C4)C=C3)cc1
REMARK SMILES IDX 9 1 8 2 7 3 6 4 5 5 4 6 3 7 2 8 1 9 32 10 33 11 97 12 34 13
REMARK SMILES IDX 96 14 35 15 36 16 37 17 90 18 38 19 95 20 89 21 91 22 39 23
REMARK SMILES IDX 94 24 88 25 87 26 40 28 74 29 53 30 73 31 54 32 57 33 72 34
REMARK SMILES IDX 92 35 55 36 56 37 71 39 93 40 58 41 41 42 42 43 51 44 43 45
REMARK SMILES IDX 44 46 50 47 52 48 45 49 46 50 47 51 48 52 49 53 75 54 76 55
REMARK SMILES IDX 85 56 77 57 78 58 84 59 86 60 79 61 80 62 81 63 82 64 83 65
REMARK SMILES IDX 59 66 60 67 69 68 61 69 62 70 68 71 70 72 63 73 64 74 65 75
REMARK SMILES IDX 66 76 67 77 10 78 11 79 12 80 13 81 14 82 15 83 16 84 17 85
REMARK SMILES IDX 18 86 19 87 31 88 20 89 30 90 21 91 22 92 23 93 24 94 25 95
REMARK SMILES IDX 28 96 26 97 27 98 29 99
REMARK H PARENT 91 27 57 38
REMARK Flexibility Score: inf
ROOT
ATOM      1  O   UNL     1       2.652   3.059  -2.738  1.00  0.00    -0.377 OA
ENDROOT
BRANCH   1   2
ATOM      2  C   UNL     1       1.937   2.364  -1.714  1.00  0.00     0.188 C 
BRANCH   2   3
ATOM      3  C   UNL     1       2.365   0.912  -1.494  1.00  0.00     0.188 C 
BRANCH   3   4
ATOM      4  O   UNL     1       3.674   0.855  -0.924  1.00  0.00    -0.376 OA
BRANCH   4   5
ATOM      5  C   UNL     1       4.486  -0.237  -1.353  1.00  0.00     0.202 C 
BRANCH   5   6
ATOM      6  C   UNL     1       4.231  -1.546  -0.601  1.00  0.00     0.261 C 
BRANCH   6   7
ATOM      7  O   UNL     1       2.851  -1.706  -0.238  1.00  0.00    -0.460 OA
BRANCH   7   8
ATOM      8  C   UNL     1       2.263  -1.362   0.937  1.00  0.00     0.338 C 
ATOM      9  O   UNL     1       1.068  -1.616   1.087  1.00  0.00    -0.246 OA
BRANCH   8  10
ATOM     10  C   UNL     1       2.991  -0.720   2.076  1.00  0.00     0.060 A 
ATOM     11  C   UNL     1       4.107   0.110   1.955  1.00  0.00     0.016 A 
ATOM     12  C   UNL     1       2.469  -0.928   3.364  1.00  0.00     0.016 A 
ATOM     13  C   UNL     1       4.756   0.626   3.066  1.00  0.00     0.010 A 
ATOM     14  C   UNL     1       3.089  -0.377   4.490  1.00  0.00     0.010 A 
ATOM     15  C   UNL     1       4.264   0.368   4.340  1.00  0.00    -0.014 A 
BRANCH  15  16
ATOM     16  C   UNL     1       5.115   0.734   5.487  1.00  0.00     0.031 A 
ATOM     17  C   UNL     1       5.870  -0.368   6.170  1.00  0.00     0.074 A 
ATOM     18  C   UNL     1       5.323   2.029   5.787  1.00  0.00     0.049 A 
ATOM     19  N   UNL     1       6.642  -0.318   7.218  1.00  0.00    -0.248 NA
ATOM     20  C   UNL     1       5.747  -1.713   5.577  1.00  0.00     0.031 C 
ATOM     21  C   UNL     1       4.736   3.165   5.070  1.00  0.00     0.029 A 
ATOM     22  N   UNL     1       6.108   2.610   6.745  1.00  0.00    -0.354 N 
ATOM     23  C   UNL     1       7.065  -1.625   7.434  1.00  0.00     0.074 A 
ATOM     24  C   UNL     1       6.466  -2.448   6.410  1.00  0.00     0.031 C 
ATOM     25  C   UNL     1       5.201   4.307   5.603  1.00  0.00     0.029 A 
ATOM     26  C   UNL     1       6.056   3.984   6.739  1.00  0.00     0.049 A 
ATOM     27  H   UNL     1       6.657   2.094   7.378  1.00  0.00     0.167 HD
ATOM     28  C   UNL     1       7.878  -2.087   8.410  1.00  0.00     0.037 A 
ATOM     29  C   UNL     1       6.612   4.870   7.588  1.00  0.00     0.037 A 
ATOM     30  C   UNL     1       8.463  -1.231   9.405  1.00  0.00     0.049 A 
ATOM     31  C   UNL     1       7.440   4.324   8.722  1.00  0.00     0.074 A 
ATOM     32  C   UNL     1       9.241  -1.571  10.494  1.00  0.00     0.029 A 
ATOM     33  N   UNL     1       8.331   0.153   9.418  1.00  0.00    -0.354 N 
ATOM     34  N   UNL     1       7.759   3.075   8.981  1.00  0.00    -0.248 NA
ATOM     35  C   UNL     1       7.969   5.294   9.687  1.00  0.00     0.031 C 
ATOM     36  C   UNL     1       9.547  -0.395  11.188  1.00  0.00     0.029 A 
ATOM     37  C   UNL     1       9.002   0.683  10.503  1.00  0.00     0.049 A 
ATOM     38  H   UNL     1       7.833   0.679   8.751  1.00  0.00     0.167 HD
ATOM     39  C   UNL     1       8.536   3.109  10.132  1.00  0.00     0.074 A 
ATOM     40  C   UNL     1       8.654   4.506  10.506  1.00  0.00     0.031 C 
ATOM     41  C   UNL     1       9.097   2.087  10.825  1.00  0.00     0.037 A 
BRANCH  28  42
ATOM     42  C   UNL     1       8.095  -3.572   8.477  1.00  0.00     0.058 A 
ATOM     43  C   UNL     1       8.879  -4.258   7.536  1.00  0.00     0.135 A 
ATOM     44  C   UNL     1       7.465  -4.330   9.478  1.00  0.00     0.135 A 
ATOM     45  F   UNL     1       9.475  -3.590   6.536  1.00  0.00    -0.206 F 
ATOM     46  C   UNL     1       9.005  -5.645   7.565  1.00  0.00     0.059 A 
ATOM     47  C   UNL     1       7.596  -5.714   9.541  1.00  0.00     0.059 A 
ATOM     48  F   UNL     1       6.691  -3.727  10.394  1.00  0.00    -0.206 F 
ATOM     49  C   UNL     1       8.354  -6.365   8.569  1.00  0.00     0.060 A 
BRANCH  49  50
ATOM     50  S   UNL     1       8.503  -8.164   8.581  1.00  0.00     0.124 S 
ATOM     51  O   UNL     1       7.658  -8.534   7.449  1.00  0.00    -0.237 OA
ATOM     52  O   UNL     1       9.936  -8.361   8.392  1.00  0.00    -0.237 OA
ATOM     53  O   UNL     1       7.990  -8.540   9.895  1.00  0.00    -0.744 OA
ENDBRANCH  49  50
ENDBRANCH  28  42
BRANCH  29  54
ATOM     54  C   UNL     1       6.353   6.329   7.436  1.00  0.00     0.058 A 
ATOM     55  C   UNL     1       7.381   7.232   7.127  1.00  0.00     0.135 A 
ATOM     56  C   UNL     1       5.059   6.854   7.597  1.00  0.00     0.135 A 
ATOM     57  F   UNL     1       8.638   6.788   6.971  1.00  0.00    -0.206 F 
ATOM     58  C   UNL     1       7.141   8.599   6.997  1.00  0.00     0.059 A 
ATOM     59  C   UNL     1       4.789   8.211   7.444  1.00  0.00     0.059 A 
ATOM     60  F   UNL     1       4.033   6.039   7.886  1.00  0.00    -0.206 F 
ATOM     61  C   UNL     1       5.840   9.079   7.158  1.00  0.00     0.060 A 
BRANCH  61  62
ATOM     62  S   UNL     1       5.529  10.848   6.961  1.00  0.00     0.124 S 
ATOM     63  O   UNL     1       6.102  11.385   8.189  1.00  0.00    -0.237 OA
ATOM     64  O   UNL     1       6.254  11.153   5.731  1.00  0.00    -0.237 OA
ATOM     65  O   UNL     1       4.075  10.924   6.857  1.00  0.00    -0.744 OA
ENDBRANCH  61  62
ENDBRANCH  29  54
BRANCH  41  66
ATOM     66  C   UNL     1       9.911   2.452  12.030  1.00  0.00     0.058 A 
ATOM     67  C   UNL     1       9.306   2.857  13.229  1.00  0.00     0.135 A 
ATOM     68  C   UNL     1      11.309   2.328  11.999  1.00  0.00     0.135 A 
ATOM     69  F   UNL     1       7.973   2.994  13.302  1.00  0.00    -0.206 F 
ATOM     70  C   UNL     1      10.064   3.148  14.356  1.00  0.00     0.059 A 
ATOM     71  C   UNL     1      12.084   2.588  13.123  1.00  0.00     0.059 A 
ATOM     72  F   UNL     1      11.929   1.931  10.877  1.00  0.00    -0.206 F 
ATOM     73  C   UNL     1      11.453   3.007  14.293  1.00  0.00     0.060 A 
BRANCH  73  74
ATOM     74  S   UNL     1      12.423   3.345  15.775  1.00  0.00     0.124 S 
ATOM     75  O   UNL     1      12.403   4.804  15.812  1.00  0.00    -0.237 OA
ATOM     76  O   UNL     1      11.651   2.673  16.816  1.00  0.00    -0.237 OA
ATOM     77  O   UNL     1      13.719   2.742  15.477  1.00  0.00    -0.744 OA
ENDBRANCH  73  74
ENDBRANCH  41  66
ENDBRANCH  15  16
ENDBRANCH   8  10
ENDBRANCH   7   8
ENDBRANCH   6   7
ENDBRANCH   5   6
ENDBRANCH   4   5
ENDBRANCH   3   4
ENDBRANCH   2   3
ENDBRANCH   1   2
BRANCH   1  78
ATOM     78  C   UNL     1       4.074   2.972  -2.691  1.00  0.00     0.188 C 
BRANCH  78  79
ATOM     79  C   UNL     1       4.814   3.509  -1.446  1.00  0.00     0.188 C 
BRANCH  79  80
ATOM     80  O   UNL     1       3.957   3.914  -0.387  1.00  0.00    -0.376 OA
BRANCH  80  81
ATOM     81  C   UNL     1       3.928   5.315  -0.128  1.00  0.00     0.202 C 
BRANCH  81  82
ATOM     82  C   UNL     1       3.187   6.154  -1.178  1.00  0.00     0.261 C 
BRANCH  82  83
ATOM     83  O   UNL     1       3.664   6.002  -2.525  1.00  0.00    -0.459 OA
BRANCH  83  84
ATOM     84  C   UNL     1       4.883   6.528  -2.841  1.00  0.00     0.357 C 
ATOM     85  O   UNL     1       5.587   7.204  -2.141  1.00  0.00    -0.244 OA
BRANCH  84  86
ATOM     86  C   UNL     1       5.226   5.957  -4.185  1.00  0.00     0.148 A 
ATOM     87  C   UNL     1       4.312   6.065  -5.223  1.00  0.00     0.040 A 
ATOM     88  N   UNL     1       6.332   5.167  -4.245  1.00  0.00    -0.245 NA
ATOM     89  C   UNL     1       4.517   5.301  -6.371  1.00  0.00     0.050 A 
ATOM     90  C   UNL     1       6.480   4.419  -5.370  1.00  0.00     0.158 A 
ATOM     91  C   UNL     1       5.609   4.443  -6.455  1.00  0.00     0.138 A 
BRANCH  91  92
ATOM     92  O   UNL     1       5.840   3.545  -7.457  1.00  0.00    -0.486 OA
BRANCH  92  93
ATOM     93  C   UNL     1       5.463   3.919  -8.792  1.00  0.00     0.277 C 
BRANCH  93  94
ATOM     94  C   UNL     1       4.016   3.612  -9.051  1.00  0.00     0.056 A 
ATOM     95  S   UNL     1       3.377   2.051  -8.710  1.00  0.00    -0.144 S 
ATOM     96  C   UNL     1       3.028   4.433  -9.555  1.00  0.00     0.035 A 
ATOM     97  C   UNL     1       1.785   2.543  -9.100  1.00  0.00     0.066 A 
ATOM     98  C   UNL     1       1.739   3.844  -9.548  1.00  0.00     0.028 A 
ATOM     99  Br  UNL     1       3.257   6.221 -10.136  1.00  0.00    -0.049 Br
ENDBRANCH  93  94
ENDBRANCH  92  93
ENDBRANCH  91  92
ENDBRANCH  84  86
ENDBRANCH  83  84
ENDBRANCH  82  83
ENDBRANCH  81  82
ENDBRANCH  80  81
ENDBRANCH  79  80
ENDBRANCH  78  79
ENDBRANCH   1  78
TORSDOF 26
