REMARK SMILES CCCC[C@@H](C(=O)OCCOCCOCCOCCOC(=O)c1ccc(-c2c3nc(c(-c4c(F)cc(S(=O)(=O)[O-])cc4F)c4ccc([nH]4)c(-c4c(F)cc(S(=O)(=O)[O-])cc4F)c4nc(c(-c5c(F)cc(S(=O)(=O)[O-])cc5F)c5ccc2[nH]5)C=C4)C=C3)cc1)[C@]1(O)CCC[C@H](C(C)(C)C)CC1
REMARK SMILES IDX 13 1 12 2 11 3 10 4 9 5 8 6 6 7 7 8 5 9 4 10 3 11 2 12 1 13
REMARK SMILES IDX 89 14 90 15 91 17 92 18 100 20 99 21 94 22 93 23 95 25 96 26
REMARK SMILES IDX 97 27 98 28 14 29 15 30 16 31 17 32 18 33 19 34 20 35 21 36
REMARK SMILES IDX 22 37 23 38 24 39 88 40 25 41 87 42 26 43 27 44 28 45 81 46
REMARK SMILES IDX 29 47 86 48 80 49 82 50 30 51 85 52 79 53 78 54 31 56 65 57
REMARK SMILES IDX 44 58 64 59 45 60 48 61 63 62 83 63 46 64 47 65 62 67 84 68
REMARK SMILES IDX 49 69 32 70 33 71 42 72 34 73 35 74 41 75 43 76 36 77 37 78
REMARK SMILES IDX 38 79 39 80 40 81 66 82 67 83 76 84 68 85 69 86 75 87 77 88
REMARK SMILES IDX 70 89 71 90 72 91 73 92 74 93 50 94 51 95 60 96 52 97 53 98
REMARK SMILES IDX 59 99 61 100 54 101 55 102 56 103 57 104 58 105
REMARK H PARENT 90 16 82 55 48 66
REMARK Flexibility Score: 90.00
ROOT
ATOM      1  C   UNL     1      -0.189   0.757  -5.683  1.00  0.00     0.188 C 
ENDROOT
BRANCH   1   2
ATOM      2  C   UNL     1      -1.606   1.012  -6.215  1.00  0.00     0.188 C 
BRANCH   2   3
ATOM      3  O   UNL     1      -1.908   2.383  -6.339  1.00  0.00    -0.376 OA
BRANCH   3   4
ATOM      4  C   UNL     1      -2.647   2.992  -5.299  1.00  0.00     0.202 C 
BRANCH   4   5
ATOM      5  C   UNL     1      -2.286   2.804  -3.810  1.00  0.00     0.261 C 
BRANCH   5   6
ATOM      6  O   UNL     1      -1.567   1.625  -3.405  1.00  0.00    -0.463 OA
BRANCH   6   7
ATOM      7  C   UNL     1      -2.257   0.519  -3.064  1.00  0.00     0.311 C 
ATOM      8  O   UNL     1      -3.471   0.427  -3.229  1.00  0.00    -0.252 OA
BRANCH   7   9
ATOM      9  C   UNL     1      -1.399  -0.626  -2.465  1.00  0.00     0.131 C 
BRANCH   9  10
ATOM     10  C   UNL     1       0.131  -0.418  -2.286  1.00  0.00     0.018 C 
BRANCH  10  11
ATOM     11  C   UNL     1       0.712   0.891  -1.737  1.00  0.00     0.001 C 
BRANCH  11  12
ATOM     12  C   UNL     1       0.390   1.199  -0.281  1.00  0.00    -0.003 C 
ATOM     13  C   UNL     1       0.967   0.168   0.677  1.00  0.00     0.004 C 
ENDBRANCH  11  12
ENDBRANCH  10  11
ENDBRANCH   9  10
BRANCH   9  14
ATOM     14  C   UNL     1      -1.774  -2.053  -3.115  1.00  0.00     0.078 C 
BRANCH  14  15
ATOM     15  O   UNL     1      -3.230  -2.137  -3.165  1.00  0.00    -0.389 OA
ATOM     16  H   UNL     1      -3.595  -1.954  -2.285  1.00  0.00     0.211 HD
ENDBRANCH  14  15
BRANCH  14  17
ATOM     17  C   UNL     1      -1.461  -3.214  -2.139  1.00  0.00     0.036 C 
BRANCH  17  18
ATOM     18  C   UNL     1      -0.118  -3.922  -2.229  1.00  0.00     0.003 CG0
ATOM     19  G   UNL     1       0.068  -4.701  -3.521  1.00  0.00     0.000 G0
ENDBRANCH  17  18
ENDBRANCH  14  17
BRANCH  14  20
ATOM     20  C   UNL     1      -1.352  -2.368  -4.584  1.00  0.00     0.036 C 
BRANCH  20  21
ATOM     21  C   UNL     1       0.113  -2.595  -4.995  1.00  0.00     0.007 C 
BRANCH  21  22
ATOM     22  C   UNL     1       0.779  -3.949  -4.658  1.00  0.00    -0.006 C 
BRANCH  22  23
ATOM     23  C   UNL     1       0.068  -4.701  -3.521  1.00  0.00     0.004 CG0
ATOM     24  G   UNL     1      -0.118  -3.922  -2.229  1.00  0.00     0.000 G0
ENDBRANCH  22  23
BRANCH  22  25
ATOM     25  C   UNL     1       2.369  -3.878  -4.575  1.00  0.00    -0.035 C 
ATOM     26  C   UNL     1       2.938  -3.559  -5.980  1.00  0.00     0.011 C 
ATOM     27  C   UNL     1       2.933  -2.809  -3.615  1.00  0.00     0.011 C 
ATOM     28  C   UNL     1       2.963  -5.236  -4.141  1.00  0.00     0.011 C 
ENDBRANCH  22  25
ENDBRANCH  21  22
ENDBRANCH  20  21
ENDBRANCH  14  20
ENDBRANCH   9  14
ENDBRANCH   7   9
ENDBRANCH   6   7
ENDBRANCH   5   6
ENDBRANCH   4   5
ENDBRANCH   3   4
ENDBRANCH   2   3
ENDBRANCH   1   2
BRANCH   1  29
ATOM     29  O   UNL     1       0.617   1.845  -5.267  1.00  0.00    -0.377 OA
BRANCH  29  30
ATOM     30  C   UNL     1       0.763   2.958  -6.138  1.00  0.00     0.188 C 
BRANCH  30  31
ATOM     31  C   UNL     1       0.621   2.759  -7.664  1.00  0.00     0.188 C 
BRANCH  31  32
ATOM     32  O   UNL     1       0.604   1.407  -8.099  1.00  0.00    -0.376 OA
BRANCH  32  33
ATOM     33  C   UNL     1       1.813   0.844  -8.582  1.00  0.00     0.202 C 
BRANCH  33  34
ATOM     34  C   UNL     1       3.008   0.761  -7.617  1.00  0.00     0.261 C 
BRANCH  34  35
ATOM     35  O   UNL     1       3.452   1.998  -7.043  1.00  0.00    -0.460 OA
BRANCH  35  36
ATOM     36  C   UNL     1       3.841   2.973  -7.889  1.00  0.00     0.338 C 
ATOM     37  O   UNL     1       3.892   2.914  -9.109  1.00  0.00    -0.246 OA
BRANCH  36  38
ATOM     38  C   UNL     1       4.014   4.207  -7.103  1.00  0.00     0.060 A 
ATOM     39  C   UNL     1       3.208   5.317  -7.394  1.00  0.00     0.016 A 
ATOM     40  C   UNL     1       4.966   4.265  -6.083  1.00  0.00     0.016 A 
ATOM     41  C   UNL     1       3.390   6.509  -6.699  1.00  0.00     0.010 A 
ATOM     42  C   UNL     1       5.170   5.470  -5.409  1.00  0.00     0.010 A 
ATOM     43  C   UNL     1       4.416   6.607  -5.752  1.00  0.00    -0.014 A 
BRANCH  43  44
ATOM     44  C   UNL     1       4.884   7.953  -5.348  1.00  0.00     0.031 A 
ATOM     45  C   UNL     1       6.057   8.532  -6.094  1.00  0.00     0.074 A 
ATOM     46  C   UNL     1       4.262   8.662  -4.390  1.00  0.00     0.049 A 
ATOM     47  N   UNL     1       6.676   9.669  -5.919  1.00  0.00    -0.248 NA
ATOM     48  C   UNL     1       6.606   7.711  -7.188  1.00  0.00     0.031 C 
ATOM     49  C   UNL     1       3.086   8.226  -3.642  1.00  0.00     0.029 A 
ATOM     50  N   UNL     1       4.543   9.906  -3.884  1.00  0.00    -0.354 N 
ATOM     51  C   UNL     1       7.690   9.694  -6.871  1.00  0.00     0.074 A 
ATOM     52  C   UNL     1       7.627   8.447  -7.597  1.00  0.00     0.031 C 
ATOM     53  C   UNL     1       2.752   9.185  -2.759  1.00  0.00     0.029 A 
ATOM     54  C   UNL     1       3.709  10.286  -2.860  1.00  0.00     0.049 A 
ATOM     55  H   UNL     1       5.273  10.473  -4.223  1.00  0.00     0.167 HD
ATOM     56  C   UNL     1       8.586  10.675  -7.124  1.00  0.00     0.037 A 
ATOM     57  C   UNL     1       3.736  11.387  -2.083  1.00  0.00     0.037 A 
ATOM     58  C   UNL     1       8.640  11.914  -6.394  1.00  0.00     0.049 A 
ATOM     59  C   UNL     1       4.792  12.437  -2.334  1.00  0.00     0.074 A 
ATOM     60  C   UNL     1       9.504  12.979  -6.571  1.00  0.00     0.029 A 
ATOM     61  N   UNL     1       7.798  12.249  -5.343  1.00  0.00    -0.354 N 
ATOM     62  N   UNL     1       5.739  12.457  -3.243  1.00  0.00    -0.248 NA
ATOM     63  C   UNL     1       4.779  13.616  -1.458  1.00  0.00     0.031 C 
ATOM     64  C   UNL     1       9.223  13.933  -5.589  1.00  0.00     0.029 A 
ATOM     65  C   UNL     1       8.138  13.495  -4.846  1.00  0.00     0.049 A 
ATOM     66  H   UNL     1       7.067  11.684  -5.002  1.00  0.00     0.167 HD
ATOM     67  C   UNL     1       6.407  13.666  -3.074  1.00  0.00     0.074 A 
ATOM     68  C   UNL     1       5.752  14.352  -1.979  1.00  0.00     0.031 C 
ATOM     69  C   UNL     1       7.462  14.168  -3.764  1.00  0.00     0.037 A 
BRANCH  56  70
ATOM     70  C   UNL     1       9.599  10.431  -8.209  1.00  0.00     0.058 A 
ATOM     71  C   UNL     1       9.240  10.385  -9.566  1.00  0.00     0.135 A 
ATOM     72  C   UNL     1      10.955  10.263  -7.885  1.00  0.00     0.135 A 
ATOM     73  F   UNL     1       7.955  10.514  -9.931  1.00  0.00    -0.206 F 
ATOM     74  C   UNL     1      10.186  10.155 -10.560  1.00  0.00     0.059 A 
ATOM     75  C   UNL     1      11.922  10.065  -8.866  1.00  0.00     0.059 A 
ATOM     76  F   UNL     1      11.353  10.289  -6.604  1.00  0.00    -0.206 F 
ATOM     77  C   UNL     1      11.525  10.000 -10.200  1.00  0.00     0.060 A 
BRANCH  77  78
ATOM     78  S   UNL     1      12.741   9.717 -11.504  1.00  0.00     0.124 S 
ATOM     79  O   UNL     1      12.408   8.358 -11.923  1.00  0.00    -0.237 OA
ATOM     80  O   UNL     1      12.421  10.771 -12.461  1.00  0.00    -0.237 OA
ATOM     81  O   UNL     1      14.020   9.864 -10.816  1.00  0.00    -0.744 OA
ENDBRANCH  77  78
ENDBRANCH  56  70
BRANCH  57  82
ATOM     82  C   UNL     1       2.743  11.553  -0.986  1.00  0.00     0.058 A 
ATOM     83  C   UNL     1       1.767  12.560  -1.033  1.00  0.00     0.135 A 
ATOM     84  C   UNL     1       2.757  10.713   0.139  1.00  0.00     0.135 A 
ATOM     85  F   UNL     1       1.717  13.398  -2.080  1.00  0.00    -0.206 F 
ATOM     86  C   UNL     1       0.854  12.741   0.002  1.00  0.00     0.059 A 
ATOM     87  C   UNL     1       1.837  10.854   1.172  1.00  0.00     0.059 A 
ATOM     88  F   UNL     1       3.665   9.728   0.232  1.00  0.00    -0.206 F 
ATOM     89  C   UNL     1       0.895  11.879   1.100  1.00  0.00     0.060 A 
BRANCH  89  90
ATOM     90  S   UNL     1      -0.324  12.095   2.415  1.00  0.00     0.124 S 
ATOM     91  O   UNL     1       0.128  13.336   3.034  1.00  0.00    -0.237 OA
ATOM     92  O   UNL     1      -1.572  12.172   1.664  1.00  0.00    -0.237 OA
ATOM     93  O   UNL     1      -0.161  10.890   3.224  1.00  0.00    -0.744 OA
ENDBRANCH  89  90
ENDBRANCH  57  82
BRANCH  69  94
ATOM     94  C   UNL     1       7.943  15.549  -3.401  1.00  0.00     0.058 A 
ATOM     95  C   UNL     1       8.616  15.813  -2.198  1.00  0.00     0.135 A 
ATOM     96  C   UNL     1       7.778  16.612  -4.305  1.00  0.00     0.135 A 
ATOM     97  F   UNL     1       8.800  14.835  -1.297  1.00  0.00    -0.206 F 
ATOM     98  C   UNL     1       9.082  17.087  -1.891  1.00  0.00     0.059 A 
ATOM     99  C   UNL     1       8.266  17.886  -4.034  1.00  0.00     0.059 A 
ATOM    100  F   UNL     1       7.154  16.413  -5.477  1.00  0.00    -0.206 F 
ATOM    101  C   UNL     1       8.905  18.117  -2.818  1.00  0.00     0.060 A 
BRANCH 101 102
ATOM    102  S   UNL     1       9.540  19.759  -2.419  1.00  0.00     0.124 S 
ATOM    103  O   UNL     1       8.605  20.194  -1.387  1.00  0.00    -0.237 OA
ATOM    104  O   UNL     1      10.896  19.466  -1.964  1.00  0.00    -0.237 OA
ATOM    105  O   UNL     1       9.452  20.476  -3.688  1.00  0.00    -0.744 OA
ENDBRANCH 101 102
ENDBRANCH  69  94
ENDBRANCH  43  44
ENDBRANCH  36  38
ENDBRANCH  35  36
ENDBRANCH  34  35
ENDBRANCH  33  34
ENDBRANCH  32  33
ENDBRANCH  31  32
ENDBRANCH  30  31
ENDBRANCH  29  30
ENDBRANCH   1  29
TORSDOF 29
