REMARK SMILES C[C@]1(C(=O)OCCOCCOCCOCCOC(=O)c2ccc(-c3c4nc(c(-c5c(F)cc(S(=O)(=O)[O-])cc5F)c5ccc([nH]5)c(-c5c(F)cc(S(=O)(=O)[O-])cc5F)c5nc(c(-c6c(F)cc(S(=O)(=O)[O-])cc6F)c6ccc3[nH]6)C=C5)C=C4)cc2)CCN(c2ccc([N+](=O)[O-])c(N)n2)C1
REMARK SMILES IDX 12 1 11 2 10 3 9 4 8 5 7 6 6 7 5 8 3 9 4 10 2 11 1 12 86 13
REMARK SMILES IDX 99 14 87 15 88 16 89 17 90 18 98 19 91 20 96 21 92 22 97 23
REMARK SMILES IDX 93 26 94 27 95 28 13 29 14 30 15 31 16 32 17 33 18 34 19 35
REMARK SMILES IDX 20 36 21 37 85 38 22 39 84 40 23 41 24 42 25 43 78 44 26 45
REMARK SMILES IDX 83 46 77 47 79 48 27 49 82 50 76 51 75 52 28 54 62 55 41 56
REMARK SMILES IDX 61 57 42 58 45 59 60 60 80 61 43 62 44 63 59 65 81 66 46 67
REMARK SMILES IDX 29 68 30 69 39 70 31 71 32 72 38 73 40 74 33 75 34 76 35 77
REMARK SMILES IDX 36 78 37 79 63 80 64 81 73 82 65 83 66 84 72 85 74 86 67 87
REMARK SMILES IDX 68 88 69 89 70 90 71 91 47 92 48 93 57 94 49 95 50 96 56 97
REMARK SMILES IDX 58 98 51 99 52 100 53 101 54 102 55 103
REMARK H PARENT 97 24 97 25 79 53 45 64
REMARK Flexibility Score: inf
ROOT
ATOM      1  C   UNL     1       2.236  -0.058   3.804  1.00  0.00     0.188 C 
ENDROOT
BRANCH   1   2
ATOM      2  O   UNL     1       2.034   0.214   2.424  1.00  0.00    -0.377 OA
BRANCH   2   3
ATOM      3  C   UNL     1       0.680   0.249   2.015  1.00  0.00     0.188 C 
BRANCH   3   4
ATOM      4  C   UNL     1       0.192  -1.028   1.292  1.00  0.00     0.188 C 
BRANCH   4   5
ATOM      5  O   UNL     1       1.045  -2.146   1.067  1.00  0.00    -0.376 OA
BRANCH   5   6
ATOM      6  C   UNL     1       2.442  -1.976   0.894  1.00  0.00     0.202 C 
BRANCH   6   7
ATOM      7  C   UNL     1       2.985  -1.058  -0.209  1.00  0.00     0.261 C 
BRANCH   7   8
ATOM      8  O   UNL     1       2.296   0.182  -0.425  1.00  0.00    -0.463 OA
BRANCH   8   9
ATOM      9  C   UNL     1       1.335   0.190  -1.382  1.00  0.00     0.313 C 
ATOM     10  O   UNL     1       0.957  -0.810  -1.983  1.00  0.00    -0.252 OA
BRANCH   9  11
ATOM     11  C   UNL     1       0.756   1.580  -1.638  1.00  0.00     0.084 C 
ATOM     12  C   UNL     1       0.711   1.755  -3.164  1.00  0.00     0.026 C 
ATOM     13  C   UNL     1      -0.654   1.793  -1.049  1.00  0.00     0.042 C 
ATOM     14  C   UNL     1       1.569   2.709  -0.991  1.00  0.00     0.136 C 
ATOM     15  C   UNL     1      -0.756   3.292  -0.721  1.00  0.00     0.119 C 
ATOM     16  N   UNL     1       0.598   3.789  -0.864  1.00  0.00    -0.355 N 
BRANCH  16  17
ATOM     17  C   UNL     1       0.996   5.011  -0.373  1.00  0.00     0.131 A 
ATOM     18  C   UNL     1       2.001   5.708  -1.040  1.00  0.00     0.054 A 
ATOM     19  N   UNL     1       0.406   5.525   0.732  1.00  0.00    -0.207 NA
ATOM     20  C   UNL     1       2.412   6.951  -0.577  1.00  0.00     0.093 A 
ATOM     21  C   UNL     1       0.841   6.712   1.229  1.00  0.00     0.204 A 
ATOM     22  C   UNL     1       1.822   7.459   0.579  1.00  0.00     0.311 A 
BRANCH  21  23
ATOM     23  N   UNL     1       0.171   7.132   2.365  1.00  0.00    -0.378 N 
ATOM     24  H   UNL     1       0.418   7.982   2.796  1.00  0.00     0.158 HD
ATOM     25  H   UNL     1      -0.553   6.581   2.742  1.00  0.00     0.158 HD
ENDBRANCH  21  23
BRANCH  22  26
ATOM     26  N   UNL     1       2.255   8.759   1.074  1.00  0.00     0.066 N 
ATOM     27  O   UNL     1       2.775   9.535   0.257  1.00  0.00    -0.258 OA
ATOM     28  O   UNL     1       2.091   9.020   2.276  1.00  0.00    -0.258 OA
ENDBRANCH  22  26
ENDBRANCH  16  17
ENDBRANCH   9  11
ENDBRANCH   8   9
ENDBRANCH   7   8
ENDBRANCH   6   7
ENDBRANCH   5   6
ENDBRANCH   4   5
ENDBRANCH   3   4
ENDBRANCH   2   3
ENDBRANCH   1   2
BRANCH   1  29
ATOM     29  C   UNL     1       1.532  -1.311   4.360  1.00  0.00     0.188 C 
BRANCH  29  30
ATOM     30  O   UNL     1       0.123  -1.300   4.147  1.00  0.00    -0.376 OA
BRANCH  30  31
ATOM     31  C   UNL     1      -0.714  -1.012   5.257  1.00  0.00     0.202 C 
BRANCH  31  32
ATOM     32  C   UNL     1      -0.758   0.455   5.711  1.00  0.00     0.261 C 
BRANCH  32  33
ATOM     33  O   UNL     1       0.502   1.053   6.051  1.00  0.00    -0.460 OA
BRANCH  33  34
ATOM     34  C   UNL     1       1.197   0.519   7.085  1.00  0.00     0.338 C 
ATOM     35  O   UNL     1       0.846  -0.388   7.803  1.00  0.00    -0.246 OA
BRANCH  34  36
ATOM     36  C   UNL     1       2.566   1.094   7.035  1.00  0.00     0.060 A 
ATOM     37  C   UNL     1       3.654   0.229   6.856  1.00  0.00     0.016 A 
ATOM     38  C   UNL     1       2.769   2.474   7.097  1.00  0.00     0.016 A 
ATOM     39  C   UNL     1       4.947   0.743   6.731  1.00  0.00     0.010 A 
ATOM     40  C   UNL     1       4.069   2.985   7.008  1.00  0.00     0.010 A 
ATOM     41  C   UNL     1       5.166   2.122   6.835  1.00  0.00    -0.014 A 
BRANCH  41  42
ATOM     42  C   UNL     1       6.548   2.656   6.910  1.00  0.00     0.031 A 
ATOM     43  C   UNL     1       7.137   2.934   8.266  1.00  0.00     0.074 A 
ATOM     44  C   UNL     1       7.266   2.900   5.798  1.00  0.00     0.049 A 
ATOM     45  N   UNL     1       8.281   3.484   8.578  1.00  0.00    -0.248 NA
ATOM     46  C   UNL     1       6.323   2.536   9.426  1.00  0.00     0.031 C 
ATOM     47  C   UNL     1       6.824   2.630   4.431  1.00  0.00     0.029 A 
ATOM     48  N   UNL     1       8.516   3.449   5.645  1.00  0.00    -0.354 N 
ATOM     49  C   UNL     1       8.321   3.509   9.967  1.00  0.00     0.074 A 
ATOM     50  C   UNL     1       7.079   2.936  10.437  1.00  0.00     0.031 C 
ATOM     51  C   UNL     1       7.779   3.038   3.576  1.00  0.00     0.029 A 
ATOM     52  C   UNL     1       8.880   3.635   4.332  1.00  0.00     0.049 A 
ATOM     53  H   UNL     1       9.097   3.686   6.404  1.00  0.00     0.167 HD
ATOM     54  C   UNL     1       9.306   3.968  10.775  1.00  0.00     0.037 A 
ATOM     55  C   UNL     1       9.959   4.249   3.803  1.00  0.00     0.037 A 
ATOM     56  C   UNL     1      10.536   4.545  10.298  1.00  0.00     0.049 A 
ATOM     57  C   UNL     1      11.003   4.833   4.724  1.00  0.00     0.074 A 
ATOM     58  C   UNL     1      11.607   5.016  11.038  1.00  0.00     0.029 A 
ATOM     59  N   UNL     1      10.854   4.747   8.963  1.00  0.00    -0.354 N 
ATOM     60  N   UNL     1      11.047   4.820   6.036  1.00  0.00    -0.248 NA
ATOM     61  C   UNL     1      12.140   5.519   4.094  1.00  0.00     0.031 C 
ATOM     62  C   UNL     1      12.543   5.562  10.153  1.00  0.00     0.029 A 
ATOM     63  C   UNL     1      12.086   5.373   8.858  1.00  0.00     0.049 A 
ATOM     64  H   UNL     1      10.287   4.485   8.202  1.00  0.00     0.167 HD
ATOM     65  C   UNL     1      12.224   5.478   6.385  1.00  0.00     0.074 A 
ATOM     66  C   UNL     1      12.872   5.856   5.147  1.00  0.00     0.031 C 
ATOM     67  C   UNL     1      12.721   5.747   7.619  1.00  0.00     0.037 A 
BRANCH  54  68
ATOM     68  C   UNL     1       9.082   3.898  12.260  1.00  0.00     0.058 A 
ATOM     69  C   UNL     1       9.090   2.679  12.956  1.00  0.00     0.135 A 
ATOM     70  C   UNL     1       8.904   5.075  13.005  1.00  0.00     0.135 A 
ATOM     71  F   UNL     1       9.236   1.521  12.292  1.00  0.00    -0.206 F 
ATOM     72  C   UNL     1       8.911   2.628  14.335  1.00  0.00     0.059 A 
ATOM     73  C   UNL     1       8.752   5.051  14.388  1.00  0.00     0.059 A 
ATOM     74  F   UNL     1       8.882   6.268  12.389  1.00  0.00    -0.206 F 
ATOM     75  C   UNL     1       8.746   3.820  15.043  1.00  0.00     0.060 A 
BRANCH  75  76
ATOM     76  S   UNL     1       8.534   3.736  16.833  1.00  0.00     0.124 S 
ATOM     77  O   UNL     1       7.200   3.154  16.941  1.00  0.00    -0.237 OA
ATOM     78  O   UNL     1       9.637   2.869  17.236  1.00  0.00    -0.237 OA
ATOM     79  O   UNL     1       8.646   5.128  17.257  1.00  0.00    -0.744 OA
ENDBRANCH  75  76
ENDBRANCH  54  68
BRANCH  55  80
ATOM     80  C   UNL     1      10.095   4.382   2.326  1.00  0.00     0.058 A 
ATOM     81  C   UNL     1      11.111   3.716   1.624  1.00  0.00     0.135 A 
ATOM     82  C   UNL     1       9.216   5.191   1.587  1.00  0.00     0.135 A 
ATOM     83  F   UNL     1      11.988   2.945   2.285  1.00  0.00    -0.206 F 
ATOM     84  C   UNL     1      11.259   3.854   0.247  1.00  0.00     0.059 A 
ATOM     85  C   UNL     1       9.326   5.322   0.206  1.00  0.00     0.059 A 
ATOM     86  F   UNL     1       8.223   5.848   2.206  1.00  0.00    -0.206 F 
ATOM     87  C   UNL     1      10.356   4.656  -0.455  1.00  0.00     0.060 A 
BRANCH  87  88
ATOM     88  S   UNL     1      10.519   4.780  -2.249  1.00  0.00     0.124 S 
ATOM     89  O   UNL     1      11.721   5.594  -2.381  1.00  0.00    -0.237 OA
ATOM     90  O   UNL     1      10.648   3.380  -2.640  1.00  0.00    -0.237 OA
ATOM     91  O   UNL     1       9.272   5.423  -2.655  1.00  0.00    -0.744 OA
ENDBRANCH  87  88
ENDBRANCH  55  80
BRANCH  67  92
ATOM     92  C   UNL     1      14.040   6.470   7.699  1.00  0.00     0.058 A 
ATOM     93  C   UNL     1      14.158   7.828   7.364  1.00  0.00     0.135 A 
ATOM     94  C   UNL     1      15.187   5.812   8.176  1.00  0.00     0.135 A 
ATOM     95  F   UNL     1      13.097   8.504   6.897  1.00  0.00    -0.206 F 
ATOM     96  C   UNL     1      15.370   8.503   7.479  1.00  0.00     0.059 A 
ATOM     97  C   UNL     1      16.401   6.476   8.328  1.00  0.00     0.059 A 
ATOM     98  F   UNL     1      15.129   4.516   8.521  1.00  0.00    -0.206 F 
ATOM     99  C   UNL     1      16.485   7.819   7.967  1.00  0.00     0.060 A 
BRANCH  99 100
ATOM    100  S   UNL     1      18.040   8.719   8.147  1.00  0.00     0.124 S 
ATOM    101  O   UNL     1      18.438   8.901   6.755  1.00  0.00    -0.237 OA
ATOM    102  O   UNL     1      17.620   9.928   8.850  1.00  0.00    -0.237 OA
ATOM    103  O   UNL     1      18.874   7.807   8.923  1.00  0.00    -0.744 OA
ENDBRANCH  99 100
ENDBRANCH  67  92
ENDBRANCH  41  42
ENDBRANCH  34  36
ENDBRANCH  33  34
ENDBRANCH  32  33
ENDBRANCH  31  32
ENDBRANCH  30  31
ENDBRANCH  29  30
ENDBRANCH   1  29
TORSDOF 26
