REMARK SMILES CC(C)(C[NH+]1CCC(C(N)=S)CC1)C(=O)OCCOCCOCCOCCOC(=O)c1ccc(-c2c3nc(c(-c4c(F)cc(S(=O)(=O)[O-])cc4F)c4ccc([nH]4)c(-c4c(F)cc(S(=O)(=O)[O-])cc4F)c4nc(c(-c5c(F)cc(S(=O)(=O)[O-])cc5F)c5ccc2[nH]5)C=C4)C=C3)cc1
REMARK SMILES IDX 21 1 20 2 19 3 18 4 17 5 16 6 14 7 15 8 2 9 1 10 3 11 4 12
REMARK SMILES IDX 5 13 6 14 13 15 7 17 12 18 8 19 9 20 11 21 10 22 22 25 23 26
REMARK SMILES IDX 24 27 25 28 26 29 27 30 28 31 29 32 30 33 31 34 32 35 96 36
REMARK SMILES IDX 33 37 95 38 34 39 35 40 36 41 89 42 37 43 94 44 88 45 90 46
REMARK SMILES IDX 38 47 93 48 87 49 86 50 39 52 73 53 52 54 72 55 53 56 56 57
REMARK SMILES IDX 71 58 91 59 54 60 55 61 70 63 92 64 57 65 40 66 41 67 50 68
REMARK SMILES IDX 42 69 43 70 49 71 51 72 44 73 45 74 46 75 47 76 48 77 74 78
REMARK SMILES IDX 75 79 84 80 76 81 77 82 83 83 85 84 78 85 79 86 80 87 81 88
REMARK SMILES IDX 82 89 58 90 59 91 68 92 60 93 61 94 67 95 69 96 62 97 63 98
REMARK SMILES IDX 64 99 65 100 66 101
REMARK H PARENT 5 16 10 23 10 24 90 51 56 62
REMARK Flexibility Score: inf
ROOT
ATOM      1  C   UNL     1       0.912  -4.641  -1.187  1.00  0.00     0.188 C 
ENDROOT
BRANCH   1   2
ATOM      2  C   UNL     1       2.173  -3.906  -0.730  1.00  0.00     0.188 C 
BRANCH   2   3
ATOM      3  O   UNL     1       2.917  -4.562   0.300  1.00  0.00    -0.376 OA
BRANCH   3   4
ATOM      4  C   UNL     1       2.213  -4.936   1.483  1.00  0.00     0.202 C 
BRANCH   4   5
ATOM      5  C   UNL     1       1.843  -3.821   2.475  1.00  0.00     0.261 C 
BRANCH   5   6
ATOM      6  O   UNL     1       1.046  -2.720   1.983  1.00  0.00    -0.463 OA
BRANCH   6   7
ATOM      7  C   UNL     1       1.760  -1.603   1.684  1.00  0.00     0.317 C 
ATOM      8  O   UNL     1       2.987  -1.593   1.599  1.00  0.00    -0.251 OA
BRANCH   7   9
ATOM      9  C   UNL     1       0.949  -0.301   1.612  1.00  0.00     0.111 C 
ATOM     10  C   UNL     1       1.696   0.644   0.651  1.00  0.00     0.029 C 
ATOM     11  C   UNL     1       1.109   0.300   3.036  1.00  0.00     0.029 C 
BRANCH   9  12
ATOM     12  C   UNL     1      -0.599  -0.382   1.360  1.00  0.00     0.280 C 
BRANCH  12  13
ATOM     13  N   UNL     1      -1.304  -0.526   0.069  1.00  0.00    -0.334 N 
ATOM     14  C   UNL     1      -0.644  -0.038  -1.131  1.00  0.00     0.262 C 
ATOM     15  C   UNL     1      -2.034  -1.789  -0.042  1.00  0.00     0.262 C 
ATOM     16  H   UNL     1      -2.025   0.193   0.114  1.00  0.00     0.348 HD
ATOM     17  C   UNL     1      -1.458  -0.212  -2.416  1.00  0.00     0.072 C 
ATOM     18  C   UNL     1      -2.803  -1.968  -1.358  1.00  0.00     0.072 C 
ATOM     19  C   UNL     1      -1.865  -1.677  -2.527  1.00  0.00     0.058 C 
BRANCH  19  20
ATOM     20  C   UNL     1      -2.361  -2.036  -3.918  1.00  0.00     0.076 C 
ATOM     21  S   UNL     1      -3.862  -1.677  -4.537  1.00  0.00    -0.066 S 
BRANCH  20  22
ATOM     22  N   UNL     1      -1.440  -2.674  -4.707  1.00  0.00    -0.393 N 
ATOM     23  H   UNL     1      -0.549  -2.890  -4.348  1.00  0.00     0.157 HD
ATOM     24  H   UNL     1      -1.669  -2.915  -5.634  1.00  0.00     0.157 HD
ENDBRANCH  20  22
ENDBRANCH  19  20
ENDBRANCH  12  13
ENDBRANCH   9  12
ENDBRANCH   7   9
ENDBRANCH   6   7
ENDBRANCH   5   6
ENDBRANCH   4   5
ENDBRANCH   3   4
ENDBRANCH   2   3
ENDBRANCH   1   2
BRANCH   1  25
ATOM     25  O   UNL     1      -0.063  -4.552  -0.157  1.00  0.00    -0.377 OA
BRANCH  25  26
ATOM     26  C   UNL     1      -1.115  -5.508  -0.098  1.00  0.00     0.188 C 
BRANCH  26  27
ATOM     27  C   UNL     1      -1.068  -6.712  -1.044  1.00  0.00     0.188 C 
BRANCH  27  28
ATOM     28  O   UNL     1      -1.197  -6.448  -2.442  1.00  0.00    -0.376 OA
BRANCH  28  29
ATOM     29  C   UNL     1      -2.102  -5.423  -2.842  1.00  0.00     0.202 C 
BRANCH  29  30
ATOM     30  C   UNL     1      -3.603  -5.693  -2.706  1.00  0.00     0.261 C 
BRANCH  30  31
ATOM     31  O   UNL     1      -3.989  -5.953  -1.348  1.00  0.00    -0.460 OA
BRANCH  31  32
ATOM     32  C   UNL     1      -4.368  -7.230  -1.126  1.00  0.00     0.338 C 
ATOM     33  O   UNL     1      -4.471  -8.123  -1.958  1.00  0.00    -0.246 OA
BRANCH  32  34
ATOM     34  C   UNL     1      -4.463  -7.501   0.315  1.00  0.00     0.060 A 
ATOM     35  C   UNL     1      -3.775  -8.629   0.776  1.00  0.00     0.016 A 
ATOM     36  C   UNL     1      -5.314  -6.781   1.159  1.00  0.00     0.016 A 
ATOM     37  C   UNL     1      -4.018  -9.112   2.049  1.00  0.00     0.010 A 
ATOM     38  C   UNL     1      -5.577  -7.282   2.439  1.00  0.00     0.010 A 
ATOM     39  C   UNL     1      -4.987  -8.491   2.847  1.00  0.00    -0.014 A 
BRANCH  39  40
ATOM     40  C   UNL     1      -5.567  -9.324   3.924  1.00  0.00     0.031 A 
ATOM     41  C   UNL     1      -6.757 -10.182   3.575  1.00  0.00     0.074 A 
ATOM     42  C   UNL     1      -4.932  -9.457   5.099  1.00  0.00     0.049 A 
ATOM     43  N   UNL     1      -7.324 -11.136   4.264  1.00  0.00    -0.248 NA
ATOM     44  C   UNL     1      -7.375  -9.950   2.256  1.00  0.00     0.031 C 
ATOM     45  C   UNL     1      -3.736  -8.717   5.500  1.00  0.00     0.029 A 
ATOM     46  N   UNL     1      -5.183 -10.293   6.155  1.00  0.00    -0.354 N 
ATOM     47  C   UNL     1      -8.351 -11.622   3.462  1.00  0.00     0.074 A 
ATOM     48  C   UNL     1      -8.354 -10.841   2.247  1.00  0.00     0.031 C 
ATOM     49  C   UNL     1      -3.348  -9.142   6.715  1.00  0.00     0.029 A 
ATOM     50  C   UNL     1      -4.273 -10.176   7.177  1.00  0.00     0.049 A 
ATOM     51  H   UNL     1      -5.944 -10.917   6.179  1.00  0.00     0.167 HD
ATOM     52  C   UNL     1      -9.207 -12.640   3.710  1.00  0.00     0.037 A 
ATOM     53  C   UNL     1      -4.197 -10.839   8.346  1.00  0.00     0.037 A 
ATOM     54  C   UNL     1      -9.197 -13.406   4.926  1.00  0.00     0.049 A 
ATOM     55  C   UNL     1      -5.186 -11.941   8.618  1.00  0.00     0.074 A 
ATOM     56  C   UNL     1     -10.040 -14.433   5.309  1.00  0.00     0.029 A 
ATOM     57  N   UNL     1      -8.290 -13.222   5.960  1.00  0.00    -0.354 N 
ATOM     58  N   UNL     1      -6.159 -12.383   7.855  1.00  0.00    -0.248 NA
ATOM     59  C   UNL     1      -5.058 -12.648   9.899  1.00  0.00     0.031 C 
ATOM     60  C   UNL     1      -9.661 -14.850   6.591  1.00  0.00     0.029 A 
ATOM     61  C   UNL     1      -8.555 -14.111   6.985  1.00  0.00     0.049 A 
ATOM     62  H   UNL     1      -7.564 -12.557   5.963  1.00  0.00     0.167 HD
ATOM     63  C   UNL     1      -6.743 -13.435   8.552  1.00  0.00     0.074 A 
ATOM     64  C   UNL     1      -6.004 -13.571   9.791  1.00  0.00     0.031 C 
ATOM     65  C   UNL     1      -7.794 -14.221   8.204  1.00  0.00     0.037 A 
BRANCH  52  66
ATOM     66  C   UNL     1     -10.240 -12.950   2.662  1.00  0.00     0.058 A 
ATOM     67  C   UNL     1      -9.904 -13.588   1.457  1.00  0.00     0.135 A 
ATOM     68  C   UNL     1     -11.585 -12.604   2.867  1.00  0.00     0.135 A 
ATOM     69  F   UNL     1      -8.628 -13.915   1.198  1.00  0.00    -0.206 F 
ATOM     70  C   UNL     1     -10.864 -13.857   0.484  1.00  0.00     0.059 A 
ATOM     71  C   UNL     1     -12.564 -12.882   1.918  1.00  0.00     0.059 A 
ATOM     72  F   UNL     1     -11.957 -11.981   3.996  1.00  0.00    -0.206 F 
ATOM     73  C   UNL     1     -12.191 -13.498   0.724  1.00  0.00     0.060 A 
BRANCH  73  74
ATOM     74  S   UNL     1     -13.429 -13.855  -0.542  1.00  0.00     0.124 S 
ATOM     75  O   UNL     1     -13.130 -12.831  -1.539  1.00  0.00    -0.237 OA
ATOM     76  O   UNL     1     -13.102 -15.225  -0.923  1.00  0.00    -0.237 OA
ATOM     77  O   UNL     1     -14.695 -13.691   0.165  1.00  0.00    -0.744 OA
ENDBRANCH  73  74
ENDBRANCH  52  66
BRANCH  53  78
ATOM     78  C   UNL     1      -3.148 -10.479   9.337  1.00  0.00     0.058 A 
ATOM     79  C   UNL     1      -2.084 -11.344   9.632  1.00  0.00     0.135 A 
ATOM     80  C   UNL     1      -3.190  -9.245  10.006  1.00  0.00     0.135 A 
ATOM     81  F   UNL     1      -2.001 -12.537   9.024  1.00  0.00    -0.206 F 
ATOM     82  C   UNL     1      -1.108 -11.007  10.566  1.00  0.00     0.059 A 
ATOM     83  C   UNL     1      -2.214  -8.875  10.924  1.00  0.00     0.059 A 
ATOM     84  F   UNL     1      -4.179  -8.375   9.749  1.00  0.00    -0.206 F 
ATOM     85  C   UNL     1      -1.182  -9.768  11.207  1.00  0.00     0.060 A 
BRANCH  85  86
ATOM     86  S   UNL     1       0.114  -9.312  12.380  1.00  0.00     0.124 S 
ATOM     87  O   UNL     1      -0.255 -10.104  13.547  1.00  0.00    -0.237 OA
ATOM     88  O   UNL     1       1.325  -9.730  11.680  1.00  0.00    -0.237 OA
ATOM     89  O   UNL     1      -0.053  -7.868  12.516  1.00  0.00    -0.744 OA
ENDBRANCH  85  86
ENDBRANCH  53  78
BRANCH  65  90
ATOM     90  C   UNL     1      -8.173 -15.312   9.162  1.00  0.00     0.058 A 
ATOM     91  C   UNL     1      -8.829 -15.036  10.371  1.00  0.00     0.135 A 
ATOM     92  C   UNL     1      -7.897 -16.654   8.851  1.00  0.00     0.135 A 
ATOM     93  F   UNL     1      -9.114 -13.769  10.711  1.00  0.00    -0.206 F 
ATOM     94  C   UNL     1      -9.162 -16.050  11.261  1.00  0.00     0.059 A 
ATOM     95  C   UNL     1      -8.245 -17.686   9.715  1.00  0.00     0.059 A 
ATOM     96  F   UNL     1      -7.287 -16.970   7.698  1.00  0.00    -0.206 F 
ATOM     97  C   UNL     1      -8.859 -17.372  10.927  1.00  0.00     0.060 A 
BRANCH  97  98
ATOM     98  S   UNL     1      -9.289 -18.683  12.090  1.00  0.00     0.124 S 
ATOM     99  O   UNL     1      -8.216 -18.565  13.072  1.00  0.00    -0.237 OA
ATOM    100  O   UNL     1     -10.615 -18.277  12.548  1.00  0.00    -0.237 OA
ATOM    101  O   UNL     1      -9.259 -19.888  11.267  1.00  0.00    -0.744 OA
ENDBRANCH  97  98
ENDBRANCH  65  90
ENDBRANCH  39  40
ENDBRANCH  32  34
ENDBRANCH  31  32
ENDBRANCH  30  31
ENDBRANCH  29  30
ENDBRANCH  28  29
ENDBRANCH  27  28
ENDBRANCH  26  27
ENDBRANCH  25  26
ENDBRANCH   1  25
TORSDOF 27
