REMARK SMILES C[C@@H]1C(C(=O)OCCOCCOCCOCCOC(=O)c2ccc(-c3c4nc(c(-c5c(F)cc(S(=O)(=O)[O-])cc5F)c5ccc([nH]5)c(-c5c(F)cc(S(=O)(=O)[O-])cc5F)c5nc(c(-c6c(F)cc(S(=O)(=O)[O-])cc6F)c6ccc3[nH]6)C=C5)C=C4)cc2)=NC2=C1C(=O)C[C@H](c1ccccc1)C2
REMARK SMILES IDX 13 1 12 2 11 3 10 4 9 5 8 6 7 7 6 8 4 9 5 10 3 11 1 12 2 13
REMARK SMILES IDX 89 14 87 15 88 16 90 17 100 18 91 19 92 20 93 21 94 22 95 23
REMARK SMILES IDX 99 24 96 25 98 26 97 27 14 28 15 29 16 30 17 31 18 32 19 33
REMARK SMILES IDX 20 34 21 35 22 36 86 37 23 38 85 39 24 40 25 41 26 42 79 43
REMARK SMILES IDX 27 44 84 45 78 46 80 47 28 48 83 49 77 50 76 51 29 53 63 54
REMARK SMILES IDX 42 55 62 56 43 57 46 58 61 59 81 60 44 61 45 62 60 64 82 65
REMARK SMILES IDX 47 66 30 67 31 68 40 69 32 70 33 71 39 72 41 73 34 74 35 75
REMARK SMILES IDX 36 76 37 77 38 78 64 79 65 80 74 81 66 82 67 83 73 84 75 85
REMARK SMILES IDX 68 86 69 87 70 88 71 89 72 90 48 91 49 92 58 93 50 94 51 95
REMARK SMILES IDX 57 96 59 97 52 98 53 99 54 100 55 101 56 102
REMARK H PARENT 80 52 46 63
REMARK Flexibility Score: inf
ROOT
ATOM      1  C   UNL     1       5.076  -1.996  -2.913  1.00  0.00     0.188 C 
ENDROOT
BRANCH   1   2
ATOM      2  O   UNL     1       3.798  -1.784  -3.478  1.00  0.00    -0.377 OA
BRANCH   2   3
ATOM      3  C   UNL     1       3.243  -0.483  -3.426  1.00  0.00     0.188 C 
BRANCH   3   4
ATOM      4  C   UNL     1       3.506   0.362  -2.184  1.00  0.00     0.188 C 
BRANCH   4   5
ATOM      5  O   UNL     1       4.848   0.442  -1.744  1.00  0.00    -0.376 OA
BRANCH   5   6
ATOM      6  C   UNL     1       5.058   0.893  -0.401  1.00  0.00     0.202 C 
BRANCH   6   7
ATOM      7  C   UNL     1       4.081   0.431   0.712  1.00  0.00     0.261 C 
BRANCH   7   8
ATOM      8  O   UNL     1       2.676   0.702   0.468  1.00  0.00    -0.459 OA
BRANCH   8   9
ATOM      9  C   UNL     1       2.247   1.978   0.418  1.00  0.00     0.353 C 
ATOM     10  O   UNL     1       2.831   2.946   0.866  1.00  0.00    -0.245 OA
BRANCH   9  11
ATOM     11  C   UNL     1       1.036   2.066  -0.534  1.00  0.00     0.133 C 
ATOM     12  C   UNL     1      -0.926   0.589  -0.093  1.00  0.00     0.020 C 
ATOM     13  C   UNL     1       0.286   0.821  -0.985  1.00  0.00     0.078 C 
ATOM     14  C   UNL     1      -0.113   1.436  -2.280  1.00  0.00     0.026 C 
ATOM     15  N   UNL     1       0.663   3.185  -1.110  1.00  0.00    -0.249 NA
ATOM     16  C   UNL     1      -0.045   2.764  -2.216  1.00  0.00     0.049 C 
ATOM     17  C   UNL     1      -0.113   0.815  -3.610  1.00  0.00     0.161 C 
ATOM     18  C   UNL     1      -0.251   3.601  -3.444  1.00  0.00     0.065 C 
ATOM     19  O   UNL     1      -0.502  -0.343  -3.732  1.00  0.00    -0.294 OA
ATOM     20  C   UNL     1       0.482   1.612  -4.788  1.00  0.00     0.089 C 
ATOM     21  C   UNL     1       0.746   3.133  -4.526  1.00  0.00     0.033 C 
BRANCH  21  22
ATOM     22  C   UNL     1       2.200   3.540  -4.218  1.00  0.00    -0.044 A 
ATOM     23  C   UNL     1       2.515   4.441  -3.179  1.00  0.00     0.004 A 
ATOM     24  C   UNL     1       3.275   3.091  -4.993  1.00  0.00     0.004 A 
ATOM     25  C   UNL     1       3.827   4.739  -2.811  1.00  0.00     0.000 A 
ATOM     26  C   UNL     1       4.594   3.443  -4.662  1.00  0.00     0.000 A 
ATOM     27  C   UNL     1       4.875   4.216  -3.541  1.00  0.00     0.000 A 
ENDBRANCH  21  22
ENDBRANCH   9  11
ENDBRANCH   8   9
ENDBRANCH   7   8
ENDBRANCH   6   7
ENDBRANCH   5   6
ENDBRANCH   4   5
ENDBRANCH   3   4
ENDBRANCH   2   3
ENDBRANCH   1   2
BRANCH   1  28
ATOM     28  C   UNL     1       6.361  -1.562  -3.655  1.00  0.00     0.188 C 
BRANCH  28  29
ATOM     29  O   UNL     1       6.615  -0.329  -4.301  1.00  0.00    -0.376 OA
BRANCH  29  30
ATOM     30  C   UNL     1       5.781   0.315  -5.241  1.00  0.00     0.202 C 
BRANCH  30  31
ATOM     31  C   UNL     1       5.084  -0.356  -6.426  1.00  0.00     0.261 C 
BRANCH  31  32
ATOM     32  O   UNL     1       4.548  -1.616  -6.115  1.00  0.00    -0.460 OA
BRANCH  32  33
ATOM     33  C   UNL     1       5.442  -2.600  -6.293  1.00  0.00     0.338 C 
ATOM     34  O   UNL     1       6.611  -2.477  -6.653  1.00  0.00    -0.246 OA
BRANCH  33  35
ATOM     35  C   UNL     1       4.796  -3.888  -6.074  1.00  0.00     0.060 A 
ATOM     36  C   UNL     1       5.619  -4.992  -6.281  1.00  0.00     0.016 A 
ATOM     37  C   UNL     1       3.395  -3.966  -6.074  1.00  0.00     0.016 A 
ATOM     38  C   UNL     1       5.042  -6.103  -6.828  1.00  0.00     0.010 A 
ATOM     39  C   UNL     1       2.819  -5.079  -6.623  1.00  0.00     0.010 A 
ATOM     40  C   UNL     1       3.669  -6.071  -7.098  1.00  0.00    -0.014 A 
BRANCH  40  41
ATOM     41  C   UNL     1       3.142  -7.166  -7.867  1.00  0.00     0.031 A 
ATOM     42  C   UNL     1       3.091  -8.407  -7.078  1.00  0.00     0.074 A 
ATOM     43  C   UNL     1       2.736  -7.018  -9.139  1.00  0.00     0.049 A 
ATOM     44  N   UNL     1       3.871  -9.429  -7.173  1.00  0.00    -0.248 NA
ATOM     45  C   UNL     1       2.233  -8.403  -5.883  1.00  0.00     0.031 C 
ATOM     46  C   UNL     1       2.514  -5.783  -9.896  1.00  0.00     0.029 A 
ATOM     47  N   UNL     1       2.343  -7.981 -10.006  1.00  0.00    -0.354 N 
ATOM     48  C   UNL     1       3.426 -10.309  -6.197  1.00  0.00     0.074 A 
ATOM     49  C   UNL     1       2.600  -9.543  -5.302  1.00  0.00     0.031 C 
ATOM     50  C   UNL     1       1.803  -6.072 -11.011  1.00  0.00     0.029 A 
ATOM     51  C   UNL     1       1.642  -7.514 -11.107  1.00  0.00     0.049 A 
ATOM     52  H   UNL     1       2.539  -8.936  -9.866  1.00  0.00     0.167 HD
ATOM     53  C   UNL     1       3.532 -11.652  -6.372  1.00  0.00     0.037 A 
ATOM     54  C   UNL     1       0.906  -8.284 -11.948  1.00  0.00     0.037 A 
ATOM     55  C   UNL     1       4.504 -11.973  -7.388  1.00  0.00     0.049 A 
ATOM     56  C   UNL     1       1.392  -9.686 -11.787  1.00  0.00     0.074 A 
ATOM     57  C   UNL     1       5.857 -11.730  -7.536  1.00  0.00     0.029 A 
ATOM     58  N   UNL     1       4.039 -12.293  -8.641  1.00  0.00    -0.354 N 
ATOM     59  N   UNL     1       2.586 -10.085 -12.138  1.00  0.00    -0.248 NA
ATOM     60  C   UNL     1       0.729 -10.524 -10.797  1.00  0.00     0.031 C 
ATOM     61  C   UNL     1       6.038 -11.464  -8.925  1.00  0.00     0.029 A 
ATOM     62  C   UNL     1       4.804 -11.616  -9.559  1.00  0.00     0.049 A 
ATOM     63  H   UNL     1       3.290 -12.900  -8.845  1.00  0.00     0.167 HD
ATOM     64  C   UNL     1       2.988 -10.957 -11.133  1.00  0.00     0.074 A 
ATOM     65  C   UNL     1       1.772 -11.247 -10.377  1.00  0.00     0.031 C 
ATOM     66  C   UNL     1       4.309 -11.136 -10.832  1.00  0.00     0.037 A 
BRANCH  53  67
ATOM     67  C   UNL     1       2.474 -12.620  -5.910  1.00  0.00     0.058 A 
ATOM     68  C   UNL     1       2.735 -14.001  -5.974  1.00  0.00     0.135 A 
ATOM     69  C   UNL     1       1.126 -12.262  -5.668  1.00  0.00     0.135 A 
ATOM     70  F   UNL     1       3.977 -14.450  -6.213  1.00  0.00    -0.206 F 
ATOM     71  C   UNL     1       1.721 -14.953  -5.873  1.00  0.00     0.059 A 
ATOM     72  C   UNL     1       0.113 -13.194  -5.503  1.00  0.00     0.059 A 
ATOM     73  F   UNL     1       0.699 -10.995  -5.679  1.00  0.00    -0.206 F 
ATOM     74  C   UNL     1       0.411 -14.536  -5.652  1.00  0.00     0.060 A 
BRANCH  74  75
ATOM     75  S   UNL     1      -0.916 -15.748  -5.632  1.00  0.00     0.124 S 
ATOM     76  O   UNL     1      -0.954 -16.157  -7.032  1.00  0.00    -0.237 OA
ATOM     77  O   UNL     1      -0.407 -16.737  -4.688  1.00  0.00    -0.237 OA
ATOM     78  O   UNL     1      -2.067 -14.979  -5.166  1.00  0.00    -0.744 OA
ENDBRANCH  74  75
ENDBRANCH  53  67
BRANCH  54  79
ATOM     79  C   UNL     1      -0.423  -7.952 -12.531  1.00  0.00     0.058 A 
ATOM     80  C   UNL     1      -0.992  -8.749 -13.541  1.00  0.00     0.135 A 
ATOM     81  C   UNL     1      -1.286  -7.016 -11.924  1.00  0.00     0.135 A 
ATOM     82  F   UNL     1      -0.253  -9.684 -14.158  1.00  0.00    -0.206 F 
ATOM     83  C   UNL     1      -2.344  -8.654 -13.895  1.00  0.00     0.059 A 
ATOM     84  C   UNL     1      -2.631  -6.896 -12.267  1.00  0.00     0.059 A 
ATOM     85  F   UNL     1      -0.872  -6.246 -10.907  1.00  0.00    -0.206 F 
ATOM     86  C   UNL     1      -3.161  -7.736 -13.237  1.00  0.00     0.060 A 
BRANCH  86  87
ATOM     87  S   UNL     1      -4.940  -7.725 -13.565  1.00  0.00     0.124 S 
ATOM     88  O   UNL     1      -4.992  -7.194 -14.923  1.00  0.00    -0.237 OA
ATOM     89  O   UNL     1      -5.290  -9.134 -13.417  1.00  0.00    -0.237 OA
ATOM     90  O   UNL     1      -5.471  -6.842 -12.530  1.00  0.00    -0.744 OA
ENDBRANCH  86  87
ENDBRANCH  54  79
BRANCH  66  91
ATOM     91  C   UNL     1       5.339 -10.596 -11.795  1.00  0.00     0.058 A 
ATOM     92  C   UNL     1       5.527  -9.231 -12.079  1.00  0.00     0.135 A 
ATOM     93  C   UNL     1       6.277 -11.493 -12.328  1.00  0.00     0.135 A 
ATOM     94  F   UNL     1       4.739  -8.298 -11.526  1.00  0.00    -0.206 F 
ATOM     95  C   UNL     1       6.575  -8.784 -12.888  1.00  0.00     0.059 A 
ATOM     96  C   UNL     1       7.347 -11.068 -13.110  1.00  0.00     0.059 A 
ATOM     97  F   UNL     1       6.191 -12.803 -12.043  1.00  0.00    -0.206 F 
ATOM     98  C   UNL     1       7.483  -9.712 -13.398  1.00  0.00     0.060 A 
BRANCH  98  99
ATOM     99  S   UNL     1       8.883  -9.131 -14.382  1.00  0.00     0.124 S 
ATOM    100  O   UNL     1       8.236  -8.722 -15.625  1.00  0.00    -0.237 OA
ATOM    101  O   UNL     1       9.422  -8.050 -13.562  1.00  0.00    -0.237 OA
ATOM    102  O   UNL     1       9.741 -10.309 -14.485  1.00  0.00    -0.744 OA
ENDBRANCH  98  99
ENDBRANCH  66  91
ENDBRANCH  40  41
ENDBRANCH  33  35
ENDBRANCH  32  33
ENDBRANCH  31  32
ENDBRANCH  30  31
ENDBRANCH  29  30
ENDBRANCH  28  29
ENDBRANCH   1  28
TORSDOF 24
