REMARK SMILES CCCCCCNC(=O)Oc1cccc(-c2ccc([C@@H](C)C(=O)OCCOCCOCCOCCOC(=O)c3ccc(-c4c5nc(c(-c6c(F)cc(S(=O)(=O)[O-])cc6F)c6ccc([nH]6)c(-c6c(F)cc(S(=O)(=O)[O-])cc6F)c6nc(c(-c7c(F)cc(S(=O)(=O)[O-])cc7F)c7ccc4[nH]7)C=C6)C=C5)cc3)cc2)c1
REMARK SMILES IDX 27 1 26 2 25 3 24 4 22 5 23 6 20 7 21 8 19 9 16 10 17 11
REMARK SMILES IDX 106 12 18 13 105 14 15 15 11 16 12 17 107 18 13 19 14 20
REMARK SMILES IDX 10 21 8 22 7 23 9 25 6 26 5 27 4 28 3 29 2 30 1 31 28 32
REMARK SMILES IDX 29 33 30 34 31 35 32 36 33 37 34 38 35 39 36 40 37 41 38 42
REMARK SMILES IDX 39 43 40 44 104 45 41 46 103 47 42 48 43 49 44 50 97 51
REMARK SMILES IDX 45 52 102 53 96 54 98 55 46 56 101 57 95 58 94 59 47 61
REMARK SMILES IDX 81 62 60 63 80 64 61 65 64 66 79 67 99 68 62 69 63 70 78 72
REMARK SMILES IDX 100 73 65 74 48 75 49 76 58 77 50 78 51 79 57 80 59 81 52 82
REMARK SMILES IDX 53 83 54 84 55 85 56 86 82 87 83 88 92 89 84 90 85 91 91 92
REMARK SMILES IDX 93 93 86 94 87 95 88 96 89 97 90 98 66 99 67 100 76 101
REMARK SMILES IDX 68 102 69 103 75 104 77 105 70 106 71 107 72 108 73 109
REMARK SMILES IDX 74 110
REMARK H PARENT 7 24 98 60 64 71
REMARK Flexibility Score: inf
ROOT
ATOM      1  O   UNL     1      -1.171  -0.285  15.409  1.00  0.00    -0.376 OA
ENDROOT
BRANCH   1   2
ATOM      2  C   UNL     1      -1.704  -1.442  16.040  1.00  0.00     0.202 C 
BRANCH   2   3
ATOM      3  C   UNL     1      -3.215  -1.561  16.315  1.00  0.00     0.261 C 
BRANCH   3   4
ATOM      4  O   UNL     1      -4.103  -1.304  15.208  1.00  0.00    -0.463 OA
BRANCH   4   5
ATOM      5  C   UNL     1      -4.752  -0.118  15.219  1.00  0.00     0.313 C 
ATOM      6  O   UNL     1      -4.627   0.715  16.117  1.00  0.00    -0.252 OA
BRANCH   5   7
ATOM      7  C   UNL     1      -5.698   0.142  14.048  1.00  0.00     0.126 C 
ATOM      8  C   UNL     1      -7.133   0.051  14.556  1.00  0.00     0.025 C 
BRANCH   7   9
ATOM      9  C   UNL     1      -5.542  -0.588  12.713  1.00  0.00    -0.034 A 
ATOM     10  C   UNL     1      -5.273  -1.839  10.144  1.00  0.00    -0.018 A 
ATOM     11  C   UNL     1      -5.460  -2.591  11.318  1.00  0.00     0.009 A 
ATOM     12  C   UNL     1      -5.201  -0.448  10.282  1.00  0.00     0.009 A 
ATOM     13  C   UNL     1      -5.598  -1.980  12.580  1.00  0.00     0.005 A 
ATOM     14  C   UNL     1      -5.344   0.166  11.537  1.00  0.00     0.005 A 
BRANCH  10  15
ATOM     15  C   UNL     1      -5.245  -2.478   8.809  1.00  0.00    -0.015 A 
ATOM     16  C   UNL     1      -4.274  -2.831   6.604  1.00  0.00     0.133 A 
ATOM     17  C   UNL     1      -5.347  -3.637   6.227  1.00  0.00     0.047 A 
ATOM     18  C   UNL     1      -4.216  -2.245   7.875  1.00  0.00     0.056 A 
ATOM     19  C   UNL     1      -6.366  -3.882   7.140  1.00  0.00     0.004 A 
ATOM     20  C   UNL     1      -6.314  -3.307   8.414  1.00  0.00     0.009 A 
BRANCH  16  21
ATOM     21  O   UNL     1      -3.338  -2.538   5.592  1.00  0.00    -0.410 OA
BRANCH  21  22
ATOM     22  C   UNL     1      -1.997  -2.806   5.820  1.00  0.00     0.412 C 
ATOM     23  N   UNL     1      -1.206  -2.579   4.724  1.00  0.00    -0.321 N 
ATOM     24  H   UNL     1      -0.241  -2.739   4.842  1.00  0.00     0.167 HD
ATOM     25  O   UNL     1      -1.513  -3.211   6.870  1.00  0.00    -0.224 OA
BRANCH  23  26
ATOM     26  C   UNL     1      -1.627  -2.130   3.410  1.00  0.00     0.119 C 
BRANCH  26  27
ATOM     27  C   UNL     1      -1.026  -0.770   3.047  1.00  0.00     0.021 C 
BRANCH  27  28
ATOM     28  C   UNL     1       0.503  -0.752   2.917  1.00  0.00     0.002 C 
BRANCH  28  29
ATOM     29  C   UNL     1       1.088  -1.657   1.826  1.00  0.00    -0.000 C 
BRANCH  29  30
ATOM     30  C   UNL     1       0.623  -1.355   0.399  1.00  0.00    -0.003 C 
ATOM     31  C   UNL     1       1.027   0.028  -0.089  1.00  0.00     0.004 C 
ENDBRANCH  29  30
ENDBRANCH  28  29
ENDBRANCH  27  28
ENDBRANCH  26  27
ENDBRANCH  23  26
ENDBRANCH  21  22
ENDBRANCH  16  21
ENDBRANCH  10  15
ENDBRANCH   7   9
ENDBRANCH   5   7
ENDBRANCH   4   5
ENDBRANCH   3   4
ENDBRANCH   2   3
ENDBRANCH   1   2
BRANCH   1  32
ATOM     32  C   UNL     1      -1.676   0.155  14.154  1.00  0.00     0.188 C 
BRANCH  32  33
ATOM     33  C   UNL     1      -2.175  -0.839  13.095  1.00  0.00     0.188 C 
BRANCH  33  34
ATOM     34  O   UNL     1      -2.215  -2.187  13.509  1.00  0.00    -0.377 OA
BRANCH  34  35
ATOM     35  C   UNL     1      -1.181  -3.028  13.025  1.00  0.00     0.188 C 
BRANCH  35  36
ATOM     36  C   UNL     1       0.240  -2.435  13.009  1.00  0.00     0.188 C 
BRANCH  36  37
ATOM     37  O   UNL     1       0.346  -1.209  12.291  1.00  0.00    -0.376 OA
BRANCH  37  38
ATOM     38  C   UNL     1       0.753  -1.255  10.929  1.00  0.00     0.202 C 
BRANCH  38  39
ATOM     39  C   UNL     1      -0.182  -1.927   9.907  1.00  0.00     0.261 C 
BRANCH  39  40
ATOM     40  O   UNL     1      -0.503  -3.306  10.134  1.00  0.00    -0.460 OA
BRANCH  40  41
ATOM     41  C   UNL     1       0.513  -4.190  10.236  1.00  0.00     0.338 C 
ATOM     42  O   UNL     1       1.696  -3.963  10.112  1.00  0.00    -0.246 OA
BRANCH  41  43
ATOM     43  C   UNL     1      -0.053  -5.455  10.764  1.00  0.00     0.060 A 
ATOM     44  C   UNL     1       0.455  -5.967  11.966  1.00  0.00     0.016 A 
ATOM     45  C   UNL     1      -1.069  -6.129  10.084  1.00  0.00     0.016 A 
ATOM     46  C   UNL     1      -0.015  -7.183  12.463  1.00  0.00     0.010 A 
ATOM     47  C   UNL     1      -1.520  -7.362  10.569  1.00  0.00     0.010 A 
ATOM     48  C   UNL     1      -0.964  -7.914  11.738  1.00  0.00    -0.014 A 
BRANCH  48  49
ATOM     49  C   UNL     1      -1.188  -9.345  12.070  1.00  0.00     0.031 A 
ATOM     50  C   UNL     1      -0.437 -10.380  11.272  1.00  0.00     0.074 A 
ATOM     51  C   UNL     1      -1.998  -9.723  13.075  1.00  0.00     0.049 A 
ATOM     52  N   UNL     1      -0.489 -11.684  11.342  1.00  0.00    -0.248 NA
ATOM     53  C   UNL     1       0.501  -9.869  10.257  1.00  0.00     0.031 C 
ATOM     54  C   UNL     1      -2.737  -8.818  13.954  1.00  0.00     0.029 A 
ATOM     55  N   UNL     1      -2.337 -10.977  13.521  1.00  0.00    -0.354 N 
ATOM     56  C   UNL     1       0.400 -12.149  10.378  1.00  0.00     0.074 A 
ATOM     57  C   UNL     1       0.953 -10.989   9.715  1.00  0.00     0.031 C 
ATOM     58  C   UNL     1      -3.455  -9.549  14.826  1.00  0.00     0.029 A 
ATOM     59  C   UNL     1      -3.254 -10.970  14.546  1.00  0.00     0.049 A 
ATOM     60  H   UNL     1      -1.960 -11.803  13.142  1.00  0.00     0.167 HD
ATOM     61  C   UNL     1       0.732 -13.426  10.078  1.00  0.00     0.037 A 
ATOM     62  C   UNL     1      -3.875 -11.994  15.168  1.00  0.00     0.037 A 
ATOM     63  C   UNL     1       0.177 -14.578  10.740  1.00  0.00     0.049 A 
ATOM     64  C   UNL     1      -3.548 -13.412  14.761  1.00  0.00     0.074 A 
ATOM     65  C   UNL     1       0.454 -15.914  10.515  1.00  0.00     0.029 A 
ATOM     66  N   UNL     1      -0.773 -14.530  11.750  1.00  0.00    -0.354 N 
ATOM     67  N   UNL     1      -2.695 -13.839  13.860  1.00  0.00    -0.248 NA
ATOM     68  C   UNL     1      -4.266 -14.488  15.460  1.00  0.00     0.031 C 
ATOM     69  C   UNL     1      -0.371 -16.677  11.348  1.00  0.00     0.029 A 
ATOM     70  C   UNL     1      -1.113 -15.815  12.140  1.00  0.00     0.049 A 
ATOM     71  H   UNL     1      -1.150 -13.705  12.132  1.00  0.00     0.167 HD
ATOM     72  C   UNL     1      -2.749 -15.230  13.909  1.00  0.00     0.074 A 
ATOM     73  C   UNL     1      -3.711 -15.572  14.936  1.00  0.00     0.031 C 
ATOM     74  C   UNL     1      -2.064 -16.141  13.174  1.00  0.00     0.037 A 
BRANCH  61  75
ATOM     75  C   UNL     1       1.720 -13.648   8.966  1.00  0.00     0.058 A 
ATOM     76  C   UNL     1       3.079 -13.322   9.104  1.00  0.00     0.135 A 
ATOM     77  C   UNL     1       1.307 -14.227   7.755  1.00  0.00     0.135 A 
ATOM     78  F   UNL     1       3.526 -12.745  10.231  1.00  0.00    -0.206 F 
ATOM     79  C   UNL     1       3.988 -13.542   8.073  1.00  0.00     0.059 A 
ATOM     80  C   UNL     1       2.204 -14.485   6.723  1.00  0.00     0.059 A 
ATOM     81  F   UNL     1       0.018 -14.553   7.567  1.00  0.00    -0.206 F 
ATOM     82  C   UNL     1       3.541 -14.128   6.888  1.00  0.00     0.060 A 
BRANCH  82  83
ATOM     83  S   UNL     1       4.737 -14.422   5.568  1.00  0.00     0.124 S 
ATOM     84  O   UNL     1       5.013 -13.062   5.115  1.00  0.00    -0.237 OA
ATOM     85  O   UNL     1       5.825 -15.086   6.277  1.00  0.00    -0.237 OA
ATOM     86  O   UNL     1       4.003 -15.259   4.623  1.00  0.00    -0.744 OA
ENDBRANCH  82  83
ENDBRANCH  61  75
BRANCH  62  87
ATOM     87  C   UNL     1      -4.885 -11.727  16.229  1.00  0.00     0.058 A 
ATOM     88  C   UNL     1      -4.654 -12.092  17.564  1.00  0.00     0.135 A 
ATOM     89  C   UNL     1      -6.115 -11.122  15.925  1.00  0.00     0.135 A 
ATOM     90  F   UNL     1      -3.501 -12.687  17.907  1.00  0.00    -0.206 F 
ATOM     91  C   UNL     1      -5.611 -11.886  18.554  1.00  0.00     0.059 A 
ATOM     92  C   UNL     1      -7.075 -10.878  16.902  1.00  0.00     0.059 A 
ATOM     93  F   UNL     1      -6.388 -10.748  14.665  1.00  0.00    -0.206 F 
ATOM     94  C   UNL     1      -6.818 -11.275  18.213  1.00  0.00     0.060 A 
BRANCH  94  95
ATOM     95  S   UNL     1      -8.037 -10.979  19.512  1.00  0.00     0.124 S 
ATOM     96  O   UNL     1      -8.504 -12.331  19.793  1.00  0.00    -0.237 OA
ATOM     97  O   UNL     1      -7.227 -10.353  20.553  1.00  0.00    -0.237 OA
ATOM     98  O   UNL     1      -9.007 -10.097  18.869  1.00  0.00    -0.744 OA
ENDBRANCH  94  95
ENDBRANCH  62  87
BRANCH  74  99
ATOM     99  C   UNL     1      -2.285 -17.599  13.482  1.00  0.00     0.058 A 
ATOM    100  C   UNL     1      -3.483 -18.255  13.160  1.00  0.00     0.135 A 
ATOM    101  C   UNL     1      -1.255 -18.365  14.056  1.00  0.00     0.135 A 
ATOM    102  F   UNL     1      -4.501 -17.573  12.612  1.00  0.00    -0.206 F 
ATOM    103  C   UNL     1      -3.664 -19.610  13.422  1.00  0.00     0.059 A 
ATOM    104  C   UNL     1      -1.402 -19.728  14.297  1.00  0.00     0.059 A 
ATOM    105  F   UNL     1      -0.082 -17.793  14.372  1.00  0.00    -0.206 F 
ATOM    106  C   UNL     1      -2.616 -20.339  13.989  1.00  0.00     0.060 A 
BRANCH 106 107
ATOM    107  S   UNL     1      -2.854 -22.102  14.295  1.00  0.00     0.124 S 
ATOM    108  O   UNL     1      -3.775 -22.083  15.426  1.00  0.00    -0.237 OA
ATOM    109  O   UNL     1      -3.414 -22.566  13.029  1.00  0.00    -0.237 OA
ATOM    110  O   UNL     1      -1.508 -22.582  14.591  1.00  0.00    -0.744 OA
ENDBRANCH 106 107
ENDBRANCH  74  99
ENDBRANCH  48  49
ENDBRANCH  41  43
ENDBRANCH  40  41
ENDBRANCH  39  40
ENDBRANCH  38  39
ENDBRANCH  37  38
ENDBRANCH  36  37
ENDBRANCH  35  36
ENDBRANCH  34  35
ENDBRANCH  33  34
ENDBRANCH  32  33
ENDBRANCH   1  32
TORSDOF 32
