REMARK SMILES Cc1coc2cc3c(cc12)[C@@H](C)[C@H](CCC(=O)N[C@@H](Cc1c[nH]c2ccccc12)C(=O)OCCOCCOCCOCCOC(=O)c1ccc(-c2c4nc(c(-c5c(F)cc(S(=O)(=O)[O-])cc5F)c5ccc([nH]5)c(-c5c(F)cc(S(=O)(=O)[O-])cc5F)c5nc(c(-c6c(F)cc(S(=O)(=O)[O-])cc6F)c6ccc2[nH]6)C=C5)C=C4)cc1)C(=O)O3
REMARK SMILES IDX 37 1 36 2 35 3 34 4 33 5 32 6 30 7 31 8 19 9 18 10 16 11
REMARK SMILES IDX 17 12 15 14 14 15 13 16 1 17 2 18 3 19 10 20 4 21 5 22 9 23
REMARK SMILES IDX 6 24 8 25 7 26 11 27 115 28 12 29 113 30 114 31 20 32 21 33
REMARK SMILES IDX 22 34 29 35 23 36 24 37 28 38 25 40 27 41 26 42 38 43 39 44
REMARK SMILES IDX 40 45 41 46 42 47 43 48 44 49 45 50 46 51 47 52 48 53 112 54
REMARK SMILES IDX 49 55 111 56 50 57 51 58 52 59 105 60 53 61 110 62 104 63
REMARK SMILES IDX 106 64 54 65 109 66 103 67 102 68 55 70 89 71 68 72 88 73
REMARK SMILES IDX 69 74 72 75 87 76 107 77 70 78 71 79 86 81 108 82 73 83
REMARK SMILES IDX 56 84 57 85 66 86 58 87 59 88 65 89 67 90 60 91 61 92 62 93
REMARK SMILES IDX 63 94 64 95 90 96 91 97 100 98 92 99 93 100 99 101 101 102
REMARK SMILES IDX 94 103 95 104 96 105 97 106 98 107 74 108 75 109 84 110
REMARK SMILES IDX 76 111 77 112 83 113 85 114 78 115 79 116 80 117 81 118
REMARK SMILES IDX 82 119
REMARK H PARENT 18 13 23 39 106 69 72 80
REMARK Flexibility Score: inf
ROOT
ATOM      1  C   UNL     1      -0.512  -4.375   7.053  1.00  0.00     0.188 C 
ENDROOT
BRANCH   1   2
ATOM      2  C   UNL     1       0.360  -5.596   7.330  1.00  0.00     0.188 C 
BRANCH   2   3
ATOM      3  O   UNL     1       1.457  -5.428   8.215  1.00  0.00    -0.376 OA
BRANCH   3   4
ATOM      4  C   UNL     1       2.512  -4.555   7.815  1.00  0.00     0.202 C 
BRANCH   4   5
ATOM      5  C   UNL     1       3.214  -4.669   6.446  1.00  0.00     0.261 C 
BRANCH   5   6
ATOM      6  O   UNL     1       2.406  -4.456   5.269  1.00  0.00    -0.462 OA
BRANCH   6   7
ATOM      7  C   UNL     1       2.186  -5.549   4.495  1.00  0.00     0.329 C 
ATOM      8  O   UNL     1       2.415  -6.708   4.840  1.00  0.00    -0.250 OA
BRANCH   7   9
ATOM      9  C   UNL     1       1.536  -5.230   2.995  1.00  0.00     0.196 C 
BRANCH   9  10
ATOM     10  N   UNL     1      -0.431  -5.071   2.427  1.00  0.00    -0.342 N 
ATOM     11  C   UNL     1      -1.731  -5.505   2.117  1.00  0.00     0.220 C 
ATOM     12  O   UNL     1      -2.573  -4.627   1.907  1.00  0.00    -0.275 OA
ATOM     13  H   UNL     1      -0.513  -4.100   2.288  1.00  0.00     0.164 HD
BRANCH  11  14
ATOM     14  C   UNL     1      -2.138  -6.942   2.134  1.00  0.00     0.101 C 
BRANCH  14  15
ATOM     15  C   UNL     1      -0.949  -7.712   1.663  1.00  0.00     0.026 C 
BRANCH  15  16
ATOM     16  C   UNL     1       0.262  -6.937   2.171  1.00  0.00     0.107 C 
ATOM     17  C   UNL     1       1.158   0.307  -0.865  1.00  0.00     0.048 C 
ATOM     18  C   UNL     1       0.631  -0.051   0.471  1.00  0.00    -0.005 A 
ATOM     19  C   UNL     1       0.137   0.828   1.410  1.00  0.00     0.199 A 
ATOM     20  C   UNL     1       0.579  -1.362   1.066  1.00  0.00     0.024 A 
ATOM     21  O   UNL     1      -0.148   0.194   2.565  1.00  0.00    -0.464 OA
ATOM     22  C   UNL     1       0.171  -1.125   2.405  1.00  0.00     0.137 A 
ATOM     23  C   UNL     1       0.860  -2.671   0.529  1.00  0.00     0.020 A 
ATOM     24  C   UNL     1       0.074  -2.017   3.480  1.00  0.00     0.095 A 
ATOM     25  C   UNL     1       0.808  -3.705   1.438  1.00  0.00    -0.001 A 
ATOM     26  C   UNL     1       0.504  -3.247   3.065  1.00  0.00     0.138 A 
ATOM     27  C   UNL     1       0.724  -5.531   0.854  1.00  0.00     0.034 C 
ATOM     28  O   UNL     1      -0.004  -4.568   4.186  1.00  0.00    -0.426 OA
ATOM     29  C   UNL     1       1.816  -6.062  -0.082  1.00  0.00     0.014 C 
ATOM     30  C   UNL     1      -0.169  -6.329   3.987  1.00  0.00     0.314 C 
ATOM     31  O   UNL     1      -0.673  -7.004   4.874  1.00  0.00    -0.251 OA
ENDBRANCH  15  16
ENDBRANCH  14  15
ENDBRANCH  11  14
ENDBRANCH   9  10
BRANCH   9  32
ATOM     32  C   UNL     1       2.986  -4.514   2.376  1.00  0.00     0.074 C 
BRANCH  32  33
ATOM     33  C   UNL     1       3.588  -3.138   2.575  1.00  0.00    -0.020 A 
ATOM     34  C   UNL     1       3.313  -2.062   3.392  1.00  0.00     0.087 A 
ATOM     35  C   UNL     1       4.787  -2.757   1.855  1.00  0.00     0.003 A 
ATOM     36  N   UNL     1       4.107  -1.004   3.015  1.00  0.00    -0.361 N 
ATOM     37  C   UNL     1       5.042  -1.413   2.098  1.00  0.00     0.046 A 
ATOM     38  C   UNL     1       5.684  -3.464   1.026  1.00  0.00     0.010 A 
ATOM     39  H   UNL     1       4.018  -0.085   3.356  1.00  0.00     0.166 HD
ATOM     40  C   UNL     1       6.106  -0.722   1.504  1.00  0.00     0.026 A 
ATOM     41  C   UNL     1       6.804  -2.817   0.499  1.00  0.00     0.001 A 
ATOM     42  C   UNL     1       7.002  -1.459   0.721  1.00  0.00     0.002 A 
ENDBRANCH  32  33
ENDBRANCH   9  32
ENDBRANCH   7   9
ENDBRANCH   6   7
ENDBRANCH   5   6
ENDBRANCH   4   5
ENDBRANCH   3   4
ENDBRANCH   2   3
ENDBRANCH   1   2
BRANCH   1  43
ATOM     43  O   UNL     1       0.260  -3.273   6.620  1.00  0.00    -0.377 OA
BRANCH  43  44
ATOM     44  C   UNL     1       0.251  -2.069   7.368  1.00  0.00     0.188 C 
BRANCH  44  45
ATOM     45  C   UNL     1      -0.303  -2.081   8.796  1.00  0.00     0.188 C 
BRANCH  45  46
ATOM     46  O   UNL     1      -1.681  -2.432   8.855  1.00  0.00    -0.376 OA
BRANCH  46  47
ATOM     47  C   UNL     1      -2.675  -1.426   8.744  1.00  0.00     0.202 C 
BRANCH  47  48
ATOM     48  C   UNL     1      -2.735  -0.595   7.453  1.00  0.00     0.261 C 
BRANCH  48  49
ATOM     49  O   UNL     1      -1.610   0.273   7.239  1.00  0.00    -0.460 OA
BRANCH  49  50
ATOM     50  C   UNL     1      -1.330   1.237   8.144  1.00  0.00     0.338 C 
ATOM     51  O   UNL     1      -2.084   1.694   8.982  1.00  0.00    -0.246 OA
BRANCH  50  52
ATOM     52  C   UNL     1       0.154   1.330   8.154  1.00  0.00     0.060 A 
ATOM     53  C   UNL     1       0.895   1.222   6.969  1.00  0.00     0.016 A 
ATOM     54  C   UNL     1       0.781   1.187   9.400  1.00  0.00     0.016 A 
ATOM     55  C   UNL     1       2.234   0.847   7.037  1.00  0.00     0.010 A 
ATOM     56  C   UNL     1       2.111   0.774   9.461  1.00  0.00     0.010 A 
ATOM     57  C   UNL     1       2.828   0.564   8.280  1.00  0.00    -0.014 A 
BRANCH  57  58
ATOM     58  C   UNL     1       4.266   0.261   8.301  1.00  0.00     0.031 A 
ATOM     59  C   UNL     1       5.096   1.446   7.974  1.00  0.00     0.074 A 
ATOM     60  C   UNL     1       4.853  -0.875   8.737  1.00  0.00     0.049 A 
ATOM     61  N   UNL     1       5.923   1.617   6.995  1.00  0.00    -0.248 NA
ATOM     62  C   UNL     1       4.868   2.645   8.800  1.00  0.00     0.031 C 
ATOM     63  C   UNL     1       4.190  -1.984   9.419  1.00  0.00     0.029 A 
ATOM     64  N   UNL     1       6.178  -1.245   8.757  1.00  0.00    -0.354 N 
ATOM     65  C   UNL     1       6.489   2.865   7.228  1.00  0.00     0.074 A 
ATOM     66  C   UNL     1       5.681   3.524   8.221  1.00  0.00     0.031 C 
ATOM     67  C   UNL     1       5.119  -2.828   9.916  1.00  0.00     0.029 A 
ATOM     68  C   UNL     1       6.447  -2.361   9.550  1.00  0.00     0.049 A 
ATOM     69  H   UNL     1       6.875  -0.765   8.255  1.00  0.00     0.167 HD
ATOM     70  C   UNL     1       7.748   3.175   6.825  1.00  0.00     0.037 A 
ATOM     71  C   UNL     1       7.654  -2.841   9.950  1.00  0.00     0.037 A 
ATOM     72  C   UNL     1       8.245   2.293   5.810  1.00  0.00     0.049 A 
ATOM     73  C   UNL     1       8.701  -2.283   9.063  1.00  0.00     0.074 A 
ATOM     74  C   UNL     1       7.913   2.011   4.502  1.00  0.00     0.029 A 
ATOM     75  N   UNL     1       9.066   1.283   6.239  1.00  0.00    -0.354 N 
ATOM     76  N   UNL     1       8.858  -2.611   7.813  1.00  0.00    -0.248 NA
ATOM     77  C   UNL     1       9.456  -1.114   9.497  1.00  0.00     0.031 C 
ATOM     78  C   UNL     1       8.330   0.669   4.268  1.00  0.00     0.029 A 
ATOM     79  C   UNL     1       8.892   0.177   5.443  1.00  0.00     0.049 A 
ATOM     80  H   UNL     1       9.686   1.341   7.001  1.00  0.00     0.167 HD
ATOM     81  C   UNL     1       9.379  -1.479   7.218  1.00  0.00     0.074 A 
ATOM     82  C   UNL     1       9.879  -0.665   8.313  1.00  0.00     0.031 C 
ATOM     83  C   UNL     1       9.072  -1.174   5.926  1.00  0.00     0.037 A 
BRANCH  70  84
ATOM     84  C   UNL     1       8.639   4.043   7.673  1.00  0.00     0.058 A 
ATOM     85  C   UNL     1       9.712   4.745   7.107  1.00  0.00     0.135 A 
ATOM     86  C   UNL     1       8.583   4.026   9.088  1.00  0.00     0.135 A 
ATOM     87  F   UNL     1       9.888   4.760   5.777  1.00  0.00    -0.206 F 
ATOM     88  C   UNL     1      10.655   5.410   7.896  1.00  0.00     0.059 A 
ATOM     89  C   UNL     1       9.470   4.729   9.889  1.00  0.00     0.059 A 
ATOM     90  F   UNL     1       7.703   3.256   9.746  1.00  0.00    -0.206 F 
ATOM     91  C   UNL     1      10.519   5.401   9.284  1.00  0.00     0.060 A 
BRANCH  91  92
ATOM     92  S   UNL     1      11.748   6.232  10.307  1.00  0.00     0.124 S 
ATOM     93  O   UNL     1      12.883   5.325  10.190  1.00  0.00    -0.237 OA
ATOM     94  O   UNL     1      11.884   7.520   9.633  1.00  0.00    -0.237 OA
ATOM     95  O   UNL     1      11.110   6.285  11.619  1.00  0.00    -0.744 OA
ENDBRANCH  91  92
ENDBRANCH  70  84
BRANCH  71  96
ATOM     96  C   UNL     1       8.015  -3.600  11.184  1.00  0.00     0.058 A 
ATOM     97  C   UNL     1       9.271  -4.227  11.323  1.00  0.00     0.135 A 
ATOM     98  C   UNL     1       7.251  -3.495  12.363  1.00  0.00     0.135 A 
ATOM     99  F   UNL     1      10.083  -4.364  10.264  1.00  0.00    -0.206 F 
ATOM    100  C   UNL     1       9.763  -4.656  12.563  1.00  0.00     0.059 A 
ATOM    101  C   UNL     1       7.709  -3.936  13.602  1.00  0.00     0.059 A 
ATOM    102  F   UNL     1       6.070  -2.861  12.371  1.00  0.00    -0.206 F 
ATOM    103  C   UNL     1       8.982  -4.479  13.703  1.00  0.00     0.060 A 
BRANCH 103 104
ATOM    104  S   UNL     1       9.691  -4.811  15.333  1.00  0.00     0.124 S 
ATOM    105  O   UNL     1       9.828  -6.262  15.318  1.00  0.00    -0.237 OA
ATOM    106  O   UNL     1      10.936  -4.050  15.284  1.00  0.00    -0.237 OA
ATOM    107  O   UNL     1       8.684  -4.288  16.253  1.00  0.00    -0.744 OA
ENDBRANCH 103 104
ENDBRANCH  71  96
BRANCH  83 108
ATOM    108  C   UNL     1       8.729  -2.336   5.033  1.00  0.00     0.058 A 
ATOM    109  C   UNL     1       7.609  -3.172   5.189  1.00  0.00     0.135 A 
ATOM    110  C   UNL     1       9.613  -2.635   3.986  1.00  0.00     0.135 A 
ATOM    111  F   UNL     1       6.670  -2.898   6.109  1.00  0.00    -0.206 F 
ATOM    112  C   UNL     1       7.432  -4.312   4.401  1.00  0.00     0.059 A 
ATOM    113  C   UNL     1       9.441  -3.750   3.171  1.00  0.00     0.059 A 
ATOM    114  F   UNL     1      10.669  -1.839   3.747  1.00  0.00    -0.206 F 
ATOM    115  C   UNL     1       8.368  -4.607   3.410  1.00  0.00     0.060 A 
BRANCH 115 116
ATOM    116  S   UNL     1       8.183  -6.089   2.391  1.00  0.00     0.124 S 
ATOM    117  O   UNL     1       8.934  -7.079   3.154  1.00  0.00    -0.237 OA
ATOM    118  O   UNL     1       6.737  -6.299   2.341  1.00  0.00    -0.237 OA
ATOM    119  O   UNL     1       8.783  -5.694   1.117  1.00  0.00    -0.744 OA
ENDBRANCH 115 116
ENDBRANCH  83 108
ENDBRANCH  57  58
ENDBRANCH  50  52
ENDBRANCH  49  50
ENDBRANCH  48  49
ENDBRANCH  47  48
ENDBRANCH  46  47
ENDBRANCH  45  46
ENDBRANCH  44  45
ENDBRANCH  43  44
ENDBRANCH   1  43
TORSDOF 29
