REMARK SMILES CC(C)[C@H](C)n1c(SCC(=O)OCCOCCOCCOCCOC(=O)c2ccc(-c3c4nc(c(-c5c(F)cc(S(=O)(=O)[O-])cc5F)c5ccc([nH]5)c(-c5c(F)cc(S(=O)(=O)[O-])cc5F)c5nc(c(-c6c(F)cc(S(=O)(=O)[O-])cc6F)c6ccc3[nH]6)C=C5)C=C4)cc2)nc2cc(Br)cnc21
REMARK SMILES IDX 17 1 16 2 15 3 14 4 13 5 12 6 10 7 11 8 9 9 8 10 7 11 6 12
REMARK SMILES IDX 100 13 93 14 94 15 99 16 95 17 98 18 96 19 97 20 4 21 5 22
REMARK SMILES IDX 2 23 1 24 3 25 18 26 19 27 20 28 21 29 22 30 23 31 24 32
REMARK SMILES IDX 25 33 26 34 27 35 28 36 92 37 29 38 91 39 30 40 31 41 32 42
REMARK SMILES IDX 85 43 33 44 90 45 84 46 86 47 34 48 89 49 83 50 82 51 35 53
REMARK SMILES IDX 69 54 48 55 68 56 49 57 52 58 67 59 87 60 50 61 51 62 66 64
REMARK SMILES IDX 88 65 53 66 36 67 37 68 46 69 38 70 39 71 45 72 47 73 40 74
REMARK SMILES IDX 41 75 42 76 43 77 44 78 70 79 71 80 80 81 72 82 73 83 79 84
REMARK SMILES IDX 81 85 74 86 75 87 76 88 77 89 78 90 54 91 55 92 64 93 56 94
REMARK SMILES IDX 57 95 63 96 65 97 58 98 59 99 60 100 61 101 62 102
REMARK H PARENT 86 52 52 63
REMARK Flexibility Score: inf
ROOT
ATOM      1  C   UNL     1       1.340  -1.461  -4.139  1.00  0.00     0.188 C 
ENDROOT
BRANCH   1   2
ATOM      2  C   UNL     1       1.808  -2.335  -2.975  1.00  0.00     0.188 C 
BRANCH   2   3
ATOM      3  O   UNL     1       2.205  -1.530  -1.862  1.00  0.00    -0.376 OA
BRANCH   3   4
ATOM      4  C   UNL     1       3.183  -2.146  -1.037  1.00  0.00     0.202 C 
BRANCH   4   5
ATOM      5  C   UNL     1       2.602  -3.049   0.056  1.00  0.00     0.261 C 
BRANCH   5   6
ATOM      6  O   UNL     1       1.195  -3.294  -0.100  1.00  0.00    -0.463 OA
BRANCH   6   7
ATOM      7  C   UNL     1       0.358  -2.511   0.636  1.00  0.00     0.316 C 
ATOM      8  O   UNL     1       0.726  -1.726   1.504  1.00  0.00    -0.251 OA
BRANCH   7   9
ATOM      9  C   UNL     1      -1.107  -2.793   0.373  1.00  0.00     0.200 C 
BRANCH   9  10
ATOM     10  S   UNL     1      -1.503  -3.067  -1.340  1.00  0.00    -0.076 SA
BRANCH  10  11
ATOM     11  C   UNL     1      -2.203  -1.727  -2.186  1.00  0.00     0.171 A 
ATOM     12  N   UNL     1      -2.267  -0.356  -1.940  1.00  0.00    -0.301 N 
ATOM     13  C   UNL     1      -2.956   0.186  -3.016  1.00  0.00     0.161 A 
ATOM     14  N   UNL     1      -2.714  -2.026  -3.366  1.00  0.00    -0.221 NA
ATOM     15  C   UNL     1      -3.170  -0.865  -3.896  1.00  0.00     0.110 A 
ATOM     16  N   UNL     1      -3.325   1.466  -3.218  1.00  0.00    -0.235 NA
ATOM     17  C   UNL     1      -3.775  -0.611  -5.133  1.00  0.00     0.049 A 
ATOM     18  C   UNL     1      -3.918   1.675  -4.424  1.00  0.00     0.129 A 
ATOM     19  C   UNL     1      -4.143   0.704  -5.393  1.00  0.00     0.038 A 
ATOM     20  Br  UNL     1      -4.890   1.172  -7.060  1.00  0.00    -0.049 Br
BRANCH  12  21
ATOM     21  C   UNL     1      -1.666   0.408  -0.838  1.00  0.00     0.091 C 
ATOM     22  C   UNL     1      -0.144   0.485  -0.973  1.00  0.00     0.032 C 
BRANCH  21  23
ATOM     23  C   UNL     1      -2.313   1.778  -0.422  1.00  0.00     0.006 C 
ATOM     24  C   UNL     1      -2.083   2.014   1.081  1.00  0.00     0.009 C 
ATOM     25  C   UNL     1      -1.812   3.042  -1.145  1.00  0.00     0.009 C 
ENDBRANCH  21  23
ENDBRANCH  12  21
ENDBRANCH  10  11
ENDBRANCH   9  10
ENDBRANCH   7   9
ENDBRANCH   6   7
ENDBRANCH   5   6
ENDBRANCH   4   5
ENDBRANCH   3   4
ENDBRANCH   2   3
ENDBRANCH   1   2
BRANCH   1  26
ATOM     26  O   UNL     1       2.364  -0.629  -4.692  1.00  0.00    -0.377 OA
BRANCH  26  27
ATOM     27  C   UNL     1       2.806   0.447  -3.855  1.00  0.00     0.188 C 
BRANCH  27  28
ATOM     28  C   UNL     1       2.741   1.789  -4.592  1.00  0.00     0.188 C 
BRANCH  28  29
ATOM     29  O   UNL     1       1.650   2.658  -4.265  1.00  0.00    -0.376 OA
BRANCH  29  30
ATOM     30  C   UNL     1       0.329   2.138  -4.183  1.00  0.00     0.202 C 
BRANCH  30  31
ATOM     31  C   UNL     1      -0.410   1.872  -5.480  1.00  0.00     0.261 C 
BRANCH  31  32
ATOM     32  O   UNL     1       0.129   0.748  -6.148  1.00  0.00    -0.460 OA
BRANCH  32  33
ATOM     33  C   UNL     1       0.989   1.101  -7.122  1.00  0.00     0.338 C 
ATOM     34  O   UNL     1       1.362   2.228  -7.397  1.00  0.00    -0.246 OA
BRANCH  33  35
ATOM     35  C   UNL     1       1.332  -0.076  -7.919  1.00  0.00     0.060 A 
ATOM     36  C   UNL     1       2.221   0.182  -8.955  1.00  0.00     0.016 A 
ATOM     37  C   UNL     1       0.556  -1.247  -7.860  1.00  0.00     0.016 A 
ATOM     38  C   UNL     1       2.115  -0.591 -10.076  1.00  0.00     0.010 A 
ATOM     39  C   UNL     1       0.481  -2.049  -8.979  1.00  0.00     0.010 A 
ATOM     40  C   UNL     1       1.176  -1.636 -10.106  1.00  0.00    -0.014 A 
BRANCH  40  41
ATOM     41  C   UNL     1       0.963  -2.212 -11.413  1.00  0.00     0.031 A 
ATOM     42  C   UNL     1       2.175  -2.816 -11.989  1.00  0.00     0.074 A 
ATOM     43  C   UNL     1      -0.172  -2.066 -12.113  1.00  0.00     0.049 A 
ATOM     44  N   UNL     1       2.950  -2.306 -12.886  1.00  0.00    -0.248 NA
ATOM     45  C   UNL     1       2.681  -4.032 -11.347  1.00  0.00     0.031 C 
ATOM     46  C   UNL     1      -1.514  -1.707 -11.656  1.00  0.00     0.029 A 
ATOM     47  N   UNL     1      -0.337  -2.281 -13.444  1.00  0.00    -0.354 N 
ATOM     48  C   UNL     1       3.962  -3.234 -13.064  1.00  0.00     0.074 A 
ATOM     49  C   UNL     1       3.833  -4.195 -11.996  1.00  0.00     0.031 C 
ATOM     50  C   UNL     1      -2.393  -1.941 -12.659  1.00  0.00     0.029 A 
ATOM     51  C   UNL     1      -1.654  -2.318 -13.855  1.00  0.00     0.049 A 
ATOM     52  H   UNL     1       0.420  -2.401 -14.063  1.00  0.00     0.167 HD
ATOM     53  C   UNL     1       4.699  -3.266 -14.203  1.00  0.00     0.037 A 
ATOM     54  C   UNL     1      -2.080  -2.733 -15.070  1.00  0.00     0.037 A 
ATOM     55  C   UNL     1       4.646  -2.020 -14.923  1.00  0.00     0.049 A 
ATOM     56  C   UNL     1      -0.946  -2.565 -16.023  1.00  0.00     0.074 A 
ATOM     57  C   UNL     1       5.001  -0.717 -14.627  1.00  0.00     0.029 A 
ATOM     58  N   UNL     1       3.841  -1.941 -16.035  1.00  0.00    -0.354 N 
ATOM     59  N   UNL     1      -0.473  -1.409 -16.404  1.00  0.00    -0.248 NA
ATOM     60  C   UNL     1      -0.058  -3.698 -16.249  1.00  0.00     0.031 C 
ATOM     61  C   UNL     1       4.034   0.099 -15.286  1.00  0.00     0.029 A 
ATOM     62  C   UNL     1       3.156  -0.752 -15.957  1.00  0.00     0.049 A 
ATOM     63  H   UNL     1       3.769  -2.611 -16.753  1.00  0.00     0.167 HD
ATOM     64  C   UNL     1       0.895  -1.603 -16.539  1.00  0.00     0.074 A 
ATOM     65  C   UNL     1       1.074  -3.050 -16.531  1.00  0.00     0.031 C 
ATOM     66  C   UNL     1       1.782  -0.576 -16.380  1.00  0.00     0.037 A 
BRANCH  53  67
ATOM     67  C   UNL     1       5.164  -4.558 -14.812  1.00  0.00     0.058 A 
ATOM     68  C   UNL     1       6.115  -4.541 -15.847  1.00  0.00     0.135 A 
ATOM     69  C   UNL     1       4.499  -5.789 -14.602  1.00  0.00     0.135 A 
ATOM     70  F   UNL     1       6.790  -3.417 -16.136  1.00  0.00    -0.206 F 
ATOM     71  C   UNL     1       6.337  -5.649 -16.663  1.00  0.00     0.059 A 
ATOM     72  C   UNL     1       4.748  -6.920 -15.362  1.00  0.00     0.059 A 
ATOM     73  F   UNL     1       3.497  -5.922 -13.723  1.00  0.00    -0.206 F 
ATOM     74  C   UNL     1       5.630  -6.826 -16.424  1.00  0.00     0.060 A 
BRANCH  74  75
ATOM     75  S   UNL     1       5.784  -8.205 -17.569  1.00  0.00     0.124 S 
ATOM     76  O   UNL     1       5.080  -7.686 -18.736  1.00  0.00    -0.237 OA
ATOM     77  O   UNL     1       7.232  -8.333 -17.697  1.00  0.00    -0.237 OA
ATOM     78  O   UNL     1       5.123  -9.300 -16.866  1.00  0.00    -0.744 OA
ENDBRANCH  74  75
ENDBRANCH  53  67
BRANCH  54  79
ATOM     79  C   UNL     1      -3.232  -3.633 -15.332  1.00  0.00     0.058 A 
ATOM     80  C   UNL     1      -3.679  -3.863 -16.643  1.00  0.00     0.135 A 
ATOM     81  C   UNL     1      -3.737  -4.498 -14.338  1.00  0.00     0.135 A 
ATOM     82  F   UNL     1      -3.229  -3.103 -17.653  1.00  0.00    -0.206 F 
ATOM     83  C   UNL     1      -4.536  -4.921 -16.960  1.00  0.00     0.059 A 
ATOM     84  C   UNL     1      -4.604  -5.547 -14.627  1.00  0.00     0.059 A 
ATOM     85  F   UNL     1      -3.331  -4.412 -13.063  1.00  0.00    -0.206 F 
ATOM     86  C   UNL     1      -4.977  -5.771 -15.945  1.00  0.00     0.060 A 
BRANCH  86  87
ATOM     87  S   UNL     1      -5.940  -7.237 -16.373  1.00  0.00     0.124 S 
ATOM     88  O   UNL     1      -7.189  -6.650 -16.844  1.00  0.00    -0.237 OA
ATOM     89  O   UNL     1      -5.105  -7.866 -17.390  1.00  0.00    -0.237 OA
ATOM     90  O   UNL     1      -6.031  -7.965 -15.109  1.00  0.00    -0.744 OA
ENDBRANCH  86  87
ENDBRANCH  54  79
BRANCH  66  91
ATOM     91  C   UNL     1       1.244   0.832 -16.382  1.00  0.00     0.058 A 
ATOM     92  C   UNL     1       0.374   1.342 -15.402  1.00  0.00     0.135 A 
ATOM     93  C   UNL     1       1.738   1.737 -17.334  1.00  0.00     0.135 A 
ATOM     94  F   UNL     1      -0.058   0.567 -14.396  1.00  0.00    -0.206 F 
ATOM     95  C   UNL     1      -0.022   2.681 -15.397  1.00  0.00     0.059 A 
ATOM     96  C   UNL     1       1.378   3.083 -17.332  1.00  0.00     0.059 A 
ATOM     97  F   UNL     1       2.622   1.326 -18.259  1.00  0.00    -0.206 F 
ATOM     98  C   UNL     1       0.486   3.546 -16.367  1.00  0.00     0.060 A 
BRANCH  98  99
ATOM     99  S   UNL     1       0.030   5.294 -16.312  1.00  0.00     0.124 S 
ATOM    100  O   UNL     1      -1.363   5.263 -16.745  1.00  0.00    -0.237 OA
ATOM    101  O   UNL     1       0.251   5.638 -14.910  1.00  0.00    -0.237 OA
ATOM    102  O   UNL     1       0.960   5.920 -17.250  1.00  0.00    -0.744 OA
ENDBRANCH  98  99
ENDBRANCH  66  91
ENDBRANCH  40  41
ENDBRANCH  33  35
ENDBRANCH  32  33
ENDBRANCH  31  32
ENDBRANCH  30  31
ENDBRANCH  29  30
ENDBRANCH  28  29
ENDBRANCH  27  28
ENDBRANCH  26  27
ENDBRANCH   1  26
TORSDOF 27
