REMARK SMILES CC1=C[C@@H]([C@@H]2N=N[C@H](S)N2/N=C/c2ccc(C(=O)OCCOCCOCCOCCOC(=O)c3ccc(-c4c5nc(c(-c6c(F)cc(S(=O)(=O)[O-])cc6F)c6ccc([nH]6)c(-c6c(F)cc(S(=O)(=O)[O-])cc6F)c6nc(c(-c7c(F)cc(S(=O)(=O)[O-])cc7F)c7ccc4[nH]7)C=C6)C=C5)cc3)cc2)N=N1
REMARK SMILES IDX 25 1 24 2 23 3 22 4 21 5 20 6 19 7 17 8 18 9 16 10 13 11
REMARK SMILES IDX 14 12 101 13 15 14 100 15 12 16 11 17 10 18 5 19 6 20 7 21
REMARK SMILES IDX 8 22 4 23 1 24 2 25 3 26 103 27 102 28 9 29 26 31 27 32
REMARK SMILES IDX 28 33 29 34 30 35 31 36 32 37 33 38 34 39 35 40 99 41 36 42
REMARK SMILES IDX 98 43 37 44 38 45 39 46 92 47 40 48 97 49 91 50 93 51 41 52
REMARK SMILES IDX 96 53 90 54 89 55 42 57 76 58 55 59 75 60 56 61 59 62 74 63
REMARK SMILES IDX 94 64 57 65 58 66 73 68 95 69 60 70 43 71 44 72 53 73 45 74
REMARK SMILES IDX 46 75 52 76 54 77 47 78 48 79 49 80 50 81 51 82 77 83 78 84
REMARK SMILES IDX 87 85 79 86 80 87 86 88 88 89 81 90 82 91 83 92 84 93 85 94
REMARK SMILES IDX 61 95 62 96 71 97 63 98 64 99 70 100 72 101 65 102 66 103
REMARK SMILES IDX 67 104 68 105 69 106
REMARK H PARENT 9 30 93 56 59 67
REMARK Flexibility Score: inf
ROOT
ATOM      1  O   UNL     1      -4.587 -12.321   3.732  1.00  0.00    -0.377 OA
ENDROOT
BRANCH   1   2
ATOM      2  C   UNL     1      -3.806 -12.427   2.556  1.00  0.00     0.188 C 
BRANCH   2   3
ATOM      3  C   UNL     1      -2.432 -13.099   2.775  1.00  0.00     0.188 C 
BRANCH   3   4
ATOM      4  O   UNL     1      -2.134 -13.802   3.970  1.00  0.00    -0.376 OA
BRANCH   4   5
ATOM      5  C   UNL     1      -2.397 -13.277   5.260  1.00  0.00     0.202 C 
BRANCH   5   6
ATOM      6  C   UNL     1      -2.321 -11.785   5.633  1.00  0.00     0.261 C 
BRANCH   6   7
ATOM      7  O   UNL     1      -2.368 -10.835   4.572  1.00  0.00    -0.460 OA
BRANCH   7   8
ATOM      8  C   UNL     1      -1.173 -10.476   4.061  1.00  0.00     0.338 C 
ATOM      9  O   UNL     1      -0.071 -10.848   4.426  1.00  0.00    -0.246 OA
BRANCH   8  10
ATOM     10  C   UNL     1      -1.408  -9.684   2.834  1.00  0.00     0.060 A 
ATOM     11  C   UNL     1      -1.700  -8.200   0.510  1.00  0.00    -0.005 A 
ATOM     12  C   UNL     1      -0.802  -9.267   0.526  1.00  0.00     0.010 A 
ATOM     13  C   UNL     1      -2.503  -7.912   1.619  1.00  0.00     0.010 A 
ATOM     14  C   UNL     1      -0.639  -9.995   1.702  1.00  0.00     0.016 A 
ATOM     15  C   UNL     1      -2.373  -8.673   2.781  1.00  0.00     0.016 A 
BRANCH  11  16
ATOM     16  C   UNL     1      -1.711  -7.322  -0.670  1.00  0.00     0.141 C 
ATOM     17  N   UNL     1      -1.895  -6.051  -0.522  1.00  0.00    -0.180 NA
BRANCH  17  18
ATOM     18  N   UNL     1      -1.845  -5.258  -1.621  1.00  0.00    -0.233 NA
ATOM     19  C   UNL     1      -1.656  -3.817  -1.405  1.00  0.00     0.274 C 
ATOM     20  N   UNL     1      -0.862  -3.277  -2.538  1.00  0.00    -0.161 NA
ATOM     21  N   UNL     1      -0.521  -4.202  -3.312  1.00  0.00    -0.153 NA
ATOM     22  C   UNL     1      -1.077  -5.490  -2.849  1.00  0.00     0.298 C 
BRANCH  19  23
ATOM     23  C   UNL     1      -3.010  -3.077  -1.261  1.00  0.00     0.201 C 
ATOM     24  C   UNL     1      -4.909  -2.271  -4.329  1.00  0.00     0.068 C 
ATOM     25  C   UNL     1      -4.142  -2.361  -3.062  1.00  0.00     0.058 C 
ATOM     26  C   UNL     1      -4.013  -3.443  -2.300  1.00  0.00     0.031 C 
ATOM     27  N   UNL     1      -3.445  -1.286  -2.571  1.00  0.00    -0.160 NA
ATOM     28  N   UNL     1      -2.826  -1.615  -1.516  1.00  0.00    -0.177 NA
ENDBRANCH  19  23
BRANCH  22  29
ATOM     29  S   UNL     1      -2.134  -6.307  -4.103  1.00  0.00    -0.128 SA
ATOM     30  H   UNL     1      -3.202  -5.514  -4.383  1.00  0.00     0.106 HD
ENDBRANCH  22  29
ENDBRANCH  17  18
ENDBRANCH  11  16
ENDBRANCH   8  10
ENDBRANCH   7   8
ENDBRANCH   6   7
ENDBRANCH   5   6
ENDBRANCH   4   5
ENDBRANCH   3   4
ENDBRANCH   2   3
ENDBRANCH   1   2
BRANCH   1  31
ATOM     31  C   UNL     1      -5.518 -13.373   3.981  1.00  0.00     0.188 C 
BRANCH  31  32
ATOM     32  C   UNL     1      -5.120 -14.842   3.677  1.00  0.00     0.188 C 
BRANCH  32  33
ATOM     33  O   UNL     1      -4.310 -15.011   2.522  1.00  0.00    -0.376 OA
BRANCH  33  34
ATOM     34  C   UNL     1      -4.798 -15.608   1.335  1.00  0.00     0.202 C 
BRANCH  34  35
ATOM     35  C   UNL     1      -5.865 -14.857   0.549  1.00  0.00     0.261 C 
BRANCH  35  36
ATOM     36  O   UNL     1      -6.810 -14.195   1.363  1.00  0.00    -0.460 OA
BRANCH  36  37
ATOM     37  C   UNL     1      -7.695 -15.003   1.966  1.00  0.00     0.338 C 
ATOM     38  O   UNL     1      -7.612 -16.223   2.097  1.00  0.00    -0.246 OA
BRANCH  37  39
ATOM     39  C   UNL     1      -8.866 -14.203   2.312  1.00  0.00     0.060 A 
ATOM     40  C   UNL     1      -9.914 -14.890   2.917  1.00  0.00     0.016 A 
ATOM     41  C   UNL     1      -9.034 -12.948   1.698  1.00  0.00     0.016 A 
ATOM     42  C   UNL     1     -11.186 -14.460   2.644  1.00  0.00     0.010 A 
ATOM     43  C   UNL     1     -10.305 -12.529   1.415  1.00  0.00     0.010 A 
ATOM     44  C   UNL     1     -11.354 -13.353   1.800  1.00  0.00    -0.014 A 
BRANCH  44  45
ATOM     45  C   UNL     1     -12.697 -13.037   1.390  1.00  0.00     0.031 A 
ATOM     46  C   UNL     1     -13.494 -12.499   2.507  1.00  0.00     0.074 A 
ATOM     47  C   UNL     1     -13.124 -13.182   0.123  1.00  0.00     0.049 A 
ATOM     48  N   UNL     1     -14.432 -13.101   3.155  1.00  0.00    -0.248 NA
ATOM     49  C   UNL     1     -13.035 -11.246   3.127  1.00  0.00     0.031 C 
ATOM     50  C   UNL     1     -12.343 -13.460  -1.085  1.00  0.00     0.029 A 
ATOM     51  N   UNL     1     -14.380 -13.018  -0.360  1.00  0.00    -0.354 N 
ATOM     52  C   UNL     1     -14.857 -12.186   4.107  1.00  0.00     0.074 A 
ATOM     53  C   UNL     1     -13.831 -11.181   4.193  1.00  0.00     0.031 C 
ATOM     54  C   UNL     1     -13.109 -13.210  -2.174  1.00  0.00     0.029 A 
ATOM     55  C   UNL     1     -14.458 -12.888  -1.739  1.00  0.00     0.049 A 
ATOM     56  H   UNL     1     -15.174 -12.994   0.222  1.00  0.00     0.167 HD
ATOM     57  C   UNL     1     -16.149 -12.174   4.525  1.00  0.00     0.037 A 
ATOM     58  C   UNL     1     -15.546 -12.460  -2.431  1.00  0.00     0.037 A 
ATOM     59  C   UNL     1     -16.803 -13.428   4.240  1.00  0.00     0.049 A 
ATOM     60  C   UNL     1     -16.727 -12.657  -1.542  1.00  0.00     0.074 A 
ATOM     61  C   UNL     1     -16.558 -14.742   4.591  1.00  0.00     0.029 A 
ATOM     62  N   UNL     1     -17.650 -13.481   3.158  1.00  0.00    -0.354 N 
ATOM     63  N   UNL     1     -17.171 -13.831  -1.179  1.00  0.00    -0.248 NA
ATOM     64  C   UNL     1     -17.112 -11.554  -0.673  1.00  0.00     0.031 C 
ATOM     65  C   UNL     1     -16.875 -15.503   3.428  1.00  0.00     0.029 A 
ATOM     66  C   UNL     1     -17.356 -14.624   2.457  1.00  0.00     0.049 A 
ATOM     67  H   UNL     1     -18.341 -12.819   2.928  1.00  0.00     0.167 HD
ATOM     68  C   UNL     1     -17.517 -13.686   0.158  1.00  0.00     0.074 A 
ATOM     69  C   UNL     1     -17.530 -12.243   0.393  1.00  0.00     0.031 C 
ATOM     70  C   UNL     1     -17.480 -14.746   1.020  1.00  0.00     0.037 A 
BRANCH  57  71
ATOM     71  C   UNL     1     -16.902 -10.899   4.807  1.00  0.00     0.058 A 
ATOM     72  C   UNL     1     -18.181 -10.974   5.387  1.00  0.00     0.135 A 
ATOM     73  C   UNL     1     -16.542  -9.635   4.280  1.00  0.00     0.135 A 
ATOM     74  F   UNL     1     -18.630 -12.129   5.903  1.00  0.00    -0.206 F 
ATOM     75  C   UNL     1     -19.064  -9.894   5.381  1.00  0.00     0.059 A 
ATOM     76  C   UNL     1     -17.381  -8.533   4.318  1.00  0.00     0.059 A 
ATOM     77  F   UNL     1     -15.402  -9.428   3.612  1.00  0.00    -0.206 F 
ATOM     78  C   UNL     1     -18.656  -8.682   4.830  1.00  0.00     0.060 A 
BRANCH  78  79
ATOM     79  S   UNL     1     -19.823  -7.318   4.726  1.00  0.00     0.124 S 
ATOM     80  O   UNL     1     -20.760  -7.817   3.726  1.00  0.00    -0.237 OA
ATOM     81  O   UNL     1     -20.322  -7.245   6.094  1.00  0.00    -0.237 OA
ATOM     82  O   UNL     1     -18.989  -6.195   4.308  1.00  0.00    -0.744 OA
ENDBRANCH  78  79
ENDBRANCH  57  71
BRANCH  58  83
ATOM     83  C   UNL     1     -15.573 -11.537  -3.601  1.00  0.00     0.058 A 
ATOM     84  C   UNL     1     -16.768 -11.297  -4.305  1.00  0.00     0.135 A 
ATOM     85  C   UNL     1     -14.510 -10.650  -3.871  1.00  0.00     0.135 A 
ATOM     86  F   UNL     1     -17.838 -12.080  -4.101  1.00  0.00    -0.206 F 
ATOM     87  C   UNL     1     -16.919 -10.211  -5.176  1.00  0.00     0.059 A 
ATOM     88  C   UNL     1     -14.634  -9.568  -4.742  1.00  0.00     0.059 A 
ATOM     89  F   UNL     1     -13.340 -10.749  -3.224  1.00  0.00    -0.206 F 
ATOM     90  C   UNL     1     -15.851  -9.336  -5.369  1.00  0.00     0.060 A 
BRANCH  90  91
ATOM     91  S   UNL     1     -16.095  -7.828  -6.337  1.00  0.00     0.124 S 
ATOM     92  O   UNL     1     -16.228  -8.356  -7.690  1.00  0.00    -0.237 OA
ATOM     93  O   UNL     1     -17.308  -7.274  -5.746  1.00  0.00    -0.237 OA
ATOM     94  O   UNL     1     -14.877  -7.062  -6.083  1.00  0.00    -0.744 OA
ENDBRANCH  90  91
ENDBRANCH  58  83
BRANCH  70  95
ATOM     95  C   UNL     1     -17.343 -16.133   0.444  1.00  0.00     0.058 A 
ATOM     96  C   UNL     1     -16.225 -16.595  -0.274  1.00  0.00     0.135 A 
ATOM     97  C   UNL     1     -18.327 -17.079   0.770  1.00  0.00     0.135 A 
ATOM     98  F   UNL     1     -15.191 -15.784  -0.538  1.00  0.00    -0.206 F 
ATOM     99  C   UNL     1     -16.112 -17.927  -0.684  1.00  0.00     0.059 A 
ATOM    100  C   UNL     1     -18.220 -18.417   0.401  1.00  0.00     0.059 A 
ATOM    101  F   UNL     1     -19.390 -16.716   1.507  1.00  0.00    -0.206 F 
ATOM    102  C   UNL     1     -17.116 -18.832  -0.339  1.00  0.00     0.060 A 
BRANCH 102 103
ATOM    103  S   UNL     1     -16.939 -20.569  -0.803  1.00  0.00     0.124 S 
ATOM    104  O   UNL     1     -17.136 -20.522  -2.248  1.00  0.00    -0.237 OA
ATOM    105  O   UNL     1     -15.584 -20.880  -0.357  1.00  0.00    -0.237 OA
ATOM    106  O   UNL     1     -18.000 -21.234  -0.051  1.00  0.00    -0.744 OA
ENDBRANCH 102 103
ENDBRANCH  70  95
ENDBRANCH  44  45
ENDBRANCH  37  39
ENDBRANCH  36  37
ENDBRANCH  35  36
ENDBRANCH  34  35
ENDBRANCH  33  34
ENDBRANCH  32  33
ENDBRANCH  31  32
ENDBRANCH   1  31
TORSDOF 27
