REMARK SMILES CCCCOc1ccc(-c2nc(C)c(C(=O)OCCOCCOCCOCCOC(=O)c3ccc(-c4c5nc(c(-c6c(F)cc(S(=O)(=O)[O-])cc6F)c6ccc([nH]6)c(-c6c(F)cc(S(=O)(=O)[O-])cc6F)c6nc(c(-c7c(F)cc(S(=O)(=O)[O-])cc7F)c7ccc4[nH]7)C=C6)C=C5)cc3)s2)cc1OC
REMARK SMILES IDX 22 1 21 2 20 3 19 4 18 5 17 6 15 7 16 8 14 9 10 10 11 11
REMARK SMILES IDX 98 12 12 13 13 14 9 15 6 16 7 17 100 18 8 19 99 20 5 21 4 22
REMARK SMILES IDX 3 23 2 24 1 25 101 26 102 27 23 28 24 29 25 30 26 31 27 32
REMARK SMILES IDX 28 33 29 34 30 35 31 36 32 37 33 38 97 39 34 40 96 41 35 42
REMARK SMILES IDX 36 43 37 44 90 45 38 46 95 47 89 48 91 49 39 50 94 51 88 52
REMARK SMILES IDX 87 53 40 55 74 56 53 57 73 58 54 59 57 60 72 61 92 62 55 63
REMARK SMILES IDX 56 64 71 66 93 67 58 68 41 69 42 70 51 71 43 72 44 73 50 74
REMARK SMILES IDX 52 75 45 76 46 77 47 78 48 79 49 80 75 81 76 82 85 83 77 84
REMARK SMILES IDX 78 85 84 86 86 87 79 88 80 89 81 90 82 91 83 92 59 93 60 94
REMARK SMILES IDX 69 95 61 96 62 97 68 98 70 99 63 100 64 101 65 102 66 103
REMARK SMILES IDX 67 104
REMARK H PARENT 91 54 57 65
REMARK Flexibility Score: inf
ROOT
ATOM      1  C   UNL     1      -5.487   5.265   3.275  1.00  0.00     0.188 C 
ENDROOT
BRANCH   1   2
ATOM      2  C   UNL     1      -6.147   5.727   1.964  1.00  0.00     0.188 C 
BRANCH   2   3
ATOM      3  O   UNL     1      -7.388   6.418   1.949  1.00  0.00    -0.376 OA
BRANCH   3   4
ATOM      4  C   UNL     1      -8.460   6.080   2.817  1.00  0.00     0.202 C 
BRANCH   4   5
ATOM      5  C   UNL     1      -8.895   4.630   3.098  1.00  0.00     0.261 C 
BRANCH   5   6
ATOM      6  O   UNL     1      -7.890   3.626   2.969  1.00  0.00    -0.459 OA
BRANCH   6   7
ATOM      7  C   UNL     1      -7.880   2.921   1.806  1.00  0.00     0.350 C 
ATOM      8  O   UNL     1      -8.686   3.065   0.905  1.00  0.00    -0.245 OA
BRANCH   7   9
ATOM      9  C   UNL     1      -6.694   2.088   1.766  1.00  0.00     0.135 A 
ATOM     10  C   UNL     1      -4.711   0.931   0.978  1.00  0.00     0.124 A 
ATOM     11  N   UNL     1      -4.794   0.829   2.285  1.00  0.00    -0.240 NA
ATOM     12  S   UNL     1      -6.004   1.762   0.225  1.00  0.00    -0.106 S 
ATOM     13  C   UNL     1      -5.915   1.507   2.757  1.00  0.00     0.064 A 
ATOM     14  C   UNL     1      -6.123   1.505   4.234  1.00  0.00     0.068 C 
BRANCH  10  15
ATOM     15  C   UNL     1      -3.662   0.333   0.156  1.00  0.00     0.014 A 
ATOM     16  C   UNL     1      -1.669  -0.854  -1.422  1.00  0.00     0.161 A 
ATOM     17  C   UNL     1      -2.464  -1.641  -0.582  1.00  0.00     0.051 A 
ATOM     18  C   UNL     1      -1.902   0.524  -1.518  1.00  0.00     0.161 A 
ATOM     19  C   UNL     1      -3.444  -1.047   0.215  1.00  0.00     0.015 A 
ATOM     20  C   UNL     1      -2.874   1.113  -0.702  1.00  0.00     0.061 A 
BRANCH  16  21
ATOM     21  O   UNL     1      -0.693  -1.440  -2.179  1.00  0.00    -0.490 OA
BRANCH  21  22
ATOM     22  C   UNL     1       0.329  -2.089  -1.411  1.00  0.00     0.230 C 
BRANCH  22  23
ATOM     23  C   UNL     1       1.639  -1.302  -1.505  1.00  0.00     0.041 C 
BRANCH  23  24
ATOM     24  C   UNL     1       1.682  -0.028  -0.655  1.00  0.00     0.000 C 
ATOM     25  C   UNL     1       1.726  -0.299   0.841  1.00  0.00     0.004 C 
ENDBRANCH  23  24
ENDBRANCH  22  23
ENDBRANCH  21  22
ENDBRANCH  16  21
BRANCH  18  26
ATOM     26  O   UNL     1      -1.198   1.416  -2.285  1.00  0.00    -0.493 OA
ATOM     27  C   UNL     1      -0.884   0.979  -3.602  1.00  0.00     0.278 C 
ENDBRANCH  18  26
ENDBRANCH  10  15
ENDBRANCH   7   9
ENDBRANCH   6   7
ENDBRANCH   5   6
ENDBRANCH   4   5
ENDBRANCH   3   4
ENDBRANCH   2   3
ENDBRANCH   1   2
BRANCH   1  28
ATOM     28  O   UNL     1      -6.299   5.454   4.420  1.00  0.00    -0.377 OA
BRANCH  28  29
ATOM     29  C   UNL     1      -5.897   6.523   5.271  1.00  0.00     0.188 C 
BRANCH  29  30
ATOM     30  C   UNL     1      -5.730   7.891   4.588  1.00  0.00     0.188 C 
BRANCH  30  31
ATOM     31  O   UNL     1      -4.647   7.916   3.653  1.00  0.00    -0.376 OA
BRANCH  31  32
ATOM     32  C   UNL     1      -3.471   8.601   4.078  1.00  0.00     0.202 C 
BRANCH  32  33
ATOM     33  C   UNL     1      -2.563   7.767   4.993  1.00  0.00     0.261 C 
BRANCH  33  34
ATOM     34  O   UNL     1      -3.127   7.453   6.277  1.00  0.00    -0.460 OA
BRANCH  34  35
ATOM     35  C   UNL     1      -3.461   8.497   7.067  1.00  0.00     0.338 C 
ATOM     36  O   UNL     1      -3.273   9.678   6.841  1.00  0.00    -0.246 OA
BRANCH  35  37
ATOM     37  C   UNL     1      -4.274   7.983   8.186  1.00  0.00     0.060 A 
ATOM     38  C   UNL     1      -5.521   8.570   8.429  1.00  0.00     0.016 A 
ATOM     39  C   UNL     1      -3.801   6.951   9.001  1.00  0.00     0.016 A 
ATOM     40  C   UNL     1      -6.279   8.161   9.526  1.00  0.00     0.010 A 
ATOM     41  C   UNL     1      -4.555   6.551  10.106  1.00  0.00     0.010 A 
ATOM     42  C   UNL     1      -5.777   7.183  10.395  1.00  0.00    -0.014 A 
BRANCH  42  43
ATOM     43  C   UNL     1      -6.430   6.961  11.706  1.00  0.00     0.031 A 
ATOM     44  C   UNL     1      -5.893   7.698  12.903  1.00  0.00     0.074 A 
ATOM     45  C   UNL     1      -7.476   6.127  11.834  1.00  0.00     0.049 A 
ATOM     46  N   UNL     1      -6.284   7.653  14.149  1.00  0.00    -0.248 NA
ATOM     47  C   UNL     1      -4.758   8.604  12.660  1.00  0.00     0.031 C 
ATOM     48  C   UNL     1      -8.090   5.367  10.746  1.00  0.00     0.029 A 
ATOM     49  N   UNL     1      -8.198   5.772  12.945  1.00  0.00    -0.354 N 
ATOM     50  C   UNL     1      -5.443   8.517  14.839  1.00  0.00     0.074 A 
ATOM     51  C   UNL     1      -4.502   9.051  13.879  1.00  0.00     0.031 C 
ATOM     52  C   UNL     1      -9.087   4.618  11.249  1.00  0.00     0.029 A 
ATOM     53  C   UNL     1      -9.169   4.832  12.694  1.00  0.00     0.049 A 
ATOM     54  H   UNL     1      -8.036   6.154  13.838  1.00  0.00     0.167 HD
ATOM     55  C   UNL     1      -5.457   8.842  16.153  1.00  0.00     0.037 A 
ATOM     56  C   UNL     1     -10.012   4.206  13.539  1.00  0.00     0.037 A 
ATOM     57  C   UNL     1      -6.391   8.306  17.106  1.00  0.00     0.049 A 
ATOM     58  C   UNL     1      -9.988   4.555  15.004  1.00  0.00     0.074 A 
ATOM     59  C   UNL     1      -6.510   8.598  18.453  1.00  0.00     0.029 A 
ATOM     60  N   UNL     1      -7.358   7.355  16.816  1.00  0.00    -0.354 N 
ATOM     61  N   UNL     1      -9.222   5.414  15.636  1.00  0.00    -0.248 NA
ATOM     62  C   UNL     1     -10.948   3.858  15.872  1.00  0.00     0.031 C 
ATOM     63  C   UNL     1      -7.521   7.791  18.987  1.00  0.00     0.029 A 
ATOM     64  C   UNL     1      -8.062   7.030  17.962  1.00  0.00     0.049 A 
ATOM     65  H   UNL     1      -7.520   6.968  15.925  1.00  0.00     0.167 HD
ATOM     66  C   UNL     1      -9.622   5.376  16.968  1.00  0.00     0.074 A 
ATOM     67  C   UNL     1     -10.704   4.417  17.050  1.00  0.00     0.031 C 
ATOM     68  C   UNL     1      -9.139   6.074  18.026  1.00  0.00     0.037 A 
BRANCH  55  69
ATOM     69  C   UNL     1      -4.409   9.805  16.635  1.00  0.00     0.058 A 
ATOM     70  C   UNL     1      -4.458  11.171  16.316  1.00  0.00     0.135 A 
ATOM     71  C   UNL     1      -3.345   9.355  17.432  1.00  0.00     0.135 A 
ATOM     72  F   UNL     1      -5.444  11.649  15.539  1.00  0.00    -0.206 F 
ATOM     73  C   UNL     1      -3.472  12.053  16.744  1.00  0.00     0.059 A 
ATOM     74  C   UNL     1      -2.360  10.224  17.892  1.00  0.00     0.059 A 
ATOM     75  F   UNL     1      -3.248   8.057  17.762  1.00  0.00    -0.206 F 
ATOM     76  C   UNL     1      -2.423  11.568  17.528  1.00  0.00     0.060 A 
BRANCH  76  77
ATOM     77  S   UNL     1      -1.143  12.720  18.067  1.00  0.00     0.124 S 
ATOM     78  O   UNL     1      -0.386  12.910  16.834  1.00  0.00    -0.237 OA
ATOM     79  O   UNL     1      -1.923  13.870  18.515  1.00  0.00    -0.237 OA
ATOM     80  O   UNL     1      -0.450  11.988  19.123  1.00  0.00    -0.744 OA
ENDBRANCH  76  77
ENDBRANCH  55  69
BRANCH  56  81
ATOM     81  C   UNL     1     -10.949   3.177  13.016  1.00  0.00     0.058 A 
ATOM     82  C   UNL     1     -12.326   3.424  12.931  1.00  0.00     0.135 A 
ATOM     83  C   UNL     1     -10.479   1.929  12.578  1.00  0.00     0.135 A 
ATOM     84  F   UNL     1     -12.824   4.597  13.350  1.00  0.00    -0.206 F 
ATOM     85  C   UNL     1     -13.208   2.469  12.435  1.00  0.00     0.059 A 
ATOM     86  C   UNL     1     -11.338   0.966  12.058  1.00  0.00     0.059 A 
ATOM     87  F   UNL     1      -9.168   1.648  12.631  1.00  0.00    -0.206 F 
ATOM     88  C   UNL     1     -12.702   1.243  11.995  1.00  0.00     0.060 A 
BRANCH  88  89
ATOM     89  S   UNL     1     -13.845   0.036  11.289  1.00  0.00     0.124 S 
ATOM     90  O   UNL     1     -14.517  -0.466  12.481  1.00  0.00    -0.237 OA
ATOM     91  O   UNL     1     -14.654   0.864  10.399  1.00  0.00    -0.237 OA
ATOM     92  O   UNL     1     -12.958  -0.909  10.617  1.00  0.00    -0.744 OA
ENDBRANCH  88  89
ENDBRANCH  56  81
BRANCH  68  93
ATOM     93  C   UNL     1      -9.793   5.851  19.363  1.00  0.00     0.058 A 
ATOM     94  C   UNL     1      -9.573   4.681  20.105  1.00  0.00     0.135 A 
ATOM     95  C   UNL     1     -10.601   6.848  19.933  1.00  0.00     0.135 A 
ATOM     96  F   UNL     1      -8.812   3.695  19.603  1.00  0.00    -0.206 F 
ATOM     97  C   UNL     1     -10.149   4.497  21.358  1.00  0.00     0.059 A 
ATOM     98  C   UNL     1     -11.167   6.696  21.195  1.00  0.00     0.059 A 
ATOM     99  F   UNL     1     -10.832   7.992  19.270  1.00  0.00    -0.206 F 
ATOM    100  C   UNL     1     -10.945   5.511  21.895  1.00  0.00     0.060 A 
BRANCH 100 101
ATOM    101  S   UNL     1     -11.661   5.276  23.536  1.00  0.00     0.124 S 
ATOM    102  O   UNL     1     -12.754   4.353  23.250  1.00  0.00    -0.237 OA
ATOM    103  O   UNL     1     -10.542   4.720  24.291  1.00  0.00    -0.237 OA
ATOM    104  O   UNL     1     -12.063   6.624  23.926  1.00  0.00    -0.744 OA
ENDBRANCH 100 101
ENDBRANCH  68  93
ENDBRANCH  42  43
ENDBRANCH  35  37
ENDBRANCH  34  35
ENDBRANCH  33  34
ENDBRANCH  32  33
ENDBRANCH  31  32
ENDBRANCH  30  31
ENDBRANCH  29  30
ENDBRANCH  28  29
ENDBRANCH   1  28
TORSDOF 29
