REMARK SMILES CC(C)CCn1nc(C(=O)OCCOCCOCCOCCOC(=O)c2ccc(-c3c4nc(c(-c5c(F)cc(S(=O)(=O)[O-])cc5F)c5ccc([nH]5)c(-c5c(F)cc(S(=O)(=O)[O-])cc5F)c5nc(c(-c6c(F)cc(S(=O)(=O)[O-])cc6F)c6ccc3[nH]6)C=C5)C=C4)cc2)c2c1CCN(C(=O)[C@@H]1CCc3nn(C)c(=O)n3C1)C2
REMARK SMILES IDX 17 1 16 2 15 3 14 4 13 5 12 6 11 7 9 8 10 9 8 10 6 11 7 12
REMARK SMILES IDX 93 13 92 14 94 15 110 16 95 17 96 18 5 19 4 20 2 21 1 22
REMARK SMILES IDX 3 23 97 24 98 25 99 26 100 27 109 28 101 29 108 30 102 31
REMARK SMILES IDX 106 32 103 33 104 34 107 35 105 36 18 37 19 38 20 39 21 40
REMARK SMILES IDX 22 41 23 42 24 43 25 44 26 45 27 46 91 47 28 48 90 49 29 50
REMARK SMILES IDX 30 51 31 52 84 53 32 54 89 55 83 56 85 57 33 58 88 59 82 60
REMARK SMILES IDX 81 61 34 63 68 64 47 65 67 66 48 67 51 68 66 69 86 70 49 71
REMARK SMILES IDX 50 72 65 74 87 75 52 76 35 77 36 78 45 79 37 80 38 81 44 82
REMARK SMILES IDX 46 83 39 84 40 85 41 86 42 87 43 88 69 89 70 90 79 91 71 92
REMARK SMILES IDX 72 93 78 94 80 95 73 96 74 97 75 98 76 99 77 100 53 101
REMARK SMILES IDX 54 102 63 103 55 104 56 105 62 106 64 107 57 108 58 109
REMARK SMILES IDX 59 110 60 111 61 112
REMARK H PARENT 85 62 51 73
REMARK Flexibility Score: inf
ROOT
ATOM      1  O   UNL     1      -1.315   0.291  -8.276  1.00  0.00    -0.377 OA
ENDROOT
BRANCH   1   2
ATOM      2  C   UNL     1      -1.579   1.143  -7.185  1.00  0.00     0.188 C 
BRANCH   2   3
ATOM      3  C   UNL     1      -0.666   2.370  -6.967  1.00  0.00     0.188 C 
BRANCH   3   4
ATOM      4  O   UNL     1       0.099   2.923  -8.018  1.00  0.00    -0.376 OA
BRANCH   4   5
ATOM      5  C   UNL     1       1.225   2.336  -8.632  1.00  0.00     0.202 C 
BRANCH   5   6
ATOM      6  C   UNL     1       2.033   1.147  -8.108  1.00  0.00     0.261 C 
BRANCH   6   7
ATOM      7  O   UNL     1       1.431   0.372  -7.092  1.00  0.00    -0.458 OA
BRANCH   7   8
ATOM      8  C   UNL     1       1.689   0.773  -5.817  1.00  0.00     0.359 C 
ATOM      9  O   UNL     1       2.441   1.691  -5.514  1.00  0.00    -0.244 OA
BRANCH   8  10
ATOM     10  C   UNL     1       0.875   0.005  -4.873  1.00  0.00     0.175 A 
ATOM     11  N   UNL     1      -0.221  -0.503  -3.118  1.00  0.00    -0.268 N 
ATOM     12  N   UNL     1       0.478   0.502  -3.681  1.00  0.00    -0.165 NA
ATOM     13  C   UNL     1      -0.072  -1.663  -3.812  1.00  0.00     0.046 A 
ATOM     14  C   UNL     1       0.359  -1.302  -5.067  1.00  0.00     0.028 A 
ATOM     15  C   UNL     1      -0.296  -3.059  -3.384  1.00  0.00     0.078 C 
ATOM     16  C   UNL     1       0.395  -2.224  -6.245  1.00  0.00     0.159 C 
ATOM     17  C   UNL     1       0.190  -3.981  -4.526  1.00  0.00     0.126 C 
ATOM     18  N   UNL     1      -0.219  -3.514  -5.856  1.00  0.00    -0.338 N 
BRANCH  11  19
ATOM     19  C   UNL     1      -1.015  -0.247  -1.930  1.00  0.00     0.145 C 
BRANCH  19  20
ATOM     20  C   UNL     1      -0.684  -1.140  -0.736  1.00  0.00     0.027 C 
BRANCH  20  21
ATOM     21  C   UNL     1       0.822  -1.213  -0.425  1.00  0.00    -0.016 C 
ATOM     22  C   UNL     1       1.325   0.085   0.199  1.00  0.00     0.007 C 
ATOM     23  C   UNL     1       1.120  -2.411   0.472  1.00  0.00     0.007 C 
ENDBRANCH  20  21
ENDBRANCH  19  20
ENDBRANCH  11  19
BRANCH  18  24
ATOM     24  C   UNL     1      -0.823  -4.241  -6.863  1.00  0.00     0.227 C 
ATOM     25  O   UNL     1      -0.572  -3.958  -8.043  1.00  0.00    -0.274 OA
BRANCH  24  26
ATOM     26  C   UNL     1      -1.859  -5.360  -6.623  1.00  0.00     0.099 C 
ATOM     27  C   UNL     1      -3.133  -4.972  -5.865  1.00  0.00     0.023 C 
ATOM     28  C   UNL     1      -1.320  -6.711  -6.183  1.00  0.00     0.142 C 
ATOM     29  C   UNL     1      -3.077  -5.137  -4.353  1.00  0.00     0.078 C 
ATOM     30  N   UNL     1      -1.370  -6.883  -4.753  1.00  0.00    -0.278 N 
ATOM     31  C   UNL     1      -2.111  -6.181  -3.876  1.00  0.00     0.133 A 
ATOM     32  C   UNL     1      -0.533  -7.675  -4.013  1.00  0.00     0.345 A 
ATOM     33  N   UNL     1      -1.826  -6.405  -2.624  1.00  0.00    -0.155 NA
ATOM     34  N   UNL     1      -0.819  -7.348  -2.686  1.00  0.00    -0.216 N 
ATOM     35  O   UNL     1       0.327  -8.436  -4.426  1.00  0.00    -0.246 OA
ATOM     36  C   UNL     1      -0.102  -7.814  -1.532  1.00  0.00     0.179 C 
ENDBRANCH  24  26
ENDBRANCH  18  24
ENDBRANCH   8  10
ENDBRANCH   7   8
ENDBRANCH   6   7
ENDBRANCH   5   6
ENDBRANCH   4   5
ENDBRANCH   3   4
ENDBRANCH   2   3
ENDBRANCH   1   2
BRANCH   1  37
ATOM     37  C   UNL     1      -1.533   0.738  -9.609  1.00  0.00     0.188 C 
BRANCH  37  38
ATOM     38  C   UNL     1      -2.013   2.166  -9.976  1.00  0.00     0.188 C 
BRANCH  38  39
ATOM     39  O   UNL     1      -2.432   2.974  -8.894  1.00  0.00    -0.376 OA
BRANCH  39  40
ATOM     40  C   UNL     1      -3.780   3.324  -8.659  1.00  0.00     0.202 C 
BRANCH  40  41
ATOM     41  C   UNL     1      -4.813   2.219  -8.478  1.00  0.00     0.261 C 
BRANCH  41  42
ATOM     42  O   UNL     1      -4.591   1.092  -9.297  1.00  0.00    -0.460 OA
BRANCH  42  43
ATOM     43  C   UNL     1      -4.890   1.295 -10.596  1.00  0.00     0.338 C 
ATOM     44  O   UNL     1      -5.088   2.356 -11.151  1.00  0.00    -0.246 OA
BRANCH  43  45
ATOM     45  C   UNL     1      -5.046  -0.019 -11.217  1.00  0.00     0.060 A 
ATOM     46  C   UNL     1      -5.159  -0.043 -12.606  1.00  0.00     0.016 A 
ATOM     47  C   UNL     1      -5.429  -1.093 -10.400  1.00  0.00     0.016 A 
ATOM     48  C   UNL     1      -5.916  -1.046 -13.159  1.00  0.00     0.010 A 
ATOM     49  C   UNL     1      -6.200  -2.077 -10.950  1.00  0.00     0.010 A 
ATOM     50  C   UNL     1      -6.517  -1.972 -12.299  1.00  0.00    -0.014 A 
BRANCH  50  51
ATOM     51  C   UNL     1      -7.467  -2.902 -12.854  1.00  0.00     0.031 A 
ATOM     52  C   UNL     1      -6.791  -3.982 -13.591  1.00  0.00     0.074 A 
ATOM     53  C   UNL     1      -8.785  -2.797 -12.601  1.00  0.00     0.049 A 
ATOM     54  N   UNL     1      -6.696  -4.109 -14.871  1.00  0.00    -0.248 NA
ATOM     55  C   UNL     1      -5.905  -4.880 -12.831  1.00  0.00     0.031 C 
ATOM     56  C   UNL     1      -9.455  -1.885 -11.665  1.00  0.00     0.029 A 
ATOM     57  N   UNL     1      -9.810  -3.555 -13.072  1.00  0.00    -0.354 N 
ATOM     58  C   UNL     1      -5.981  -5.284 -15.056  1.00  0.00     0.074 A 
ATOM     59  C   UNL     1      -5.305  -5.548 -13.816  1.00  0.00     0.031 C 
ATOM     60  C   UNL     1     -10.730  -2.294 -11.475  1.00  0.00     0.029 A 
ATOM     61  C   UNL     1     -11.005  -3.399 -12.377  1.00  0.00     0.049 A 
ATOM     62  H   UNL     1      -9.715  -4.163 -13.841  1.00  0.00     0.167 HD
ATOM     63  C   UNL     1      -6.307  -6.125 -16.074  1.00  0.00     0.037 A 
ATOM     64  C   UNL     1     -12.115  -4.166 -12.516  1.00  0.00     0.037 A 
ATOM     65  C   UNL     1      -7.149  -5.458 -17.037  1.00  0.00     0.049 A 
ATOM     66  C   UNL     1     -12.029  -4.802 -13.855  1.00  0.00     0.074 A 
ATOM     67  C   UNL     1      -6.986  -4.463 -17.975  1.00  0.00     0.029 A 
ATOM     68  N   UNL     1      -8.492  -5.558 -16.773  1.00  0.00    -0.354 N 
ATOM     69  N   UNL     1     -12.069  -4.122 -14.971  1.00  0.00    -0.248 NA
ATOM     70  C   UNL     1     -11.477  -6.147 -13.972  1.00  0.00     0.031 C 
ATOM     71  C   UNL     1      -8.255  -3.821 -18.091  1.00  0.00     0.029 A 
ATOM     72  C   UNL     1      -9.166  -4.468 -17.255  1.00  0.00     0.049 A 
ATOM     73  H   UNL     1      -8.914  -6.312 -16.300  1.00  0.00     0.167 HD
ATOM     74  C   UNL     1     -11.183  -4.772 -15.813  1.00  0.00     0.074 A 
ATOM     75  C   UNL     1     -10.980  -6.085 -15.212  1.00  0.00     0.031 C 
ATOM     76  C   UNL     1     -10.463  -4.072 -16.739  1.00  0.00     0.037 A 
BRANCH  63  77
ATOM     77  C   UNL     1      -6.309  -7.632 -15.942  1.00  0.00     0.058 A 
ATOM     78  C   UNL     1      -6.507  -8.416 -17.095  1.00  0.00     0.135 A 
ATOM     79  C   UNL     1      -6.420  -8.322 -14.711  1.00  0.00     0.135 A 
ATOM     80  F   UNL     1      -6.448  -7.860 -18.315  1.00  0.00    -0.206 F 
ATOM     81  C   UNL     1      -6.842  -9.770 -17.027  1.00  0.00     0.059 A 
ATOM     82  C   UNL     1      -6.695  -9.679 -14.624  1.00  0.00     0.059 A 
ATOM     83  F   UNL     1      -6.373  -7.703 -13.527  1.00  0.00    -0.206 F 
ATOM     84  C   UNL     1      -6.942 -10.389 -15.784  1.00  0.00     0.060 A 
BRANCH  84  85
ATOM     85  S   UNL     1      -7.449 -12.112 -15.681  1.00  0.00     0.124 S 
ATOM     86  O   UNL     1      -8.841 -12.033 -16.110  1.00  0.00    -0.237 OA
ATOM     87  O   UNL     1      -6.525 -12.753 -16.610  1.00  0.00    -0.237 OA
ATOM     88  O   UNL     1      -7.240 -12.440 -14.273  1.00  0.00    -0.744 OA
ENDBRANCH  84  85
ENDBRANCH  63  77
BRANCH  64  89
ATOM     89  C   UNL     1     -13.052  -4.619 -11.455  1.00  0.00     0.058 A 
ATOM     90  C   UNL     1     -14.323  -5.143 -11.755  1.00  0.00     0.135 A 
ATOM     91  C   UNL     1     -12.606  -4.798 -10.130  1.00  0.00     0.135 A 
ATOM     92  F   UNL     1     -14.814  -5.047 -13.000  1.00  0.00    -0.206 F 
ATOM     93  C   UNL     1     -15.093  -5.828 -10.805  1.00  0.00     0.059 A 
ATOM     94  C   UNL     1     -13.355  -5.473  -9.166  1.00  0.00     0.059 A 
ATOM     95  F   UNL     1     -11.382  -4.396  -9.755  1.00  0.00    -0.206 F 
ATOM     96  C   UNL     1     -14.592  -6.002  -9.514  1.00  0.00     0.060 A 
BRANCH  96  97
ATOM     97  S   UNL     1     -15.515  -7.002  -8.321  1.00  0.00     0.124 S 
ATOM     98  O   UNL     1     -16.688  -6.171  -8.073  1.00  0.00    -0.237 OA
ATOM     99  O   UNL     1     -15.752  -8.233  -9.066  1.00  0.00    -0.237 OA
ATOM    100  O   UNL     1     -14.592  -7.126  -7.195  1.00  0.00    -0.744 OA
ENDBRANCH  96  97
ENDBRANCH  64  89
BRANCH  76 101
ATOM    101  C   UNL     1     -10.978  -2.716 -17.135  1.00  0.00     0.058 A 
ATOM    102  C   UNL     1     -10.957  -1.577 -16.311  1.00  0.00     0.135 A 
ATOM    103  C   UNL     1     -11.410  -2.543 -18.458  1.00  0.00     0.135 A 
ATOM    104  F   UNL     1     -10.481  -1.643 -15.060  1.00  0.00    -0.206 F 
ATOM    105  C   UNL     1     -11.375  -0.328 -16.775  1.00  0.00     0.059 A 
ATOM    106  C   UNL     1     -11.802  -1.303 -18.951  1.00  0.00     0.059 A 
ATOM    107  F   UNL     1     -11.402  -3.584 -19.307  1.00  0.00    -0.206 F 
ATOM    108  C   UNL     1     -11.793  -0.200 -18.100  1.00  0.00     0.060 A 
BRANCH 108 109
ATOM    109  S   UNL     1     -12.255   1.429 -18.728  1.00  0.00     0.124 S 
ATOM    110  O   UNL     1     -13.526   1.669 -18.054  1.00  0.00    -0.237 OA
ATOM    111  O   UNL     1     -11.138   2.264 -18.295  1.00  0.00    -0.237 OA
ATOM    112  O   UNL     1     -12.344   1.225 -20.172  1.00  0.00    -0.744 OA
ENDBRANCH 108 109
ENDBRANCH  76 101
ENDBRANCH  50  51
ENDBRANCH  43  45
ENDBRANCH  42  43
ENDBRANCH  41  42
ENDBRANCH  40  41
ENDBRANCH  39  40
ENDBRANCH  38  39
ENDBRANCH  37  38
ENDBRANCH   1  37
TORSDOF 28
