REMARK SMILES O=C(OCCOCCOCCOCCOC(=O)[C@H]1[C@H]2CC[C@H](CC2)[C@@H]1C(=O)Nc1ccc(Cc2ccncc2)cc1)c1ccc(-c2c3nc(c(-c4c(F)cc(S(=O)(=O)[O-])cc4F)c4ccc([nH]4)c(-c4c(F)cc(S(=O)(=O)[O-])cc4F)c4nc(c(-c5c(F)cc(S(=O)(=O)[O-])cc5F)c5ccc2[nH]5)C=C4)C=C3)cc1
REMARK SMILES IDX 10 1 9 2 8 3 7 4 6 5 5 6 4 7 3 8 2 9 1 10 42 11 43 12 107 13
REMARK SMILES IDX 44 14 106 15 45 16 46 17 47 18 100 19 48 20 105 21 99 22
REMARK SMILES IDX 101 23 49 24 104 25 98 26 97 27 50 29 84 30 63 31 83 32
REMARK SMILES IDX 64 33 67 34 82 35 102 36 65 37 66 38 81 40 103 41 68 42
REMARK SMILES IDX 51 43 52 44 61 45 53 46 54 47 60 48 62 49 55 50 56 51 57 52
REMARK SMILES IDX 58 53 59 54 85 55 86 56 95 57 87 58 88 59 94 60 96 61 89 62
REMARK SMILES IDX 90 63 91 64 92 65 93 66 69 67 70 68 79 69 71 70 72 71 78 72
REMARK SMILES IDX 80 73 73 74 74 75 75 76 76 77 77 78 11 79 12 80 13 81 14 82
REMARK SMILES IDX 15 83 16 84 17 85 18 86 19 87 25 88 24 89 20 90 22 91 23 92
REMARK SMILES IDX 21 93 26 94 27 95 28 96 29 98 30 99 41 100 31 101 40 102
REMARK SMILES IDX 32 103 33 104 34 105 35 106 39 107 36 108 38 109 37 110
REMARK H PARENT 101 28 67 39 28 97
REMARK Flexibility Score: inf
ROOT
ATOM      1  C   UNL     1       4.841  -2.893   1.211  1.00  0.00     0.188 C 
ENDROOT
BRANCH   1   2
ATOM      2  O   UNL     1       3.535  -3.040   1.766  1.00  0.00    -0.377 OA
BRANCH   2   3
ATOM      3  C   UNL     1       2.427  -2.352   1.207  1.00  0.00     0.188 C 
BRANCH   3   4
ATOM      4  C   UNL     1       2.590  -0.847   1.214  1.00  0.00     0.188 C 
BRANCH   4   5
ATOM      5  O   UNL     1       3.822  -0.547   0.597  1.00  0.00    -0.376 OA
BRANCH   5   6
ATOM      6  C   UNL     1       4.669   0.421   1.189  1.00  0.00     0.202 C 
BRANCH   6   7
ATOM      7  C   UNL     1       4.164   1.843   1.045  1.00  0.00     0.261 C 
BRANCH   7   8
ATOM      8  O   UNL     1       2.817   1.961   0.553  1.00  0.00    -0.460 OA
BRANCH   8   9
ATOM      9  C   UNL     1       2.275   1.734  -0.665  1.00  0.00     0.338 C 
ATOM     10  O   UNL     1       1.056   1.871  -0.782  1.00  0.00    -0.246 OA
BRANCH   9  11
ATOM     11  C   UNL     1       3.031   1.366  -1.899  1.00  0.00     0.060 A 
ATOM     12  C   UNL     1       4.110   0.489  -1.969  1.00  0.00     0.016 A 
ATOM     13  C   UNL     1       2.514   1.846  -3.112  1.00  0.00     0.016 A 
ATOM     14  C   UNL     1       4.707   0.136  -3.161  1.00  0.00     0.010 A 
ATOM     15  C   UNL     1       3.095   1.488  -4.333  1.00  0.00     0.010 A 
ATOM     16  C   UNL     1       4.216   0.652  -4.346  1.00  0.00    -0.014 A 
BRANCH  16  17
ATOM     17  C   UNL     1       5.073   0.486  -5.523  1.00  0.00     0.031 A 
ATOM     18  C   UNL     1       5.880   1.676  -5.935  1.00  0.00     0.074 A 
ATOM     19  C   UNL     1       5.264  -0.737  -6.049  1.00  0.00     0.049 A 
ATOM     20  N   UNL     1       6.638   1.840  -6.979  1.00  0.00    -0.248 NA
ATOM     21  C   UNL     1       5.837   2.844  -5.032  1.00  0.00     0.031 C 
ATOM     22  C   UNL     1       4.663  -1.978  -5.546  1.00  0.00     0.029 A 
ATOM     23  N   UNL     1       6.043  -1.144  -7.093  1.00  0.00    -0.354 N 
ATOM     24  C   UNL     1       7.112   3.142  -6.890  1.00  0.00     0.074 A 
ATOM     25  C   UNL     1       6.568   3.727  -5.689  1.00  0.00     0.031 C 
ATOM     26  C   UNL     1       5.104  -3.009  -6.286  1.00  0.00     0.029 A 
ATOM     27  C   UNL     1       5.938  -2.488  -7.361  1.00  0.00     0.049 A 
ATOM     28  H   UNL     1       6.624  -0.535  -7.604  1.00  0.00     0.167 HD
ATOM     29  C   UNL     1       7.920   3.783  -7.760  1.00  0.00     0.037 A 
ATOM     30  C   UNL     1       6.420  -3.190  -8.403  1.00  0.00     0.037 A 
ATOM     31  C   UNL     1       8.439   3.140  -8.934  1.00  0.00     0.049 A 
ATOM     32  C   UNL     1       7.215  -2.426  -9.428  1.00  0.00     0.074 A 
ATOM     33  C   UNL     1       9.199   3.676  -9.953  1.00  0.00     0.029 A 
ATOM     34  N   UNL     1       8.242   1.796  -9.235  1.00  0.00    -0.354 N 
ATOM     35  N   UNL     1       7.569  -1.159  -9.418  1.00  0.00    -0.248 NA
ATOM     36  C   UNL     1       7.659  -3.167 -10.612  1.00  0.00     0.031 C 
ATOM     37  C   UNL     1       9.416   2.667 -10.898  1.00  0.00     0.029 A 
ATOM     38  C   UNL     1       8.847   1.486 -10.436  1.00  0.00     0.049 A 
ATOM     39  H   UNL     1       7.743   1.159  -8.674  1.00  0.00     0.167 HD
ATOM     40  C   UNL     1       8.294  -0.954 -10.582  1.00  0.00     0.074 A 
ATOM     41  C   UNL     1       8.341  -2.235 -11.265  1.00  0.00     0.031 C 
ATOM     42  C   UNL     1       8.868   0.182 -11.055  1.00  0.00     0.037 A 
BRANCH  29  43
ATOM     43  C   UNL     1       8.181   5.240  -7.511  1.00  0.00     0.058 A 
ATOM     44  C   UNL     1       8.977   5.694  -6.447  1.00  0.00     0.135 A 
ATOM     45  C   UNL     1       7.569   6.207  -8.326  1.00  0.00     0.135 A 
ATOM     46  F   UNL     1       9.548   4.816  -5.607  1.00  0.00    -0.206 F 
ATOM     47  C   UNL     1       9.139   7.052  -6.187  1.00  0.00     0.059 A 
ATOM     48  C   UNL     1       7.738   7.569  -8.101  1.00  0.00     0.059 A 
ATOM     49  F   UNL     1       6.774   5.830  -9.340  1.00  0.00    -0.206 F 
ATOM     50  C   UNL     1       8.514   7.982  -7.021  1.00  0.00     0.060 A 
BRANCH  50  51
ATOM     51  S   UNL     1       8.732   9.739  -6.667  1.00  0.00     0.124 S 
ATOM     52  O   UNL     1       7.933   9.896  -5.457  1.00  0.00    -0.237 OA
ATOM     53  O   UNL     1      10.174   9.846  -6.496  1.00  0.00    -0.237 OA
ATOM     54  O   UNL     1       8.194  10.394  -7.862  1.00  0.00    -0.744 OA
ENDBRANCH  50  51
ENDBRANCH  29  43
BRANCH  30  55
ATOM     55  C   UNL     1       6.099  -4.635  -8.560  1.00  0.00     0.058 A 
ATOM     56  C   UNL     1       7.099  -5.618  -8.532  1.00  0.00     0.135 A 
ATOM     57  C   UNL     1       4.773  -5.068  -8.740  1.00  0.00     0.135 A 
ATOM     58  F   UNL     1       8.382  -5.263  -8.370  1.00  0.00    -0.206 F 
ATOM     59  C   UNL     1       6.801  -6.970  -8.691  1.00  0.00     0.059 A 
ATOM     60  C   UNL     1       4.447  -6.415  -8.869  1.00  0.00     0.059 A 
ATOM     61  F   UNL     1       3.770  -4.176  -8.768  1.00  0.00    -0.206 F 
ATOM     62  C   UNL     1       5.470  -7.359  -8.855  1.00  0.00     0.060 A 
BRANCH  62  63
ATOM     63  S   UNL     1       5.090  -9.117  -9.026  1.00  0.00     0.124 S 
ATOM     64  O   UNL     1       5.630  -9.408 -10.349  1.00  0.00    -0.237 OA
ATOM     65  O   UNL     1       5.810  -9.697  -7.897  1.00  0.00    -0.237 OA
ATOM     66  O   UNL     1       3.634  -9.159  -8.915  1.00  0.00    -0.744 OA
ENDBRANCH  62  63
ENDBRANCH  30  55
BRANCH  42  67
ATOM     67  C   UNL     1       9.630   0.066 -12.341  1.00  0.00     0.058 A 
ATOM     68  C   UNL     1       8.977  -0.075 -13.574  1.00  0.00     0.135 A 
ATOM     69  C   UNL     1      11.029   0.177 -12.337  1.00  0.00     0.135 A 
ATOM     70  F   UNL     1       7.640  -0.192 -13.623  1.00  0.00    -0.206 F 
ATOM     71  C   UNL     1       9.691  -0.123 -14.763  1.00  0.00     0.059 A 
ATOM     72  C   UNL     1      11.759   0.166 -13.517  1.00  0.00     0.059 A 
ATOM     73  F   UNL     1      11.694   0.328 -11.180  1.00  0.00    -0.206 F 
ATOM     74  C   UNL     1      11.081   0.005 -14.724  1.00  0.00     0.060 A 
BRANCH  74  75
ATOM     75  S   UNL     1      11.991  -0.008 -16.281  1.00  0.00     0.124 S 
ATOM     76  O   UNL     1      11.909  -1.416 -16.655  1.00  0.00    -0.237 OA
ATOM     77  O   UNL     1      11.213   0.914 -17.103  1.00  0.00    -0.237 OA
ATOM     78  O   UNL     1      13.318   0.466 -15.902  1.00  0.00    -0.744 OA
ENDBRANCH  74  75
ENDBRANCH  42  67
ENDBRANCH  16  17
ENDBRANCH   9  11
ENDBRANCH   8   9
ENDBRANCH   7   8
ENDBRANCH   6   7
ENDBRANCH   5   6
ENDBRANCH   4   5
ENDBRANCH   3   4
ENDBRANCH   2   3
ENDBRANCH   1   2
BRANCH   1  79
ATOM     79  C   UNL     1       5.040  -3.220  -0.269  1.00  0.00     0.188 C 
BRANCH  79  80
ATOM     80  O   UNL     1       3.859  -3.650  -0.934  1.00  0.00    -0.376 OA
BRANCH  80  81
ATOM     81  C   UNL     1       3.740  -5.056  -1.093  1.00  0.00     0.202 C 
BRANCH  81  82
ATOM     82  C   UNL     1       2.942  -5.815  -0.007  1.00  0.00     0.261 C 
BRANCH  82  83
ATOM     83  O   UNL     1       3.249  -5.671   1.402  1.00  0.00    -0.463 OA
BRANCH  83  84
ATOM     84  C   UNL     1       4.532  -5.718   1.807  1.00  0.00     0.310 C 
ATOM     85  O   UNL     1       5.477  -5.896   1.042  1.00  0.00    -0.252 OA
BRANCH  84  86
ATOM     86  C   UNL     1       4.760  -5.594   3.318  1.00  0.00     0.115 C 
ATOM     87  C   UNL     1       4.022  -4.499   4.138  1.00  0.00     0.004 C 
ATOM     88  C   UNL     1       4.553  -6.966   3.976  1.00  0.00     0.096 C 
ATOM     89  C   UNL     1       2.526  -4.814   4.290  1.00  0.00     0.005 C 
ATOM     90  C   UNL     1       4.642  -4.457   5.548  1.00  0.00     0.005 C 
ATOM     91  C   UNL     1       3.731  -6.790   5.293  1.00  0.00     0.002 C 
ATOM     92  C   UNL     1       2.351  -6.207   4.904  1.00  0.00     0.005 C 
ATOM     93  C   UNL     1       4.380  -5.779   6.264  1.00  0.00     0.005 C 
BRANCH  88  94
ATOM     94  C   UNL     1       5.917  -7.620   4.234  1.00  0.00     0.228 C 
ATOM     95  O   UNL     1       6.755  -7.097   4.973  1.00  0.00    -0.274 OA
ATOM     96  N   UNL     1       6.192  -8.863   3.735  1.00  0.00    -0.326 N 
ATOM     97  H   UNL     1       6.965  -9.315   4.144  1.00  0.00     0.169 HD
BRANCH  96  98
ATOM     98  C   UNL     1       5.542  -9.589   2.732  1.00  0.00     0.041 A 
ATOM     99  C   UNL     1       5.332 -10.946   2.925  1.00  0.00     0.026 A 
ATOM    100  C   UNL     1       5.161  -9.016   1.523  1.00  0.00     0.026 A 
ATOM    101  C   UNL     1       4.610 -11.678   1.977  1.00  0.00     0.006 A 
ATOM    102  C   UNL     1       4.462  -9.741   0.560  1.00  0.00     0.006 A 
ATOM    103  C   UNL     1       4.152 -11.079   0.792  1.00  0.00    -0.043 A 
BRANCH 103 104
ATOM    104  C   UNL     1       3.385 -11.866  -0.245  1.00  0.00     0.071 C 
BRANCH 104 105
ATOM    105  C   UNL     1       4.259 -12.688  -1.160  1.00  0.00    -0.041 A 
ATOM    106  C   UNL     1       4.969 -13.789  -0.672  1.00  0.00     0.024 A 
ATOM    107  C   UNL     1       4.385 -12.372  -2.516  1.00  0.00     0.024 A 
ATOM    108  C   UNL     1       5.770 -14.510  -1.541  1.00  0.00     0.111 A 
ATOM    109  C   UNL     1       5.203 -13.164  -3.312  1.00  0.00     0.111 A 
ATOM    110  N   UNL     1       5.896 -14.229  -2.852  1.00  0.00    -0.265 NA
ENDBRANCH 104 105
ENDBRANCH 103 104
ENDBRANCH  96  98
ENDBRANCH  88  94
ENDBRANCH  84  86
ENDBRANCH  83  84
ENDBRANCH  82  83
ENDBRANCH  81  82
ENDBRANCH  80  81
ENDBRANCH  79  80
ENDBRANCH   1  79
TORSDOF 27
