REMARK SMILES NS(=O)(=O)c1ccc(/N=C/c2ccc(O)c(C(=O)OCCOCCOCCOCCOC(=O)c3ccc(-c4c5nc(c(-c6c(F)cc(S(=O)(=O)[O-])cc6F)c6ccc([nH]6)c(-c6c(F)cc(S(=O)(=O)[O-])cc6F)c6nc(c(-c7c(F)cc(S(=O)(=O)[O-])cc7F)c7ccc4[nH]7)C=C6)C=C5)cc3)c2)cc1
REMARK SMILES IDX 24 1 23 2 22 3 21 4 20 5 19 6 17 7 18 8 16 9 11 10 12 11
REMARK SMILES IDX 100 12 13 13 14 14 10 15 9 16 8 17 5 18 6 19 102 20 7 21
REMARK SMILES IDX 101 22 2 23 3 24 4 25 1 26 15 29 25 31 26 32 27 33 28 34
REMARK SMILES IDX 29 35 30 36 31 37 32 38 33 39 34 40 35 41 99 42 36 43 98 44
REMARK SMILES IDX 37 45 38 46 39 47 92 48 40 49 97 50 91 51 93 52 41 53 96 54
REMARK SMILES IDX 90 55 89 56 42 58 76 59 55 60 75 61 56 62 59 63 74 64 94 65
REMARK SMILES IDX 57 66 58 67 73 69 95 70 60 71 43 72 44 73 53 74 45 75 46 76
REMARK SMILES IDX 52 77 54 78 47 79 48 80 49 81 50 82 51 83 77 84 78 85 87 86
REMARK SMILES IDX 79 87 80 88 86 89 88 90 81 91 82 92 83 93 84 94 85 95 61 96
REMARK SMILES IDX 62 97 71 98 63 99 64 100 70 101 72 102 65 103 66 104 67 105
REMARK SMILES IDX 68 106 69 107
REMARK H PARENT 1 27 1 28 15 30 93 57 59 68
REMARK Flexibility Score: inf
ROOT
ATOM      1  C   UNL     1       6.194  -6.288   8.548  1.00  0.00     0.188 C 
ENDROOT
BRANCH   1   2
ATOM      2  C   UNL     1       6.086  -7.689   9.180  1.00  0.00     0.188 C 
BRANCH   2   3
ATOM      3  O   UNL     1       6.654  -8.716   8.383  1.00  0.00    -0.376 OA
BRANCH   3   4
ATOM      4  C   UNL     1       5.785  -9.636   7.748  1.00  0.00     0.202 C 
BRANCH   4   5
ATOM      5  C   UNL     1       4.810  -9.109   6.683  1.00  0.00     0.261 C 
BRANCH   5   6
ATOM      6  O   UNL     1       4.038  -7.953   7.034  1.00  0.00    -0.460 OA
BRANCH   6   7
ATOM      7  C   UNL     1       3.099  -8.081   7.991  1.00  0.00     0.342 C 
ATOM      8  O   UNL     1       2.825  -9.086   8.628  1.00  0.00    -0.246 OA
BRANCH   7   9
ATOM      9  C   UNL     1       2.642  -6.728   8.383  1.00  0.00     0.102 A 
ATOM     10  C   UNL     1       2.129  -4.428   7.843  1.00  0.00    -0.006 A 
ATOM     11  C   UNL     1       2.045  -4.122   9.207  1.00  0.00     0.013 A 
ATOM     12  C   UNL     1       2.444  -5.725   7.425  1.00  0.00     0.029 A 
ATOM     13  C   UNL     1       2.243  -5.122  10.159  1.00  0.00     0.048 A 
ATOM     14  C   UNL     1       2.521  -6.423   9.748  1.00  0.00     0.130 A 
BRANCH  10  15
ATOM     15  C   UNL     1       1.850  -3.351   6.870  1.00  0.00     0.119 C 
ATOM     16  N   UNL     1       1.856  -3.566   5.596  1.00  0.00    -0.256 NA
BRANCH  16  17
ATOM     17  C   UNL     1       1.530  -2.541   4.688  1.00  0.00     0.063 A 
ATOM     18  C   UNL     1       0.852  -0.637   2.731  1.00  0.00     0.082 A 
ATOM     19  C   UNL     1       0.727  -1.997   2.446  1.00  0.00     0.024 A 
ATOM     20  C   UNL     1       1.322  -0.217   3.976  1.00  0.00     0.024 A 
ATOM     21  C   UNL     1       1.067  -2.936   3.425  1.00  0.00     0.030 A 
ATOM     22  C   UNL     1       1.667  -1.169   4.943  1.00  0.00     0.030 A 
BRANCH  18  23
ATOM     23  S   UNL     1       0.458   0.567   1.497  1.00  0.00     0.238 S 
ATOM     24  O   UNL     1       1.129   1.804   1.820  1.00  0.00    -0.207 OA
ATOM     25  O   UNL     1      -0.963   0.506   1.239  1.00  0.00    -0.207 OA
BRANCH  23  26
ATOM     26  N   UNL     1       1.228  -0.021   0.132  1.00  0.00    -0.225 NA
ATOM     27  H   UNL     1       1.061   0.611  -0.651  1.00  0.00     0.137 HD
ATOM     28  H   UNL     1       0.862  -0.946  -0.093  1.00  0.00     0.137 HD
ENDBRANCH  23  26
ENDBRANCH  18  23
ENDBRANCH  16  17
ENDBRANCH  10  15
BRANCH  14  29
ATOM     29  O   UNL     1       2.715  -7.344  10.744  1.00  0.00    -0.507 OA
ATOM     30  H   UNL     1       2.622  -7.090  11.641  1.00  0.00     0.293 HD
ENDBRANCH  14  29
ENDBRANCH   7   9
ENDBRANCH   6   7
ENDBRANCH   5   6
ENDBRANCH   4   5
ENDBRANCH   3   4
ENDBRANCH   2   3
ENDBRANCH   1   2
BRANCH   1  31
ATOM     31  O   UNL     1       6.614  -6.211   7.198  1.00  0.00    -0.377 OA
BRANCH  31  32
ATOM     32  C   UNL     1       7.846  -6.811   6.803  1.00  0.00     0.188 C 
BRANCH  32  33
ATOM     33  C   UNL     1       8.929  -7.239   7.825  1.00  0.00     0.188 C 
BRANCH  33  34
ATOM     34  O   UNL     1       8.783  -6.690   9.126  1.00  0.00    -0.376 OA
BRANCH  34  35
ATOM     35  C   UNL     1       9.734  -5.718   9.528  1.00  0.00     0.202 C 
BRANCH  35  36
ATOM     36  C   UNL     1       9.624  -4.364   8.818  1.00  0.00     0.261 C 
BRANCH  36  37
ATOM     37  O   UNL     1       9.742  -4.403   7.389  1.00  0.00    -0.460 OA
BRANCH  37  38
ATOM     38  C   UNL     1      10.913  -4.841   6.874  1.00  0.00     0.338 C 
ATOM     39  O   UNL     1      11.897  -5.207   7.489  1.00  0.00    -0.246 OA
BRANCH  38  40
ATOM     40  C   UNL     1      10.726  -4.971   5.416  1.00  0.00     0.060 A 
ATOM     41  C   UNL     1      10.900  -6.220   4.805  1.00  0.00     0.016 A 
ATOM     42  C   UNL     1      10.355  -3.855   4.663  1.00  0.00     0.016 A 
ATOM     43  C   UNL     1      10.734  -6.348   3.425  1.00  0.00     0.010 A 
ATOM     44  C   UNL     1      10.211  -3.980   3.283  1.00  0.00     0.010 A 
ATOM     45  C   UNL     1      10.434  -5.218   2.654  1.00  0.00    -0.014 A 
BRANCH  45  46
ATOM     46  C   UNL     1      10.580  -5.252   1.180  1.00  0.00     0.031 A 
ATOM     47  C   UNL     1      11.874  -4.754   0.598  1.00  0.00     0.074 A 
ATOM     48  C   UNL     1       9.587  -5.675   0.378  1.00  0.00     0.049 A 
ATOM     49  N   UNL     1      12.200  -4.545  -0.649  1.00  0.00    -0.248 NA
ATOM     50  C   UNL     1      12.943  -4.438   1.562  1.00  0.00     0.031 C 
ATOM     51  C   UNL     1       8.308  -6.220   0.828  1.00  0.00     0.029 A 
ATOM     52  N   UNL     1       9.498  -5.688  -0.992  1.00  0.00    -0.354 N 
ATOM     53  C   UNL     1      13.501  -4.058  -0.620  1.00  0.00     0.074 A 
ATOM     54  C   UNL     1      13.898  -3.980   0.768  1.00  0.00     0.031 C 
ATOM     55  C   UNL     1       7.550  -6.493  -0.250  1.00  0.00     0.029 A 
ATOM     56  C   UNL     1       8.274  -6.103  -1.460  1.00  0.00     0.049 A 
ATOM     57  H   UNL     1      10.241  -5.426  -1.583  1.00  0.00     0.167 HD
ATOM     58  C   UNL     1      14.295  -3.709  -1.659  1.00  0.00     0.037 A 
ATOM     59  C   UNL     1       7.787  -6.129  -2.717  1.00  0.00     0.037 A 
ATOM     60  C   UNL     1      13.888  -3.786  -3.036  1.00  0.00     0.049 A 
ATOM     61  C   UNL     1       8.663  -5.667  -3.857  1.00  0.00     0.074 A 
ATOM     62  C   UNL     1      14.618  -3.465  -4.166  1.00  0.00     0.029 A 
ATOM     63  N   UNL     1      12.639  -4.206  -3.469  1.00  0.00    -0.354 N 
ATOM     64  N   UNL     1       9.896  -5.218  -3.822  1.00  0.00    -0.248 NA
ATOM     65  C   UNL     1       8.083  -5.713  -5.208  1.00  0.00     0.031 C 
ATOM     66  C   UNL     1      13.792  -3.640  -5.280  1.00  0.00     0.029 A 
ATOM     67  C   UNL     1      12.570  -4.133  -4.849  1.00  0.00     0.049 A 
ATOM     68  H   UNL     1      11.910  -4.511  -2.881  1.00  0.00     0.167 HD
ATOM     69  C   UNL     1      10.251  -4.969  -5.145  1.00  0.00     0.074 A 
ATOM     70  C   UNL     1       9.103  -5.313  -5.956  1.00  0.00     0.031 C 
ATOM     71  C   UNL     1      11.425  -4.505  -5.643  1.00  0.00     0.037 A 
BRANCH  58  72
ATOM     72  C   UNL     1      15.666  -3.182  -1.340  1.00  0.00     0.058 A 
ATOM     73  C   UNL     1      16.680  -4.011  -0.834  1.00  0.00     0.135 A 
ATOM     74  C   UNL     1      15.976  -1.831  -1.567  1.00  0.00     0.135 A 
ATOM     75  F   UNL     1      16.431  -5.305  -0.577  1.00  0.00    -0.206 F 
ATOM     76  C   UNL     1      17.945  -3.513  -0.538  1.00  0.00     0.059 A 
ATOM     77  C   UNL     1      17.243  -1.319  -1.307  1.00  0.00     0.059 A 
ATOM     78  F   UNL     1      15.042  -0.994  -2.043  1.00  0.00    -0.206 F 
ATOM     79  C   UNL     1      18.217  -2.165  -0.780  1.00  0.00     0.060 A 
BRANCH  79  80
ATOM     80  S   UNL     1      19.865  -1.537  -0.397  1.00  0.00     0.124 S 
ATOM     81  O   UNL     1      19.844  -1.536   1.062  1.00  0.00    -0.237 OA
ATOM     82  O   UNL     1      20.730  -2.536  -1.017  1.00  0.00    -0.237 OA
ATOM     83  O   UNL     1      19.882  -0.220  -1.025  1.00  0.00    -0.744 OA
ENDBRANCH  79  80
ENDBRANCH  58  72
BRANCH  59  84
ATOM     84  C   UNL     1       6.395  -6.591  -2.970  1.00  0.00     0.058 A 
ATOM     85  C   UNL     1       6.141  -7.790  -3.654  1.00  0.00     0.135 A 
ATOM     86  C   UNL     1       5.289  -5.843  -2.536  1.00  0.00     0.135 A 
ATOM     87  F   UNL     1       7.163  -8.534  -4.103  1.00  0.00    -0.206 F 
ATOM     88  C   UNL     1       4.844  -8.223  -3.912  1.00  0.00     0.059 A 
ATOM     89  C   UNL     1       3.983  -6.269  -2.757  1.00  0.00     0.059 A 
ATOM     90  F   UNL     1       5.474  -4.691  -1.873  1.00  0.00    -0.206 F 
ATOM     91  C   UNL     1       3.771  -7.457  -3.456  1.00  0.00     0.060 A 
BRANCH  91  92
ATOM     92  S   UNL     1       2.092  -8.052  -3.756  1.00  0.00     0.124 S 
ATOM     93  O   UNL     1       1.958  -7.842  -5.192  1.00  0.00    -0.237 OA
ATOM     94  O   UNL     1       2.178  -9.441  -3.317  1.00  0.00    -0.237 OA
ATOM     95  O   UNL     1       1.273  -7.186  -2.912  1.00  0.00    -0.744 OA
ENDBRANCH  91  92
ENDBRANCH  59  84
BRANCH  71  96
ATOM     96  C   UNL     1      11.566  -4.400  -7.138  1.00  0.00     0.058 A 
ATOM     97  C   UNL     1      10.930  -3.391  -7.877  1.00  0.00     0.135 A 
ATOM     98  C   UNL     1      12.434  -5.267  -7.823  1.00  0.00     0.135 A 
ATOM     99  F   UNL     1      10.087  -2.540  -7.272  1.00  0.00    -0.206 F 
ATOM    100  C   UNL     1      11.144  -3.251  -9.245  1.00  0.00     0.059 A 
ATOM    101  C   UNL     1      12.684  -5.127  -9.184  1.00  0.00     0.059 A 
ATOM    102  F   UNL     1      13.076  -6.243  -7.161  1.00  0.00    -0.206 F 
ATOM    103  C   UNL     1      12.030  -4.118  -9.888  1.00  0.00     0.060 A 
BRANCH 103 104
ATOM    104  S   UNL     1      12.347  -3.883 -11.650  1.00  0.00     0.124 S 
ATOM    105  O   UNL     1      11.096  -4.349 -12.239  1.00  0.00    -0.237 OA
ATOM    106  O   UNL     1      12.591  -2.446 -11.733  1.00  0.00    -0.237 OA
ATOM    107  O   UNL     1      13.512  -4.726 -11.902  1.00  0.00    -0.744 OA
ENDBRANCH 103 104
ENDBRANCH  71  96
ENDBRANCH  45  46
ENDBRANCH  38  40
ENDBRANCH  37  38
ENDBRANCH  36  37
ENDBRANCH  35  36
ENDBRANCH  34  35
ENDBRANCH  33  34
ENDBRANCH  32  33
ENDBRANCH  31  32
ENDBRANCH   1  31
TORSDOF 28
