REMARK SMILES C[C@@H](C(=O)OCCOCCOCCOCCOC(=O)c1ccc(-c2c3nc(c(-c4c(F)cc(S(=O)(=O)[O-])cc4F)c4ccc([nH]4)c(-c4c(F)cc(S(=O)(=O)[O-])cc4F)c4nc(c(-c5c(F)cc(S(=O)(=O)[O-])cc5F)c5ccc2[nH]5)C=C4)C=C3)cc1)c1ccc(-c2ccccc2)cc1
REMARK SMILES IDX 12 1 11 2 10 3 9 4 8 5 7 6 6 7 5 8 3 9 4 10 2 11 1 12 86 13
REMARK SMILES IDX 87 14 97 15 88 16 96 17 89 18 90 19 91 20 95 21 92 22 94 23
REMARK SMILES IDX 93 24 13 25 14 26 15 27 16 28 17 29 18 30 19 31 20 32 21 33
REMARK SMILES IDX 85 34 22 35 84 36 23 37 24 38 25 39 78 40 26 41 83 42 77 43
REMARK SMILES IDX 79 44 27 45 82 46 76 47 75 48 28 50 62 51 41 52 61 53 42 54
REMARK SMILES IDX 45 55 60 56 80 57 43 58 44 59 59 61 81 62 46 63 29 64 30 65
REMARK SMILES IDX 39 66 31 67 32 68 38 69 40 70 33 71 34 72 35 73 36 74 37 75
REMARK SMILES IDX 63 76 64 77 73 78 65 79 66 80 72 81 74 82 67 83 68 84 69 85
REMARK SMILES IDX 70 86 71 87 47 88 48 89 57 90 49 91 50 92 56 93 58 94 51 95
REMARK SMILES IDX 52 96 53 97 54 98 55 99
REMARK H PARENT 79 49 45 60
REMARK Flexibility Score: inf
ROOT
ATOM      1  C   UNL     1       3.004   2.700   3.053  1.00  0.00     0.188 C 
ENDROOT
BRANCH   1   2
ATOM      2  O   UNL     1       2.469   1.468   2.599  1.00  0.00    -0.377 OA
BRANCH   2   3
ATOM      3  C   UNL     1       1.088   1.446   2.306  1.00  0.00     0.188 C 
BRANCH   3   4
ATOM      4  C   UNL     1       0.192   0.913   3.440  1.00  0.00     0.188 C 
BRANCH   4   5
ATOM      5  O   UNL     1       0.740   0.650   4.723  1.00  0.00    -0.376 OA
BRANCH   5   6
ATOM      6  C   UNL     1       1.989  -0.016   4.845  1.00  0.00     0.202 C 
BRANCH   6   7
ATOM      7  C   UNL     1       2.374  -1.223   3.963  1.00  0.00     0.261 C 
BRANCH   7   8
ATOM      8  O   UNL     1       1.927  -1.202   2.595  1.00  0.00    -0.463 OA
BRANCH   8   9
ATOM      9  C   UNL     1       0.969  -2.096   2.252  1.00  0.00     0.313 C 
ATOM     10  O   UNL     1       0.508  -2.931   3.026  1.00  0.00    -0.252 OA
BRANCH   9  11
ATOM     11  C   UNL     1       0.460  -1.951   0.801  1.00  0.00     0.126 C 
ATOM     12  C   UNL     1       1.279  -1.094  -0.177  1.00  0.00     0.025 C 
BRANCH  11  13
ATOM     13  C   UNL     1      -1.049  -1.686   0.797  1.00  0.00    -0.034 A 
ATOM     14  C   UNL     1      -1.632  -0.413   0.708  1.00  0.00     0.005 A 
ATOM     15  C   UNL     1      -1.903  -2.776   1.015  1.00  0.00     0.005 A 
ATOM     16  C   UNL     1      -3.016  -0.239   0.863  1.00  0.00     0.009 A 
ATOM     17  C   UNL     1      -3.281  -2.603   1.153  1.00  0.00     0.009 A 
ATOM     18  C   UNL     1      -3.865  -1.331   1.089  1.00  0.00    -0.018 A 
BRANCH  18  19
ATOM     19  C   UNL     1      -5.321  -1.165   1.244  1.00  0.00    -0.018 A 
ATOM     20  C   UNL     1      -6.069  -0.431   0.309  1.00  0.00     0.009 A 
ATOM     21  C   UNL     1      -6.011  -1.768   2.310  1.00  0.00     0.009 A 
ATOM     22  C   UNL     1      -7.457  -0.321   0.422  1.00  0.00     0.001 A 
ATOM     23  C   UNL     1      -7.400  -1.660   2.425  1.00  0.00     0.001 A 
ATOM     24  C   UNL     1      -8.123  -0.941   1.477  1.00  0.00     0.000 A 
ENDBRANCH  18  19
ENDBRANCH  11  13
ENDBRANCH   9  11
ENDBRANCH   8   9
ENDBRANCH   7   8
ENDBRANCH   6   7
ENDBRANCH   5   6
ENDBRANCH   4   5
ENDBRANCH   3   4
ENDBRANCH   2   3
ENDBRANCH   1   2
BRANCH   1  25
ATOM     25  C   UNL     1       2.127   3.573   3.971  1.00  0.00     0.188 C 
BRANCH  25  26
ATOM     26  O   UNL     1       0.817   3.814   3.468  1.00  0.00    -0.376 OA
BRANCH  26  27
ATOM     27  C   UNL     1       0.560   5.038   2.794  1.00  0.00     0.202 C 
BRANCH  27  28
ATOM     28  C   UNL     1       1.211   5.240   1.415  1.00  0.00     0.261 C 
BRANCH  28  29
ATOM     29  O   UNL     1       2.644   5.182   1.367  1.00  0.00    -0.460 OA
BRANCH  29  30
ATOM     30  C   UNL     1       3.337   6.043   2.142  1.00  0.00     0.338 C 
ATOM     31  O   UNL     1       2.876   6.929   2.843  1.00  0.00    -0.246 OA
BRANCH  30  32
ATOM     32  C   UNL     1       4.747   5.599   2.164  1.00  0.00     0.060 A 
ATOM     33  C   UNL     1       5.333   5.273   3.394  1.00  0.00     0.016 A 
ATOM     34  C   UNL     1       5.479   5.484   0.979  1.00  0.00     0.016 A 
ATOM     35  C   UNL     1       6.667   4.868   3.447  1.00  0.00     0.010 A 
ATOM     36  C   UNL     1       6.823   5.104   1.037  1.00  0.00     0.010 A 
ATOM     37  C   UNL     1       7.432   4.829   2.275  1.00  0.00    -0.014 A 
BRANCH  37  38
ATOM     38  C   UNL     1       8.909   4.717   2.367  1.00  0.00     0.031 A 
ATOM     39  C   UNL     1       9.720   5.983   2.296  1.00  0.00     0.074 A 
ATOM     40  C   UNL     1       9.518   3.529   2.534  1.00  0.00     0.049 A 
ATOM     41  N   UNL     1      11.017   6.142   2.297  1.00  0.00    -0.248 NA
ATOM     42  C   UNL     1       8.959   7.242   2.210  1.00  0.00     0.031 C 
ATOM     43  C   UNL     1       8.840   2.241   2.663  1.00  0.00     0.029 A 
ATOM     44  N   UNL     1      10.853   3.217   2.614  1.00  0.00    -0.354 N 
ATOM     45  C   UNL     1      11.228   7.513   2.205  1.00  0.00     0.074 A 
ATOM     46  C   UNL     1       9.928   8.139   2.115  1.00  0.00     0.031 C 
ATOM     47  C   UNL     1       9.765   1.273   2.790  1.00  0.00     0.029 A 
ATOM     48  C   UNL     1      11.099   1.868   2.715  1.00  0.00     0.049 A 
ATOM     49  H   UNL     1      11.566   3.895   2.600  1.00  0.00     0.167 HD
ATOM     50  C   UNL     1      12.401   8.190   2.206  1.00  0.00     0.037 A 
ATOM     51  C   UNL     1      12.267   1.194   2.718  1.00  0.00     0.037 A 
ATOM     52  C   UNL     1      13.691   7.559   2.289  1.00  0.00     0.049 A 
ATOM     53  C   UNL     1      13.563   1.962   2.637  1.00  0.00     0.074 A 
ATOM     54  C   UNL     1      14.940   8.154   2.304  1.00  0.00     0.029 A 
ATOM     55  N   UNL     1      13.901   6.189   2.361  1.00  0.00    -0.354 N 
ATOM     56  N   UNL     1      13.752   3.260   2.567  1.00  0.00    -0.248 NA
ATOM     57  C   UNL     1      14.806   1.177   2.639  1.00  0.00     0.031 C 
ATOM     58  C   UNL     1      15.905   7.143   2.325  1.00  0.00     0.029 A 
ATOM     59  C   UNL     1      15.259   5.919   2.393  1.00  0.00     0.049 A 
ATOM     60  H   UNL     1      13.189   5.509   2.386  1.00  0.00     0.167 HD
ATOM     61  C   UNL     1      15.132   3.446   2.549  1.00  0.00     0.074 A 
ATOM     62  C   UNL     1      15.729   2.129   2.627  1.00  0.00     0.031 C 
ATOM     63  C   UNL     1      15.840   4.601   2.479  1.00  0.00     0.037 A 
BRANCH  50  64
ATOM     64  C   UNL     1      12.340   9.688   2.082  1.00  0.00     0.058 A 
ATOM     65  C   UNL     1      11.850  10.500   3.118  1.00  0.00     0.135 A 
ATOM     66  C   UNL     1      12.804  10.324   0.918  1.00  0.00     0.135 A 
ATOM     67  F   UNL     1      11.372   9.946   4.244  1.00  0.00    -0.206 F 
ATOM     68  C   UNL     1      11.798  11.885   2.994  1.00  0.00     0.059 A 
ATOM     69  C   UNL     1      12.791  11.709   0.786  1.00  0.00     0.059 A 
ATOM     70  F   UNL     1      13.278   9.597  -0.106  1.00  0.00    -0.206 F 
ATOM     71  C   UNL     1      12.273  12.480   1.825  1.00  0.00     0.060 A 
BRANCH  71  72
ATOM     72  S   UNL     1      12.205  14.278   1.685  1.00  0.00     0.124 S 
ATOM     73  O   UNL     1      10.770  14.506   1.551  1.00  0.00    -0.237 OA
ATOM     74  O   UNL     1      12.800  14.710   2.946  1.00  0.00    -0.237 OA
ATOM     75  O   UNL     1      12.998  14.558   0.492  1.00  0.00    -0.744 OA
ENDBRANCH  71  72
ENDBRANCH  50  64
BRANCH  51  76
ATOM     76  C   UNL     1      12.268  -0.294   2.783  1.00  0.00     0.058 A 
ATOM     77  C   UNL     1      12.760  -0.975   3.907  1.00  0.00     0.135 A 
ATOM     78  C   UNL     1      11.781  -1.067   1.716  1.00  0.00     0.135 A 
ATOM     79  F   UNL     1      13.251  -0.284   4.947  1.00  0.00    -0.206 F 
ATOM     80  C   UNL     1      12.781  -2.365   3.968  1.00  0.00     0.059 A 
ATOM     81  C   UNL     1      11.764  -2.457   1.765  1.00  0.00     0.059 A 
ATOM     82  F   UNL     1      11.294  -0.467   0.619  1.00  0.00    -0.206 F 
ATOM     83  C   UNL     1      12.275  -3.098   2.893  1.00  0.00     0.060 A 
BRANCH  83  84
ATOM     84  S   UNL     1      12.258  -4.901   3.005  1.00  0.00     0.124 S 
ATOM     85  O   UNL     1      13.677  -5.217   2.896  1.00  0.00    -0.237 OA
ATOM     86  O   UNL     1      11.653  -5.117   4.316  1.00  0.00    -0.237 OA
ATOM     87  O   UNL     1      11.432  -5.300   1.869  1.00  0.00    -0.744 OA
ENDBRANCH  83  84
ENDBRANCH  51  76
BRANCH  63  88
ATOM     88  C   UNL     1      17.343   4.506   2.529  1.00  0.00     0.058 A 
ATOM     89  C   UNL     1      18.091   3.994   1.458  1.00  0.00     0.135 A 
ATOM     90  C   UNL     1      18.046   4.993   3.644  1.00  0.00     0.135 A 
ATOM     91  F   UNL     1      17.472   3.512   0.369  1.00  0.00    -0.206 F 
ATOM     92  C   UNL     1      19.482   3.946   1.500  1.00  0.00     0.059 A 
ATOM     93  C   UNL     1      19.437   4.985   3.694  1.00  0.00     0.059 A 
ATOM     94  F   UNL     1      17.382   5.506   4.692  1.00  0.00    -0.206 F 
ATOM     95  C   UNL     1      20.146   4.447   2.621  1.00  0.00     0.060 A 
BRANCH  95  96
ATOM     96  S   UNL     1      21.951   4.409   2.647  1.00  0.00     0.124 S 
ATOM     97  O   UNL     1      22.212   2.983   2.817  1.00  0.00    -0.237 OA
ATOM     98  O   UNL     1      22.292   4.965   1.342  1.00  0.00    -0.237 OA
ATOM     99  O   UNL     1      22.293   5.250   3.791  1.00  0.00    -0.744 OA
ENDBRANCH  95  96
ENDBRANCH  63  88
ENDBRANCH  37  38
ENDBRANCH  30  32
ENDBRANCH  29  30
ENDBRANCH  28  29
ENDBRANCH  27  28
ENDBRANCH  26  27
ENDBRANCH  25  26
ENDBRANCH   1  25
TORSDOF 25
