REMARK SMILES C[C@H]([NH2+][C@@H](C)Cc1cccs1)[C@@H](C)C(=O)OCCOCCOCCOCCOC(=O)c1ccc(-c2c3nc(c(-c4c(F)cc(S(=O)(=O)[O-])cc4F)c4ccc([nH]4)c(-c4c(F)cc(S(=O)(=O)[O-])cc4F)c4nc(c(-c5c(F)cc(S(=O)(=O)[O-])cc5F)c5ccc2[nH]5)C=C4)C=C3)cc1
REMARK SMILES IDX 21 1 20 2 19 3 18 4 17 5 16 6 14 7 15 8 12 9 13 10 2 11 1 12
REMARK SMILES IDX 3 13 4 16 5 17 6 18 7 19 8 20 11 21 9 22 10 23 22 24 23 25
REMARK SMILES IDX 24 26 25 27 26 28 27 29 28 30 29 31 30 32 31 33 32 34 96 35
REMARK SMILES IDX 33 36 95 37 34 38 35 39 36 40 89 41 37 42 94 43 88 44 90 45
REMARK SMILES IDX 38 46 93 47 87 48 86 49 39 51 73 52 52 53 72 54 53 55 56 56
REMARK SMILES IDX 71 57 91 58 54 59 55 60 70 62 92 63 57 64 40 65 41 66 50 67
REMARK SMILES IDX 42 68 43 69 49 70 51 71 44 72 45 73 46 74 47 75 48 76 74 77
REMARK SMILES IDX 75 78 84 79 76 80 77 81 83 82 85 83 78 84 79 85 80 86 81 87
REMARK SMILES IDX 82 88 58 89 59 90 68 91 60 92 61 93 67 94 69 95 62 96 63 97
REMARK SMILES IDX 64 98 65 99 66 100
REMARK H PARENT 3 14 3 15 90 50 56 61
REMARK Flexibility Score: inf
ROOT
ATOM      1  C   UNL     1      -1.203  -4.117   2.438  1.00  0.00     0.188 C 
ENDROOT
BRANCH   1   2
ATOM      2  C   UNL     1      -2.662  -4.154   1.984  1.00  0.00     0.188 C 
BRANCH   2   3
ATOM      3  O   UNL     1      -3.128  -5.362   1.404  1.00  0.00    -0.376 OA
BRANCH   3   4
ATOM      4  C   UNL     1      -2.506  -5.830   0.208  1.00  0.00     0.202 C 
BRANCH   4   5
ATOM      5  C   UNL     1      -2.291  -4.885  -0.998  1.00  0.00     0.261 C 
BRANCH   5   6
ATOM      6  O   UNL     1      -1.335  -3.794  -0.834  1.00  0.00    -0.463 OA
BRANCH   6   7
ATOM      7  C   UNL     1      -1.888  -2.563  -0.796  1.00  0.00     0.314 C 
ATOM      8  O   UNL     1      -3.110  -2.402  -0.885  1.00  0.00    -0.252 OA
BRANCH   7   9
ATOM      9  C   UNL     1      -1.003  -1.327  -0.553  1.00  0.00     0.154 C 
ATOM     10  C   UNL     1      -1.490  -0.344  -1.649  1.00  0.00     0.026 C 
BRANCH   9  11
ATOM     11  C   UNL     1       0.545  -1.200  -0.437  1.00  0.00     0.193 C 
ATOM     12  C   UNL     1       1.303  -2.245   0.364  1.00  0.00     0.076 C 
BRANCH  11  13
ATOM     13  N   UNL     1       0.962   0.172  -0.007  1.00  0.00    -0.341 N 
ATOM     14  H   UNL     1       0.210   0.797  -0.296  1.00  0.00     0.346 HD
ATOM     15  H   UNL     1       1.884   0.248  -0.437  1.00  0.00     0.346 HD
BRANCH  13  16
ATOM     16  C   UNL     1       1.261   0.519   1.391  1.00  0.00     0.184 C 
ATOM     17  C   UNL     1       2.506   1.429   1.288  1.00  0.00     0.075 C 
BRANCH  16  18
ATOM     18  C   UNL     1       0.191   1.340   2.167  1.00  0.00     0.111 C 
BRANCH  18  19
ATOM     19  C   UNL     1      -1.037   0.586   2.587  1.00  0.00     0.010 A 
ATOM     20  C   UNL     1      -1.179  -0.345   3.598  1.00  0.00     0.015 A 
ATOM     21  S   UNL     1      -2.554   0.942   1.860  1.00  0.00    -0.149 S 
ATOM     22  C   UNL     1      -2.498  -0.886   3.653  1.00  0.00     0.012 A 
ATOM     23  C   UNL     1      -3.320  -0.338   2.695  1.00  0.00     0.065 A 
ENDBRANCH  18  19
ENDBRANCH  16  18
ENDBRANCH  13  16
ENDBRANCH  11  13
ENDBRANCH   9  11
ENDBRANCH   7   9
ENDBRANCH   6   7
ENDBRANCH   5   6
ENDBRANCH   4   5
ENDBRANCH   3   4
ENDBRANCH   2   3
ENDBRANCH   1   2
BRANCH   1  24
ATOM     24  O   UNL     1      -0.293  -4.416   1.399  1.00  0.00    -0.377 OA
BRANCH  24  25
ATOM     25  C   UNL     1       0.578  -5.537   1.468  1.00  0.00     0.188 C 
BRANCH  25  26
ATOM     26  C   UNL     1       0.604  -6.326   2.772  1.00  0.00     0.188 C 
BRANCH  26  27
ATOM     27  O   UNL     1       1.051  -5.623   3.935  1.00  0.00    -0.376 OA
BRANCH  27  28
ATOM     28  C   UNL     1       1.982  -4.557   3.765  1.00  0.00     0.202 C 
BRANCH  28  29
ATOM     29  C   UNL     1       3.444  -4.975   3.590  1.00  0.00     0.261 C 
BRANCH  29  30
ATOM     30  O   UNL     1       3.688  -5.622   2.332  1.00  0.00    -0.460 OA
BRANCH  30  31
ATOM     31  C   UNL     1       3.736  -6.977   2.369  1.00  0.00     0.338 C 
ATOM     32  O   UNL     1       3.611  -7.695   3.341  1.00  0.00    -0.246 OA
BRANCH  31  33
ATOM     33  C   UNL     1       3.805  -7.479   0.984  1.00  0.00     0.060 A 
ATOM     34  C   UNL     1       2.846  -8.403   0.548  1.00  0.00     0.016 A 
ATOM     35  C   UNL     1       4.840  -7.072   0.141  1.00  0.00     0.016 A 
ATOM     36  C   UNL     1       2.927  -8.935  -0.738  1.00  0.00     0.010 A 
ATOM     37  C   UNL     1       4.931  -7.621  -1.136  1.00  0.00     0.010 A 
ATOM     38  C   UNL     1       3.989  -8.569  -1.572  1.00  0.00    -0.014 A 
BRANCH  38  39
ATOM     39  C   UNL     1       4.218  -9.268  -2.854  1.00  0.00     0.031 A 
ATOM     40  C   UNL     1       5.257 -10.350  -2.905  1.00  0.00     0.074 A 
ATOM     41  C   UNL     1       3.541  -8.908  -3.958  1.00  0.00     0.049 A 
ATOM     42  N   UNL     1       5.744 -10.985  -3.936  1.00  0.00    -0.248 NA
ATOM     43  C   UNL     1       5.830 -10.763  -1.613  1.00  0.00     0.031 C 
ATOM     44  C   UNL     1       2.474  -7.911  -4.007  1.00  0.00     0.029 A 
ATOM     45  N   UNL     1       3.674  -9.326  -5.257  1.00  0.00    -0.354 N 
ATOM     46  C   UNL     1       6.689 -11.865  -3.424  1.00  0.00     0.074 A 
ATOM     47  C   UNL     1       6.727 -11.660  -1.992  1.00  0.00     0.031 C 
ATOM     48  C   UNL     1       2.062  -7.777  -5.279  1.00  0.00     0.029 A 
ATOM     49  C   UNL     1       2.870  -8.642  -6.136  1.00  0.00     0.049 A 
ATOM     50  H   UNL     1       4.285 -10.047  -5.533  1.00  0.00     0.167 HD
ATOM     51  C   UNL     1       7.452 -12.762  -4.091  1.00  0.00     0.037 A 
ATOM     52  C   UNL     1       2.826  -8.683  -7.483  1.00  0.00     0.037 A 
ATOM     53  C   UNL     1       7.412 -12.935  -5.520  1.00  0.00     0.049 A 
ATOM     54  C   UNL     1       3.765  -9.607  -8.216  1.00  0.00     0.074 A 
ATOM     55  C   UNL     1       8.136 -13.816  -6.302  1.00  0.00     0.029 A 
ATOM     56  N   UNL     1       6.612 -12.198  -6.383  1.00  0.00    -0.354 N 
ATOM     57  N   UNL     1       4.646 -10.447  -7.726  1.00  0.00    -0.248 NA
ATOM     58  C   UNL     1       3.712  -9.581  -9.684  1.00  0.00     0.031 C 
ATOM     59  C   UNL     1       7.819 -13.570  -7.642  1.00  0.00     0.029 A 
ATOM     60  C   UNL     1       6.851 -12.579  -7.693  1.00  0.00     0.049 A 
ATOM     61  H   UNL     1       5.970 -11.505  -6.105  1.00  0.00     0.167 HD
ATOM     62  C   UNL     1       5.232 -11.070  -8.824  1.00  0.00     0.074 A 
ATOM     63  C   UNL     1       4.598 -10.515 -10.003  1.00  0.00     0.031 C 
ATOM     64  C   UNL     1       6.204 -12.016  -8.854  1.00  0.00     0.037 A 
BRANCH  51  65
ATOM     65  C   UNL     1       8.415 -13.590  -3.284  1.00  0.00     0.058 A 
ATOM     66  C   UNL     1       7.974 -14.575  -2.385  1.00  0.00     0.135 A 
ATOM     67  C   UNL     1       9.801 -13.399  -3.414  1.00  0.00     0.135 A 
ATOM     68  F   UNL     1       6.660 -14.789  -2.207  1.00  0.00    -0.206 F 
ATOM     69  C   UNL     1       8.869 -15.312  -1.615  1.00  0.00     0.059 A 
ATOM     70  C   UNL     1      10.715 -14.148  -2.678  1.00  0.00     0.059 A 
ATOM     71  F   UNL     1      10.280 -12.471  -4.256  1.00  0.00    -0.206 F 
ATOM     72  C   UNL     1      10.238 -15.088  -1.767  1.00  0.00     0.060 A 
BRANCH  72  73
ATOM     73  S   UNL     1      11.383 -16.039  -0.746  1.00  0.00     0.124 S 
ATOM     74  O   UNL     1      11.154 -15.454   0.571  1.00  0.00    -0.237 OA
ATOM     75  O   UNL     1      10.900 -17.404  -0.925  1.00  0.00    -0.237 OA
ATOM     76  O   UNL     1      12.686 -15.755  -1.340  1.00  0.00    -0.744 OA
ENDBRANCH  72  73
ENDBRANCH  51  65
BRANCH  52  77
ATOM     77  C   UNL     1       1.870  -7.816  -8.222  1.00  0.00     0.058 A 
ATOM     78  C   UNL     1       0.785  -8.373  -8.913  1.00  0.00     0.135 A 
ATOM     79  C   UNL     1       2.008  -6.418  -8.239  1.00  0.00     0.135 A 
ATOM     80  F   UNL     1       0.617  -9.704  -8.937  1.00  0.00    -0.206 F 
ATOM     81  C   UNL     1      -0.128  -7.579  -9.599  1.00  0.00     0.059 A 
ATOM     82  C   UNL     1       1.093  -5.601  -8.895  1.00  0.00     0.059 A 
ATOM     83  F   UNL     1       3.025  -5.834  -7.587  1.00  0.00    -0.206 F 
ATOM     84  C   UNL     1       0.030  -6.192  -9.578  1.00  0.00     0.060 A 
BRANCH  84  85
ATOM     85  S   UNL     1      -1.198  -5.171 -10.420  1.00  0.00     0.124 S 
ATOM     86  O   UNL     1      -0.916  -5.466 -11.820  1.00  0.00    -0.237 OA
ATOM     87  O   UNL     1      -2.449  -5.707  -9.893  1.00  0.00    -0.237 OA
ATOM     88  O   UNL     1      -0.870  -3.818  -9.981  1.00  0.00    -0.744 OA
ENDBRANCH  84  85
ENDBRANCH  52  77
BRANCH  64  89
ATOM     89  C   UNL     1       6.630 -12.537 -10.200  1.00  0.00     0.058 A 
ATOM     90  C   UNL     1       7.407 -11.764 -11.077  1.00  0.00     0.135 A 
ATOM     91  C   UNL     1       6.332 -13.857 -10.577  1.00  0.00     0.135 A 
ATOM     92  F   UNL     1       7.711 -10.493 -10.771  1.00  0.00    -0.206 F 
ATOM     93  C   UNL     1       7.868 -12.280 -12.284  1.00  0.00     0.059 A 
ATOM     94  C   UNL     1       6.808 -14.403 -11.765  1.00  0.00     0.059 A 
ATOM     95  F   UNL     1       5.599 -14.641  -9.771  1.00  0.00    -0.206 F 
ATOM     96  C   UNL     1       7.572 -13.605 -12.614  1.00  0.00     0.060 A 
BRANCH  96  97
ATOM     97  S   UNL     1       8.238 -14.280 -14.150  1.00  0.00     0.124 S 
ATOM     98  O   UNL     1       7.447 -13.572 -15.152  1.00  0.00    -0.237 OA
ATOM     99  O   UNL     1       9.646 -13.902 -14.070  1.00  0.00    -0.237 OA
ATOM    100  O   UNL     1       7.973 -15.711 -14.037  1.00  0.00    -0.744 OA
ENDBRANCH  96  97
ENDBRANCH  64  89
ENDBRANCH  38  39
ENDBRANCH  31  33
ENDBRANCH  30  31
ENDBRANCH  29  30
ENDBRANCH  28  29
ENDBRANCH  27  28
ENDBRANCH  26  27
ENDBRANCH  25  26
ENDBRANCH  24  25
ENDBRANCH   1  24
TORSDOF 28
