REMARK SMILES COc1cccc(-c2nn(-c3cc4c(cc3C(N)=O)OCO4)cc2C(=O)OCCOCCOCCOCCOC(=O)c2ccc(-c3c4nc(c(-c5c(F)cc(S(=O)(=O)[O-])cc5F)c5ccc([nH]5)c(-c5c(F)cc(S(=O)(=O)[O-])cc5F)c5nc(c(-c6c(F)cc(S(=O)(=O)[O-])cc6F)c6ccc3[nH]6)C=C5)C=C4)cc2)c1
REMARK SMILES IDX 34 1 33 2 32 3 31 4 30 5 29 6 28 7 27 8 25 9 26 10 24 11
REMARK SMILES IDX 8 12 9 13 10 14 23 15 7 16 3 17 4 18 108 19 5 20 6 21 2 22
REMARK SMILES IDX 1 23 11 24 12 25 16 26 13 27 15 28 14 29 22 30 20 31 21 32
REMARK SMILES IDX 17 33 18 34 19 35 35 38 36 39 37 40 38 41 39 42 40 43 41 44
REMARK SMILES IDX 42 45 43 46 107 47 44 48 106 49 45 50 46 51 47 52 100 53
REMARK SMILES IDX 48 54 105 55 99 56 101 57 49 58 104 59 98 60 97 61 50 63
REMARK SMILES IDX 84 64 63 65 83 66 64 67 67 68 82 69 102 70 65 71 66 72 81 74
REMARK SMILES IDX 103 75 68 76 51 77 52 78 61 79 53 80 54 81 60 82 62 83 55 84
REMARK SMILES IDX 56 85 57 86 58 87 59 88 85 89 86 90 95 91 87 92 88 93 94 94
REMARK SMILES IDX 96 95 89 96 90 97 91 98 92 99 93 100 69 101 70 102 79 103
REMARK SMILES IDX 71 104 72 105 78 106 80 107 73 108 74 109 75 110 76 111
REMARK SMILES IDX 77 112
REMARK H PARENT 18 36 18 37 101 62 67 73
REMARK Flexibility Score: inf
ROOT
ATOM      1  C   UNL     1       3.510   8.884   4.608  1.00  0.00     0.188 C 
ENDROOT
BRANCH   1   2
ATOM      2  O   UNL     1       4.106   7.787   3.925  1.00  0.00    -0.377 OA
BRANCH   2   3
ATOM      3  C   UNL     1       3.411   7.212   2.838  1.00  0.00     0.188 C 
BRANCH   3   4
ATOM      4  C   UNL     1       2.166   6.375   3.207  1.00  0.00     0.188 C 
BRANCH   4   5
ATOM      5  O   UNL     1       1.664   6.474   4.522  1.00  0.00    -0.376 OA
BRANCH   5   6
ATOM      6  C   UNL     1       2.286   5.869   5.635  1.00  0.00     0.202 C 
BRANCH   6   7
ATOM      7  C   UNL     1       3.533   4.969   5.619  1.00  0.00     0.261 C 
BRANCH   7   8
ATOM      8  O   UNL     1       4.281   4.872   4.416  1.00  0.00    -0.460 OA
BRANCH   8   9
ATOM      9  C   UNL     1       3.917   3.891   3.545  1.00  0.00     0.342 C 
ATOM     10  O   UNL     1       3.026   3.070   3.745  1.00  0.00    -0.246 OA
BRANCH   9  11
ATOM     11  C   UNL     1       4.634   4.018   2.300  1.00  0.00     0.106 A 
ATOM     12  C   UNL     1       4.199   3.892   0.950  1.00  0.00     0.107 A 
ATOM     13  N   UNL     1       5.231   4.031   0.096  1.00  0.00    -0.167 NA
ATOM     14  N   UNL     1       6.312   4.059   0.917  1.00  0.00    -0.239 N 
ATOM     15  C   UNL     1       5.948   4.418   2.186  1.00  0.00     0.131 A 
BRANCH  12  16
ATOM     16  C   UNL     1       2.827   3.744   0.478  1.00  0.00     0.007 A 
ATOM     17  C   UNL     1       0.922   2.332  -0.019  1.00  0.00     0.119 A 
ATOM     18  C   UNL     1       0.142   3.474  -0.229  1.00  0.00     0.046 A 
ATOM     19  C   UNL     1       2.261   2.470   0.353  1.00  0.00     0.056 A 
ATOM     20  C   UNL     1       0.699   4.746  -0.113  1.00  0.00     0.005 A 
ATOM     21  C   UNL     1       2.049   4.879   0.209  1.00  0.00     0.011 A 
BRANCH  17  22
ATOM     22  O   UNL     1       0.261   1.152  -0.225  1.00  0.00    -0.497 OA
ATOM     23  C   UNL     1       0.944  -0.038   0.143  1.00  0.00     0.278 C 
ENDBRANCH  17  22
ENDBRANCH  12  16
BRANCH  14  24
ATOM     24  C   UNL     1       7.626   3.785   0.473  1.00  0.00     0.081 A 
ATOM     25  C   UNL     1       7.963   4.131  -0.849  1.00  0.00     0.079 A 
ATOM     26  C   UNL     1       8.587   3.176   1.341  1.00  0.00     0.069 A 
ATOM     27  C   UNL     1       9.266   3.927  -1.242  1.00  0.00     0.167 A 
ATOM     28  C   UNL     1       9.927   3.116   0.931  1.00  0.00     0.066 A 
ATOM     29  C   UNL     1      10.221   3.469  -0.365  1.00  0.00     0.166 A 
ATOM     30  O   UNL     1       9.773   4.112  -2.490  1.00  0.00    -0.454 OA
ATOM     31  O   UNL     1      11.440   3.319  -0.950  1.00  0.00    -0.454 OA
ATOM     32  C   UNL     1      11.086   3.534  -2.331  1.00  0.00     0.468 C 
BRANCH  26  33
ATOM     33  C   UNL     1       8.172   2.341   2.529  1.00  0.00     0.251 C 
ATOM     34  N   UNL     1       9.131   1.755   3.307  1.00  0.00    -0.366 N 
ATOM     35  O   UNL     1       7.008   2.065   2.790  1.00  0.00    -0.269 OA
ATOM     36  H   UNL     1      10.083   1.944   3.139  1.00  0.00     0.159 HD
ATOM     37  H   UNL     1       8.870   1.145   4.034  1.00  0.00     0.159 HD
ENDBRANCH  26  33
ENDBRANCH  14  24
ENDBRANCH   9  11
ENDBRANCH   8   9
ENDBRANCH   7   8
ENDBRANCH   6   7
ENDBRANCH   5   6
ENDBRANCH   4   5
ENDBRANCH   3   4
ENDBRANCH   2   3
ENDBRANCH   1   2
BRANCH   1  38
ATOM     38  C   UNL     1       2.046   9.356   4.365  1.00  0.00     0.188 C 
BRANCH  38  39
ATOM     39  O   UNL     1       1.420   8.901   3.177  1.00  0.00    -0.376 OA
BRANCH  39  40
ATOM     40  C   UNL     1       1.152   9.702   2.043  1.00  0.00     0.202 C 
BRANCH  40  41
ATOM     41  C   UNL     1       2.313  10.349   1.295  1.00  0.00     0.261 C 
BRANCH  41  42
ATOM     42  O   UNL     1       3.376  10.713   2.144  1.00  0.00    -0.460 OA
BRANCH  42  43
ATOM     43  C   UNL     1       3.097  11.765   2.934  1.00  0.00     0.338 C 
ATOM     44  O   UNL     1       2.017  12.311   3.081  1.00  0.00    -0.246 OA
BRANCH  43  45
ATOM     45  C   UNL     1       4.356  12.221   3.525  1.00  0.00     0.060 A 
ATOM     46  C   UNL     1       4.237  13.348   4.332  1.00  0.00     0.016 A 
ATOM     47  C   UNL     1       5.547  11.858   2.877  1.00  0.00     0.016 A 
ATOM     48  C   UNL     1       5.182  14.320   4.160  1.00  0.00     0.010 A 
ATOM     49  C   UNL     1       6.479  12.837   2.692  1.00  0.00     0.010 A 
ATOM     50  C   UNL     1       6.203  14.086   3.232  1.00  0.00    -0.014 A 
BRANCH  50  51
ATOM     51  C   UNL     1       7.038  15.199   2.874  1.00  0.00     0.031 A 
ATOM     52  C   UNL     1       7.986  15.512   3.954  1.00  0.00     0.074 A 
ATOM     53  C   UNL     1       6.965  15.788   1.668  1.00  0.00     0.049 A 
ATOM     54  N   UNL     1       7.919  16.493   4.789  1.00  0.00    -0.248 NA
ATOM     55  C   UNL     1       8.955  14.466   4.323  1.00  0.00     0.031 C 
ATOM     56  C   UNL     1       6.228  15.363   0.475  1.00  0.00     0.029 A 
ATOM     57  N   UNL     1       7.647  16.875   1.232  1.00  0.00    -0.354 N 
ATOM     58  C   UNL     1       9.020  16.325   5.615  1.00  0.00     0.074 A 
ATOM     59  C   UNL     1       9.442  14.959   5.461  1.00  0.00     0.031 C 
ATOM     60  C   UNL     1       6.697  16.042  -0.600  1.00  0.00     0.029 A 
ATOM     61  C   UNL     1       7.662  17.028  -0.150  1.00  0.00     0.049 A 
ATOM     62  H   UNL     1       8.095  17.504   1.843  1.00  0.00     0.167 HD
ATOM     63  C   UNL     1       9.691  17.404   6.096  1.00  0.00     0.037 A 
ATOM     64  C   UNL     1       8.519  17.840  -0.824  1.00  0.00     0.037 A 
ATOM     65  C   UNL     1       8.885  18.598   6.021  1.00  0.00     0.049 A 
ATOM     66  C   UNL     1       9.012  18.849   0.163  1.00  0.00     0.074 A 
ATOM     67  C   UNL     1       7.648  18.957   6.525  1.00  0.00     0.029 A 
ATOM     68  N   UNL     1       9.144  19.483   5.000  1.00  0.00    -0.354 N 
ATOM     69  N   UNL     1       8.241  19.750   0.717  1.00  0.00    -0.248 NA
ATOM     70  C   UNL     1      10.219  18.523   0.913  1.00  0.00     0.031 C 
ATOM     71  C   UNL     1       7.027  19.708   5.485  1.00  0.00     0.029 A 
ATOM     72  C   UNL     1       7.941  19.830   4.437  1.00  0.00     0.049 A 
ATOM     73  H   UNL     1      10.031  19.809   4.723  1.00  0.00     0.167 HD
ATOM     74  C   UNL     1       8.637  19.796   2.048  1.00  0.00     0.074 A 
ATOM     75  C   UNL     1       9.897  19.056   2.096  1.00  0.00     0.031 C 
ATOM     76  C   UNL     1       7.771  20.166   3.039  1.00  0.00     0.037 A 
BRANCH  63  77
ATOM     77  C   UNL     1      11.191  17.431   6.230  1.00  0.00     0.058 A 
ATOM     78  C   UNL     1      11.793  18.502   6.913  1.00  0.00     0.135 A 
ATOM     79  C   UNL     1      12.069  16.603   5.490  1.00  0.00     0.135 A 
ATOM     80  F   UNL     1      11.050  19.357   7.632  1.00  0.00    -0.206 F 
ATOM     81  C   UNL     1      13.158  18.769   6.814  1.00  0.00     0.059 A 
ATOM     82  C   UNL     1      13.437  16.814   5.429  1.00  0.00     0.059 A 
ATOM     83  F   UNL     1      11.641  15.610   4.703  1.00  0.00    -0.206 F 
ATOM     84  C   UNL     1      13.968  17.924   6.059  1.00  0.00     0.060 A 
BRANCH  84  85
ATOM     85  S   UNL     1      15.708  18.320   5.844  1.00  0.00     0.124 S 
ATOM     86  O   UNL     1      15.631  19.516   5.014  1.00  0.00    -0.237 OA
ATOM     87  O   UNL     1      16.142  18.520   7.222  1.00  0.00    -0.237 OA
ATOM     88  O   UNL     1      16.244  17.129   5.191  1.00  0.00    -0.744 OA
ENDBRANCH  84  85
ENDBRANCH  63  77
BRANCH  64  89
ATOM     89  C   UNL     1       9.246  17.525  -2.087  1.00  0.00     0.058 A 
ATOM     90  C   UNL     1       9.979  18.514  -2.770  1.00  0.00     0.135 A 
ATOM     91  C   UNL     1       9.474  16.195  -2.499  1.00  0.00     0.135 A 
ATOM     92  F   UNL     1       9.843  19.805  -2.433  1.00  0.00    -0.206 F 
ATOM     93  C   UNL     1      10.915  18.200  -3.764  1.00  0.00     0.059 A 
ATOM     94  C   UNL     1      10.393  15.860  -3.493  1.00  0.00     0.059 A 
ATOM     95  F   UNL     1       8.878  15.164  -1.884  1.00  0.00    -0.206 F 
ATOM     96  C   UNL     1      11.131  16.864  -4.103  1.00  0.00     0.060 A 
BRANCH  96  97
ATOM     97  S   UNL     1      12.462  16.434  -5.251  1.00  0.00     0.124 S 
ATOM     98  O   UNL     1      11.945  16.939  -6.518  1.00  0.00    -0.237 OA
ATOM     99  O   UNL     1      13.599  17.158  -4.692  1.00  0.00    -0.237 OA
ATOM    100  O   UNL     1      12.543  14.979  -5.146  1.00  0.00    -0.744 OA
ENDBRANCH  96  97
ENDBRANCH  64  89
BRANCH  76 101
ATOM    101  C   UNL     1       6.447  20.774   2.648  1.00  0.00     0.058 A 
ATOM    102  C   UNL     1       5.436  20.099   1.939  1.00  0.00     0.135 A 
ATOM    103  C   UNL     1       6.128  22.040   3.161  1.00  0.00     0.135 A 
ATOM    104  F   UNL     1       5.621  18.843   1.507  1.00  0.00    -0.206 F 
ATOM    105  C   UNL     1       4.181  20.674   1.717  1.00  0.00     0.059 A 
ATOM    106  C   UNL     1       4.876  22.619   2.979  1.00  0.00     0.059 A 
ATOM    107  F   UNL     1       7.027  22.709   3.902  1.00  0.00    -0.206 F 
ATOM    108  C   UNL     1       3.911  21.937   2.244  1.00  0.00     0.060 A 
BRANCH 108 109
ATOM    109  S   UNL     1       2.269  22.658   2.017  1.00  0.00     0.124 S 
ATOM    110  O   UNL     1       2.264  22.965   0.591  1.00  0.00    -0.237 OA
ATOM    111  O   UNL     1       1.386  21.574   2.437  1.00  0.00    -0.237 OA
ATOM    112  O   UNL     1       2.281  23.819   2.904  1.00  0.00    -0.744 OA
ENDBRANCH 108 109
ENDBRANCH  76 101
ENDBRANCH  50  51
ENDBRANCH  43  45
ENDBRANCH  42  43
ENDBRANCH  41  42
ENDBRANCH  40  41
ENDBRANCH  39  40
ENDBRANCH  38  39
ENDBRANCH   1  38
TORSDOF 27
