REMARK SMILES CC(C)(C)OC(=O)N[C@H](Cc1ccc(N=[N+]=[N-])cc1)C(=O)OCCOCCOCCOCCOC(=O)c1ccc(-c2c3nc(c(-c4c(F)cc(S(=O)(=O)[O-])cc4F)c4ccc([nH]4)c(-c4c(F)cc(S(=O)(=O)[O-])cc4F)c4nc(c(-c5c(F)cc(S(=O)(=O)[O-])cc5F)c5ccc2[nH]5)C=C4)C=C3)cc1
REMARK SMILES IDX 28 1 27 2 26 3 25 4 24 5 23 6 22 7 20 8 21 9 9 10 8 11 6 12
REMARK SMILES IDX 7 13 5 15 2 16 1 17 3 18 4 19 10 20 11 21 12 22 19 23 13 24
REMARK SMILES IDX 18 25 14 26 15 27 16 28 17 29 29 30 30 31 31 32 32 33 33 34
REMARK SMILES IDX 34 35 35 36 36 37 37 38 38 39 102 40 39 41 101 42 40 43
REMARK SMILES IDX 41 44 42 45 95 46 43 47 100 48 94 49 96 50 44 51 99 52 93 53
REMARK SMILES IDX 92 54 45 56 79 57 58 58 78 59 59 60 62 61 77 62 97 63 60 64
REMARK SMILES IDX 61 65 76 67 98 68 63 69 46 70 47 71 56 72 48 73 49 74 55 75
REMARK SMILES IDX 57 76 50 77 51 78 52 79 53 80 54 81 80 82 81 83 90 84 82 85
REMARK SMILES IDX 83 86 89 87 91 88 84 89 85 90 86 91 87 92 88 93 64 94 65 95
REMARK SMILES IDX 74 96 66 97 67 98 73 99 75 100 68 101 69 102 70 103 71 104
REMARK SMILES IDX 72 105
REMARK H PARENT 8 14 96 55 62 66
REMARK Flexibility Score: inf
ROOT
ATOM      1  O   UNL     1      -2.090  -5.325   2.608  1.00  0.00    -0.377 OA
ENDROOT
BRANCH   1   2
ATOM      2  C   UNL     1      -0.938  -5.069   1.837  1.00  0.00     0.188 C 
BRANCH   2   3
ATOM      3  C   UNL     1      -0.784  -5.541   0.385  1.00  0.00     0.188 C 
BRANCH   3   4
ATOM      4  O   UNL     1      -0.849  -6.913   0.060  1.00  0.00    -0.376 OA
BRANCH   4   5
ATOM      5  C   UNL     1      -0.151  -7.992   0.640  1.00  0.00     0.202 C 
BRANCH   5   6
ATOM      6  C   UNL     1       1.061  -7.979   1.590  1.00  0.00     0.261 C 
BRANCH   6   7
ATOM      7  O   UNL     1       1.515  -6.782   2.210  1.00  0.00    -0.462 OA
BRANCH   7   8
ATOM      8  C   UNL     1       2.131  -5.882   1.403  1.00  0.00     0.329 C 
ATOM      9  O   UNL     1       2.160  -5.962   0.181  1.00  0.00    -0.250 OA
BRANCH   8  10
ATOM     10  C   UNL     1       2.857  -4.780   2.205  1.00  0.00     0.199 C 
BRANCH  10  11
ATOM     11  N   UNL     1       4.082  -5.303   2.808  1.00  0.00    -0.308 N 
ATOM     12  C   UNL     1       5.052  -5.983   2.127  1.00  0.00     0.408 C 
ATOM     13  O   UNL     1       6.144  -6.215   2.619  1.00  0.00    -0.225 OA
ATOM     14  H   UNL     1       4.217  -5.156   3.772  1.00  0.00     0.168 HD
BRANCH  12  15
ATOM     15  O   UNL     1       4.612  -6.408   0.926  1.00  0.00    -0.444 OA
BRANCH  15  16
ATOM     16  C   UNL     1       5.243  -7.477   0.185  1.00  0.00     0.106 C 
ATOM     17  C   UNL     1       4.301  -7.795  -0.993  1.00  0.00     0.056 C 
ATOM     18  C   UNL     1       5.354  -8.734   1.053  1.00  0.00     0.056 C 
ATOM     19  C   UNL     1       6.578  -7.003  -0.378  1.00  0.00     0.056 C 
ENDBRANCH  15  16
ENDBRANCH  12  15
ENDBRANCH  10  11
BRANCH  10  20
ATOM     20  C   UNL     1       1.899  -4.150   3.237  1.00  0.00     0.072 C 
BRANCH  20  21
ATOM     21  C   UNL     1       2.490  -3.233   4.273  1.00  0.00    -0.045 A 
ATOM     22  C   UNL     1       2.392  -3.574   5.629  1.00  0.00     0.004 A 
ATOM     23  C   UNL     1       3.080  -2.019   3.918  1.00  0.00     0.004 A 
ATOM     24  C   UNL     1       2.903  -2.727   6.611  1.00  0.00     0.010 A 
ATOM     25  C   UNL     1       3.585  -1.171   4.909  1.00  0.00     0.010 A 
ATOM     26  C   UNL     1       3.519  -1.521   6.267  1.00  0.00     0.038 A 
BRANCH  26  27
ATOM     27  N   UNL     1       3.982  -0.707   7.316  1.00  0.00    -0.061 NA
ATOM     28  N   UNL     1       4.952   0.013   7.037  1.00  0.00     0.005 N 
ATOM     29  N   UNL     1       5.838   0.693   6.783  1.00  0.00    -0.003 NA
ENDBRANCH  26  27
ENDBRANCH  20  21
ENDBRANCH  10  20
ENDBRANCH   8  10
ENDBRANCH   7   8
ENDBRANCH   6   7
ENDBRANCH   5   6
ENDBRANCH   4   5
ENDBRANCH   3   4
ENDBRANCH   2   3
ENDBRANCH   1   2
BRANCH   1  30
ATOM     30  C   UNL     1      -2.567  -6.655   2.559  1.00  0.00     0.188 C 
BRANCH  30  31
ATOM     31  C   UNL     1      -3.579  -6.825   1.422  1.00  0.00     0.188 C 
BRANCH  31  32
ATOM     32  O   UNL     1      -3.602  -5.716   0.537  1.00  0.00    -0.376 OA
BRANCH  32  33
ATOM     33  C   UNL     1      -4.398  -4.577   0.842  1.00  0.00     0.202 C 
BRANCH  33  34
ATOM     34  C   UNL     1      -4.484  -3.929   2.245  1.00  0.00     0.261 C 
BRANCH  34  35
ATOM     35  O   UNL     1      -4.648  -4.779   3.390  1.00  0.00    -0.460 OA
BRANCH  35  36
ATOM     36  C   UNL     1      -5.737  -5.570   3.441  1.00  0.00     0.338 C 
ATOM     37  O   UNL     1      -6.654  -5.602   2.641  1.00  0.00    -0.246 OA
BRANCH  36  38
ATOM     38  C   UNL     1      -5.511  -6.565   4.517  1.00  0.00     0.060 A 
ATOM     39  C   UNL     1      -5.571  -7.925   4.183  1.00  0.00     0.016 A 
ATOM     40  C   UNL     1      -5.217  -6.174   5.828  1.00  0.00     0.016 A 
ATOM     41  C   UNL     1      -5.396  -8.895   5.165  1.00  0.00     0.010 A 
ATOM     42  C   UNL     1      -5.079  -7.150   6.822  1.00  0.00     0.010 A 
ATOM     43  C   UNL     1      -5.223  -8.511   6.500  1.00  0.00    -0.014 A 
BRANCH  43  44
ATOM     44  C   UNL     1      -5.496  -9.525   7.547  1.00  0.00     0.031 A 
ATOM     45  C   UNL     1      -6.887  -9.572   8.126  1.00  0.00     0.074 A 
ATOM     46  C   UNL     1      -4.584 -10.452   7.890  1.00  0.00     0.049 A 
ATOM     47  N   UNL     1      -7.403 -10.407   8.988  1.00  0.00    -0.248 NA
ATOM     48  C   UNL     1      -7.825  -8.536   7.659  1.00  0.00     0.031 C 
ATOM     49  C   UNL     1      -3.225 -10.541   7.359  1.00  0.00     0.029 A 
ATOM     50  N   UNL     1      -4.676 -11.507   8.763  1.00  0.00    -0.354 N 
ATOM     51  C   UNL     1      -8.721  -9.999   9.165  1.00  0.00     0.074 A 
ATOM     52  C   UNL     1      -8.914  -8.818   8.356  1.00  0.00     0.031 C 
ATOM     53  C   UNL     1      -2.608 -11.597   7.920  1.00  0.00     0.029 A 
ATOM     54  C   UNL     1      -3.520 -12.243   8.864  1.00  0.00     0.049 A 
ATOM     55  H   UNL     1      -5.494 -11.717   9.269  1.00  0.00     0.167 HD
ATOM     56  C   UNL     1      -9.689 -10.566   9.922  1.00  0.00     0.037 A 
ATOM     57  C   UNL     1      -3.233 -13.310   9.637  1.00  0.00     0.037 A 
ATOM     58  C   UNL     1      -9.489 -11.740  10.730  1.00  0.00     0.049 A 
ATOM     59  C   UNL     1      -4.309 -13.886  10.524  1.00  0.00     0.074 A 
ATOM     60  C   UNL     1     -10.403 -12.395  11.536  1.00  0.00     0.029 A 
ATOM     61  N   UNL     1      -8.291 -12.430  10.841  1.00  0.00    -0.354 N 
ATOM     62  N   UNL     1      -5.555 -13.499  10.673  1.00  0.00    -0.248 NA
ATOM     63  C   UNL     1      -3.944 -15.055  11.335  1.00  0.00     0.031 C 
ATOM     64  C   UNL     1      -9.741 -13.445  12.181  1.00  0.00     0.029 A 
ATOM     65  C   UNL     1      -8.435 -13.491  11.720  1.00  0.00     0.049 A 
ATOM     66  H   UNL     1      -7.460 -12.200  10.366  1.00  0.00     0.167 HD
ATOM     67  C   UNL     1      -6.132 -14.401  11.564  1.00  0.00     0.074 A 
ATOM     68  C   UNL     1      -5.101 -15.358  11.908  1.00  0.00     0.031 C 
ATOM     69  C   UNL     1      -7.400 -14.440  12.049  1.00  0.00     0.037 A 
BRANCH  56  70
ATOM     70  C   UNL     1     -11.038  -9.899   9.938  1.00  0.00     0.058 A 
ATOM     71  C   UNL     1     -11.884  -9.899   8.817  1.00  0.00     0.135 A 
ATOM     72  C   UNL     1     -11.499  -9.266  11.104  1.00  0.00     0.135 A 
ATOM     73  F   UNL     1     -11.485 -10.467   7.668  1.00  0.00    -0.206 F 
ATOM     74  C   UNL     1     -13.127  -9.273   8.842  1.00  0.00     0.059 A 
ATOM     75  C   UNL     1     -12.752  -8.662  11.162  1.00  0.00     0.059 A 
ATOM     76  F   UNL     1     -10.729  -9.227  12.202  1.00  0.00    -0.206 F 
ATOM     77  C   UNL     1     -13.553  -8.660  10.022  1.00  0.00     0.060 A 
BRANCH  77  78
ATOM     78  S   UNL     1     -15.172  -7.864  10.043  1.00  0.00     0.124 S 
ATOM     79  O   UNL     1     -14.937  -6.699   9.194  1.00  0.00    -0.237 OA
ATOM     80  O   UNL     1     -16.034  -8.897   9.477  1.00  0.00    -0.237 OA
ATOM     81  O   UNL     1     -15.391  -7.574  11.457  1.00  0.00    -0.744 OA
ENDBRANCH  77  78
ENDBRANCH  56  70
BRANCH  57  82
ATOM     82  C   UNL     1      -1.869 -13.907   9.612  1.00  0.00     0.058 A 
ATOM     83  C   UNL     1      -1.642 -15.197   9.109  1.00  0.00     0.135 A 
ATOM     84  C   UNL     1      -0.763 -13.198  10.109  1.00  0.00     0.135 A 
ATOM     85  F   UNL     1      -2.666 -15.922   8.633  1.00  0.00    -0.206 F 
ATOM     86  C   UNL     1      -0.374 -15.771   9.117  1.00  0.00     0.059 A 
ATOM     87  C   UNL     1       0.519 -13.739  10.099  1.00  0.00     0.059 A 
ATOM     88  F   UNL     1      -0.922 -11.957  10.593  1.00  0.00    -0.206 F 
ATOM     89  C   UNL     1       0.702 -15.031   9.610  1.00  0.00     0.060 A 
BRANCH  89  90
ATOM     90  S   UNL     1       2.351 -15.766   9.569  1.00  0.00     0.124 S 
ATOM     91  O   UNL     1       2.243 -16.792  10.599  1.00  0.00    -0.237 OA
ATOM     92  O   UNL     1       2.435 -16.245   8.193  1.00  0.00    -0.237 OA
ATOM     93  O   UNL     1       3.227 -14.642   9.887  1.00  0.00    -0.744 OA
ENDBRANCH  89  90
ENDBRANCH  57  82
BRANCH  69  94
ATOM     94  C   UNL     1      -7.760 -15.588  12.956  1.00  0.00     0.058 A 
ATOM     95  C   UNL     1      -7.222 -15.723  14.246  1.00  0.00     0.135 A 
ATOM     96  C   UNL     1      -8.675 -16.565  12.527  1.00  0.00     0.135 A 
ATOM     97  F   UNL     1      -6.346 -14.818  14.711  1.00  0.00    -0.206 F 
ATOM     98  C   UNL     1      -7.531 -16.814  15.053  1.00  0.00     0.059 A 
ATOM     99  C   UNL     1      -9.029 -17.643  13.332  1.00  0.00     0.059 A 
ATOM    100  F   UNL     1      -9.238 -16.478  11.311  1.00  0.00    -0.206 F 
ATOM    101  C   UNL     1      -8.431 -17.772  14.584  1.00  0.00     0.060 A 
BRANCH 101 102
ATOM    102  S   UNL     1      -8.809 -19.193  15.631  1.00  0.00     0.124 S 
ATOM    103  O   UNL     1      -7.575 -19.966  15.531  1.00  0.00    -0.237 OA
ATOM    104  O   UNL     1      -9.064 -18.569  16.925  1.00  0.00    -0.237 OA
ATOM    105  O   UNL     1      -9.976 -19.789  14.988  1.00  0.00    -0.744 OA
ENDBRANCH 101 102
ENDBRANCH  69  94
ENDBRANCH  43  44
ENDBRANCH  36  38
ENDBRANCH  35  36
ENDBRANCH  34  35
ENDBRANCH  33  34
ENDBRANCH  32  33
ENDBRANCH  31  32
ENDBRANCH  30  31
ENDBRANCH   1  30
TORSDOF 29
